new loadshape.ccurvaUGBT npts=24,interval=1.0,mult=[0.0001,0.0001,0.0001,0.0001,0.0001,0.0001,0.17,0.47,0.7,0.9,1,1,0.93,0.8,0.53,0.33,0.2,0.13,0.0001,0.0001,0.0001,0.0001,0.0001,0.0001]
new generator.3000365336 bus1=1002169126.1.2.0,Phases=2,kv=0.22,kW=2.11682,pf=1,model=1,daily=ccurvaUGBT,status=Variable
new generator.3000365355 bus1=1002153355.1.2.0,Phases=2,kv=0.22,kW=0.61709,pf=1,model=1,daily=ccurvaUGBT,status=Variable
new generator.3000365359 bus1=1002153222.1.2.0,Phases=2,kv=0.22,kW=2.1888,pf=1,model=1,daily=ccurvaUGBT,status=Variable
new generator.3000365368 bus1=1002169196.1.2.0,Phases=2,kv=0.22,kW=7.11908,pf=1,model=1,daily=ccurvaUGBT,status=Variable
new generator.3000365369 bus1=1002165570.1.2.0,Phases=2,kv=0.22,kW=3.31881,pf=1,model=1,daily=ccurvaUGBT,status=Variable
new generator.3002340916 bus1=1000512177.1.2.0,Phases=2,kv=0.22,kW=1.47546,pf=1,model=1,daily=ccurvaUGBT,status=Variable
new generator.3002342094 bus1=1002062614.1.2.0,Phases=2,kv=0.22,kW=3.2036,pf=1,model=1,daily=ccurvaUGBT,status=Variable
new generator.3003071906 bus1=1000505016.1.2.0,Phases=2,kv=0.22,kW=0.63145,pf=1,model=1,daily=ccurvaUGBT,status=Variable
new generator.3003072026 bus1=1000542802.2.3.0,Phases=2,kv=0.22,kW=0.97268,pf=1,model=1,daily=ccurvaUGBT,status=Variable
new generator.3003072056 bus1=1000535781.1.2.0,Phases=2,kv=0.22,kW=1.04265,pf=1,model=1,daily=ccurvaUGBT,status=Variable
new generator.3003072200 bus1=1000751451.1.2.3.0,Phases=3,kv=0.22,kW=4.87788,pf=1,model=1,daily=ccurvaUGBT,status=Variable
new generator.3003072211 bus1=1000769014.1.2.0,Phases=2,kv=0.22,kW=1.9728,pf=1,model=1,daily=ccurvaUGBT,status=Variable
new generator.3003072239 bus1=1000765787.1.2.0,Phases=2,kv=0.22,kW=2.22999,pf=1,model=1,daily=ccurvaUGBT,status=Variable
new generator.3003072255 bus1=1000765724.1.2.0,Phases=2,kv=0.22,kW=1.37032,pf=1,model=1,daily=ccurvaUGBT,status=Variable
new generator.3003072309 bus1=1000824125.1.2.0,Phases=2,kv=0.22,kW=0.28383,pf=1,model=1,daily=ccurvaUGBT,status=Variable
new generator.3003072321 bus1=1000711047.1.2.0,Phases=2,kv=0.22,kW=2.08258,pf=1,model=1,daily=ccurvaUGBT,status=Variable
new generator.3003072508 bus1=1000758297.2.3.0,Phases=2,kv=0.22,kW=2.85748,pf=1,model=1,daily=ccurvaUGBT,status=Variable
new generator.3003072539 bus1=1000493025.2.0,Phases=1,kv=0.127,kW=1.07231,pf=1,model=1,daily=ccurvaUGBT,status=Variable
new generator.3003072571 bus1=1000496252.1.2.0,Phases=2,kv=0.22,kW=1.49046,pf=1,model=1,daily=ccurvaUGBT,status=Variable
new generator.3003073203 bus1=1000071324.2.0,Phases=1,kv=0.127,kW=1.5403,pf=1,model=1,daily=ccurvaUGBT,status=Variable
new generator.3003073242 bus1=1000075132.2.0,Phases=1,kv=0.127,kW=1.24431,pf=1,model=1,daily=ccurvaUGBT,status=Variable
new generator.3003393832 bus1=1000625696.1.2.0,Phases=2,kv=0.22,kW=1.78253,pf=1,model=1,daily=ccurvaUGBT,status=Variable
new generator.3003397556 bus1=1000778261.2.0,Phases=1,kv=0.127,kW=1.73803,pf=1,model=1,daily=ccurvaUGBT,status=Variable
new generator.3003398708 bus1=1000625689.3.1.0,Phases=2,kv=0.22,kW=0.48663,pf=1,model=1,daily=ccurvaUGBT,status=Variable
new generator.3003422630 bus1=1000095957.1.2.0,Phases=2,kv=0.22,kW=1.52519,pf=1,model=1,daily=ccurvaUGBT,status=Variable
new generator.3003422631 bus1=1000106863.1.2.3.0,Phases=3,kv=0.22,kW=4.17279,pf=1,model=1,daily=ccurvaUGBT,status=Variable
new generator.3003622282 bus1=1000878095.1.2.3.0,Phases=3,kv=0.22,kW=1.02746,pf=1,model=1,daily=ccurvaUGBT,status=Variable
new generator.3003622301 bus1=1000068335.2.3.0,Phases=2,kv=0.22,kW=2.03739,pf=1,model=1,daily=ccurvaUGBT,status=Variable
new generator.3002713015 bus1=1000021904.3.1.0,Phases=2,kv=0.22,kW=2.83347,pf=1,model=1,daily=ccurvaUGBT,status=Variable
new generator.3002713077 bus1=1000035596.3.0,Phases=1,kv=0.127,kW=1.09751,pf=1,model=1,daily=ccurvaUGBT,status=Variable
new generator.3002713121 bus1=1000035533.2.3.0,Phases=2,kv=0.22,kW=0.93298,pf=1,model=1,daily=ccurvaUGBT,status=Variable
new generator.3002713246 bus1=1000575674.1.2.3.0,Phases=3,kv=0.22,kW=1.01412,pf=1,model=1,daily=ccurvaUGBT,status=Variable
new generator.3002713618 bus1=1000582975.1.2.0,Phases=2,kv=0.22,kW=0.48418,pf=1,model=1,daily=ccurvaUGBT,status=Variable
new generator.3002713724 bus1=1000037101.1.2.3.0,Phases=3,kv=0.22,kW=22.39593,pf=1,model=1,daily=ccurvaUGBT,status=Variable
new generator.3002713726 bus1=1000184633.1.2.0,Phases=2,kv=0.22,kW=3.12737,pf=1,model=1,daily=ccurvaUGBT,status=Variable
new generator.3002713844 bus1=1000026867.1.2.0,Phases=2,kv=0.22,kW=2.7847,pf=1,model=1,daily=ccurvaUGBT,status=Variable
new generator.3002713925 bus1=1000187475.2.3.0,Phases=2,kv=0.22,kW=0.86206,pf=1,model=1,daily=ccurvaUGBT,status=Variable
new generator.3002714010 bus1=1000571565.1.2.0,Phases=2,kv=0.22,kW=1.26821,pf=1,model=1,daily=ccurvaUGBT,status=Variable
new generator.3002714163 bus1=1000036569.2.0,Phases=1,kv=0.127,kW=0.76279,pf=1,model=1,daily=ccurvaUGBT,status=Variable
new generator.3002714224 bus1=1000025348.1.0,Phases=1,kv=0.127,kW=0.82748,pf=1,model=1,daily=ccurvaUGBT,status=Variable
new generator.3002733632 bus1=1000594567.1.0,Phases=1,kv=0.127,kW=1.32173,pf=1,model=1,daily=ccurvaUGBT,status=Variable
new generator.3002733806 bus1=1000609764.3.1.0,Phases=2,kv=0.22,kW=1.26163,pf=1,model=1,daily=ccurvaUGBT,status=Variable
new generator.3002734075 bus1=1000606026.1.2.0,Phases=2,kv=0.22,kW=0.58395,pf=1,model=1,daily=ccurvaUGBT,status=Variable
new generator.3002734135 bus1=1000598207.1.2.0,Phases=2,kv=0.22,kW=5.53217,pf=1,model=1,daily=ccurvaUGBT,status=Variable
new generator.3002734513 bus1=1000983746.1.2.0,Phases=2,kv=0.22,kW=4.0607,pf=1,model=1,daily=ccurvaUGBT,status=Variable
new generator.3002734537 bus1=1000598144.1.2.0,Phases=2,kv=0.22,kW=1.11528,pf=1,model=1,daily=ccurvaUGBT,status=Variable
new generator.3002734744 bus1=1000954661.2.0,Phases=1,kv=0.127,kW=0.81175,pf=1,model=1,daily=ccurvaUGBT,status=Variable
new generator.3002735031 bus1=1000963971.1.2.0,Phases=2,kv=0.22,kW=2.2126,pf=1,model=1,daily=ccurvaUGBT,status=Variable
new generator.3002735139 bus1=1000968675.1.2.0,Phases=2,kv=0.22,kW=1.03362,pf=1,model=1,daily=ccurvaUGBT,status=Variable
new generator.3002735169 bus1=1000955452.1.2.0,Phases=2,kv=0.22,kW=2.62685,pf=1,model=1,daily=ccurvaUGBT,status=Variable
new generator.3002735179 bus1=1000972287.1.2.0,Phases=2,kv=0.22,kW=1.10208,pf=1,model=1,daily=ccurvaUGBT,status=Variable
new generator.3002735476 bus1=1000871396.1.2.0,Phases=2,kv=0.22,kW=2.4974,pf=1,model=1,daily=ccurvaUGBT,status=Variable
new generator.3002735538 bus1=1000778114.1.2.0,Phases=2,kv=0.22,kW=1.55826,pf=1,model=1,daily=ccurvaUGBT,status=Variable
new generator.3002735648 bus1=1000785793.1.2.3.0,Phases=3,kv=0.22,kW=1.78302,pf=1,model=1,daily=ccurvaUGBT,status=Variable
new generator.3002735736 bus1=1000878060.1.2.0,Phases=2,kv=0.22,kW=1.39025,pf=1,model=1,daily=ccurvaUGBT,status=Variable
new generator.3003750920 bus1=1000796342.1.2.0,Phases=2,kv=0.22,kW=1.0458,pf=1,model=1,daily=ccurvaUGBT,status=Variable
new generator.3001257791 bus1=1000974590.1.2.0,Phases=2,kv=0.22,kW=1.18596,pf=1,model=1,daily=ccurvaUGBT,status=Variable
new generator.3002362892 bus1=1000631450.1.2.3.0,Phases=3,kv=0.22,kW=4.2031,pf=1,model=1,daily=ccurvaUGBT,status=Variable
new generator.3002362950 bus1=1000637106.1.2.3.0,Phases=3,kv=0.22,kW=5.79429,pf=1,model=1,daily=ccurvaUGBT,status=Variable
new generator.3002363550 bus1=1000594938.1.0,Phases=1,kv=0.127,kW=3.05606,pf=1,model=1,daily=ccurvaUGBT,status=Variable
new generator.3002363668 bus1=1000608588.1.2.0,Phases=2,kv=0.22,kW=0.76167,pf=1,model=1,daily=ccurvaUGBT,status=Variable
new generator.3002363764 bus1=1000627257.1.2.3.0,Phases=3,kv=0.22,kW=2.65959,pf=1,model=1,daily=ccurvaUGBT,status=Variable
new generator.3002363864 bus1=1000621405.1.2.0,Phases=2,kv=0.22,kW=1.17313,pf=1,model=1,daily=ccurvaUGBT,status=Variable
new generator.3002363880 bus1=1000621531.2.0,Phases=1,kv=0.127,kW=0.60829,pf=1,model=1,daily=ccurvaUGBT,status=Variable
new generator.3002363995 bus1=1000625899.1.2.3.0,Phases=3,kv=0.22,kW=6.10979,pf=1,model=1,daily=ccurvaUGBT,status=Variable
new generator.3002364063 bus1=1000625549.1.2.3.0,Phases=3,kv=0.22,kW=1.6902,pf=1,model=1,daily=ccurvaUGBT,status=Variable
new generator.3002364177 bus1=1000617191.1.2.3.0,Phases=3,kv=0.22,kW=0.81538,pf=1,model=1,daily=ccurvaUGBT,status=Variable
new generator.3002364539 bus1=1000624261.2.3.0,Phases=2,kv=0.22,kW=2.65472,pf=1,model=1,daily=ccurvaUGBT,status=Variable
new generator.3002364679 bus1=1006496050.1.2.3.0,Phases=3,kv=0.22,kW=2.14635,pf=1,model=1,daily=ccurvaUGBT,status=Variable
new generator.3002364698 bus1=1000624856.1.0,Phases=1,kv=0.127,kW=1.94899,pf=1,model=1,daily=ccurvaUGBT,status=Variable
new generator.3002894074 bus1=1000186649.2.3.0,Phases=2,kv=0.22,kW=0.64527,pf=1,model=1,daily=ccurvaUGBT,status=Variable
new generator.3002894154 bus1=1000103636.1.2.0,Phases=2,kv=0.22,kW=1.47745,pf=1,model=1,daily=ccurvaUGBT,status=Variable
new generator.3002894294 bus1=1000062343.1.2.0,Phases=2,kv=0.22,kW=1.6742,pf=1,model=1,daily=ccurvaUGBT,status=Variable
new generator.3002894491 bus1=1000057065.1.2.0,Phases=2,kv=0.22,kW=0.58704,pf=1,model=1,daily=ccurvaUGBT,status=Variable
new generator.3003425747 bus1=1000796398.1.2.0,Phases=2,kv=0.22,kW=1.20583,pf=1,model=1,daily=ccurvaUGBT,status=Variable
new generator.3003427208 bus1=1000190345.1.2.0,Phases=2,kv=0.22,kW=0.2325,pf=1,model=1,daily=ccurvaUGBT,status=Variable
new generator.3003433661 bus1=1000095803.1.2.0,Phases=2,kv=0.22,kW=3.66689,pf=1,model=1,daily=ccurvaUGBT,status=Variable
new generator.3003450108 bus1=1000827492.2.3.0,Phases=2,kv=0.22,kW=2.26234,pf=1,model=1,daily=ccurvaUGBT,status=Variable
new generator.3003454211 bus1=1000623106.1.2.0,Phases=2,kv=0.22,kW=0.51918,pf=1,model=1,daily=ccurvaUGBT,status=Variable
new generator.3003455835 bus1=1011192703.1.2.3.0,Phases=3,kv=0.22,kW=4.64915,pf=1,model=1,daily=ccurvaUGBT,status=Variable
new generator.3003699274 bus1=1000752739.3.0,Phases=1,kv=0.127,kW=1.73709,pf=1,model=1,daily=ccurvaUGBT,status=Variable
new generator.3003715230 bus1=1000945015.3.0,Phases=1,kv=0.127,kW=1.74982,pf=1,model=1,daily=ccurvaUGBT,status=Variable
new generator.3003723176 bus1=1001867391.1.0,Phases=1,kv=0.127,kW=1.20489,pf=1,model=1,daily=ccurvaUGBT,status=Variable
new generator.3003967763 bus1=1000764219.1.2.0,Phases=2,kv=0.22,kW=7.01973,pf=1,model=1,daily=ccurvaUGBT,status=Variable
new generator.3001623071 bus1=1000692777.2.0,Phases=1,kv=0.127,kW=5.09573,pf=1,model=1,daily=ccurvaUGBT,status=Variable
new generator.3001623121 bus1=1000707561.1.2.0,Phases=2,kv=0.22,kW=0.94541,pf=1,model=1,daily=ccurvaUGBT,status=Variable
new generator.3001623696 bus1=1000825329.1.2.3.0,Phases=3,kv=0.22,kW=1.6984,pf=1,model=1,daily=ccurvaUGBT,status=Variable
new generator.3001623768 bus1=1000702073.1.0,Phases=1,kv=0.127,kW=0.54707,pf=1,model=1,daily=ccurvaUGBT,status=Variable
new generator.3002163368 bus1=1000107381.1.2.0,Phases=2,kv=0.22,kW=2.51026,pf=1,model=1,daily=ccurvaUGBT,status=Variable
new generator.3002163379 bus1=1000103762.1.2.3.0,Phases=3,kv=0.22,kW=1.87908,pf=1,model=1,daily=ccurvaUGBT,status=Variable
new generator.3002163385 bus1=1000180076.1.2.0,Phases=2,kv=0.22,kW=1.15903,pf=1,model=1,daily=ccurvaUGBT,status=Variable
new generator.3002163518 bus1=1000035932.2.3.0,Phases=2,kv=0.22,kW=3.54329,pf=1,model=1,daily=ccurvaUGBT,status=Variable
new generator.3002163624 bus1=1000581449.1.2.3.0,Phases=3,kv=0.22,kW=0.66228,pf=1,model=1,daily=ccurvaUGBT,status=Variable
new generator.3003509478 bus1=1000096895.1.2.0,Phases=2,kv=0.22,kW=1.33372,pf=1,model=1,daily=ccurvaUGBT,status=Variable
new generator.3003509479 bus1=1000103314.1.2.3.0,Phases=3,kv=0.22,kW=1.63085,pf=1,model=1,daily=ccurvaUGBT,status=Variable
new generator.3003515366 bus1=1000823250.2.3.0,Phases=2,kv=0.22,kW=0.78126,pf=1,model=1,daily=ccurvaUGBT,status=Variable
new generator.3003518794 bus1=1006685827.1.2.0,Phases=2,kv=0.22,kW=2.25859,pf=1,model=1,daily=ccurvaUGBT,status=Variable
new generator.3003538152 bus1=1000748392.2.3.0,Phases=2,kv=0.22,kW=3.46155,pf=1,model=1,daily=ccurvaUGBT,status=Variable
new generator.3003774968 bus1=1000513689.1.2.0,Phases=2,kv=0.22,kW=0.28056,pf=1,model=1,daily=ccurvaUGBT,status=Variable
new generator.3003797534 bus1=1000108956.2.3.0,Phases=2,kv=0.22,kW=2.06561,pf=1,model=1,daily=ccurvaUGBT,status=Variable
new generator.3003797536 bus1=1000102782.3.1.0,Phases=2,kv=0.22,kW=0.83901,pf=1,model=1,daily=ccurvaUGBT,status=Variable
new generator.3003798650 bus1=1000615329.1.2.0,Phases=2,kv=0.22,kW=3.53733,pf=1,model=1,daily=ccurvaUGBT,status=Variable
new generator.3003800345 bus1=1000991600.1.2.0,Phases=2,kv=0.22,kW=2.50349,pf=1,model=1,daily=ccurvaUGBT,status=Variable
new generator.3003800351 bus1=1010679121.1.0,Phases=1,kv=0.127,kW=1.25558,pf=1,model=1,daily=ccurvaUGBT,status=Variable
new generator.3004014295 bus1=1000699322.2.0,Phases=1,kv=0.127,kW=0.48403,pf=1,model=1,daily=ccurvaUGBT,status=Variable
new generator.3004016753 bus1=1000723129.1.2.0,Phases=2,kv=0.22,kW=0.23595,pf=1,model=1,daily=ccurvaUGBT,status=Variable
new generator.3004023189 bus1=1000107801.1.2.0,Phases=2,kv=0.22,kW=2.61025,pf=1,model=1,daily=ccurvaUGBT,status=Variable
new generator.3004031646 bus1=1000723150.1.2.0,Phases=2,kv=0.22,kW=0.35781,pf=1,model=1,daily=ccurvaUGBT,status=Variable
new generator.3004033139 bus1=1000497785.3.1.0,Phases=2,kv=0.22,kW=1.50027,pf=1,model=1,daily=ccurvaUGBT,status=Variable
new generator.3004043487 bus1=1001808528.1.2.3.0,Phases=3,kv=0.22,kW=0.74216,pf=1,model=1,daily=ccurvaUGBT,status=Variable
new generator.3004045119 bus1=1000614692.2.3.0,Phases=2,kv=0.22,kW=0.87178,pf=1,model=1,daily=ccurvaUGBT,status=Variable
new generator.3004307470 bus1=1000183842.3.1.0,Phases=2,kv=0.22,kW=3.45731,pf=1,model=1,daily=ccurvaUGBT,status=Variable
new generator.3000904305 bus1=1002029889.1.2.0,Phases=2,kv=0.22,kW=1.77141,pf=1,model=1,daily=ccurvaUGBT,status=Variable
new generator.3001971988 bus1=1000497666.1.2.0,Phases=2,kv=0.22,kW=1.71868,pf=1,model=1,daily=ccurvaUGBT,status=Variable
new generator.3001973383 bus1=1000587210.1.2.0,Phases=2,kv=0.22,kW=1.9532,pf=1,model=1,daily=ccurvaUGBT,status=Variable
new generator.3001973387 bus1=1000543803.1.2.0,Phases=2,kv=0.22,kW=2.79776,pf=1,model=1,daily=ccurvaUGBT,status=Variable
new generator.3001974130 bus1=1000109390.2.3.0,Phases=2,kv=0.22,kW=7.63778,pf=1,model=1,daily=ccurvaUGBT,status=Variable
new generator.3001974966 bus1=1001471030.1.2.0,Phases=2,kv=0.22,kW=3.93226,pf=1,model=1,daily=ccurvaUGBT,status=Variable
new generator.3001974980 bus1=1006645661.1.2.0,Phases=2,kv=0.22,kW=2.15579,pf=1,model=1,daily=ccurvaUGBT,status=Variable
new generator.3001975024 bus1=1006645710.1.2.0,Phases=2,kv=0.22,kW=2.51898,pf=1,model=1,daily=ccurvaUGBT,status=Variable
new generator.3001975028 bus1=1006649686.1.2.3.0,Phases=3,kv=0.22,kW=4.62424,pf=1,model=1,daily=ccurvaUGBT,status=Variable
new generator.3003552465 bus1=1000572965.3.0,Phases=1,kv=0.127,kW=2.8658,pf=1,model=1,daily=ccurvaUGBT,status=Variable
new generator.3003574037 bus1=1001867566.2.0,Phases=1,kv=0.127,kW=1.41016,pf=1,model=1,daily=ccurvaUGBT,status=Variable
new generator.3003574048 bus1=1001867552.2.0,Phases=1,kv=0.127,kW=0.84897,pf=1,model=1,daily=ccurvaUGBT,status=Variable
new generator.3003816651 bus1=1000727462.1.0,Phases=1,kv=0.127,kW=0.84335,pf=1,model=1,daily=ccurvaUGBT,status=Variable
new generator.3003825960 bus1=1000741609.1.2.0,Phases=2,kv=0.22,kW=0.46754,pf=1,model=1,daily=ccurvaUGBT,status=Variable
new generator.3003827471 bus1=1000071702.2.3.0,Phases=2,kv=0.22,kW=1.59948,pf=1,model=1,daily=ccurvaUGBT,status=Variable
new generator.3003842966 bus1=1000811329.1.2.3.0,Phases=3,kv=0.22,kW=0.60582,pf=1,model=1,daily=ccurvaUGBT,status=Variable
new generator.3004049799 bus1=1000613593.1.2.3.0,Phases=3,kv=0.22,kW=0.13781,pf=1,model=1,daily=ccurvaUGBT,status=Variable
new generator.3004052506 bus1=1000785842.2.0,Phases=1,kv=0.127,kW=1.07277,pf=1,model=1,daily=ccurvaUGBT,status=Variable
new generator.3004052520 bus1=1000186488.2.3.0,Phases=2,kv=0.22,kW=5.51879,pf=1,model=1,daily=ccurvaUGBT,status=Variable
new generator.3004052524 bus1=1000100577.3.0,Phases=1,kv=0.127,kW=1.62814,pf=1,model=1,daily=ccurvaUGBT,status=Variable
new generator.3004052693 bus1=1000108991.2.3.0,Phases=2,kv=0.22,kW=2.1329,pf=1,model=1,daily=ccurvaUGBT,status=Variable
new generator.3004060859 bus1=1000626613.1.2.3.0,Phases=3,kv=0.22,kW=1.06838,pf=1,model=1,daily=ccurvaUGBT,status=Variable
new generator.3004074330 bus1=1000183646.1.2.3.0,Phases=3,kv=0.22,kW=0.83959,pf=1,model=1,daily=ccurvaUGBT,status=Variable
new generator.3004477425 bus1=1000734224.3.1.0,Phases=2,kv=0.22,kW=0.79491,pf=1,model=1,daily=ccurvaUGBT,status=Variable
new generator.3004479884 bus1=1000107535.1.2.0,Phases=2,kv=0.22,kW=0.08538,pf=1,model=1,daily=ccurvaUGBT,status=Variable
new generator.3004482686 bus1=1000617681.1.2.3.0,Phases=3,kv=0.22,kW=3.20663,pf=1,model=1,daily=ccurvaUGBT,status=Variable
new generator.3004484101 bus1=1000692364.1.2.0,Phases=2,kv=0.22,kW=1.82822,pf=1,model=1,daily=ccurvaUGBT,status=Variable
new generator.3004486803 bus1=1000825385.2.3.0,Phases=2,kv=0.22,kW=2.27987,pf=1,model=1,daily=ccurvaUGBT,status=Variable
new generator.3001075945 bus1=1001835758.1.0,Phases=1,kv=0.127,kW=0.92415,pf=1,model=1,daily=ccurvaUGBT,status=Variable
new generator.3001075959 bus1=1001806288.1.2.0,Phases=2,kv=0.22,kW=2.02176,pf=1,model=1,daily=ccurvaUGBT,status=Variable
new generator.3001075974 bus1=1001808416.2.0,Phases=1,kv=0.127,kW=0.6283,pf=1,model=1,daily=ccurvaUGBT,status=Variable
new generator.3001076064 bus1=1001804993.1.2.3.0,Phases=3,kv=0.22,kW=0.52046,pf=1,model=1,daily=ccurvaUGBT,status=Variable
new generator.3001076128 bus1=1001835597.3.1.0,Phases=2,kv=0.22,kW=1.65167,pf=1,model=1,daily=ccurvaUGBT,status=Variable
new generator.3001076140 bus1=1001807681.3.0,Phases=1,kv=0.127,kW=0.82682,pf=1,model=1,daily=ccurvaUGBT,status=Variable
new generator.3001076268 bus1=1001823697.3.0,Phases=1,kv=0.127,kW=3.49275,pf=1,model=1,daily=ccurvaUGBT,status=Variable
new generator.3003330851 bus1=1000617128.1.2.3.0,Phases=3,kv=0.22,kW=4.64095,pf=1,model=1,daily=ccurvaUGBT,status=Variable
new generator.3003663304 bus1=1000188287.1.2.0,Phases=2,kv=0.22,kW=1.40904,pf=1,model=1,daily=ccurvaUGBT,status=Variable
new generator.3003668985 bus1=1000028176.1.2.0,Phases=2,kv=0.22,kW=4.82698,pf=1,model=1,daily=ccurvaUGBT,status=Variable
new generator.3003669574 bus1=1000064982.1.0,Phases=1,kv=0.127,kW=0.69776,pf=1,model=1,daily=ccurvaUGBT,status=Variable
new generator.3003673461 bus1=1001811524.1.2.3.0,Phases=3,kv=0.22,kW=1.61375,pf=1,model=1,daily=ccurvaUGBT,status=Variable
new generator.3003673464 bus1=1001804517.2.0,Phases=1,kv=0.127,kW=1.03641,pf=1,model=1,daily=ccurvaUGBT,status=Variable
new generator.3004128415 bus1=1000497771.3.1.0,Phases=2,kv=0.22,kW=1.47023,pf=1,model=1,daily=ccurvaUGBT,status=Variable
new generator.3004130361 bus1=1000594021.2.3.0,Phases=2,kv=0.22,kW=1.67045,pf=1,model=1,daily=ccurvaUGBT,status=Variable
new generator.3004135644 bus1=1000084862.1.2.0,Phases=2,kv=0.22,kW=0.4992,pf=1,model=1,daily=ccurvaUGBT,status=Variable
new generator.3004135692 bus1=1000077820.1.2.3.0,Phases=3,kv=0.22,kW=8.49346,pf=1,model=1,daily=ccurvaUGBT,status=Variable
new generator.3004144278 bus1=1000688675.1.2.0,Phases=2,kv=0.22,kW=1.98292,pf=1,model=1,daily=ccurvaUGBT,status=Variable
new generator.3004144279 bus1=1000825217.2.0,Phases=1,kv=0.127,kW=1.81978,pf=1,model=1,daily=ccurvaUGBT,status=Variable
new generator.3004145489 bus1=1000036044.1.2.3.0,Phases=3,kv=0.22,kW=3.97632,pf=1,model=1,daily=ccurvaUGBT,status=Variable
new generator.3004145519 bus1=1000600776.1.2.3.0,Phases=3,kv=0.22,kW=0.66336,pf=1,model=1,daily=ccurvaUGBT,status=Variable
new generator.3004145649 bus1=1000803517.1.2.0,Phases=2,kv=0.22,kW=0.62955,pf=1,model=1,daily=ccurvaUGBT,status=Variable
new generator.3004148716 bus1=1000796433.1.2.0,Phases=2,kv=0.22,kW=0.50502,pf=1,model=1,daily=ccurvaUGBT,status=Variable
new generator.3004348648 bus1=1000611906.2.3.0,Phases=2,kv=0.22,kW=0.99477,pf=1,model=1,daily=ccurvaUGBT,status=Variable
new generator.3004358712 bus1=1000946485.1.2.3.0,Phases=3,kv=0.22,kW=0.49122,pf=1,model=1,daily=ccurvaUGBT,status=Variable
new generator.3004358776 bus1=1000183751.1.2.3.0,Phases=3,kv=0.22,kW=1.80956,pf=1,model=1,daily=ccurvaUGBT,status=Variable
new generator.3004359303 bus1=1000617016.1.2.3.0,Phases=3,kv=0.22,kW=1.5406,pf=1,model=1,daily=ccurvaUGBT,status=Variable
new generator.3000541247 bus1=1000096881.1.2.3.0,Phases=3,kv=0.22,kW=0.89896,pf=1,model=1,daily=ccurvaUGBT,status=Variable
new generator.3000541256 bus1=1000102810.1.2.0,Phases=2,kv=0.22,kW=1.97137,pf=1,model=1,daily=ccurvaUGBT,status=Variable
new generator.3000541267 bus1=1000108830.2.3.0,Phases=2,kv=0.22,kW=3.38015,pf=1,model=1,daily=ccurvaUGBT,status=Variable
new generator.3000541324 bus1=1000106758.1.2.3.0,Phases=3,kv=0.22,kW=3.99331,pf=1,model=1,daily=ccurvaUGBT,status=Variable
new generator.3000541337 bus1=1000106716.1.2.3.0,Phases=3,kv=0.22,kW=2.92998,pf=1,model=1,daily=ccurvaUGBT,status=Variable
new generator.3003262277 bus1=1000957671.1.2.0,Phases=2,kv=0.22,kW=0.51149,pf=1,model=1,daily=ccurvaUGBT,status=Variable
new generator.3003262754 bus1=1000532792.1.2.3.0,Phases=3,kv=0.22,kW=0.66829,pf=1,model=1,daily=ccurvaUGBT,status=Variable
new generator.3003606603 bus1=1000575905.3.1.0,Phases=2,kv=0.22,kW=1.04613,pf=1,model=1,daily=ccurvaUGBT,status=Variable
new generator.3003892945 bus1=1000105435.2.3.0,Phases=2,kv=0.22,kW=3.05875,pf=1,model=1,daily=ccurvaUGBT,status=Variable
new generator.3003895429 bus1=1000542963.1.2.0,Phases=2,kv=0.22,kW=2.5125,pf=1,model=1,daily=ccurvaUGBT,status=Variable
new generator.3003903342 bus1=1000968731.1.0,Phases=1,kv=0.127,kW=1.24608,pf=1,model=1,daily=ccurvaUGBT,status=Variable
new generator.3003905233 bus1=1000707596.3.0,Phases=1,kv=0.127,kW=1.05523,pf=1,model=1,daily=ccurvaUGBT,status=Variable
new generator.3003910310 bus1=1000030136.1.2.3.0,Phases=3,kv=0.22,kW=1.79706,pf=1,model=1,daily=ccurvaUGBT,status=Variable
new generator.3003911299 bus1=1000714995.2.0,Phases=1,kv=0.127,kW=0.93518,pf=1,model=1,daily=ccurvaUGBT,status=Variable
new generator.3003916668 bus1=1000624555.2.3.0,Phases=2,kv=0.22,kW=3.50354,pf=1,model=1,daily=ccurvaUGBT,status=Variable
new generator.3003917089 bus1=1001821401.1.0,Phases=1,kv=0.127,kW=0.41393,pf=1,model=1,daily=ccurvaUGBT,status=Variable
new generator.3004095308 bus1=1000888035.1.0,Phases=1,kv=0.127,kW=2.20899,pf=1,model=1,daily=ccurvaUGBT,status=Variable
new generator.3004096507 bus1=1000109285.2.3.0,Phases=2,kv=0.22,kW=3.92044,pf=1,model=1,daily=ccurvaUGBT,status=Variable
!new generator.3004108798 bus1=.1.2.3,Phases=3,kv=0.22,kW=2.44827,pf=1,model=1,daily=ccurvaUGBT,status=Variable
new generator.3004112601 bus1=1000593167.1.2.0,Phases=2,kv=0.22,kW=1.51418,pf=1,model=1,daily=ccurvaUGBT,status=Variable
new generator.3004437614 bus1=1000748210.2.0,Phases=1,kv=0.127,kW=1.46451,pf=1,model=1,daily=ccurvaUGBT,status=Variable
new generator.3004447481 bus1=1000186201.1.2.0,Phases=2,kv=0.22,kW=1.18418,pf=1,model=1,daily=ccurvaUGBT,status=Variable
new generator.3004450773 bus1=1000723185.1.2.0,Phases=2,kv=0.22,kW=0.80827,pf=1,model=1,daily=ccurvaUGBT,status=Variable
new generator.3004756742 bus1=1000581925.1.2.3.0,Phases=3,kv=0.22,kW=3.93191,pf=1,model=1,daily=ccurvaUGBT,status=Variable
new generator.3004764120 bus1=1000534024.1.2.3.0,Phases=3,kv=0.22,kW=2.03819,pf=1,model=1,daily=ccurvaUGBT,status=Variable
new generator.3004764757 bus1=1000102439.1.0,Phases=1,kv=0.127,kW=1.28922,pf=1,model=1,daily=ccurvaUGBT,status=Variable
new generator.3004768434 bus1=1000610310.3.0,Phases=1,kv=0.127,kW=3.60138,pf=1,model=1,daily=ccurvaUGBT,status=Variable
new generator.3004773432 bus1=1000529124.1.2.3.0,Phases=3,kv=0.22,kW=4.89466,pf=1,model=1,daily=ccurvaUGBT,status=Variable
new generator.3003976360 bus1=1011207181.3.1.0,Phases=2,kv=0.22,kW=3.60631,pf=1,model=1,daily=ccurvaUGBT,status=Variable
new generator.3003976365 bus1=1000692350.1.2.0,Phases=2,kv=0.22,kW=3.30506,pf=1,model=1,daily=ccurvaUGBT,status=Variable
new generator.3003978065 bus1=1000108809.3.1.0,Phases=2,kv=0.22,kW=1.05977,pf=1,model=1,daily=ccurvaUGBT,status=Variable
new generator.3003981939 bus1=1000697670.3.0,Phases=1,kv=0.127,kW=3.10794,pf=1,model=1,daily=ccurvaUGBT,status=Variable
new generator.3003986490 bus1=1000623862.1.2.3.0,Phases=3,kv=0.22,kW=0.53343,pf=1,model=1,daily=ccurvaUGBT,status=Variable
new generator.3003988677 bus1=1000904240.2.0,Phases=1,kv=0.127,kW=0.59012,pf=1,model=1,daily=ccurvaUGBT,status=Variable
new generator.3003999587 bus1=1000766053.2.3.0,Phases=2,kv=0.22,kW=1.09997,pf=1,model=1,daily=ccurvaUGBT,status=Variable
new generator.3004003344 bus1=1000616001.1.2.3.0,Phases=3,kv=0.22,kW=3.75172,pf=1,model=1,daily=ccurvaUGBT,status=Variable
new generator.3004003359 bus1=1000609771.3.0,Phases=1,kv=0.127,kW=4.85147,pf=1,model=1,daily=ccurvaUGBT,status=Variable
new generator.3004003361 bus1=1000615966.3.0,Phases=1,kv=0.127,kW=1.66553,pf=1,model=1,daily=ccurvaUGBT,status=Variable
new generator.3004006168 bus1=1000831720.2.3.0,Phases=2,kv=0.22,kW=2.64547,pf=1,model=1,daily=ccurvaUGBT,status=Variable
new generator.3004246317 bus1=1000584165.1.2.0,Phases=2,kv=0.22,kW=5.80135,pf=1,model=1,daily=ccurvaUGBT,status=Variable
new generator.3004248100 bus1=1000631674.2.0,Phases=1,kv=0.127,kW=1.60082,pf=1,model=1,daily=ccurvaUGBT,status=Variable
new generator.3004268300 bus1=1000509839.1.0,Phases=1,kv=0.127,kW=1.62276,pf=1,model=1,daily=ccurvaUGBT,status=Variable
new generator.3004268328 bus1=1000513927.1.2.0,Phases=2,kv=0.22,kW=1.29845,pf=1,model=1,daily=ccurvaUGBT,status=Variable
new generator.3004280533 bus1=1000072633.1.2.0,Phases=2,kv=0.22,kW=2.56184,pf=1,model=1,daily=ccurvaUGBT,status=Variable
new generator.3004283180 bus1=1000067397.1.2.0,Phases=2,kv=0.22,kW=0.71242,pf=1,model=1,daily=ccurvaUGBT,status=Variable
new generator.3004566952 bus1=1000503665.2.0,Phases=1,kv=0.127,kW=3.00047,pf=1,model=1,daily=ccurvaUGBT,status=Variable
new generator.3004581618 bus1=1000909714.1.2.3.0,Phases=3,kv=0.22,kW=2.34182,pf=1,model=1,daily=ccurvaUGBT,status=Variable
new generator.3004586301 bus1=1000189183.3.1.0,Phases=2,kv=0.22,kW=0.6547,pf=1,model=1,daily=ccurvaUGBT,status=Variable
new generator.3004602136 bus1=1000516202.1.2.3.0,Phases=3,kv=0.22,kW=3.83545,pf=1,model=1,daily=ccurvaUGBT,status=Variable
new generator.3004604676 bus1=1000107220.1.2.3.0,Phases=3,kv=0.22,kW=2.63779,pf=1,model=1,daily=ccurvaUGBT,status=Variable
new generator.3004891774 bus1=1000613635.1.2.0,Phases=2,kv=0.22,kW=2.03314,pf=1,model=1,daily=ccurvaUGBT,status=Variable
new generator.3004892749 bus1=1000685609.2.3.0,Phases=2,kv=0.22,kW=0.71045,pf=1,model=1,daily=ccurvaUGBT,status=Variable
new generator.3004912791 bus1=1000071079.2.3.0,Phases=2,kv=0.22,kW=1.60248,pf=1,model=1,daily=ccurvaUGBT,status=Variable
new generator.3004912793 bus1=1000539673.2.0,Phases=1,kv=0.127,kW=1.9486,pf=1,model=1,daily=ccurvaUGBT,status=Variable
new generator.3004912961 bus1=1000974632.1.0,Phases=1,kv=0.127,kW=0.1869,pf=1,model=1,daily=ccurvaUGBT,status=Variable
new generator.3004922095 bus1=1000773298.1.2.0,Phases=2,kv=0.22,kW=2.8731,pf=1,model=1,daily=ccurvaUGBT,status=Variable
new generator.3004773794 bus1=1000105799.1.2.0,Phases=2,kv=0.22,kW=1.47149,pf=1,model=1,daily=ccurvaUGBT,status=Variable
new generator.3004776471 bus1=1009233281.1.2.0,Phases=2,kv=0.22,kW=0.31252,pf=1,model=1,daily=ccurvaUGBT,status=Variable
new generator.3004780654 bus1=1000506437.1.2.3.0,Phases=3,kv=0.22,kW=4.32712,pf=1,model=1,daily=ccurvaUGBT,status=Variable
new generator.3004781479 bus1=1002053395.1.2.0,Phases=2,kv=0.22,kW=1.89989,pf=1,model=1,daily=ccurvaUGBT,status=Variable
new generator.3004788322 bus1=1000064562.1.2.0,Phases=2,kv=0.22,kW=2.86218,pf=1,model=1,daily=ccurvaUGBT,status=Variable
new generator.3004788973 bus1=1000183660.1.2.3.0,Phases=3,kv=0.22,kW=7.13896,pf=1,model=1,daily=ccurvaUGBT,status=Variable
new generator.3004791834 bus1=1000103293.1.2.0,Phases=2,kv=0.22,kW=0.33754,pf=1,model=1,daily=ccurvaUGBT,status=Variable
new generator.3005065291 bus1=1000758094.1.2.0,Phases=2,kv=0.22,kW=2.68428,pf=1,model=1,daily=ccurvaUGBT,status=Variable
new generator.3005071829 bus1=1002043343.1.2.3.0,Phases=3,kv=0.22,kW=1.02033,pf=1,model=1,daily=ccurvaUGBT,status=Variable
new generator.3005072104 bus1=1000819204.3.1.0,Phases=2,kv=0.22,kW=2.46989,pf=1,model=1,daily=ccurvaUGBT,status=Variable
new generator.3005083171 bus1=1000180860.1.2.3.0,Phases=3,kv=0.22,kW=3.93837,pf=1,model=1,daily=ccurvaUGBT,status=Variable
new generator.3005085687 bus1=1000055931.1.2.0,Phases=2,kv=0.22,kW=1.99097,pf=1,model=1,daily=ccurvaUGBT,status=Variable
new generator.3005089346 bus1=1000096335.1.2.0,Phases=2,kv=0.22,kW=0.38382,pf=1,model=1,daily=ccurvaUGBT,status=Variable
new generator.3005408115 bus1=1000026426.1.2.0,Phases=2,kv=0.22,kW=1.19541,pf=1,model=1,daily=ccurvaUGBT,status=Variable
new generator.3005414190 bus1=1000757870.1.2.3.0,Phases=3,kv=0.22,kW=4.40187,pf=1,model=1,daily=ccurvaUGBT,status=Variable
new generator.3005417052 bus1=1002040970.1.2.0,Phases=2,kv=0.22,kW=0.35761,pf=1,model=1,daily=ccurvaUGBT,status=Variable
new generator.3005418852 bus1=1000629007.1.2.3.0,Phases=3,kv=0.22,kW=0.84315,pf=1,model=1,daily=ccurvaUGBT,status=Variable
new generator.3005418863 bus1=1000592460.1.2.3.0,Phases=3,kv=0.22,kW=4.43846,pf=1,model=1,daily=ccurvaUGBT,status=Variable
new generator.3005419911 bus1=1000599502.1.2.0,Phases=2,kv=0.22,kW=1.91667,pf=1,model=1,daily=ccurvaUGBT,status=Variable
new generator.3005424813 bus1=1000029737.1.2.0,Phases=2,kv=0.22,kW=6.69831,pf=1,model=1,daily=ccurvaUGBT,status=Variable
new generator.3005426069 bus1=1000527360.1.2.0,Phases=2,kv=0.22,kW=5.09711,pf=1,model=1,daily=ccurvaUGBT,status=Variable
new generator.3005427373 bus1=1000508663.1.2.3.0,Phases=3,kv=0.22,kW=1.51076,pf=1,model=1,daily=ccurvaUGBT,status=Variable
new generator.3005428663 bus1=1000528816.1.0,Phases=1,kv=0.127,kW=1.29666,pf=1,model=1,daily=ccurvaUGBT,status=Variable