new transformer.TRF_100983A Phases=1,Windings=3,Buses=[BMT177046073.1 973365.1.0 973365.0.2],Conns=[wye wye wye],kvs=[7.967 0.12 0.12],kvas=[5.000000000 5.000000000 5.000000000],Taps=[1,1.000000000,1.000000000],XHL=1.625000000,XHT=1.625000000,XLT=1.300000000,%loadloss=1.900000000,%noloadloss=0.600000000 !5291
new transformer.TRF_102880 Phases=3,Windings=2,Buses=[BMT150649230.1.2.3 991614.1.2.3.0],Conns=[delta,wye],kvs=[13.800000000,0.220000000],kvas=[45.000000000 45.000000000],Taps=[1,1.000000000],XHL=3.700000000,%loadloss=1.520000000,%noloadloss=0.377777000 !403448
new transformer.TRF_104868A Phases=1,Windings=3,Buses=[BMT183161199.3 1005761.1.0 1005761.0.2],Conns=[wye wye wye],kvs=[7.967 0.12 0.12],kvas=[5.000000000 5.000000000 5.000000000],Taps=[1,1.000000000,1.000000000],XHL=1.625000000,XHT=1.625000000,XLT=1.300000000,%loadloss=1.900000000,%noloadloss=0.600000000 !5612
new transformer.TRF_104917A Phases=1,Windings=3,Buses=[BMT165509280.2 1006118.1.0 1006118.0.2],Conns=[wye wye wye],kvs=[7.967 0.12 0.12],kvas=[15.000000000 15.000000000 15.000000000],Taps=[1,1.000000000,1.000000000],XHL=1.921000000,XHT=1.921000000,XLT=1.537000000,%loadloss=1.600000000,%noloadloss=0.400000000 !23184
new transformer.TRF_104945A Phases=1,Windings=3,Buses=[BMT165509283.2 1006363.1.0 1006363.0.2],Conns=[wye wye wye],kvs=[7.967 0.12 0.12],kvas=[10.000000000 10.000000000 10.000000000],Taps=[1,1.000000000,1.000000000],XHL=1.735000000,XHT=1.735000000,XLT=1.388000000,%loadloss=1.800000000,%noloadloss=0.450000000 !90303
new transformer.TRF_105505A Phases=1,Windings=3,Buses=[BMT183161202.3 1008225.1.0 1008225.0.2],Conns=[wye wye wye],kvs=[7.967 0.12 0.12],kvas=[15.000000000 15.000000000 15.000000000],Taps=[1,1.000000000,1.000000000],XHL=1.921000000,XHT=1.921000000,XLT=1.537000000,%loadloss=1.600000000,%noloadloss=0.400000000 !486
new transformer.TRF_105575A Phases=1,Windings=3,Buses=[BMT183161192.3 1008519.1.0 1008519.0.2],Conns=[wye wye wye],kvs=[7.967 0.12 0.12],kvas=[15.000000000 15.000000000 15.000000000],Taps=[1,1.000000000,1.000000000],XHL=1.921000000,XHT=1.921000000,XLT=1.537000000,%loadloss=1.600000000,%noloadloss=0.400000000 !56720
new transformer.TRF_105582A Phases=1,Windings=3,Buses=[BMT183161194.3 1008533.1.0 1008533.0.2],Conns=[wye wye wye],kvs=[7.967 0.12 0.12],kvas=[35.000000000 35.000000000 35.000000000],Taps=[1,1.000000000,1.000000000],XHL=2.139000000,XHT=2.139000000,XLT=1.712000000,%loadloss=1.293000000,%noloadloss=0.342857000 !56939
new transformer.TRF_106233A Phases=1,Windings=3,Buses=[BMT183160489.1 1012229.1.0 1012229.0.2],Conns=[wye wye wye],kvs=[7.967 0.12 0.12],kvas=[10.000000000 10.000000000 10.000000000],Taps=[1,1.000000000,1.000000000],XHL=1.735000000,XHT=1.735000000,XLT=1.388000000,%loadloss=1.800000000,%noloadloss=0.450000000 !121917
new transformer.TRF_1062518 Phases=3,Windings=2,Buses=[BMT165069721.1.2.3 12266291.1.2.3.0],Conns=[delta,wye],kvs=[13.800000000,0.220000000],kvas=[150.000000000 150.000000000],Taps=[1,1.000000000],XHL=3.840000000,%loadloss=1.130000000,%noloadloss=0.000000000 !378580
new transformer.TRF_106954A Phases=1,Windings=3,Buses=[BMT181748790.1 1016800.1.0 1016800.0.2],Conns=[wye wye wye],kvs=[7.967 0.12 0.12],kvas=[10.000000000 10.000000000 10.000000000],Taps=[1,1.000000000,1.000000000],XHL=1.735000000,XHT=1.735000000,XLT=1.388000000,%loadloss=1.800000000,%noloadloss=0.450000000 !127588
new transformer.TRF_107010A Phases=1,Windings=3,Buses=[BMT163711337.3 1017038.1.0 1017038.0.2],Conns=[wye wye wye],kvs=[7.967 0.12 0.12],kvas=[35.000000000 35.000000000 35.000000000],Taps=[1,1.000000000,1.000000000],XHL=2.139000000,XHT=2.139000000,XLT=1.712000000,%loadloss=1.293000000,%noloadloss=0.342857000 !1313
new transformer.TRF_108277A Phases=1,Windings=3,Buses=[BMT183411293.1 1025466.1.0 1025466.0.2],Conns=[wye wye wye],kvs=[7.967 0.12 0.12],kvas=[35.000000000 35.000000000 35.000000000],Taps=[1,1.000000000,1.000000000],XHL=2.139000000,XHT=2.139000000,XLT=1.712000000,%loadloss=1.293000000,%noloadloss=0.342857000 !56393
new transformer.TRF_109992 Phases=3,Windings=2,Buses=[BMT151279580.1.2.3 1036008.1.2.3.0],Conns=[delta,wye],kvs=[13.800000000,0.220000000],kvas=[75.000000000 75.000000000],Taps=[1,1.000000000],XHL=3.770000000,%loadloss=1.340000000,%noloadloss=0.340000000 !58420
new transformer.TRF_109999 Phases=3,Windings=2,Buses=[BMT98872895.1.2.3 1036099.1.2.3.0],Conns=[delta,wye],kvs=[13.800000000,0.220000000],kvas=[45.000000000 45.000000000],Taps=[1,1.000000000],XHL=3.700000000,%loadloss=1.520000000,%noloadloss=0.377777000 !415703
new transformer.TRF_110048 Phases=3,Windings=2,Buses=[BMT151279579.1.2.3 1036554.1.2.3.0],Conns=[delta,wye],kvs=[13.800000000,0.220000000],kvas=[45.000000000 45.000000000],Taps=[1,1.000000000],XHL=3.700000000,%loadloss=1.520000000,%noloadloss=0.377777000 !76357
new transformer.TRF_110055A Phases=1,Windings=3,Buses=[BMT180196945.3 1036617.1.0 1036617.0.2],Conns=[wye wye wye],kvs=[7.967 0.12 0.12],kvas=[5.000000000 5.000000000 5.000000000],Taps=[1,1.000000000,1.000000000],XHL=1.625000000,XHT=1.625000000,XLT=1.300000000,%loadloss=1.900000000,%noloadloss=0.600000000 !8685
new transformer.TRF_1107808A Phases=1,Windings=3,Buses=[BMT164971058.1 24762649.1.0 24762649.0.2],Conns=[wye wye wye],kvs=[7.967 0.12 0.12],kvas=[35.000000000 35.000000000 35.000000000],Taps=[1,1.000000000,1.000000000],XHL=2.139000000,XHT=2.139000000,XLT=1.712000000,%loadloss=1.293000000,%noloadloss=0.342857000 !289110
new transformer.TRF_111357 Phases=3,Windings=2,Buses=[BMT178388627.1.2.3 1045920.1.2.3.0],Conns=[delta,wye],kvs=[13.800000000,0.220000000],kvas=[45.000000000 45.000000000],Taps=[1,1.000000000],XHL=3.700000000,%loadloss=1.520000000,%noloadloss=0.377777000 !54534
new transformer.TRF_1113884 Phases=3,Windings=2,Buses=[BMT150339003.1.2.3 25908696.1.2.3.0],Conns=[delta,wye],kvs=[13.800000000,0.220000000],kvas=[300.000000000 300.000000000],Taps=[1,1.000000000],XHL=4.900000000,%loadloss=0.990000000,%noloadloss=0.000000000 !206577
new transformer.TRF_1121024A Phases=1,Windings=3,Buses=[BMT152902834.3 27336906.1.0 27336906.0.2],Conns=[wye wye wye],kvs=[7.967 0.12 0.12],kvas=[5.000000000 5.000000000 5.000000000],Taps=[1,1.000000000,1.000000000],XHL=1.625000000,XHT=1.625000000,XLT=1.300000000,%loadloss=1.900000000,%noloadloss=0.600000000 !387186
new transformer.TRF_1121360A Phases=1,Windings=3,Buses=[BMT180439519.3 27407648.1.0 27407648.0.2],Conns=[wye wye wye],kvs=[7.967 0.12 0.12],kvas=[10.000000000 10.000000000 10.000000000],Taps=[1,1.000000000,1.000000000],XHL=1.735000000,XHT=1.735000000,XLT=1.388000000,%loadloss=1.800000000,%noloadloss=0.450000000 !452816
new transformer.TRF_1121367A Phases=1,Windings=3,Buses=[BMT170124632.3 27412429.1.0 27412429.0.2],Conns=[wye wye wye],kvs=[7.967 0.12 0.12],kvas=[10.000000000 10.000000000 10.000000000],Taps=[1,1.000000000,1.000000000],XHL=1.735000000,XHT=1.735000000,XLT=1.388000000,%loadloss=1.800000000,%noloadloss=0.450000000 !381734
new transformer.TRF_1121535A Phases=1,Windings=3,Buses=[BMT170124634.3 27461128.1.0 27461128.0.2],Conns=[wye wye wye],kvs=[7.967 0.12 0.12],kvas=[10.000000000 10.000000000 10.000000000],Taps=[1,1.000000000,1.000000000],XHL=1.735000000,XHT=1.735000000,XLT=1.388000000,%loadloss=1.800000000,%noloadloss=0.450000000 !381735
new transformer.TRF_112806A Phases=1,Windings=3,Buses=[BMT98870480.2 1057533.1.0 1057533.0.2],Conns=[wye wye wye],kvs=[7.967 0.12 0.12],kvas=[25.000000000 25.000000000 25.000000000],Taps=[1,1.000000000,1.000000000],XHL=2.058000000,XHT=2.058000000,XLT=1.646000000,%loadloss=1.420000000,%noloadloss=0.320000000 !32393
new transformer.TRF_112827A Phases=1,Windings=3,Buses=[BMT180196935.3 1057897.1.0 1057897.0.2],Conns=[wye wye wye],kvs=[7.967 0.12 0.12],kvas=[5.000000000 5.000000000 5.000000000],Taps=[1,1.000000000,1.000000000],XHL=1.625000000,XHT=1.625000000,XLT=1.300000000,%loadloss=1.900000000,%noloadloss=0.600000000 !9424
new transformer.TRF_112834A Phases=1,Windings=3,Buses=[BMT98870445.2 1057911.1.0 1057911.0.2],Conns=[wye wye wye],kvs=[7.967 0.12 0.12],kvas=[25.000000000 25.000000000 25.000000000],Taps=[1,1.000000000,1.000000000],XHL=2.058000000,XHT=2.058000000,XLT=1.646000000,%loadloss=1.420000000,%noloadloss=0.320000000 !32390
new transformer.TRF_112883A Phases=1,Windings=3,Buses=[BMT180196919.3 1058177.1.0 1058177.0.2],Conns=[wye wye wye],kvs=[7.967 0.12 0.12],kvas=[15.000000000 15.000000000 15.000000000],Taps=[1,1.000000000,1.000000000],XHL=1.921000000,XHT=1.921000000,XLT=1.537000000,%loadloss=1.600000000,%noloadloss=0.400000000 !39389
new transformer.TRF_112890A Phases=1,Windings=3,Buses=[BMT98870473.2 1058191.1.0 1058191.0.2],Conns=[wye wye wye],kvs=[7.967 0.12 0.12],kvas=[15.000000000 15.000000000 15.000000000],Taps=[1,1.000000000,1.000000000],XHL=1.921000000,XHT=1.921000000,XLT=1.537000000,%loadloss=1.600000000,%noloadloss=0.400000000 !111540
new transformer.TRF_113912A Phases=1,Windings=3,Buses=[BMT182194871.3 1065345.1.0 1065345.0.2],Conns=[wye wye wye],kvs=[7.967 0.12 0.12],kvas=[5.000000000 5.000000000 5.000000000],Taps=[1,1.000000000,1.000000000],XHL=1.625000000,XHT=1.625000000,XLT=1.300000000,%loadloss=1.900000000,%noloadloss=0.600000000 !3200
new transformer.TRF_104588A Phases=1,Windings=3,Buses=[BMT175027379.3 1004424.1.0 1004424.0.2],Conns=[wye wye wye],kvs=[7.967 0.12 0.12],kvas=[15.000000000 15.000000000 15.000000000],Taps=[1,1.000000000,1.000000000],XHL=1.921000000,XHT=1.921000000,XLT=1.537000000,%loadloss=1.600000000,%noloadloss=0.400000000 !32957
new transformer.TRF_104602A Phases=1,Windings=3,Buses=[BMT175027392.3 1004452.1.0 1004452.0.2],Conns=[wye wye wye],kvs=[7.967 0.12 0.12],kvas=[35.000000000 35.000000000 35.000000000],Taps=[1,1.000000000,1.000000000],XHL=2.139000000,XHT=2.139000000,XLT=1.712000000,%loadloss=1.293000000,%noloadloss=0.342857000 !73017
new transformer.TRF_106590A Phases=1,Windings=3,Buses=[BMT159589208.3 1014525.1.0 1014525.0.2],Conns=[wye wye wye],kvs=[7.967 0.12 0.12],kvas=[15.000000000 15.000000000 15.000000000],Taps=[1,1.000000000,1.000000000],XHL=1.921000000,XHT=1.921000000,XLT=1.537000000,%loadloss=1.600000000,%noloadloss=0.400000000 !41783
new transformer.TRF_107269A Phases=1,Windings=3,Buses=[BMT152902826.3 1018837.1.0 1018837.0.2],Conns=[wye wye wye],kvs=[7.967 0.12 0.12],kvas=[10.000000000 10.000000000 10.000000000],Taps=[1,1.000000000,1.000000000],XHL=1.735000000,XHT=1.735000000,XLT=1.388000000,%loadloss=1.800000000,%noloadloss=0.450000000 !16735
new transformer.TRF_107976A Phases=1,Windings=3,Buses=[BMT183157348.1 1024143.1.0 1024143.0.2],Conns=[wye wye wye],kvs=[7.967 0.12 0.12],kvas=[15.000000000 15.000000000 15.000000000],Taps=[1,1.000000000,1.000000000],XHL=1.921000000,XHT=1.921000000,XLT=1.537000000,%loadloss=1.600000000,%noloadloss=0.400000000 !14483
new transformer.TRF_1079794 Phases=3,Windings=2,Buses=[BMT174450829.1.2.3 17864457.1.2.3.0],Conns=[delta,wye],kvs=[13.800000000,0.220000000],kvas=[30.000000000 30.000000000],Taps=[1,1.000000000],XHL=3.640000000,%loadloss=1.670000000,%noloadloss=0.433333000 !154139
new transformer.TRF_107990 Phases=3,Windings=2,Buses=[BMT167782681.1.2.3 1024171.1.2.3.0],Conns=[delta,wye],kvs=[13.800000000,0.220000000],kvas=[45.000000000 45.000000000],Taps=[1,1.000000000],XHL=3.700000000,%loadloss=1.520000000,%noloadloss=0.377777000 !52301
new transformer.TRF_1083735 Phases=3,Windings=2,Buses=[BMT183299244.1.2.3 19233188.1.2.3.0],Conns=[delta,wye],kvs=[13.800000000,0.220000000],kvas=[45.000000000 45.000000000],Taps=[1,1.000000000],XHL=3.700000000,%loadloss=1.520000000,%noloadloss=0.377777000 !152697
new transformer.TRF_108396 Phases=3,Windings=2,Buses=[BMT182228412.1.2.3 1026089.1.2.3.0],Conns=[delta,wye],kvs=[13.800000000,0.220000000],kvas=[75.000000000 75.000000000],Taps=[1,1.000000000],XHL=3.770000000,%loadloss=1.340000000,%noloadloss=0.340000000 !60362
new transformer.TRF_108431A Phases=1,Windings=3,Buses=[BMT183411294.1 1026453.1.0 1026453.0.2],Conns=[wye wye wye],kvs=[7.967 0.12 0.12],kvas=[15.000000000 15.000000000 15.000000000],Taps=[1,1.000000000,1.000000000],XHL=1.921000000,XHT=1.921000000,XLT=1.537000000,%loadloss=1.600000000,%noloadloss=0.400000000 !126649
new transformer.TRF_108452 Phases=3,Windings=2,Buses=[BMT182228425.1.2.3 1026593.1.2.3.0],Conns=[delta,wye],kvs=[13.800000000,0.220000000],kvas=[45.000000000 45.000000000],Taps=[1,1.000000000],XHL=3.700000000,%loadloss=1.520000000,%noloadloss=0.377777000 !57429
new transformer.TRF_109103A Phases=1,Windings=3,Buses=[BMT180196977.3 1030450.1.0 1030450.0.2],Conns=[wye wye wye],kvs=[7.967 0.12 0.12],kvas=[15.000000000 15.000000000 15.000000000],Taps=[1,1.000000000,1.000000000],XHL=1.921000000,XHT=1.921000000,XLT=1.537000000,%loadloss=1.600000000,%noloadloss=0.400000000 !135345
new transformer.TRF_109719A Phases=1,Windings=3,Buses=[BMT98870256.3 1034531.1.0 1034531.0.2],Conns=[wye wye wye],kvs=[7.967 0.12 0.12],kvas=[25.000000000 25.000000000 25.000000000],Taps=[1,1.000000000,1.000000000],XHL=2.058000000,XHT=2.058000000,XLT=1.646000000,%loadloss=1.420000000,%noloadloss=0.320000000 !32394
new transformer.TRF_109775A Phases=1,Windings=3,Buses=[BMT180196956.3 1034776.1.0 1034776.0.2],Conns=[wye wye wye],kvs=[7.967 0.12 0.12],kvas=[10.000000000 10.000000000 10.000000000],Taps=[1,1.000000000,1.000000000],XHL=1.735000000,XHT=1.735000000,XLT=1.388000000,%loadloss=1.800000000,%noloadloss=0.450000000 !66223
new transformer.TRF_110447A Phases=1,Windings=3,Buses=[BMT98870354.2 1039270.1.0 1039270.0.2],Conns=[wye wye wye],kvs=[7.967 0.12 0.12],kvas=[25.000000000 25.000000000 25.000000000],Taps=[1,1.000000000,1.000000000],XHL=2.058000000,XHT=2.058000000,XLT=1.646000000,%loadloss=1.420000000,%noloadloss=0.320000000 !32391
new transformer.TRF_111028A Phases=1,Windings=3,Buses=[BMT173075516.2 1043729.1.0 1043729.0.2],Conns=[wye wye wye],kvs=[7.967 0.12 0.12],kvas=[10.000000000 10.000000000 10.000000000],Taps=[1,1.000000000,1.000000000],XHL=1.735000000,XHT=1.735000000,XLT=1.388000000,%loadloss=1.800000000,%noloadloss=0.450000000 !86221
new transformer.TRF_111035 Phases=3,Windings=2,Buses=[BMT178388622.1.2.3 1043743.1.2.3.0],Conns=[delta,wye],kvs=[13.800000000,0.220000000],kvas=[45.000000000 45.000000000],Taps=[1,1.000000000],XHL=3.700000000,%loadloss=1.520000000,%noloadloss=0.377777000 !54536
new transformer.TRF_111609A Phases=1,Windings=3,Buses=[BMT98870431.2 1047656.1.0 1047656.0.2],Conns=[wye wye wye],kvs=[7.967 0.12 0.12],kvas=[25.000000000 25.000000000 25.000000000],Taps=[1,1.000000000,1.000000000],XHL=2.058000000,XHT=2.058000000,XLT=1.646000000,%loadloss=1.420000000,%noloadloss=0.320000000 !335104
new transformer.TRF_111623A Phases=1,Windings=3,Buses=[BMT180196925.3 1047782.1.0 1047782.0.2],Conns=[wye wye wye],kvs=[7.967 0.12 0.12],kvas=[5.000000000 5.000000000 5.000000000],Taps=[1,1.000000000,1.000000000],XHL=1.625000000,XHT=1.625000000,XLT=1.300000000,%loadloss=1.900000000,%noloadloss=0.600000000 !75036
new transformer.TRF_111651A Phases=1,Windings=3,Buses=[BMT98870424.2 1047985.1.0 1047985.0.2],Conns=[wye wye wye],kvs=[7.967 0.12 0.12],kvas=[25.000000000 25.000000000 25.000000000],Taps=[1,1.000000000,1.000000000],XHL=2.058000000,XHT=2.058000000,XLT=1.646000000,%loadloss=1.420000000,%noloadloss=0.320000000 !32386
new transformer.TRF_111679A Phases=1,Windings=3,Buses=[BMT180196914.3 1048230.1.0 1048230.0.2],Conns=[wye wye wye],kvs=[7.967 0.12 0.12],kvas=[35.000000000 35.000000000 35.000000000],Taps=[1,1.000000000,1.000000000],XHL=2.139000000,XHT=2.139000000,XLT=1.712000000,%loadloss=1.293000000,%noloadloss=0.342857000 !26826
new transformer.TRF_112379A Phases=1,Windings=3,Buses=[BMT182294230.1 1053991.1.0 1053991.0.2],Conns=[wye wye wye],kvs=[7.967 0.12 0.12],kvas=[35.000000000 35.000000000 35.000000000],Taps=[1,1.000000000,1.000000000],XHL=2.139000000,XHT=2.139000000,XLT=1.712000000,%loadloss=1.293000000,%noloadloss=0.342857000 !58450
new transformer.TRF_112393A Phases=1,Windings=3,Buses=[BMT176434894.1 1054236.1.0 1054236.0.2],Conns=[wye wye wye],kvs=[7.967 0.12 0.12],kvas=[25.000000000 25.000000000 25.000000000],Taps=[1,1.000000000,1.000000000],XHL=2.058000000,XHT=2.058000000,XLT=1.646000000,%loadloss=1.420000000,%noloadloss=0.320000000 !30668
new transformer.TRF_112400A Phases=1,Windings=3,Buses=[BMT167700874.2 1054327.1.0 1054327.0.2],Conns=[wye wye wye],kvs=[7.967 0.12 0.12],kvas=[10.000000000 10.000000000 10.000000000],Taps=[1,1.000000000,1.000000000],XHL=1.735000000,XHT=1.735000000,XLT=1.388000000,%loadloss=1.800000000,%noloadloss=0.450000000 !105874
new transformer.TRF_113212A Phases=1,Windings=3,Buses=[BMT164678906.1 1060095.1.0 1060095.0.2],Conns=[wye wye wye],kvs=[7.967 0.12 0.12],kvas=[25.000000000 25.000000000 25.000000000],Taps=[1,1.000000000,1.000000000],XHL=2.058000000,XHT=2.058000000,XLT=1.646000000,%loadloss=1.420000000,%noloadloss=0.320000000 !335048
new transformer.TRF_113296A Phases=1,Windings=3,Buses=[BMT149467561.3 1060858.1.0 1060858.0.2],Conns=[wye wye wye],kvs=[7.967 0.12 0.12],kvas=[35.000000000 35.000000000 35.000000000],Taps=[1,1.000000000,1.000000000],XHL=2.139000000,XHT=2.139000000,XLT=1.712000000,%loadloss=1.293000000,%noloadloss=0.342857000 !293156
new transformer.TRF_114178A Phases=1,Windings=3,Buses=[BMT164678897.3 1066948.1.0 1066948.0.2],Conns=[wye wye wye],kvs=[7.967 0.12 0.12],kvas=[35.000000000 35.000000000 35.000000000],Taps=[1,1.000000000,1.000000000],XHL=2.139000000,XHT=2.139000000,XLT=1.712000000,%loadloss=1.293000000,%noloadloss=0.342857000 !307858
new transformer.TRF_114185A Phases=1,Windings=3,Buses=[BMT180196923.3 1067025.1.0 1067025.0.2],Conns=[wye wye wye],kvs=[7.967 0.12 0.12],kvas=[15.000000000 15.000000000 15.000000000],Taps=[1,1.000000000,1.000000000],XHL=1.921000000,XHT=1.921000000,XLT=1.537000000,%loadloss=1.600000000,%noloadloss=0.400000000 !59300
new transformer.TRF_114276A Phases=1,Windings=3,Buses=[BMT164678895.1 1067438.1.0 1067438.0.2],Conns=[wye wye wye],kvs=[7.967 0.12 0.12],kvas=[35.000000000 35.000000000 35.000000000],Taps=[1,1.000000000,1.000000000],XHL=2.139000000,XHT=2.139000000,XLT=1.712000000,%loadloss=1.293000000,%noloadloss=0.342857000 !20059
new transformer.TRF_114290A Phases=1,Windings=3,Buses=[BMT149467552.2 1067599.1.0 1067599.0.2],Conns=[wye wye wye],kvs=[7.967 0.12 0.12],kvas=[35.000000000 35.000000000 35.000000000],Taps=[1,1.000000000,1.000000000],XHL=2.139000000,XHT=2.139000000,XLT=1.712000000,%loadloss=1.293000000,%noloadloss=0.342857000 !294513
new transformer.TRF_100549A Phases=1,Windings=3,Buses=[BMT151962867.1 970075.1.0 970075.0.2],Conns=[wye wye wye],kvs=[7.967 0.12 0.12],kvas=[35.000000000 35.000000000 35.000000000],Taps=[1,1.000000000,1.000000000],XHL=2.139000000,XHT=2.139000000,XLT=1.712000000,%loadloss=1.293000000,%noloadloss=0.342857000 !291649
new transformer.TRF_103622A Phases=1,Windings=3,Buses=[BMT150650047.3 997655.1.0 997655.0.2],Conns=[wye wye wye],kvs=[7.967 0.12 0.12],kvas=[35.000000000 35.000000000 35.000000000],Taps=[1,1.000000000,1.000000000],XHL=2.139000000,XHT=2.139000000,XLT=1.712000000,%loadloss=1.293000000,%noloadloss=0.342857000 !25860
new transformer.TRF_104357A Phases=1,Windings=3,Buses=[BMT181748794.1 1003199.1.0 1003199.0.2],Conns=[wye wye wye],kvs=[7.967 0.12 0.12],kvas=[5.000000000 5.000000000 5.000000000],Taps=[1,1.000000000,1.000000000],XHL=1.625000000,XHT=1.625000000,XLT=1.300000000,%loadloss=1.900000000,%noloadloss=0.600000000 !3749
new transformer.TRF_105015A Phases=1,Windings=3,Buses=[BMT183161675.2 1006629.1.0 1006629.0.2],Conns=[wye wye wye],kvs=[7.967 0.12 0.12],kvas=[35.000000000 35.000000000 35.000000000],Taps=[1,1.000000000,1.000000000],XHL=2.139000000,XHT=2.139000000,XLT=1.712000000,%loadloss=1.293000000,%noloadloss=0.342857000 !22302
new transformer.TRF_105631A Phases=1,Windings=3,Buses=[BMT175027383.3 1008841.1.0 1008841.0.2],Conns=[wye wye wye],kvs=[7.967 0.12 0.12],kvas=[10.000000000 10.000000000 10.000000000],Taps=[1,1.000000000,1.000000000],XHL=1.735000000,XHT=1.735000000,XLT=1.388000000,%loadloss=1.800000000,%noloadloss=0.450000000 !116863
new transformer.TRF_105645A Phases=1,Windings=3,Buses=[BMT181748800.1 1008869.1.0 1008869.0.2],Conns=[wye wye wye],kvs=[7.967 0.12 0.12],kvas=[10.000000000 10.000000000 10.000000000],Taps=[1,1.000000000,1.000000000],XHL=1.735000000,XHT=1.735000000,XLT=1.388000000,%loadloss=1.800000000,%noloadloss=0.450000000 !5778
new transformer.TRF_106443A Phases=1,Windings=3,Buses=[BMT183157344.2 1013566.1.0 1013566.0.2],Conns=[wye wye wye],kvs=[7.967 0.12 0.12],kvas=[15.000000000 15.000000000 15.000000000],Taps=[1,1.000000000,1.000000000],XHL=1.921000000,XHT=1.921000000,XLT=1.537000000,%loadloss=1.600000000,%noloadloss=0.400000000 !403444
new transformer.TRF_106513A Phases=1,Windings=3,Buses=[BMT181748788.1 1013986.1.0 1013986.0.2],Conns=[wye wye wye],kvs=[7.967 0.12 0.12],kvas=[10.000000000 10.000000000 10.000000000],Taps=[1,1.000000000,1.000000000],XHL=1.735000000,XHT=1.735000000,XLT=1.388000000,%loadloss=1.800000000,%noloadloss=0.450000000 !379808
new transformer.TRF_107514A Phases=1,Windings=3,Buses=[BMT159589212.3 1020489.1.0 1020489.0.2],Conns=[wye wye wye],kvs=[7.967 0.12 0.12],kvas=[5.000000000 5.000000000 5.000000000],Taps=[1,1.000000000,1.000000000],XHL=1.625000000,XHT=1.625000000,XLT=1.300000000,%loadloss=1.900000000,%noloadloss=0.600000000 !10614
new transformer.TRF_108102A Phases=1,Windings=3,Buses=[BMT183157351.1 1024892.1.0 1024892.0.2],Conns=[wye wye wye],kvs=[7.967 0.12 0.12],kvas=[10.000000000 10.000000000 10.000000000],Taps=[1,1.000000000,1.000000000],XHL=1.735000000,XHT=1.735000000,XLT=1.388000000,%loadloss=1.800000000,%noloadloss=0.450000000 !91941
new transformer.TRF_108172A Phases=1,Windings=3,Buses=[BMT163711335.3 1025116.1.0 1025116.0.2],Conns=[wye wye wye],kvs=[7.967 0.12 0.12],kvas=[10.000000000 10.000000000 10.000000000],Taps=[1,1.000000000,1.000000000],XHL=1.735000000,XHT=1.735000000,XLT=1.388000000,%loadloss=1.800000000,%noloadloss=0.450000000 !254535
new transformer.TRF_109537 Phases=3,Windings=2,Buses=[BMT178388620.1.2.3 1033110.1.2.3.0],Conns=[delta,wye],kvs=[13.800000000,0.220000000],kvas=[75.000000000 75.000000000],Taps=[1,1.000000000],XHL=3.770000000,%loadloss=1.340000000,%noloadloss=0.340000000 !162684
new transformer.TRF_110307A Phases=1,Windings=3,Buses=[BMT173075515.2 1038437.1.0 1038437.0.2],Conns=[wye wye wye],kvs=[7.967 0.12 0.12],kvas=[10.000000000 10.000000000 10.000000000],Taps=[1,1.000000000,1.000000000],XHL=1.735000000,XHT=1.735000000,XLT=1.388000000,%loadloss=1.800000000,%noloadloss=0.450000000 !2435
new transformer.TRF_1109313A Phases=1,Windings=3,Buses=[BMT129629803.3 25079847.1.0 25079847.0.2],Conns=[wye wye wye],kvs=[7.967 0.12 0.12],kvas=[5.000000000 5.000000000 5.000000000],Taps=[1,1.000000000,1.000000000],XHL=1.625000000,XHT=1.625000000,XLT=1.300000000,%loadloss=1.900000000,%noloadloss=0.600000000 !388469
new transformer.TRF_1109327A Phases=1,Windings=3,Buses=[BMT129629796.3 25080127.1.0 25080127.0.2],Conns=[wye wye wye],kvs=[7.967 0.12 0.12],kvas=[5.000000000 5.000000000 5.000000000],Taps=[1,1.000000000,1.000000000],XHL=1.625000000,XHT=1.625000000,XLT=1.300000000,%loadloss=1.900000000,%noloadloss=0.600000000 !388947
new transformer.TRF_110937 Phases=3,Windings=2,Buses=[BMT178388621.1.2.3 1043008.1.2.3.0],Conns=[delta,wye],kvs=[13.800000000,0.220000000],kvas=[45.000000000 45.000000000],Taps=[1,1.000000000],XHL=3.700000000,%loadloss=1.520000000,%noloadloss=0.377777000 !54531
new transformer.TRF_111595A Phases=1,Windings=3,Buses=[BMT180196918.3 1047628.1.0 1047628.0.2],Conns=[wye wye wye],kvs=[7.967 0.12 0.12],kvas=[10.000000000 10.000000000 10.000000000],Taps=[1,1.000000000,1.000000000],XHL=1.735000000,XHT=1.735000000,XLT=1.388000000,%loadloss=1.800000000,%noloadloss=0.450000000 !67858
new transformer.TRF_112253 Phases=3,Windings=2,Buses=[BMT176434890.1.2.3 1052934.1.2.3.0],Conns=[delta,wye],kvs=[13.800000000,0.220000000],kvas=[45.000000000 45.000000000],Taps=[1,1.000000000],XHL=3.700000000,%loadloss=1.520000000,%noloadloss=0.377777000 !376049
new transformer.TRF_112274 Phases=3,Windings=2,Buses=[BMT176434892.1.2.3 1053165.1.2.3.0],Conns=[delta,wye],kvs=[13.800000000,0.220000000],kvas=[45.000000000 45.000000000],Taps=[1,1.000000000],XHL=3.700000000,%loadloss=1.520000000,%noloadloss=0.377777000 !393487
new transformer.TRF_113121A Phases=1,Windings=3,Buses=[BMT181366027.2 1059661.1.0 1059661.0.2],Conns=[wye wye wye],kvs=[7.967 0.12 0.12],kvas=[5.000000000 5.000000000 5.000000000],Taps=[1,1.000000000,1.000000000],XHL=1.625000000,XHT=1.625000000,XLT=1.300000000,%loadloss=1.900000000,%noloadloss=0.600000000 !823
new transformer.TRF_1131272 Phases=3,Windings=2,Buses=[BMT165676071.1.2.3 29536383.1.2.3.0],Conns=[delta,wye],kvs=[13.800000000,0.220000000],kvas=[150.000000000 150.000000000],Taps=[1,1.000000000],XHL=3.840000000,%loadloss=1.130000000,%noloadloss=0.000000000 !204635
new transformer.TRF_113149A Phases=1,Windings=3,Buses=[BMT149467554.1 1059717.1.0 1059717.0.2],Conns=[wye wye wye],kvs=[7.967 0.12 0.12],kvas=[25.000000000 25.000000000 25.000000000],Taps=[1,1.000000000,1.000000000],XHL=2.058000000,XHT=2.058000000,XLT=1.646000000,%loadloss=1.420000000,%noloadloss=0.320000000 !4644
new transformer.TRF_113163A Phases=1,Windings=3,Buses=[BMT149034131.3 1059801.1.0 1059801.0.2],Conns=[wye wye wye],kvs=[7.967 0.12 0.12],kvas=[35.000000000 35.000000000 35.000000000],Taps=[1,1.000000000,1.000000000],XHL=2.139000000,XHT=2.139000000,XLT=1.712000000,%loadloss=1.293000000,%noloadloss=0.342857000 !27918
new transformer.TRF_114045A Phases=1,Windings=3,Buses=[BMT164678907.3 1066129.1.0 1066129.0.2],Conns=[wye wye wye],kvs=[7.967 0.12 0.12],kvas=[35.000000000 35.000000000 35.000000000],Taps=[1,1.000000000,1.000000000],XHL=2.139000000,XHT=2.139000000,XLT=1.712000000,%loadloss=1.293000000,%noloadloss=0.342857000 !313461
new transformer.TRF_114066A Phases=1,Windings=3,Buses=[BMT182194875.3 1066325.1.0 1066325.0.2],Conns=[wye wye wye],kvs=[7.967 0.12 0.12],kvas=[10.000000000 10.000000000 10.000000000],Taps=[1,1.000000000,1.000000000],XHL=1.735000000,XHT=1.735000000,XLT=1.388000000,%loadloss=1.800000000,%noloadloss=0.450000000 !4457
new transformer.TRF_114101A Phases=1,Windings=3,Buses=[BMT164678891.1 1066507.1.0 1066507.0.2],Conns=[wye wye wye],kvs=[7.967 0.12 0.12],kvas=[35.000000000 35.000000000 35.000000000],Taps=[1,1.000000000,1.000000000],XHL=2.139000000,XHT=2.139000000,XLT=1.712000000,%loadloss=1.293000000,%noloadloss=0.342857000 !66848
new transformer.TRF_114129A Phases=1,Windings=3,Buses=[BMT182194881.3 1066731.1.0 1066731.0.2],Conns=[wye wye wye],kvs=[7.967 0.12 0.12],kvas=[15.000000000 15.000000000 15.000000000],Taps=[1,1.000000000,1.000000000],XHL=1.921000000,XHT=1.921000000,XLT=1.537000000,%loadloss=1.600000000,%noloadloss=0.400000000 !35789
new transformer.TRF_114150A Phases=1,Windings=3,Buses=[BMT164678894.1 1066773.1.0 1066773.0.2],Conns=[wye wye wye],kvs=[7.967 0.12 0.12],kvas=[35.000000000 35.000000000 35.000000000],Taps=[1,1.000000000,1.000000000],XHL=2.139000000,XHT=2.139000000,XLT=1.712000000,%loadloss=1.293000000,%noloadloss=0.342857000 !294187
new transformer.TRF_114157A Phases=1,Windings=3,Buses=[BMT182194872.3 1066850.1.0 1066850.0.2],Conns=[wye wye wye],kvs=[7.967 0.12 0.12],kvas=[35.000000000 35.000000000 35.000000000],Taps=[1,1.000000000,1.000000000],XHL=2.139000000,XHT=2.139000000,XLT=1.712000000,%loadloss=1.293000000,%noloadloss=0.342857000 !322736
new transformer.TRF_1152685A Phases=1,Windings=3,Buses=[BMT183439943.3 34560892.1.0 34560892.0.2],Conns=[wye wye wye],kvs=[7.967 0.12 0.12],kvas=[10.000000000 10.000000000 10.000000000],Taps=[1,1.000000000,1.000000000],XHL=1.735000000,XHT=1.735000000,XLT=1.388000000,%loadloss=1.800000000,%noloadloss=0.450000000 !381895
new transformer.TRF_101130A Phases=1,Windings=3,Buses=[BMT165509281.2 974695.1.0 974695.0.2],Conns=[wye wye wye],kvs=[7.967 0.12 0.12],kvas=[10.000000000 10.000000000 10.000000000],Taps=[1,1.000000000,1.000000000],XHL=1.735000000,XHT=1.735000000,XLT=1.388000000,%loadloss=1.800000000,%noloadloss=0.450000000 !17621
new transformer.TRF_105694A Phases=1,Windings=3,Buses=[BMT183157342.1 1008967.1.0 1008967.0.2],Conns=[wye wye wye],kvs=[7.967 0.12 0.12],kvas=[5.000000000 5.000000000 5.000000000],Taps=[1,1.000000000,1.000000000],XHL=1.625000000,XHT=1.625000000,XLT=1.300000000,%loadloss=1.900000000,%noloadloss=0.600000000 !143791
new transformer.TRF_105771A Phases=1,Windings=3,Buses=[BMT183411315.1 1009499.1.0 1009499.0.2],Conns=[wye wye wye],kvs=[7.967 0.12 0.12],kvas=[35.000000000 35.000000000 35.000000000],Taps=[1,1.000000000,1.000000000],XHL=2.139000000,XHT=2.139000000,XLT=1.712000000,%loadloss=1.293000000,%noloadloss=0.342857000 !26654
new transformer.TRF_106338A Phases=1,Windings=3,Buses=[BMT159589206.3 1013083.1.0 1013083.0.2],Conns=[wye wye wye],kvs=[7.967 0.12 0.12],kvas=[5.000000000 5.000000000 5.000000000],Taps=[1,1.000000000,1.000000000],XHL=1.625000000,XHT=1.625000000,XLT=1.300000000,%loadloss=1.900000000,%noloadloss=0.600000000 !6670
new transformer.TRF_1063400 Phases=3,Windings=2,Buses=[BMT98852637.1.2.3 12535462.1.2.3.0],Conns=[delta,wye],kvs=[13.800000000,0.220000000],kvas=[300.000000000 300.000000000],Taps=[1,1.000000000],XHL=4.900000000,%loadloss=0.990000000,%noloadloss=0.000000000 !196395
new transformer.TRF_1063799 Phases=3,Windings=2,Buses=[BMT181702785.1.2.3 12720864.1.2.3.0],Conns=[delta,wye],kvs=[13.800000000,0.220000000],kvas=[150.000000000 150.000000000],Taps=[1,1.000000000],XHL=3.840000000,%loadloss=1.130000000,%noloadloss=0.000000000 !197034
new transformer.TRF_107080A Phases=1,Windings=3,Buses=[BMT159589209.3 1017654.1.0 1017654.0.2],Conns=[wye wye wye],kvs=[7.967 0.12 0.12],kvas=[15.000000000 15.000000000 15.000000000],Taps=[1,1.000000000,1.000000000],XHL=1.921000000,XHT=1.921000000,XLT=1.537000000,%loadloss=1.600000000,%noloadloss=0.400000000 !23695
new transformer.TRF_107787A Phases=1,Windings=3,Buses=[BMT148636741.1 1022358.1.0 1022358.0.2],Conns=[wye wye wye],kvs=[7.967 0.12 0.12],kvas=[10.000000000 10.000000000 10.000000000],Taps=[1,1.000000000,1.000000000],XHL=1.735000000,XHT=1.735000000,XLT=1.388000000,%loadloss=1.800000000,%noloadloss=0.450000000 !13438