new load.3009000918M1 bus1=BMT122158215.1.2.3,Phases=3,kv=13.8,kW=12.64774,pf=0.92,Vminpu=0.93,Vmaxpu=1.5,model=1,daily=A4-1,status=variable
new load.3009004164M1 bus1=BMT165751980.1.2.3,Phases=3,kv=13.8,kW=44.67284,pf=0.92,Vminpu=0.93,Vmaxpu=1.5,model=1,daily=A4-3,status=variable
new load.3009004172M1 bus1=BMT168772458.1.2.3,Phases=3,kv=13.8,kW=2.34868,pf=0.92,Vminpu=0.93,Vmaxpu=1.5,model=1,daily=A4-4,status=variable
new load.3009004173M1 bus1=BMT168513303.1.2.3,Phases=3,kv=13.8,kW=9.308,pf=0.92,Vminpu=0.93,Vmaxpu=1.5,model=1,daily=A4-6,status=variable
new load.3009004176M1 bus1=BMT165751982.1.2.3,Phases=3,kv=13.8,kW=24.15532,pf=0.92,Vminpu=0.93,Vmaxpu=1.5,model=1,daily=A4-2,status=variable
new load.3009007992M1 bus1=BMT169942183.1.2.3,Phases=3,kv=13.8,kW=301.6579,pf=0.92,Vminpu=0.93,Vmaxpu=1.5,model=1,daily=A4-4,status=variable
new load.3009009232M1 bus1=BMT165751422.1.2.3,Phases=3,kv=13.8,kW=27.34726,pf=0.92,Vminpu=0.93,Vmaxpu=1.5,model=1,daily=A4-3,status=variable
new load.3009010037M1 bus1=BMT165750709.1.2.3,Phases=3,kv=13.8,kW=19.28086,pf=0.92,Vminpu=0.93,Vmaxpu=1.5,model=1,daily=A4-6,status=variable
new load.3009010246M1 bus1=BMT137351890.1.2.3,Phases=3,kv=13.8,kW=25.96544,pf=0.92,Vminpu=0.93,Vmaxpu=1.5,model=1,daily=A4-4,status=variable
new load.3009010247M1 bus1=BMT165748983.1.2.3,Phases=3,kv=13.8,kW=18.97918,pf=0.92,Vminpu=0.93,Vmaxpu=1.5,model=1,daily=A4-2,status=variable
new load.3009011637M1 bus1=BMT165751969.1.2.3,Phases=3,kv=13.8,kW=8.7177,pf=0.92,Vminpu=0.93,Vmaxpu=1.5,model=1,daily=A4-2,status=variable
new load.3009013337M1 bus1=BMT165750911.1.2.3,Phases=3,kv=13.8,kW=190.8298,pf=0.92,Vminpu=0.93,Vmaxpu=1.5,model=1,daily=A4-4,status=variable
new load.3009014827M1 bus1=BMT165749836.1.2.3,Phases=3,kv=13.8,kW=0.27242,pf=0.92,Vminpu=0.93,Vmaxpu=1.5,model=1,daily=A4-2,status=variable
new load.3009014828M1 bus1=BMT165749820.1.2.3,Phases=3,kv=13.8,kW=0.27242,pf=0.92,Vminpu=0.93,Vmaxpu=1.5,model=1,daily=A4-2,status=variable
new load.3009018938M1 bus1=BMT122155660.1.2.3,Phases=3,kv=13.8,kW=44.31502,pf=0.92,Vminpu=0.93,Vmaxpu=1.5,model=1,daily=A4-2,status=variable
new load.3009020130M1 bus1=BMT137337099.1.2.3,Phases=3,kv=13.8,kW=35.5973,pf=0.92,Vminpu=0.93,Vmaxpu=1.5,model=1,daily=A4-2,status=variable
new load.3009020197M1 bus1=BMT122156507.1.2.3,Phases=3,kv=13.8,kW=26.51636,pf=0.92,Vminpu=0.93,Vmaxpu=1.5,model=1,daily=A4-2,status=variable
new load.3009020840M1 bus1=BMT165749795.1.2.3,Phases=3,kv=13.8,kW=251.76398,pf=0.92,Vminpu=0.93,Vmaxpu=1.5,model=1,daily=A4-7,status=variable
new load.3010263653M1 bus1=BMT165751424.1.2.3,Phases=3,kv=13.8,kW=1.57278,pf=0.92,Vminpu=0.93,Vmaxpu=1.5,model=1,daily=A4-1,status=variable
new load.3010595523M1 bus1=BMT165751249.1.2.3,Phases=3,kv=13.8,kW=58.94098,pf=0.92,Vminpu=0.93,Vmaxpu=1.5,model=1,daily=A4-3,status=variable
new load.3010914408M1 bus1=BMT168434014.1.2.3,Phases=3,kv=13.8,kW=2069.63274,pf=0.92,Vminpu=0.93,Vmaxpu=1.5,model=1,daily=A4-7,status=variable
new load.3011091181M1 bus1=BMT165750783.1.2.3,Phases=3,kv=13.8,kW=152.91722,pf=0.92,Vminpu=0.93,Vmaxpu=1.5,model=1,daily=A4-6,status=variable
new load.3011143519M1 bus1=BMT146425703.1.2.3,Phases=3,kv=13.8,kW=72.0201,pf=0.92,Vminpu=0.93,Vmaxpu=1.5,model=1,daily=A4-3,status=variable
new load.3011239154M1 bus1=BMT165750958.1.2.3,Phases=3,kv=13.8,kW=47.39472,pf=0.92,Vminpu=0.93,Vmaxpu=1.5,model=1,daily=A4-3,status=variable
new load.3011622529M1 bus1=BMT150346817.1.2.3,Phases=3,kv=13.8,kW=84.94706,pf=0.92,Vminpu=0.93,Vmaxpu=1.5,model=1,daily=A4-5,status=variable
new load.3012264958M1 bus1=BMT165750481.1.2.3,Phases=3,kv=13.8,kW=0.89508,pf=0.92,Vminpu=0.93,Vmaxpu=1.5,model=1,daily=A4-1,status=variable
new load.3012678702M1 bus1=BMT165751974.1.2.3,Phases=3,kv=13.8,kW=11.2894,pf=0.92,Vminpu=0.93,Vmaxpu=1.5,model=1,daily=A4-3,status=variable
new load.3013007582M1 bus1=BMT157054390.1.2.3,Phases=3,kv=13.8,kW=215.1288,pf=0.92,Vminpu=0.93,Vmaxpu=1.5,model=1,daily=A4-7,status=variable
new load.3013443079M1 bus1=BMT169273612.1.2.3,Phases=3,kv=13.8,kW=117.51968,pf=0.92,Vminpu=0.93,Vmaxpu=1.5,model=1,daily=A4-5,status=variable
new load.3013798817M1 bus1=BMT165456458.1.2.3,Phases=3,kv=13.8,kW=7.27248,pf=0.92,Vminpu=0.93,Vmaxpu=1.5,model=1,daily=A4-1,status=variable
new load.3014078488M1 bus1=BMT173341089.1.2.3,Phases=3,kv=13.8,kW=19.57518,pf=0.92,Vminpu=0.93,Vmaxpu=1.5,model=1,daily=A4-3,status=variable
