new load.3011867895M1 bus1=RML1010433824.1.2.0,Phases=2,kv=0.24,kW=0.37794,pf=0.92,Vminpu=0.92,Vmaxpu=1.5,model=1,daily=RUR1_13,status=variable
new load.3011804780M1 bus1=RML1010408328.1.2.0,Phases=2,kv=0.24,kW=1.15438,pf=0.92,Vminpu=0.92,Vmaxpu=1.5,model=1,daily=RUR1_12,status=variable
new load.3003561870M1 bus1=RML1000829896.1.2.3.0,Phases=3,kv=0.22,kW=0.48728,pf=0.92,Vminpu=0.92,Vmaxpu=1.5,model=1,daily=RUR2_5,status=variable
new load.3004514645M1 bus1=RML1000829903.1.2.0,Phases=2,kv=0.24,kW=5.5932,pf=0.92,Vminpu=0.92,Vmaxpu=1.5,model=1,daily=RUR1_5,status=variable
new load.3001195324M1 bus1=RML1000829938.1.2.3.0,Phases=3,kv=0.22,kW=0.92696,pf=0.92,Vminpu=0.92,Vmaxpu=1.5,model=1,daily=RUR1_5,status=variable
new load.3004088183M1 bus1=RML1000829959.1.2.0,Phases=2,kv=0.24,kW=4.54206,pf=0.92,Vminpu=0.92,Vmaxpu=1.5,model=1,daily=RUR3_16,status=variable
new load.3004088182M1 bus1=RML1000829973.1.2.0,Phases=2,kv=0.24,kW=0.63014,pf=0.92,Vminpu=0.92,Vmaxpu=1.5,model=1,daily=RUR1_16,status=variable
new load.3004482290M1 bus1=RML1000829980.1.2.0,Phases=2,kv=0.24,kW=1.34404,pf=0.92,Vminpu=0.92,Vmaxpu=1.5,model=1,daily=RUR1_3,status=variable
new load.3010408460M1 bus1=RML1000829980.1.2.0,Phases=2,kv=0.24,kW=1.02408,pf=0.92,Vminpu=0.92,Vmaxpu=1.5,model=1,daily=RUR4_2,status=variable
new load.3000130722M1 bus1=RML1000829994.1.2.3.0,Phases=3,kv=0.22,kW=3.83098,pf=0.92,Vminpu=0.92,Vmaxpu=1.5,model=1,daily=RUR4_2,status=variable
new load.3001555187M1 bus1=RML1000830043.1.2.3.0,Phases=3,kv=0.22,kW=5.64974,pf=0.92,Vminpu=0.92,Vmaxpu=1.5,model=1,daily=RUR2_8,status=variable
new load.3004289828M1 bus1=RML1000830050.1.2.0,Phases=2,kv=0.24,kW=10.88382,pf=0.92,Vminpu=0.92,Vmaxpu=1.5,model=1,daily=RUR4_21,status=variable
new load.3006077545M1 bus1=RML1000830050.1.2.0,Phases=2,kv=0.24,kW=2.44876,pf=0.92,Vminpu=0.92,Vmaxpu=1.5,model=1,daily=RES5_13,status=variable
new load.3004440702M1 bus1=RML1000830057.1.2.0,Phases=2,kv=0.24,kW=6.58964,pf=0.92,Vminpu=0.92,Vmaxpu=1.5,model=1,daily=RUR1_2,status=variable
new load.3004289829M1 bus1=RML1000830071.1.2.0,Phases=2,kv=0.24,kW=0.34784,pf=0.92,Vminpu=0.92,Vmaxpu=1.5,model=1,daily=RES4_19,status=variable
new load.3005030383M1 bus1=RML1000830071.1.2.0,Phases=2,kv=0.24,kW=1.03606,pf=0.92,Vminpu=0.92,Vmaxpu=1.5,model=1,daily=RES1_13,status=variable
new load.3005030384M1 bus1=RML1000830071.1.2.0,Phases=2,kv=0.24,kW=0.9377,pf=0.92,Vminpu=0.92,Vmaxpu=1.5,model=1,daily=RUR1_16,status=variable
new load.3005367829M1 bus1=RML1000830071.1.2.0,Phases=2,kv=0.24,kW=1.84338,pf=0.92,Vminpu=0.92,Vmaxpu=1.5,model=1,daily=RUR2_23,status=variable
new load.3006017487M1 bus1=RML1000830071.1.2.0,Phases=2,kv=0.24,kW=1.08064,pf=0.92,Vminpu=0.92,Vmaxpu=1.5,model=1,daily=RUR2_11,status=variable
new load.3004289831M1 bus1=RML1000830085.1.2.0,Phases=2,kv=0.24,kW=5.44854,pf=0.92,Vminpu=0.92,Vmaxpu=1.5,model=1,daily=COM3_23,status=variable
new load.3000130691M1 bus1=RML1000830939.1.2.3.0,Phases=3,kv=0.22,kW=0.7448,pf=0.92,Vminpu=0.92,Vmaxpu=1.5,model=1,daily=RUR2_5,status=variable
new load.3000130769M1 bus1=RML1000830953.1.2.3.0,Phases=3,kv=0.22,kW=3.60094,pf=0.92,Vminpu=0.92,Vmaxpu=1.5,model=1,daily=RUR4_2,status=variable
new load.3000130717M1 bus1=RML1000830967.1.2.3.0,Phases=3,kv=0.22,kW=1.96924,pf=0.92,Vminpu=0.92,Vmaxpu=1.5,model=1,daily=RUR3_3,status=variable
new load.3004136774M1 bus1=RML1000830974.1.2.0,Phases=2,kv=0.24,kW=0.09752,pf=0.92,Vminpu=0.92,Vmaxpu=1.5,model=1,daily=RUR1_16,status=variable
new load.3004327094M1 bus1=RML1000831044.1.2.0,Phases=2,kv=0.24,kW=3.81164,pf=0.92,Vminpu=0.92,Vmaxpu=1.5,model=1,daily=RUR1_25,status=variable
new load.3000130708M1 bus1=RML1000831065.1.2.3.0,Phases=3,kv=0.22,kW=1.1093,pf=0.92,Vminpu=0.92,Vmaxpu=1.5,model=1,daily=RUR3_3,status=variable
new load.3000130771M1 bus1=RML1000831079.1.2.3.0,Phases=3,kv=0.22,kW=0.12282,pf=0.92,Vminpu=0.92,Vmaxpu=1.5,model=1,daily=RUR2_5,status=variable
new load.3000130767M1 bus1=RML1000831086.1.2.3.0,Phases=3,kv=0.22,kW=1.9085,pf=0.92,Vminpu=0.92,Vmaxpu=1.5,model=1,daily=RUR3_3,status=variable
new load.3000130775M1 bus1=RML1000831093.1.2.3.0,Phases=3,kv=0.22,kW=0.51468,pf=0.92,Vminpu=0.92,Vmaxpu=1.5,model=1,daily=RUR3_3,status=variable
new load.3000130723M1 bus1=RML1000831128.1.2.3.0,Phases=3,kv=0.22,kW=1.33946,pf=0.92,Vminpu=0.92,Vmaxpu=1.5,model=1,daily=RUR3_3,status=variable
new load.3006734641M1 bus1=RML1000831128.1.2.3.0,Phases=3,kv=0.22,kW=0.7701,pf=0.92,Vminpu=0.92,Vmaxpu=1.5,model=1,daily=RUR1_6,status=variable
new load.3004775540M1 bus1=RML1000831142.1.2.0,Phases=2,kv=0.24,kW=3.94164,pf=0.92,Vminpu=0.92,Vmaxpu=1.5,model=1,daily=RUR1_11,status=variable
new load.3000130765M1 bus1=RML1000831156.1.2.3.0,Phases=3,kv=0.22,kW=0.23656,pf=0.92,Vminpu=0.92,Vmaxpu=1.5,model=1,daily=RUR3_3,status=variable
new load.3000130788M1 bus1=RML1000831184.1.2.3.0,Phases=3,kv=0.22,kW=1.23928,pf=0.92,Vminpu=0.92,Vmaxpu=1.5,model=1,daily=RUR4_2,status=variable
new load.3004136772M1 bus1=RML1000831191.1.2.3.0,Phases=3,kv=0.22,kW=2.64058,pf=0.92,Vminpu=0.92,Vmaxpu=1.5,model=1,daily=RUR1_16,status=variable
new load.3003897952M1 bus1=RML1000849398.1.2.3.0,Phases=3,kv=0.22,kW=1.73706,pf=0.92,Vminpu=0.92,Vmaxpu=1.5,model=1,daily=RUR2_13,status=variable
new load.3000130763M1 bus1=RML1000850651.1.2.3.0,Phases=3,kv=0.22,kW=1.39702,pf=0.92,Vminpu=0.92,Vmaxpu=1.5,model=1,daily=RUR3_3,status=variable
new load.3000655861M1 bus1=RML1000850679.1.0,Phases=1,kv=0.127,kW=0.65724,pf=0.92,Vminpu=0.92,Vmaxpu=1.5,model=1,daily=RES3_11,status=variable
new load.3000655862M1 bus1=RML1000850686.1.0,Phases=1,kv=0.127,kW=1.82576,pf=0.92,Vminpu=0.92,Vmaxpu=1.5,model=1,daily=RES4_12,status=variable
new load.3000655866M1 bus1=RML1000850728.3.0,Phases=1,kv=0.127,kW=0.13982,pf=0.92,Vminpu=0.92,Vmaxpu=1.5,model=1,daily=RES1_11,status=variable
new load.3000655867M1 bus1=RML1000850721.2.3.0,Phases=2,kv=0.22,kW=1.08276,pf=0.92,Vminpu=0.92,Vmaxpu=1.5,model=1,daily=RES3_11,status=variable
new load.3000655869M1 bus1=RML1000850700.2.3.0,Phases=2,kv=0.22,kW=0.17332,pf=0.92,Vminpu=0.92,Vmaxpu=1.5,model=1,daily=RES2_11,status=variable
new load.3000655870M1 bus1=RML1000850672.1.2.0,Phases=2,kv=0.22,kW=2.43592,pf=0.92,Vminpu=0.92,Vmaxpu=1.5,model=1,daily=RES5_13,status=variable
new load.IP313660M1 bus1=BBT614702.1.3.0,Phases=2,kv=0.22,kW=0.11292,pf=0.92,Vminpu=0.92,Vmaxpu=1.5,model=1,daily=IP,status=variable,NumCust=0
new load.IP313667M1 bus1=BBT614709.1.3.0,Phases=2,kv=0.22,kW=0.11292,pf=0.92,Vminpu=0.92,Vmaxpu=1.5,model=1,daily=IP,status=variable,NumCust=0
new load.IP313674M1 bus1=BBT614716.1.2.0,Phases=2,kv=0.22,kW=0.11292,pf=0.92,Vminpu=0.92,Vmaxpu=1.5,model=1,daily=IP,status=variable,NumCust=0
new load.IP313681M1 bus1=BBT614723.2.3.0,Phases=2,kv=0.22,kW=0.11292,pf=0.92,Vminpu=0.92,Vmaxpu=1.5,model=1,daily=IP,status=variable,NumCust=0
new load.IP313618M1 bus1=BBT614646.1.2.0,Phases=2,kv=0.22,kW=0.11292,pf=0.92,Vminpu=0.92,Vmaxpu=1.5,model=1,daily=IP,status=variable,NumCust=0
new load.IP313625M1 bus1=BBT614653.1.2.0,Phases=2,kv=0.22,kW=0.11292,pf=0.92,Vminpu=0.92,Vmaxpu=1.5,model=1,daily=IP,status=variable,NumCust=0
new load.IP313632M1 bus1=BBT614660.1.3.0,Phases=2,kv=0.22,kW=0.11292,pf=0.92,Vminpu=0.92,Vmaxpu=1.5,model=1,daily=IP,status=variable,NumCust=0
new load.IP313639M1 bus1=BBT614667.1.2.0,Phases=2,kv=0.22,kW=0.11292,pf=0.92,Vminpu=0.92,Vmaxpu=1.5,model=1,daily=IP,status=variable,NumCust=0
new load.IP313646M1 bus1=BBT614681.1.2.0,Phases=2,kv=0.22,kW=0.11292,pf=0.92,Vminpu=0.92,Vmaxpu=1.5,model=1,daily=IP,status=variable,NumCust=0
new load.IP313653M1 bus1=BBT614695.1.2.0,Phases=2,kv=0.22,kW=0.11292,pf=0.92,Vminpu=0.92,Vmaxpu=1.5,model=1,daily=IP,status=variable,NumCust=0
new load.IP313485M1 bus1=BBT614436.1.3.0,Phases=2,kv=0.22,kW=0.11292,pf=0.92,Vminpu=0.92,Vmaxpu=1.5,model=1,daily=IP,status=variable,NumCust=0
new load.IP313492M1 bus1=BBT614443.2.3.0,Phases=2,kv=0.22,kW=0.11292,pf=0.92,Vminpu=0.92,Vmaxpu=1.5,model=1,daily=IP,status=variable,NumCust=0
new load.IP313590M1 bus1=BBT614611.1.2.0,Phases=2,kv=0.22,kW=0.11292,pf=0.92,Vminpu=0.92,Vmaxpu=1.5,model=1,daily=IP,status=variable,NumCust=0
new load.IP313597M1 bus1=BBT614618.1.3.0,Phases=2,kv=0.22,kW=0.11292,pf=0.92,Vminpu=0.92,Vmaxpu=1.5,model=1,daily=IP,status=variable,NumCust=0
new load.IP313604M1 bus1=BBT614625.1.2.0,Phases=2,kv=0.22,kW=0.11292,pf=0.92,Vminpu=0.92,Vmaxpu=1.5,model=1,daily=IP,status=variable,NumCust=0
new load.IP313611M1 bus1=BBT614639.1.2.0,Phases=2,kv=0.22,kW=0.11292,pf=0.92,Vminpu=0.92,Vmaxpu=1.5,model=1,daily=IP,status=variable,NumCust=0
new load.3005744344M1 bus1=RML1000850896.1.2.3.0,Phases=3,kv=0.22,kW=0.4355,pf=0.92,Vminpu=0.92,Vmaxpu=1.5,model=1,daily=RES4_7,status=variable
new load.3005968834M1 bus1=RML1000850994.1.0,Phases=1,kv=0.127,kW=5.25244,pf=0.92,Vminpu=0.92,Vmaxpu=1.5,model=1,daily=RES1_10,status=variable
new load.3007279967M1 bus1=RML1004652757.3.0,Phases=1,kv=0.127,kW=0.44458,pf=0.92,Vminpu=0.92,Vmaxpu=1.5,model=1,daily=RES2_12,status=variable
new load.3007279969M1 bus1=RML1004652750.3.0,Phases=1,kv=0.127,kW=0.70226,pf=0.92,Vminpu=0.92,Vmaxpu=1.5,model=1,daily=RES1_12,status=variable
new load.IP1839086M1 bus1=BBT3749610.1.3.0,Phases=2,kv=0.22,kW=0.11292,pf=0.92,Vminpu=0.92,Vmaxpu=1.5,model=1,daily=IP,status=variable,NumCust=0
new load.3000656003M1 bus1=RML1000850952.1.2.3.0,Phases=3,kv=0.22,kW=12.25454,pf=0.92,Vminpu=0.92,Vmaxpu=1.5,model=1,daily=RES1_11,status=variable
new load.3000656004M1 bus1=RML1000850882.1.2.0,Phases=2,kv=0.22,kW=1.95644,pf=0.92,Vminpu=0.92,Vmaxpu=1.5,model=1,daily=RES5_13,status=variable
new load.3003355974M1 bus1=RML1000850840.1.2.3.0,Phases=3,kv=0.22,kW=0.73208,pf=0.92,Vminpu=0.92,Vmaxpu=1.5,model=1,daily=COM1_2,status=variable
new load.3003355975M1 bus1=RML1000850840.1.2.3.0,Phases=3,kv=0.22,kW=0.01324,pf=0.92,Vminpu=0.92,Vmaxpu=1.5,model=1,daily=COM1_2,status=variable
new load.3003527035M1 bus1=RML1000850945.1.2.3.0,Phases=3,kv=0.22,kW=0.63652,pf=0.92,Vminpu=0.92,Vmaxpu=1.5,model=1,daily=RES3_4,status=variable
new load.3003994639M1 bus1=RML1000850987.1.3.0,Phases=2,kv=0.22,kW=1.40934,pf=0.92,Vminpu=0.92,Vmaxpu=1.5,model=1,daily=RES2_14,status=variable
new load.3000655990M1 bus1=RML1000850854.3.0,Phases=1,kv=0.127,kW=1.09118,pf=0.92,Vminpu=0.92,Vmaxpu=1.5,model=1,daily=RES3_11,status=variable
new load.3000655991M1 bus1=RML1000850840.1.2.3.0,Phases=3,kv=0.22,kW=0.95468,pf=0.92,Vminpu=0.92,Vmaxpu=1.5,model=1,daily=RES5_13,status=variable
new load.3000655992M1 bus1=RML1000850889.2.0,Phases=1,kv=0.127,kW=2.18826,pf=0.92,Vminpu=0.92,Vmaxpu=1.5,model=1,daily=RES2_11,status=variable
new load.3000655994M1 bus1=RML1000850959.1.0,Phases=1,kv=0.127,kW=1.26746,pf=0.92,Vminpu=0.92,Vmaxpu=1.5,model=1,daily=RES2_11,status=variable
new load.3000655995M1 bus1=RML1010162426.2.3.0,Phases=2,kv=0.22,kW=1.29716,pf=0.92,Vminpu=0.92,Vmaxpu=1.5,model=1,daily=RES5_13,status=variable
new load.3000655996M1 bus1=RML1000851008.2.0,Phases=1,kv=0.127,kW=2.0674,pf=0.92,Vminpu=0.92,Vmaxpu=1.5,model=1,daily=RES1_11,status=variable
new load.3000655984M1 bus1=RML1000850791.2.3.0,Phases=2,kv=0.22,kW=1.24708,pf=0.92,Vminpu=0.92,Vmaxpu=1.5,model=1,daily=RES3_11,status=variable
new load.3000655985M1 bus1=RML1000850784.2.0,Phases=1,kv=0.127,kW=0.91002,pf=0.92,Vminpu=0.92,Vmaxpu=1.5,model=1,daily=RES3_11,status=variable
new load.3000655986M1 bus1=RML1000850770.1.2.0,Phases=2,kv=0.22,kW=3.83582,pf=0.92,Vminpu=0.92,Vmaxpu=1.5,model=1,daily=RES5_13,status=variable
new load.3000655987M1 bus1=RML1000850756.1.2.0,Phases=2,kv=0.22,kW=1.35412,pf=0.92,Vminpu=0.92,Vmaxpu=1.5,model=1,daily=RES2_11,status=variable
new load.3000655988M1 bus1=RML1000850826.1.3.0,Phases=2,kv=0.22,kW=1.273,pf=0.92,Vminpu=0.92,Vmaxpu=1.5,model=1,daily=RES4_12,status=variable
new load.3000655989M1 bus1=RML1000850812.1.0,Phases=1,kv=0.127,kW=2.07992,pf=0.92,Vminpu=0.92,Vmaxpu=1.5,model=1,daily=RES2_11,status=variable
new load.3000655972M1 bus1=RML1000850966.1.2.3.0,Phases=3,kv=0.22,kW=0.6392,pf=0.92,Vminpu=0.92,Vmaxpu=1.5,model=1,daily=RES1_11,status=variable
new load.3000655977M1 bus1=RML1000850973.1.3.0,Phases=2,kv=0.22,kW=0.65916,pf=0.92,Vminpu=0.92,Vmaxpu=1.5,model=1,daily=RES1_11,status=variable
new load.3000655978M1 bus1=RML1000850973.1.3.0,Phases=2,kv=0.22,kW=0.93164,pf=0.92,Vminpu=0.92,Vmaxpu=1.5,model=1,daily=RES2_11,status=variable
new load.3000655981M1 bus1=RML1000850931.1.2.0,Phases=2,kv=0.22,kW=1.42994,pf=0.92,Vminpu=0.92,Vmaxpu=1.5,model=1,daily=RES2_11,status=variable
new load.3000655982M1 bus1=RML1000850805.1.2.3.0,Phases=3,kv=0.22,kW=0.84262,pf=0.92,Vminpu=0.92,Vmaxpu=1.5,model=1,daily=RES3_11,status=variable
new load.3000655983M1 bus1=RML1000850798.1.2.3.0,Phases=3,kv=0.22,kW=1.09294,pf=0.92,Vminpu=0.92,Vmaxpu=1.5,model=1,daily=RES4_12,status=variable
new load.3000655966M1 bus1=RML1000850749.1.2.0,Phases=2,kv=0.22,kW=2.08486,pf=0.92,Vminpu=0.92,Vmaxpu=1.5,model=1,daily=RES5_13,status=variable
new load.3000655967M1 bus1=RML1000850938.1.2.0,Phases=2,kv=0.22,kW=0.60924,pf=0.92,Vminpu=0.92,Vmaxpu=1.5,model=1,daily=RES1_11,status=variable
new load.3000655968M1 bus1=RML1000850924.3.0,Phases=1,kv=0.127,kW=0.83414,pf=0.92,Vminpu=0.92,Vmaxpu=1.5,model=1,daily=RES2_11,status=variable
new load.3000655969M1 bus1=RML1000850903.1.0,Phases=1,kv=0.127,kW=0.47664,pf=0.92,Vminpu=0.92,Vmaxpu=1.5,model=1,daily=RES2_11,status=variable
new load.3000655970M1 bus1=RML1000850980.2.0,Phases=1,kv=0.127,kW=0.43944,pf=0.92,Vminpu=0.92,Vmaxpu=1.5,model=1,daily=RES1_11,status=variable
new load.3000655971M1 bus1=RML1000850966.1.2.3.0,Phases=3,kv=0.22,kW=1.3603,pf=0.92,Vminpu=0.92,Vmaxpu=1.5,model=1,daily=COM2_15,status=variable
new load.3000655924M1 bus1=RML1000850406.1.2.3.0,Phases=3,kv=0.22,kW=11.12868,pf=0.92,Vminpu=0.92,Vmaxpu=1.5,model=1,daily=COM3_13,status=variable
new load.3000655961M1 bus1=RML1000850399.3.0,Phases=1,kv=0.127,kW=2.0041,pf=0.92,Vminpu=0.92,Vmaxpu=1.5,model=1,daily=RES2_11,status=variable
new load.3000655962M1 bus1=RML1000850420.1.2.3.0,Phases=3,kv=0.22,kW=0.89318,pf=0.92,Vminpu=0.92,Vmaxpu=1.5,model=1,daily=RES3_11,status=variable
new load.3000655963M1 bus1=RML1000850420.1.2.3.0,Phases=3,kv=0.22,kW=1.33734,pf=0.92,Vminpu=0.92,Vmaxpu=1.5,model=1,daily=COM1_18,status=variable
new load.3000655964M1 bus1=RML1000850413.1.0,Phases=1,kv=0.127,kW=0.63618,pf=0.92,Vminpu=0.92,Vmaxpu=1.5,model=1,daily=RES3_11,status=variable
new load.3000655965M1 bus1=RML1000850427.1.2.0,Phases=2,kv=0.22,kW=1.59244,pf=0.92,Vminpu=0.92,Vmaxpu=1.5,model=1,daily=RES2_11,status=variable
new load.3000655917M1 bus1=RML1000850847.1.2.0,Phases=2,kv=0.22,kW=3.53554,pf=0.92,Vminpu=0.92,Vmaxpu=1.5,model=1,daily=RES1_11,status=variable
new load.3000655918M1 bus1=RML1000850861.2.3.0,Phases=2,kv=0.22,kW=1.0183,pf=0.92,Vminpu=0.92,Vmaxpu=1.5,model=1,daily=RES2_11,status=variable
new load.3000655919M1 bus1=RML1000850819.1.2.3.0,Phases=3,kv=0.22,kW=1.49076,pf=0.92,Vminpu=0.92,Vmaxpu=1.5,model=1,daily=RES4_12,status=variable
new load.3000655920M1 bus1=RML1000850833.1.2.3.0,Phases=3,kv=0.22,kW=0.64882,pf=0.92,Vminpu=0.92,Vmaxpu=1.5,model=1,daily=RES3_11,status=variable
new load.3000655921M1 bus1=RML1000850763.1.2.3.0,Phases=3,kv=0.22,kW=1.823,pf=0.92,Vminpu=0.92,Vmaxpu=1.5,model=1,daily=RES6_11,status=variable
new load.3000655922M1 bus1=RML1000850777.1.2.0,Phases=2,kv=0.22,kW=0.8789,pf=0.92,Vminpu=0.92,Vmaxpu=1.5,model=1,daily=RES1_11,status=variable
new load.3000655871M1 bus1=RML1000850665.1.2.0,Phases=2,kv=0.22,kW=1.37346,pf=0.92,Vminpu=0.92,Vmaxpu=1.5,model=1,daily=RES3_11,status=variable
new load.3000655885M1 bus1=RML1000850735.1.2.0,Phases=2,kv=0.22,kW=1.64988,pf=0.92,Vminpu=0.92,Vmaxpu=1.5,model=1,daily=RES4_12,status=variable
new load.3000655915M1 bus1=RML1000850868.1.2.3.0,Phases=3,kv=0.22,kW=1.49494,pf=0.92,Vminpu=0.92,Vmaxpu=1.5,model=1,daily=RES4_12,status=variable
new load.3000655916M1 bus1=RML1000850875.2.0,Phases=1,kv=0.127,kW=0.79628,pf=0.92,Vminpu=0.92,Vmaxpu=1.5,model=1,daily=RES3_11,status=variable
new load.3000130625M1 bus1=RML1000852205.1.2.3.0,Phases=3,kv=0.22,kW=1.8384,pf=0.92,Vminpu=0.92,Vmaxpu=1.5,model=1,daily=COM3_2,status=variable
new load.3000130626M1 bus1=RML1000852198.1.2.3.0,Phases=3,kv=0.22,kW=1.04448,pf=0.92,Vminpu=0.92,Vmaxpu=1.5,model=1,daily=RUR4_2,status=variable
new load.3000130627M1 bus1=RML1000852198.1.2.3.0,Phases=3,kv=0.22,kW=0.10786,pf=0.92,Vminpu=0.92,Vmaxpu=1.5,model=1,daily=RES1_2,status=variable
new load.3000130628M1 bus1=RML1000852198.1.2.3.0,Phases=3,kv=0.22,kW=0.28312,pf=0.92,Vminpu=0.92,Vmaxpu=1.5,model=1,daily=COM1_4,status=variable
new load.3000130629M1 bus1=RML1000852198.1.2.3.0,Phases=3,kv=0.22,kW=3.7152,pf=0.92,Vminpu=0.92,Vmaxpu=1.5,model=1,daily=RES5_4,status=variable
new load.3000130631M1 bus1=RML1000852191.1.2.3.0,Phases=3,kv=0.22,kW=0.51582,pf=0.92,Vminpu=0.92,Vmaxpu=1.5,model=1,daily=RUR1_9,status=variable
new load.IP8380610M1 bus1=BBT161785776.2.3.0,Phases=2,kv=0.22,kW=0.16554,pf=0.92,Vminpu=0.92,Vmaxpu=1.5,model=1,daily=IP,status=variable,NumCust=0
new load.IP8380613M1 bus1=BBT161785810.1.3.0,Phases=2,kv=0.22,kW=0.11292,pf=0.92,Vminpu=0.92,Vmaxpu=1.5,model=1,daily=IP,status=variable,NumCust=0
new load.IP8380624M1 bus1=BBT161785744.1.2.0,Phases=2,kv=0.22,kW=0.16554,pf=0.92,Vminpu=0.92,Vmaxpu=1.5,model=1,daily=IP,status=variable,NumCust=0
new load.IP8380625M1 bus1=BBT615311.1.3.0,Phases=2,kv=0.22,kW=0.16554,pf=0.92,Vminpu=0.92,Vmaxpu=1.5,model=1,daily=IP,status=variable,NumCust=0
new load.3004839390M1 bus1=RML1000852205.1.2.3.0,Phases=3,kv=0.22,kW=11.64504,pf=0.92,Vminpu=0.92,Vmaxpu=1.5,model=1,daily=COM1_11,status=variable
new load.3005860583M1 bus1=RML1000852198.1.2.3.0,Phases=3,kv=0.22,kW=2.71576,pf=0.92,Vminpu=0.92,Vmaxpu=1.5,model=1,daily=RES5_8,status=variable
new load.3010136243M1 bus1=RML1004268793.1.2.3.0,Phases=3,kv=0.22,kW=0.353,pf=0.92,Vminpu=0.92,Vmaxpu=1.5,model=1,daily=RES1_2,status=variable
new load.IP8380552M1 bus1=BBT161785859.2.3.0,Phases=2,kv=0.22,kW=0.16554,pf=0.92,Vminpu=0.92,Vmaxpu=1.5,model=1,daily=IP,status=variable,NumCust=0
new load.IP8380557M1 bus1=BBT161785852.1.3.0,Phases=2,kv=0.22,kW=0.16554,pf=0.92,Vminpu=0.92,Vmaxpu=1.5,model=1,daily=IP,status=variable,NumCust=0
new load.IP8380605M1 bus1=BBT161785845.1.2.0,Phases=2,kv=0.22,kW=0.16554,pf=0.92,Vminpu=0.92,Vmaxpu=1.5,model=1,daily=IP,status=variable,NumCust=0
new load.3000655973M1 bus1=RML1004161847.1.3.0,Phases=2,kv=0.22,kW=1.59126,pf=0.92,Vminpu=0.92,Vmaxpu=1.5,model=1,daily=RES4_12,status=variable
new load.3000655974M1 bus1=RML1000852884.1.2.0,Phases=2,kv=0.22,kW=1.66826,pf=0.92,Vminpu=0.92,Vmaxpu=1.5,model=1,daily=RES2_11,status=variable
new load.3000655975M1 bus1=RML1000852877.3.0,Phases=1,kv=0.127,kW=1.48238,pf=0.92,Vminpu=0.92,Vmaxpu=1.5,model=1,daily=RES4_12,status=variable
new load.3000655997M1 bus1=RML1000852933.2.3.0,Phases=2,kv=0.22,kW=0.60248,pf=0.92,Vminpu=0.92,Vmaxpu=1.5,model=1,daily=RES3_11,status=variable
new load.3000655999M1 bus1=RML1000852926.1.0,Phases=1,kv=0.127,kW=0.8342,pf=0.92,Vminpu=0.92,Vmaxpu=1.5,model=1,daily=RES3_11,status=variable
new load.3000656000M1 bus1=RML1000852898.1.0,Phases=1,kv=0.127,kW=0.53506,pf=0.92,Vminpu=0.92,Vmaxpu=1.5,model=1,daily=RES3_11,status=variable
new load.IP314451M1 bus1=BBT615871.1.3.0,Phases=2,kv=0.22,kW=0.11292,pf=0.92,Vminpu=0.92,Vmaxpu=1.5,model=1,daily=IP,status=variable,NumCust=0
new load.IP314409M1 bus1=BBT615815.1.2.0,Phases=2,kv=0.22,kW=0.11292,pf=0.92,Vminpu=0.92,Vmaxpu=1.5,model=1,daily=IP,status=variable,NumCust=0
new load.IP314416M1 bus1=BBT615822.2.3.0,Phases=2,kv=0.22,kW=0.11292,pf=0.92,Vminpu=0.92,Vmaxpu=1.5,model=1,daily=IP,status=variable,NumCust=0
new load.IP314423M1 bus1=BBT615829.1.3.0,Phases=2,kv=0.22,kW=0.11292,pf=0.92,Vminpu=0.92,Vmaxpu=1.5,model=1,daily=IP,status=variable,NumCust=0
new load.IP314430M1 bus1=BBT615836.1.2.0,Phases=2,kv=0.22,kW=0.11292,pf=0.92,Vminpu=0.92,Vmaxpu=1.5,model=1,daily=IP,status=variable,NumCust=0
new load.IP314437M1 bus1=BBT615850.1.2.0,Phases=2,kv=0.22,kW=0.11292,pf=0.92,Vminpu=0.92,Vmaxpu=1.5,model=1,daily=IP,status=variable,NumCust=0
new load.IP314444M1 bus1=BBT615864.1.3.0,Phases=2,kv=0.22,kW=0.11292,pf=0.92,Vminpu=0.92,Vmaxpu=1.5,model=1,daily=IP,status=variable,NumCust=0
new load.3012717030M1 bus1=RML1000853073.1.3.0,Phases=2,kv=0.22,kW=0.71376,pf=0.92,Vminpu=0.92,Vmaxpu=1.5,model=1,daily=RES1_1,status=variable
new load.IP314374M1 bus1=BBT615773.2.3.0,Phases=2,kv=0.22,kW=0.11292,pf=0.92,Vminpu=0.92,Vmaxpu=1.5,model=1,daily=IP,status=variable,NumCust=0
new load.IP314381M1 bus1=BBT615780.1.3.0,Phases=2,kv=0.22,kW=0.11292,pf=0.92,Vminpu=0.92,Vmaxpu=1.5,model=1,daily=IP,status=variable,NumCust=0
new load.IP314388M1 bus1=BBT615787.1.2.0,Phases=2,kv=0.22,kW=0.11292,pf=0.92,Vminpu=0.92,Vmaxpu=1.5,model=1,daily=IP,status=variable,NumCust=0
new load.IP314395M1 bus1=BBT615794.2.3.0,Phases=2,kv=0.22,kW=0.11292,pf=0.92,Vminpu=0.92,Vmaxpu=1.5,model=1,daily=IP,status=variable,NumCust=0
new load.IP314402M1 bus1=BBT615808.1.2.0,Phases=2,kv=0.22,kW=0.11292,pf=0.92,Vminpu=0.92,Vmaxpu=1.5,model=1,daily=IP,status=variable,NumCust=0
new load.3006050372M1 bus1=RML1000853052.1.2.3.0,Phases=3,kv=0.22,kW=0.95638,pf=0.92,Vminpu=0.92,Vmaxpu=1.5,model=1,daily=RES3_11,status=variable
new load.3007738736M1 bus1=RML1004934997.1.2.3.0,Phases=3,kv=0.22,kW=0.28408,pf=0.92,Vminpu=0.92,Vmaxpu=1.5,model=1,daily=RES2_1,status=variable
new load.3007738737M1 bus1=RML1004934997.1.2.3.0,Phases=3,kv=0.22,kW=0.93252,pf=0.92,Vminpu=0.92,Vmaxpu=1.5,model=1,daily=RES2_1,status=variable
new load.3007738740M1 bus1=RML1004934997.1.2.3.0,Phases=3,kv=0.22,kW=3.33792,pf=0.92,Vminpu=0.92,Vmaxpu=1.5,model=1,daily=RES4_2,status=variable
new load.3010457905M1 bus1=RML1000852884.1.2.0,Phases=2,kv=0.22,kW=1.05214,pf=0.92,Vminpu=0.92,Vmaxpu=1.5,model=1,daily=RES3_7,status=variable
new load.3003978337M1 bus1=RML1000853073.1.3.0,Phases=2,kv=0.22,kW=0.98876,pf=0.92,Vminpu=0.92,Vmaxpu=1.5,model=1,daily=RES1_11,status=variable
new load.3004750336M1 bus1=RML1000853101.3.0,Phases=1,kv=0.127,kW=0.59552,pf=0.92,Vminpu=0.92,Vmaxpu=1.5,model=1,daily=RES2_6,status=variable
new load.3005519514M1 bus1=RML1000853080.2.3.0,Phases=2,kv=0.22,kW=1.21794,pf=0.92,Vminpu=0.92,Vmaxpu=1.5,model=1,daily=RES3_2,status=variable
new load.3005619131M1 bus1=RML1000853087.1.3.0,Phases=2,kv=0.22,kW=2.01742,pf=0.92,Vminpu=0.92,Vmaxpu=1.5,model=1,daily=RES4_5,status=variable
new load.3006042789M1 bus1=RML1000852919.3.0,Phases=1,kv=0.127,kW=1.2475,pf=0.92,Vminpu=0.92,Vmaxpu=1.5,model=1,daily=RES1_13,status=variable
new load.3000656123M1 bus1=RML1010207228.1.2.0,Phases=2,kv=0.22,kW=1.19762,pf=0.92,Vminpu=0.92,Vmaxpu=1.5,model=1,daily=RES4_12,status=variable
new load.3000656124M1 bus1=RML1000853136.1.2.0,Phases=2,kv=0.22,kW=1.13482,pf=0.92,Vminpu=0.92,Vmaxpu=1.5,model=1,daily=RES4_12,status=variable
new load.3003671397M1 bus1=RML1000852940.1.2.3.0,Phases=3,kv=0.22,kW=2.30658,pf=0.92,Vminpu=0.92,Vmaxpu=1.5,model=1,daily=RES4_8,status=variable
new load.3003702159M1 bus1=RML1000853094.1.2.3.0,Phases=3,kv=0.22,kW=0.52656,pf=0.92,Vminpu=0.92,Vmaxpu=1.5,model=1,daily=RES2_6,status=variable
new load.3003702160M1 bus1=RML1000853094.1.2.3.0,Phases=3,kv=0.22,kW=0.72256,pf=0.92,Vminpu=0.92,Vmaxpu=1.5,model=1,daily=RES1_4,status=variable
new load.3003852746M1 bus1=RML1000853143.1.2.3.0,Phases=3,kv=0.22,kW=0.91126,pf=0.92,Vminpu=0.92,Vmaxpu=1.5,model=1,daily=RES2_10,status=variable
new load.3000656107M1 bus1=RML1010616928.1.3.0,Phases=2,kv=0.22,kW=0.68252,pf=0.92,Vminpu=0.92,Vmaxpu=1.5,model=1,daily=RES3_11,status=variable
new load.3000656118M1 bus1=RML1000853192.1.2.0,Phases=2,kv=0.22,kW=1.12068,pf=0.92,Vminpu=0.92,Vmaxpu=1.5,model=1,daily=RES3_11,status=variable
new load.3000656119M1 bus1=RML1000853185.3.0,Phases=1,kv=0.127,kW=1.2218,pf=0.92,Vminpu=0.92,Vmaxpu=1.5,model=1,daily=RES3_11,status=variable
new load.3000656120M1 bus1=RML1000853150.1.2.0,Phases=2,kv=0.22,kW=0.14746,pf=0.92,Vminpu=0.92,Vmaxpu=1.5,model=1,daily=RES3_11,status=variable
new load.3000656121M1 bus1=RML1000853143.1.2.3.0,Phases=3,kv=0.22,kW=0.5493,pf=0.92,Vminpu=0.92,Vmaxpu=1.5,model=1,daily=RES1_11,status=variable
new load.3000656122M1 bus1=RML1000853115.2.0,Phases=1,kv=0.127,kW=0.47186,pf=0.92,Vminpu=0.92,Vmaxpu=1.5,model=1,daily=RES3_11,status=variable
new load.3000656101M1 bus1=RML1000853038.2.3.0,Phases=2,kv=0.22,kW=1.52426,pf=0.92,Vminpu=0.92,Vmaxpu=1.5,model=1,daily=RES4_12,status=variable
new load.3000656102M1 bus1=RML1000853052.1.2.3.0,Phases=3,kv=0.22,kW=0.89886,pf=0.92,Vminpu=0.92,Vmaxpu=1.5,model=1,daily=RES1_11,status=variable
new load.3000656103M1 bus1=RML1000853052.1.2.3.0,Phases=3,kv=0.22,kW=0.29962,pf=0.92,Vminpu=0.92,Vmaxpu=1.5,model=1,daily=RES1_11,status=variable
new load.3000656104M1 bus1=RML1000853052.1.2.3.0,Phases=3,kv=0.22,kW=0.44944,pf=0.92,Vminpu=0.92,Vmaxpu=1.5,model=1,daily=RES1_11,status=variable
new load.3000656105M1 bus1=RML1000853059.1.2.0,Phases=2,kv=0.22,kW=0.44238,pf=0.92,Vminpu=0.92,Vmaxpu=1.5,model=1,daily=RES3_11,status=variable
new load.3000656106M1 bus1=RML1000853178.3.0,Phases=1,kv=0.127,kW=0.75904,pf=0.92,Vminpu=0.92,Vmaxpu=1.5,model=1,daily=RES1_11,status=variable
new load.3000656094M1 bus1=RML1000853157.3.0,Phases=1,kv=0.127,kW=1.9066,pf=0.92,Vminpu=0.92,Vmaxpu=1.5,model=1,daily=RES2_11,status=variable
new load.3000656095M1 bus1=RML1000853003.1.3.0,Phases=2,kv=0.22,kW=0.88054,pf=0.92,Vminpu=0.92,Vmaxpu=1.5,model=1,daily=RES3_11,status=variable
new load.3000656097M1 bus1=RML1010130692.1.2.3.0,Phases=3,kv=0.22,kW=1.10968,pf=0.92,Vminpu=0.92,Vmaxpu=1.5,model=1,daily=RES4_12,status=variable
new load.3000656098M1 bus1=RML1000852961.1.3.0,Phases=2,kv=0.22,kW=1.48124,pf=0.92,Vminpu=0.92,Vmaxpu=1.5,model=1,daily=RES5_13,status=variable
new load.3000656053M1 bus1=RML1000852947.1.2.3.0,Phases=3,kv=0.22,kW=1.07434,pf=0.92,Vminpu=0.92,Vmaxpu=1.5,model=1,daily=RES3_11,status=variable
new load.3000656054M1 bus1=RML1000852912.2.0,Phases=1,kv=0.127,kW=0.52242,pf=0.92,Vminpu=0.92,Vmaxpu=1.5,model=1,daily=RES3_11,status=variable
new load.3000656074M1 bus1=RML1000852954.1.2.3.0,Phases=3,kv=0.22,kW=1.13754,pf=0.92,Vminpu=0.92,Vmaxpu=1.5,model=1,daily=RES3_11,status=variable
new load.3000656078M1 bus1=RML1000852996.1.2.3.0,Phases=3,kv=0.22,kW=2.2347,pf=0.92,Vminpu=0.92,Vmaxpu=1.5,model=1,daily=RES5_13,status=variable
new load.3000656079M1 bus1=RML1000853010.1.2.3.0,Phases=3,kv=0.22,kW=1.3065,pf=0.92,Vminpu=0.92,Vmaxpu=1.5,model=1,daily=RES4_12,status=variable
new load.3000656093M1 bus1=RML1000853164.3.0,Phases=1,kv=0.127,kW=0.78364,pf=0.92,Vminpu=0.92,Vmaxpu=1.5,model=1,daily=RES3_11,status=variable
new load.3000656047M1 bus1=RML1000853031.1.0,Phases=1,kv=0.127,kW=0.94638,pf=0.92,Vminpu=0.92,Vmaxpu=1.5,model=1,daily=RES4_12,status=variable
new load.3000656048M1 bus1=RML1000853017.1.0,Phases=1,kv=0.127,kW=2.0041,pf=0.92,Vminpu=0.92,Vmaxpu=1.5,model=1,daily=RES2_11,status=variable
new load.3000656049M1 bus1=RML1000853017.1.0,Phases=1,kv=0.127,kW=2.0041,pf=0.92,Vminpu=0.92,Vmaxpu=1.5,model=1,daily=RES2_11,status=variable
new load.3000656050M1 bus1=RML1010382702.2.3.0,Phases=2,kv=0.22,kW=2.66664,pf=0.92,Vminpu=0.92,Vmaxpu=1.5,model=1,daily=RES1_11,status=variable
new load.3000656051M1 bus1=RML1000852982.1.0,Phases=1,kv=0.127,kW=0.67914,pf=0.92,Vminpu=0.92,Vmaxpu=1.5,model=1,daily=RES1_11,status=variable
new load.3000656052M1 bus1=RML1000852905.1.2.0,Phases=2,kv=0.22,kW=3.20906,pf=0.92,Vminpu=0.92,Vmaxpu=1.5,model=1,daily=RES6_11,status=variable
new load.3000656001M1 bus1=RML1000852891.1.2.0,Phases=2,kv=0.22,kW=1.58288,pf=0.92,Vminpu=0.92,Vmaxpu=1.5,model=1,daily=RES4_12,status=variable
new load.3000656030M1 bus1=RML1000853108.1.2.0,Phases=2,kv=0.22,kW=1.69176,pf=0.92,Vminpu=0.92,Vmaxpu=1.5,model=1,daily=RES4_12,status=variable
new load.3000656043M1 bus1=RML1000853129.2.0,Phases=1,kv=0.127,kW=0.75904,pf=0.92,Vminpu=0.92,Vmaxpu=1.5,model=1,daily=RES1_11,status=variable
new load.3000656044M1 bus1=RML1000853073.1.3.0,Phases=2,kv=0.22,kW=1.9066,pf=0.92,Vminpu=0.92,Vmaxpu=1.5,model=1,daily=RES2_11,status=variable
new load.3000656045M1 bus1=RML1000853066.1.0,Phases=1,kv=0.127,kW=1.92826,pf=0.92,Vminpu=0.92,Vmaxpu=1.5,model=1,daily=RES2_11,status=variable
new load.3000656046M1 bus1=RML1000853045.1.0,Phases=1,kv=0.127,kW=1.01956,pf=0.92,Vminpu=0.92,Vmaxpu=1.5,model=1,daily=RES3_11,status=variable
new load.3003196018M1 bus1=RML1000854151.2.0,Phases=1,kv=0.127,kW=0.23154,pf=0.92,Vminpu=0.92,Vmaxpu=1.5,model=1,daily=RES2_27,status=variable
new load.3003387372M1 bus1=RML1010205467.1.2.0,Phases=2,kv=0.22,kW=0.24994,pf=0.92,Vminpu=0.92,Vmaxpu=1.5,model=1,daily=COM1_3,status=variable
new load.3003666704M1 bus1=RML1000854102.2.0,Phases=1,kv=0.127,kW=3.20758,pf=0.92,Vminpu=0.92,Vmaxpu=1.5,model=1,daily=RES3_6,status=variable
new load.3003772220M1 bus1=RML1000854116.3.0,Phases=1,kv=0.127,kW=0.64312,pf=0.92,Vminpu=0.92,Vmaxpu=1.5,model=1,daily=COM1_11,status=variable
new load.3004097833M1 bus1=RML1000854039.1.2.3.0,Phases=3,kv=0.22,kW=0.45562,pf=0.92,Vminpu=0.92,Vmaxpu=1.5,model=1,daily=RES3_15,status=variable
new load.3004211051M1 bus1=RML1000854095.2.3.0,Phases=2,kv=0.22,kW=0.56352,pf=0.92,Vminpu=0.92,Vmaxpu=1.5,model=1,daily=RES2_22,status=variable
new load.IP314962M1 bus1=BBT616557.1.2.0,Phases=2,kv=0.22,kW=0.08036,pf=0.92,Vminpu=0.92,Vmaxpu=1.5,model=1,daily=IP,status=variable,NumCust=0
new load.IP314969M1 bus1=BBT616564.1.2.0,Phases=2,kv=0.22,kW=0.08036,pf=0.92,Vminpu=0.92,Vmaxpu=1.5,model=1,daily=IP,status=variable,NumCust=0
new load.IP314976M1 bus1=BBT616571.2.3.0,Phases=2,kv=0.22,kW=0.08036,pf=0.92,Vminpu=0.92,Vmaxpu=1.5,model=1,daily=IP,status=variable,NumCust=0
new load.IP314990M1 bus1=BBT616585.1.2.0,Phases=2,kv=0.22,kW=0.08708,pf=0.92,Vminpu=0.92,Vmaxpu=1.5,model=1,daily=IP,status=variable,NumCust=0
new load.IP316012M1 bus1=BBT616613.1.3.0,Phases=2,kv=0.22,kW=0.133,pf=0.92,Vminpu=0.92,Vmaxpu=1.5,model=1,daily=IP,status=variable,NumCust=0
new load.IP8373505M1 bus1=BBT616599.1.3.0,Phases=2,kv=0.22,kW=0.08036,pf=0.92,Vminpu=0.92,Vmaxpu=1.5,model=1,daily=IP,status=variable,NumCust=0
new load.IP314892M1 bus1=BBT616501.2.3.0,Phases=2,kv=0.22,kW=0.08708,pf=0.92,Vminpu=0.92,Vmaxpu=1.5,model=1,daily=IP,status=variable,NumCust=0