new line.CTR11694 bus1=BMT137333515.3,bus2=BMT137333592.3,Phases=1,LineCode=tieSwitch1,Length=0.001,Units=km,switch=T !numEQ 116992
new line.CTR12261 bus1=BMT165748920.1.2.3,bus2=BMT165748921.1.2.3,Phases=3,LineCode=tieSwitch,Length=0.001,Units=km,switch=T !numEQ 184223
new line.CTR122672 bus1=BMT173262832.1.2.3,bus2=BMT173555447.1.2.3,Phases=3,LineCode=tieSwitch,Length=0.001,Units=km,switch=T !numEQ 321117
new line.CTR12338 bus1=BMT137350448.2,bus2=BMT137350455.2,Phases=1,LineCode=tieSwitch1,Length=0.001,Units=km,switch=T !numEQ 115836
new line.CTR124016 bus1=BMT122155793.1.2.3,bus2=BMT122156444.1.2.3,Phases=3,LineCode=tieSwitch,Length=0.001,Units=km,switch=T !numEQ 10978
new line.CTR132360 bus1=BMT165749009.1.2.3,bus2=BMT165749013.1.2.3,Phases=3,LineCode=tieSwitch,Length=0.001,Units=km,switch=T !numEQ 481
new line.CTR14032 bus1=BMT137337673.3,bus2=BMT137337687.3,Phases=1,LineCode=tieSwitch1,Length=0.001,Units=km,switch=T !numEQ 117729
new line.CTR140410 bus1=BMT137351400.3,bus2=BMT137351435.3,Phases=1,LineCode=tieSwitch1,Length=0.001,Units=km,switch=T !numEQ 184150
new line.CTR140529 bus1=BMT137336749.2,bus2=BMT137336756.2,Phases=1,LineCode=tieSwitch1,Length=0.001,Units=km,switch=T !numEQ 111794
new line.CTR146066 bus1=BMT165750874.3,bus2=BMT165750876.3,Phases=1,LineCode=tieSwitch1,Length=0.001,Units=km,switch=T !numEQ 113801
new line.CTR14620 bus1=BMT165749557.1.2.3,bus2=BMT165749561.1.2.3,Phases=3,LineCode=tieSwitch,Length=0.001,Units=km,switch=T !numEQ 1250
new line.CTR154291 bus1=BMT152465925.1,bus2=BMT161878679.1,Phases=1,LineCode=tieSwitch1,Length=0.001,Units=km,switch=T !numEQ 193358
new line.CTR16153 bus1=BMT137346801.3,bus2=BMT137348698.3,Phases=1,LineCode=tieSwitch1,Length=0.001,Units=km,switch=T !numEQ 184128
new line.CTR162726 bus1=BMT165750869.3,bus2=BMT165750878.3,Phases=1,LineCode=tieSwitch1,Length=0.001,Units=km,switch=T !numEQ 10910
new line.CTR168676 bus1=BMT165750648.1.2.3,bus2=BMT165750649.1.2.3,Phases=3,LineCode=tieSwitch,Length=0.001,Units=km,switch=T !numEQ 124207
new line.CTR17000 bus1=BMT165749035.1.2.3,bus2=BMT165749054.1.2.3,Phases=3,LineCode=tieSwitch,Length=0.001,Units=km,switch=T !numEQ 480
new line.CTR170125 bus1=BMT165750124.3,bus2=BMT165750128.3,Phases=1,LineCode=tieSwitch1,Length=0.001,Units=km,switch=T !numEQ 120758
new line.CTR170132 bus1=BMT137335622.3,bus2=BMT137335636.3,Phases=1,LineCode=tieSwitch1,Length=0.001,Units=km,switch=T !numEQ 3400
new line.CTR184524 bus1=BMT165749475.1.2.3,bus2=BMT170380073.1.2.3,Phases=3,LineCode=tieSwitch,Length=0.001,Units=km,switch=T !numEQ 101802
new line.CTR19345 bus1=BMT165750888.3,bus2=BMT165750894.3,Phases=1,LineCode=tieSwitch1,Length=0.001,Units=km,switch=T !numEQ 124972
new line.CTR193624 bus1=BMT165751229.1.2.3,bus2=BMT165751252.1.2.3,Phases=3,LineCode=tieSwitch,Length=0.001,Units=km,switch=T !numEQ 117922
new line.CTR198664 bus1=BMT137340830.2,bus2=BMT137340851.2,Phases=1,LineCode=tieSwitch1,Length=0.001,Units=km,switch=T !numEQ 170865
new line.CTR198972 bus1=BMT137344134.1.2.3,bus2=BMT165712977.1.2.3,Phases=3,LineCode=tieSwitch,Length=0.001,Units=km,switch=T !numEQ 203168
new line.CTR199028 bus1=BMT137338205.1.2.3,bus2=BMT158891454.1.2.3,Phases=3,LineCode=tieSwitch,Length=0.001,Units=km,switch=T !numEQ 2502
new line.CTR206175 bus1=BMT137328664.3,bus2=BMT137335755.3,Phases=1,LineCode=tieSwitch1,Length=0.001,Units=km,switch=T !numEQ 144062
new line.CTR206707 bus1=BMT137344386.1.2.3,bus2=BMT137352366.1.2.3,Phases=3,LineCode=tieSwitch,Length=0.001,Units=km,switch=T !numEQ 184086
new line.CTR206714 bus1=BMT137344323.1.2.3,bus2=BMT175774695.1.2.3,Phases=3,LineCode=tieSwitch,Length=0.001,Units=km,switch=T !numEQ 184085
new line.CTR206742 bus1=BMT137344610.1.2.3,bus2=BMT172132504.1.2.3,Phases=3,LineCode=tieSwitch,Length=0.001,Units=km,switch=T !numEQ 184094
new line.CTR206749 bus1=BMT137344659.1.2.3,bus2=BMT137351757.1.2.3,Phases=3,LineCode=tieSwitch,Length=0.001,Units=km,switch=T !numEQ 184091
new line.CTR206770 bus1=BMT137346059.1.2.3,bus2=BMT143354929.1.2.3,Phases=3,LineCode=tieSwitch,Length=0.001,Units=km,switch=T !numEQ 184105
new line.CTR206791 bus1=BMT137350042.1.2.3,bus2=BMT166584943.1.2.3,Phases=3,LineCode=tieSwitch,Length=0.001,Units=km,switch=T !numEQ 259289
new line.CTR206812 bus1=BMT137346780.2,bus2=BMT161463492.2,Phases=1,LineCode=tieSwitch1,Length=0.001,Units=km,switch=T !numEQ 184127
new line.CTR206819 bus1=BMT137346857.3,bus2=BMT137347473.3,Phases=1,LineCode=tieSwitch1,Length=0.001,Units=km,switch=T !numEQ 184131
new line.CTR206826 bus1=BMT137346990.1,bus2=BMT137347186.1,Phases=1,LineCode=tieSwitch1,Length=0.001,Units=km,switch=T !numEQ 184135
new line.CTR206840 bus1=BMT137347536.3,bus2=BMT137348656.3,Phases=1,LineCode=tieSwitch1,Length=0.001,Units=km,switch=T !numEQ 2546
new line.CTR206854 bus1=BMT137351778.1.2.3,bus2=BMT137351869.1.2.3,Phases=3,LineCode=tieSwitch,Length=0.001,Units=km,switch=T !numEQ 189091
new line.CTR206882 bus1=BMT137337204.1.2.3,bus2=BMT137339241.1.2.3,Phases=3,LineCode=tieSwitch,Length=0.001,Units=km,switch=T !numEQ 2543
new line.CTR206889 bus1=BMT137337218.1.2.3,bus2=BMT137338121.1.2.3,Phases=3,LineCode=tieSwitch,Length=0.001,Units=km,switch=T !numEQ 2083
new line.CTR206903 bus1=BMT137339878.1,bus2=BMT137340011.1,Phases=1,LineCode=tieSwitch1,Length=0.001,Units=km,switch=T !numEQ 3385
new line.CTR206910 bus1=BMT137334684.1.2.3,bus2=BMT137334775.1.2.3,Phases=3,LineCode=tieSwitch,Length=0.001,Units=km,switch=T !numEQ 1998
new line.CTR206938 bus1=BMT137329546.1.2.3,bus2=BMT152706615.1.2.3,Phases=3,LineCode=tieSwitch,Length=0.001,Units=km,switch=T !numEQ 2068
new line.CTR206945 bus1=BMT137336329.1.2.3,bus2=BMT137336371.1.2.3,Phases=3,LineCode=tieSwitch,Length=0.001,Units=km,switch=T !numEQ 969
new line.CTR206952 bus1=BMT152706617.1.2.3,bus2=BMT137329623.1.2.3,Phases=3,LineCode=tieSwitch,Length=0.001,Units=km,switch=T !numEQ 2069
new line.CTR207743 bus1=BMT165751455.1.2.3,bus2=BMT165751873.1.2.3,Phases=3,LineCode=tieSwitch,Length=0.001,Units=km,switch=T !numEQ 168531
new line.CTR207764 bus1=BMT122155954.1.2.3,bus2=BMT161621167.1.2.3,Phases=3,LineCode=tieSwitch,Length=0.001,Units=km,switch=T !numEQ 169623
new line.CTR207771 bus1=BMT122157165.1.2.3,bus2=BMT161989427.1.2.3,Phases=3,LineCode=tieSwitch,Length=0.001,Units=km,switch=T !numEQ 133956
new line.CTR207813 bus1=BMT137344288.3,bus2=BMT137352779.3,Phases=1,LineCode=tieSwitch1,Length=0.001,Units=km,switch=T !numEQ 135134
new line.CTR100405 bus1=BMT171826999.1.2.3,bus2=BMT165750304.1.2.3,Phases=3,LineCode=tieSwitch,Length=0.001,Units=km,switch=T !numEQ 1488
new line.CTR10052955 bus1=BMTSEGM#50264775.1.2.3,bus2=BMTSEGM#30158865.1.2.3,Phases=3,LineCode=tieSwitch,Length=0.001,Units=km,switch=T !numEQ 
new line.CTR10052967 bus1=BMTSEGM#50264835.1.2.3,bus2=BMTSEGM#30158901.1.2.3,Phases=3,LineCode=tieSwitch,Length=0.001,Units=km,switch=T !numEQ 
new line.CTR10053068 bus1=BMTSEGM#50265340.1.2.3,bus2=BMTSEGM#30159204.1.2.3,Phases=3,LineCode=tieSwitch,Length=0.001,Units=km,switch=T !numEQ 
open line.CTR10053068 term=1
new line.CTR10053246 bus1=BMTSEGM#50266230.1.2.3,bus2=BMTSEGM#30159738.1.2.3,Phases=3,LineCode=tieSwitch,Length=0.001,Units=km,switch=T !numEQ 
new line.CTR10053254 bus1=BMTSEGM#50266270.1.2.3,bus2=BMTSEGM#30159762.1.2.3,Phases=3,LineCode=tieSwitch,Length=0.001,Units=km,switch=T !numEQ 
new line.CTR10053262 bus1=BMTSEGM#50266310.1.2.3,bus2=BMTSEGM#30159786.1.2.3,Phases=3,LineCode=tieSwitch,Length=0.001,Units=km,switch=T !numEQ 
open line.CTR10053262 term=1
new line.CTR10053306 bus1=BMTSEGM#50266530.1.2.3,bus2=BMTSEGM#30159918.1.2.3,Phases=3,LineCode=tieSwitch,Length=0.001,Units=km,switch=T !numEQ 
open line.CTR10053306 term=1
new line.CTR10053314 bus1=BMTSEGM#50266570.1.2.3,bus2=BMTSEGM#30159942.1.2.3,Phases=3,LineCode=tieSwitch,Length=0.001,Units=km,switch=T !numEQ 
new line.CTR10053322 bus1=BMTSEGM#50266610.1.2.3,bus2=BMTSEGM#30159966.1.2.3,Phases=3,LineCode=tieSwitch,Length=0.001,Units=km,switch=T !numEQ 
new line.CTR10053350 bus1=BMTSEGM#50266750.1.2.3,bus2=BMTSEGM#30160050.1.2.3,Phases=3,LineCode=tieSwitch,Length=0.001,Units=km,switch=T !numEQ 
open line.CTR10053350 term=1
new line.CTR10053358 bus1=BMTSEGM#50266790.1.2.3,bus2=BMTSEGM#30160074.1.2.3,Phases=3,LineCode=tieSwitch,Length=0.001,Units=km,switch=T !numEQ 
new line.CTR10053374 bus1=BMTSEGM#50266870.1.2.3,bus2=BMTSEGM#30160122.1.2.3,Phases=3,LineCode=tieSwitch,Length=0.001,Units=km,switch=T !numEQ 
new line.CTR136595 bus1=BMT165751494.1.2.3,bus2=BMT165751495.1.2.3,Phases=3,LineCode=tieSwitch,Length=0.001,Units=km,switch=T !numEQ 157126
new line.CTR136868 bus1=BMT137342356.3,bus2=BMT137342363.3,Phases=1,LineCode=tieSwitch1,Length=0.001,Units=km,switch=T !numEQ 168244
new line.CTR143238 bus1=BMT165750423.3,bus2=BMT165750437.3,Phases=1,LineCode=tieSwitch1,Length=0.001,Units=km,switch=T !numEQ 101652
new line.CTR143966 bus1=BMT165749515.1.2.3,bus2=BMT165749529.1.2.3,Phases=3,LineCode=tieSwitch,Length=0.001,Units=km,switch=T !numEQ 2081
new line.CTR15033 bus1=BMT137327355.1.2.3,bus2=BMT137327362.1.2.3,Phases=3,LineCode=tieSwitch,Length=0.001,Units=km,switch=T !numEQ 2617
new line.CTR15054 bus1=BMT137329322.1.2.3,bus2=BMT137332969.1.2.3,Phases=3,LineCode=tieSwitch,Length=0.001,Units=km,switch=T !numEQ 2909
new line.CTR15061 bus1=BMT137332976.1.2.3,bus2=BMT138052744.1.2.3,Phases=3,LineCode=tieSwitch,Length=0.001,Units=km,switch=T !numEQ 116616
new line.CTR157742 bus1=BMT137335524.2,bus2=BMT137335545.2,Phases=1,LineCode=tieSwitch1,Length=0.001,Units=km,switch=T !numEQ 119207
new line.CTR158127 bus1=BMT165751535.1.2.3,bus2=BMT165751587.1.2.3,Phases=3,LineCode=tieSwitch,Length=0.001,Units=km,switch=T !numEQ 118209
new line.CTR165757 bus1=BMT165750987.2,bus2=BMT165750996.2,Phases=1,LineCode=tieSwitch1,Length=0.001,Units=km,switch=T !numEQ 103363
new line.CTR173254 bus1=BMT137336728.1,bus2=BMT137336791.1,Phases=1,LineCode=tieSwitch1,Length=0.001,Units=km,switch=T !numEQ 3776
new line.CTR174185 bus1=BMT122155492.1.2.3,bus2=BMT165463880.1.2.3,Phases=3,LineCode=tieSwitch,Length=0.001,Units=km,switch=T !numEQ 2951
new line.CTR180842 bus1=BMT137339122.3,bus2=BMT137339157.3,Phases=1,LineCode=tieSwitch1,Length=0.001,Units=km,switch=T !numEQ 168264
new line.CTR18813 bus1=BMT165748940.1,bus2=BMT165748972.1,Phases=1,LineCode=tieSwitch1,Length=0.001,Units=km,switch=T !numEQ 120757
new line.CTR18918 bus1=BMT165749533.1.2.3,bus2=BMT3214663.1.2.3,Phases=3,LineCode=tieSwitch,Length=0.001,Units=km,switch=T !numEQ 3013
open line.CTR18918 term=1
new line.CTR19513 bus1=BMT137347613.3,bus2=BMT155971791.3,Phases=1,LineCode=tieSwitch1,Length=0.001,Units=km,switch=T !numEQ 2639
new line.CTR200211 bus1=BMT174314269.1.2.3,bus2=BMT165749721.1.2.3,Phases=3,LineCode=tieSwitch,Length=0.001,Units=km,switch=T !numEQ 3222
new line.CTR200820 bus1=BMT149940177.1.2.3,bus2=BMT4625401.1.2.3,Phases=3,LineCode=tieSwitch,Length=0.001,Units=km,switch=T !numEQ 183532
open line.CTR200820 term=1
new line.CTR201506 bus1=BMT137338940.2,bus2=BMT137338989.2,Phases=1,LineCode=tieSwitch1,Length=0.001,Units=km,switch=T !numEQ 170626
new line.CTR210802 bus1=BMT165751709.1.2.3,bus2=BMT165751749.1.2.3,Phases=3,LineCode=tieSwitch,Length=0.001,Units=km,switch=T !numEQ 317315
new line.CTR212503 bus1=BMT137327985.2,bus2=BMT137336665.2,Phases=1,LineCode=tieSwitch1,Length=0.001,Units=km,switch=T !numEQ 170753
new line.CTR223731 bus1=BMT137339892.1,bus2=BMT137339983.1,Phases=1,LineCode=tieSwitch1,Length=0.001,Units=km,switch=T !numEQ 168222
new line.CTR233370 bus1=BMT137337393.2,bus2=BMT164763105.2,Phases=1,LineCode=tieSwitch1,Length=0.001,Units=km,switch=T !numEQ 168301
new line.CTR234378 bus1=BMT160101073.1.2.3,bus2=BMT5208123.1.2.3,Phases=3,LineCode=tieSwitch,Length=0.001,Units=km,switch=T !numEQ 184218
open line.CTR234378 term=1
new line.CTR235379 bus1=BMT137340375.1.2.3,bus2=BMT137340515.1.2.3,Phases=3,LineCode=tieSwitch,Length=0.001,Units=km,switch=T !numEQ 3682
new line.CTR244780 bus1=BMT137344743.1.2.3,bus2=BMT137344750.1.2.3,Phases=3,LineCode=tieSwitch,Length=0.001,Units=km,switch=T !numEQ 184107
new line.CTR244808 bus1=BMT137346073.1.2.3,bus2=BMT137346094.1.2.3,Phases=3,LineCode=tieSwitch,Length=0.001,Units=km,switch=T !numEQ 184109
new line.CTR244815 bus1=BMT137346115.1.2.3,bus2=BMT137346122.1.2.3,Phases=3,LineCode=tieSwitch,Length=0.001,Units=km,switch=T !numEQ 184111
new line.CTR244962 bus1=BMT165751234.1.2.3,bus2=BMT165751238.1.2.3,Phases=3,LineCode=tieSwitch,Length=0.001,Units=km,switch=T !numEQ 189689
new line.CTR245018 bus1=BMT165751247.1.2.3,bus2=BMT165751248.1.2.3,Phases=3,LineCode=tieSwitch,Length=0.001,Units=km,switch=T !numEQ 189688
new line.CTR245053 bus1=BMT165751237.1.2.3,bus2=BMT165751245.1.2.3,Phases=3,LineCode=tieSwitch,Length=0.001,Units=km,switch=T !numEQ 189690
new line.CTR2454 bus1=BMT137339577.3,bus2=BMT137339773.3,Phases=1,LineCode=tieSwitch1,Length=0.001,Units=km,switch=T !numEQ 120136
new line.CTR24574 bus1=BMT165749370.3,bus2=BMT165749372.3,Phases=1,LineCode=tieSwitch1,Length=0.001,Units=km,switch=T !numEQ 147077
new line.CTR11358 bus1=BMT165749011.1.2.3,bus2=BMT165749060.1.2.3,Phases=3,LineCode=tieSwitch,Length=0.001,Units=km,switch=T !numEQ 1463
new line.CTR11400 bus1=BMT165749223.3,bus2=BMT165749262.3,Phases=1,LineCode=tieSwitch1,Length=0.001,Units=km,switch=T !numEQ 116243
new line.CTR11932 bus1=BMT165749001.1.2.3,bus2=BMT173545888.1.2.3,Phases=3,LineCode=tieSwitch,Length=0.001,Units=km,switch=T !numEQ 1464
new line.CTR119914 bus1=BMT137334782.3,bus2=BMT137334803.3,Phases=1,LineCode=tieSwitch1,Length=0.001,Units=km,switch=T !numEQ 135140
new line.CTR120173 bus1=BMT175677879.1.2.3,bus2=BMT176226276.1.2.3,Phases=3,LineCode=tieSwitch,Length=0.001,Units=km,switch=T !numEQ 340806
new line.CTR14123 bus1=BMT137337463.1.2.3,bus2=BMT137337666.1.2.3,Phases=3,LineCode=tieSwitch,Length=0.001,Units=km,switch=T !numEQ 117728
new line.CTR141677 bus1=BMT137350511.2,bus2=BMT137350637.2,Phases=1,LineCode=tieSwitch1,Length=0.001,Units=km,switch=T !numEQ 115837
new line.CTR147977 bus1=BMT165751268.1.2.3,bus2=BMT165751924.1.2.3,Phases=3,LineCode=tieSwitch,Length=0.001,Units=km,switch=T !numEQ 1030
new line.CTR17231 bus1=BMT165749852.1.2.3,bus2=BMT165750647.1.2.3,Phases=3,LineCode=tieSwitch,Length=0.001,Units=km,switch=T !numEQ 124203
new line.CTR179253 bus1=BMT137332241.1.2.3,bus2=BMT137332269.1.2.3,Phases=3,LineCode=tieSwitch,Length=0.001,Units=km,switch=T !numEQ 116896
new line.CTR18582 bus1=BMT137351729.1,bus2=BMT137351743.1,Phases=1,LineCode=tieSwitch1,Length=0.001,Units=km,switch=T !numEQ 124970
new line.CTR191482 bus1=BMT165751988.1.2.3,bus2=BMT165751999.1.2.3,Phases=3,LineCode=tieSwitch,Length=0.001,Units=km,switch=T !numEQ 1008
new line.CTR192413 bus1=BMT165751120.1.2.3,bus2=BMT165751214.1.2.3,Phases=3,LineCode=tieSwitch,Length=0.001,Units=km,switch=T !numEQ 1092
new line.CTR19310 bus1=BMT137353059.1.2.3,bus2=BMT137353080.1.2.3,Phases=3,LineCode=tieSwitch,Length=0.001,Units=km,switch=T !numEQ 136184
new line.CTR196935 bus1=BMT122156325.1.2.3,bus2=BMT164293163.1.2.3,Phases=3,LineCode=tieSwitch,Length=0.001,Units=km,switch=T !numEQ 302595
new line.CTR197019 bus1=BMT137330449.1,bus2=BMT137330505.1,Phases=1,LineCode=tieSwitch1,Length=0.001,Units=km,switch=T !numEQ 10915
new line.CTR197152 bus1=BMT165750537.3,bus2=BMT165750628.3,Phases=1,LineCode=tieSwitch1,Length=0.001,Units=km,switch=T !numEQ 392
new line.CTR197495 bus1=BMT165750907.1.2.3,bus2=BMT165750908.1.2.3,Phases=3,LineCode=tieSwitch,Length=0.001,Units=km,switch=T !numEQ 3862
new line.CTR19814 bus1=BMT165751294.1.2.3,bus2=BMT165751384.1.2.3,Phases=3,LineCode=tieSwitch,Length=0.001,Units=km,switch=T !numEQ 1499
new line.CTR208093 bus1=BMT165749948.1.2.3,bus2=BMT165749967.1.2.3,Phases=3,LineCode=tieSwitch,Length=0.001,Units=km,switch=T !numEQ 1994
new line.CTR208100 bus1=BMT165750011.1.2.3,bus2=BMT165750117.1.2.3,Phases=3,LineCode=tieSwitch,Length=0.001,Units=km,switch=T !numEQ 1331
new line.CTR208107 bus1=BMT165750120.1,bus2=BMT165750132.1,Phases=1,LineCode=tieSwitch1,Length=0.001,Units=km,switch=T !numEQ 3290
new line.CTR208142 bus1=BMT137338163.1.2.3,bus2=BMT137339017.1.2.3,Phases=3,LineCode=tieSwitch,Length=0.001,Units=km,switch=T !numEQ 2501
new line.CTR208170 bus1=BMT160114302.1.2.3,bus2=BMT160114508.1.2.3,Phases=3,LineCode=tieSwitch,Length=0.001,Units=km,switch=T !numEQ 137222
new line.CTR208261 bus1=BMT165750991.2,bus2=BMT173703624.2,Phases=1,LineCode=tieSwitch1,Length=0.001,Units=km,switch=T !numEQ 170447
new line.CTR219342 bus1=BMT137337554.1,bus2=BMT137337568.1,Phases=1,LineCode=tieSwitch1,Length=0.001,Units=km,switch=T !numEQ 183702
new line.CTR219426 bus1=BMT122156486.1.2.3,bus2=BMT122156500.1.2.3,Phases=3,LineCode=tieSwitch,Length=0.001,Units=km,switch=T !numEQ 214651
new line.CTR219916 bus1=BMT173549497.1.2.3,bus2=BMT173662551.1.2.3,Phases=3,LineCode=tieSwitch,Length=0.001,Units=km,switch=T !numEQ 333998
new line.CTR220546 bus1=BMT137337057.1.2.3,bus2=BMT137337092.1.2.3,Phases=3,LineCode=tieSwitch,Length=0.001,Units=km,switch=T !numEQ 140347
new line.CTR220819 bus1=BMT137341103.2,bus2=BMT137341271.2,Phases=1,LineCode=tieSwitch1,Length=0.001,Units=km,switch=T !numEQ 117114
new line.CTR231144 bus1=BMT165751418.1.2.3,bus2=BMT165751423.1.2.3,Phases=3,LineCode=tieSwitch,Length=0.001,Units=km,switch=T !numEQ 183399
new line.CTR23118 bus1=BMT165749791.1.2.3,bus2=BMT165749796.1.2.3,Phases=3,LineCode=tieSwitch,Length=0.001,Units=km,switch=T !numEQ 167759
new line.CTR23132 bus1=BMT165749793.1.2.3,bus2=BMT165749794.1.2.3,Phases=3,LineCode=tieSwitch,Length=0.001,Units=km,switch=T !numEQ 168430
new line.CTR231438 bus1=BMT137335237.3,bus2=BMT137335251.3,Phases=1,LineCode=tieSwitch1,Length=0.001,Units=km,switch=T !numEQ 168933
new line.CTR232516 bus1=BMT165751781.1.2.3,bus2=BMT165751786.1.2.3,Phases=3,LineCode=tieSwitch,Length=0.001,Units=km,switch=T !numEQ 170476
new line.CTR24322 bus1=BMT122157445.1.2.3,bus2=BMT164285771.1.2.3,Phases=3,LineCode=tieSwitch,Length=0.001,Units=km,switch=T !numEQ 193355
new line.CTR24329 bus1=BMT164285721.1.2.3,bus2=BMT122157578.1.2.3,Phases=3,LineCode=tieSwitch,Length=0.001,Units=km,switch=T !numEQ 193356
new line.CTR24336 bus1=BMT134157244.1.2.3,bus2=BMT122157718.1.2.3,Phases=3,LineCode=tieSwitch,Length=0.001,Units=km,switch=T !numEQ 193359
new line.CTR243408 bus1=BMT122157844.1,bus2=BMT166672494.1,Phases=1,LineCode=tieSwitch1,Length=0.001,Units=km,switch=T !numEQ 171032
new line.CTR24364 bus1=BMT122157739.2,bus2=BMT122157767.2,Phases=1,LineCode=tieSwitch1,Length=0.001,Units=km,switch=T !numEQ 193357
new line.CTR243835 bus1=BMT122155702.1.2.3,bus2=BMT122155709.1.2.3,Phases=3,LineCode=tieSwitch,Length=0.001,Units=km,switch=T !numEQ 1017
new line.CTR24392 bus1=BMT165751269.1.2.3,bus2=BMT165751270.1.2.3,Phases=3,LineCode=tieSwitch,Length=0.001,Units=km,switch=T !numEQ 188373
new line.CTR243996 bus1=BMT137344309.1.2.3,bus2=BMT176022810.1.2.3,Phases=3,LineCode=tieSwitch,Length=0.001,Units=km,switch=T !numEQ 184084
new line.CTR2440 bus1=BMT137341586.3,bus2=BMT137341684.3,Phases=1,LineCode=tieSwitch1,Length=0.001,Units=km,switch=T !numEQ 120091
new line.CTR244206 bus1=BMT137344694.1.2.3,bus2=BMT137351631.1.2.3,Phases=3,LineCode=tieSwitch,Length=0.001,Units=km,switch=T !numEQ 184098
new line.CTR244213 bus1=BMT157054766.1.2.3,bus2=BMT157054769.1.2.3,Phases=3,LineCode=tieSwitch,Length=0.001,Units=km,switch=T !numEQ 184099
new line.CTR2447 bus1=BMT137339542.1.2.3,bus2=BMT137339570.1.2.3,Phases=3,LineCode=tieSwitch,Length=0.001,Units=km,switch=T !numEQ 1914
new line.CTR111318 bus1=BMT166629873.1.2.3,bus2=BMT121445125.1.2.3,Phases=3,LineCode=tieSwitch,Length=0.001,Units=km,switch=T !numEQ 72719
new line.CTR125297 bus1=BMT165750496.1.2.3,bus2=BMT165750638.1.2.3,Phases=3,LineCode=tieSwitch,Length=0.001,Units=km,switch=T !numEQ 375677
new line.CTR137995 bus1=BMT137344757.1.2.3,bus2=BMT137344764.1.2.3,Phases=3,LineCode=tieSwitch,Length=0.001,Units=km,switch=T !numEQ 184108
new line.CTR138506 bus1=BMT165750133.1,bus2=BMT165750145.1,Phases=1,LineCode=tieSwitch1,Length=0.001,Units=km,switch=T !numEQ 168359
new line.CTR144701 bus1=BMT137328447.3,bus2=BMT137328475.3,Phases=1,LineCode=tieSwitch1,Length=0.001,Units=km,switch=T !numEQ 10907
new line.CTR14487 bus1=BMT137340900.1.2.3,bus2=BMT137341348.1.2.3,Phases=3,LineCode=tieSwitch,Length=0.001,Units=km,switch=T !numEQ 117113
new line.CTR14508 bus1=BMT137341012.2,bus2=BMT137341299.2,Phases=1,LineCode=tieSwitch1,Length=0.001,Units=km,switch=T !numEQ 117115
new line.CTR15201 bus1=BMT165748979.1.2.3,bus2=BMT165748982.1.2.3,Phases=3,LineCode=tieSwitch,Length=0.001,Units=km,switch=T !numEQ 115696
new line.CTR159863 bus1=BMT137350539.2,bus2=BMT142993736.2,Phases=1,LineCode=tieSwitch1,Length=0.001,Units=km,switch=T !numEQ 115838
new line.CTR160185 bus1=BMT137341894.1.2.3,bus2=BMT137343903.1.2.3,Phases=3,LineCode=tieSwitch,Length=0.001,Units=km,switch=T !numEQ 119218
new line.CTR174584 bus1=BMT165750964.2,bus2=BMT165750985.2,Phases=1,LineCode=tieSwitch1,Length=0.001,Units=km,switch=T !numEQ 3076
new line.CTR17462 bus1=BMT137347018.1,bus2=BMT137347151.1,Phases=1,LineCode=tieSwitch1,Length=0.001,Units=km,switch=T !numEQ 118658
new line.CTR174633 bus1=BMT137345198.2,bus2=BMT137345254.2,Phases=1,LineCode=tieSwitch1,Length=0.001,Units=km,switch=T !numEQ 116398
new line.CTR176054 bus1=BMT165750617.1,bus2=BMT165750620.1,Phases=1,LineCode=tieSwitch1,Length=0.001,Units=km,switch=T !numEQ 133974
new line.CTR196130 bus1=BMT122157277.1.2.3,bus2=BMT122157284.1.2.3,Phases=3,LineCode=tieSwitch,Length=0.001,Units=km,switch=T !numEQ 1879
new line.CTR202990 bus1=BMT137331926.2,bus2=BMT137331940.2,Phases=1,LineCode=tieSwitch1,Length=0.001,Units=km,switch=T !numEQ 168932
new line.CTR203256 bus1=BMT165748860.1.2.3,bus2=BMT165748861.1.2.3,Phases=3,LineCode=tieSwitch,Length=0.001,Units=km,switch=T !numEQ 187409
new line.CTR20346 bus1=BMT165751724.3,bus2=BMT165751734.3,Phases=1,LineCode=tieSwitch1,Length=0.001,Units=km,switch=T !numEQ 143198
new line.CTR20360 bus1=BMT165749983.2,bus2=BMT165749984.2,Phases=1,LineCode=tieSwitch1,Length=0.001,Units=km,switch=T !numEQ 134327
new line.CTR20381 bus1=BMT137343399.1,bus2=BMT137343420.1,Phases=1,LineCode=tieSwitch1,Length=0.001,Units=km,switch=T !numEQ 117977
new line.CTR203879 bus1=BMT137329749.1.2.3,bus2=BMT137329910.1.2.3,Phases=3,LineCode=tieSwitch,Length=0.001,Units=km,switch=T !numEQ 139879
new line.CTR20388 bus1=BMT137336112.3,bus2=BMT137336133.3,Phases=1,LineCode=tieSwitch1,Length=0.001,Units=km,switch=T !numEQ 117978
new line.CTR214400 bus1=BMT122155457.1.2.3,bus2=BMT159367215.1.2.3,Phases=3,LineCode=tieSwitch,Length=0.001,Units=km,switch=T !numEQ 2931
new line.CTR214687 bus1=BMT165750552.1.2.3,bus2=BMT165750554.1.2.3,Phases=3,LineCode=tieSwitch,Length=0.001,Units=km,switch=T !numEQ 528
new line.CTR224928 bus1=BMT165750509.1.2.3,bus2=BMT173119415.1.2.3,Phases=3,LineCode=tieSwitch,Length=0.001,Units=km,switch=T !numEQ 134319
new line.CTR22565 bus1=BMT165750208.3,bus2=BMT165750213.3,Phases=1,LineCode=tieSwitch1,Length=0.001,Units=km,switch=T !numEQ 168356
new line.CTR225768 bus1=BMT137339248.2,bus2=BMT137339269.2,Phases=1,LineCode=tieSwitch1,Length=0.001,Units=km,switch=T !numEQ 168229
new line.CTR22712 bus1=BMT165750429.3,bus2=BMT165750433.3,Phases=1,LineCode=tieSwitch1,Length=0.001,Units=km,switch=T !numEQ 144578
new line.CTR236121 bus1=BMT122157599.1.2.3,bus2=BMT173549488.1.2.3,Phases=3,LineCode=tieSwitch,Length=0.001,Units=km,switch=T !numEQ 167811
new line.CTR236576 bus1=BMT137351876.1.2.3,bus2=BMT137351883.1.2.3,Phases=3,LineCode=tieSwitch,Length=0.001,Units=km,switch=T !numEQ 189088
new line.CTR237038 bus1=BMT137337197.2,bus2=BMT137339311.2,Phases=1,LineCode=tieSwitch1,Length=0.001,Units=km,switch=T !numEQ 168231
new line.CTR23755 bus1=BMT137352702.1,bus2=BMT153868114.1,Phases=1,LineCode=tieSwitch1,Length=0.001,Units=km,switch=T !numEQ 3012
new line.CTR237577 bus1=BMT165750691.3,bus2=BMT165750698.3,Phases=1,LineCode=tieSwitch1,Length=0.001,Units=km,switch=T !numEQ 118837
new line.CTR237612 bus1=BMT165750684.3,bus2=BMT165750689.3,Phases=1,LineCode=tieSwitch1,Length=0.001,Units=km,switch=T !numEQ 118836
new line.CTR237808 bus1=BMT122155646.1.2.3,bus2=BMT122155653.1.2.3,Phases=3,LineCode=tieSwitch,Length=0.001,Units=km,switch=T !numEQ 117736
new line.CTR238200 bus1=BMT165750826.1,bus2=BMT165750832.1,Phases=1,LineCode=tieSwitch1,Length=0.001,Units=km,switch=T !numEQ 120752
new line.CTR23825 bus1=BMT165748991.1.2.3,bus2=BMT173967450.1.2.3,Phases=3,LineCode=tieSwitch,Length=0.001,Units=km,switch=T !numEQ 193515
new line.CTR238683 bus1=BMT137327474.1.2.3,bus2=BMT137327481.1.2.3,Phases=3,LineCode=tieSwitch,Length=0.001,Units=km,switch=T !numEQ 170386
new line.CTR247335 bus1=BMT165751762.3,bus2=BMT165751771.3,Phases=1,LineCode=tieSwitch1,Length=0.001,Units=km,switch=T !numEQ 198793
new line.CTR247895 bus1=BMT165750937.3,bus2=BMT165750938.3,Phases=1,LineCode=tieSwitch1,Length=0.001,Units=km,switch=T !numEQ 102626
new line.CTR248175 bus1=BMT137338723.2,bus2=BMT137338737.2,Phases=1,LineCode=tieSwitch1,Length=0.001,Units=km,switch=T !numEQ 193443
new line.CTR248870 bus1=BMT152706616.1.2.3,bus2=BMT152706618.1.2.3,Phases=3,LineCode=tieSwitch,Length=0.001,Units=km,switch=T !numEQ 2612
new line.CTR248980 bus1=BMT137340466.2,bus2=BMT137340480.2,Phases=1,LineCode=tieSwitch1,Length=0.001,Units=km,switch=T !numEQ 168249
new line.CTR248987 bus1=BMT137340445.2,bus2=BMT137340459.2,Phases=1,LineCode=tieSwitch1,Length=0.001,Units=km,switch=T !numEQ 168241
new line.CTR249246 bus1=BMT137339024.1,bus2=BMT137339199.1,Phases=1,LineCode=tieSwitch1,Length=0.001,Units=km,switch=T !numEQ 169058
new line.CTR249260 bus1=BMT165748814.1,bus2=BMT165749341.1,Phases=1,LineCode=tieSwitch1,Length=0.001,Units=km,switch=T !numEQ 171050
new line.CTR249526 bus1=BMT137345611.3,bus2=BMT159549357.3,Phases=1,LineCode=tieSwitch1,Length=0.001,Units=km,switch=T !numEQ 241016
new line.CTR260789 bus1=BMT137345688.3,bus2=BMT137345737.3,Phases=1,LineCode=tieSwitch1,Length=0.001,Units=km,switch=T !numEQ 169060
new line.CTR208065 bus1=BMT165749494.1.2.3,bus2=BMT165749496.1.2.3,Phases=3,LineCode=tieSwitch,Length=0.001,Units=km,switch=T !numEQ 168431
new line.CTR216262 bus1=BMT137344218.1.2.3,bus2=BMT137353094.1.2.3,Phases=3,LineCode=tieSwitch,Length=0.001,Units=km,switch=T !numEQ 184062
new line.CTR21774 bus1=BMT137330470.1,bus2=BMT152447562.1,Phases=1,LineCode=tieSwitch1,Length=0.001,Units=km,switch=T !numEQ 168354
new line.CTR217809 bus1=BMT164753882.1.2.3,bus2=BMT121444572.1.2.3,Phases=3,LineCode=tieSwitch,Length=0.001,Units=km,switch=T !numEQ 2716
new line.CTR217865 bus1=BMT137347235.1,bus2=BMT137347284.1,Phases=1,LineCode=tieSwitch1,Length=0.001,Units=km,switch=T !numEQ 134413
new line.CTR217921 bus1=BMT137347704.3,bus2=BMT137347837.3,Phases=1,LineCode=tieSwitch1,Length=0.001,Units=km,switch=T !numEQ 183934
new line.CTR22747 bus1=BMT137352933.1,bus2=BMT156218469.1,Phases=1,LineCode=tieSwitch1,Length=0.001,Units=km,switch=T !numEQ 135135
new line.CTR22775 bus1=BMT162003689.1.2.3,bus2=BMT162966485.1.2.3,Phases=3,LineCode=tieSwitch,Length=0.001,Units=km,switch=T !numEQ 167875
new line.CTR227910 bus1=BMT165750090.2,bus2=BMT165750093.2,Phases=1,LineCode=tieSwitch1,Length=0.001,Units=km,switch=T !numEQ 134654
new line.CTR228925 bus1=BMT137337302.1.2.3,bus2=BMT137337974.1.2.3,Phases=3,LineCode=tieSwitch,Length=0.001,Units=km,switch=T !numEQ 168297
new line.CTR229520 bus1=BMT165749789.1.2.3,bus2=BMT165749790.1.2.3,Phases=3,LineCode=tieSwitch,Length=0.001,Units=km,switch=T !numEQ 167758
new line.CTR239117 bus1=BMT165751768.3,bus2=BMT165751769.3,Phases=1,LineCode=tieSwitch1,Length=0.001,Units=km,switch=T !numEQ 117453
new line.CTR240293 bus1=BMT122157200.1.2.3,bus2=BMT122157928.1.2.3,Phases=3,LineCode=tieSwitch,Length=0.001,Units=km,switch=T !numEQ 133955
new line.CTR240300 bus1=BMT122157228.1.2.3,bus2=BMT122157312.1.2.3,Phases=3,LineCode=tieSwitch,Length=0.001,Units=km,switch=T !numEQ 133953
new line.CTR252186 bus1=BMT165749109.1,bus2=BMT165749270.1,Phases=1,LineCode=tieSwitch1,Length=0.001,Units=km,switch=T !numEQ 117979
new line.CTR263351 bus1=BMT137338072.2,bus2=BMT137338093.2,Phases=1,LineCode=tieSwitch1,Length=0.001,Units=km,switch=T !numEQ 168225
new line.CTR264681 bus1=BMT137346850.3,bus2=BMT137347501.3,Phases=1,LineCode=tieSwitch1,Length=0.001,Units=km,switch=T !numEQ 184130
new line.CTR275629 bus1=BMT137339465.2,bus2=BMT137340109.2,Phases=1,LineCode=tieSwitch1,Length=0.001,Units=km,switch=T !numEQ 168234
new line.CTR275636 bus1=BMT165749862.1.2.3,bus2=BMT173425990.1.2.3,Phases=3,LineCode=tieSwitch,Length=0.001,Units=km,switch=T !numEQ 2055
new line.CTR275804 bus1=BMT137329077.2,bus2=BMT137329105.2,Phases=1,LineCode=tieSwitch1,Length=0.001,Units=km,switch=T !numEQ 168363
new line.CTR275818 bus1=BMT137347375.3,bus2=BMT137347438.3,Phases=1,LineCode=tieSwitch1,Length=0.001,Units=km,switch=T !numEQ 169425
new line.CTR276119 bus1=BMT165748926.1.2.3,bus2=BMT165748935.1.2.3,Phases=3,LineCode=tieSwitch,Length=0.001,Units=km,switch=T !numEQ 184224
new line.CTR276133 bus1=BMT137329756.1.2.3,bus2=BMT137329945.1.2.3,Phases=3,LineCode=tieSwitch,Length=0.001,Units=km,switch=T !numEQ 139880
new line.CTR284344 bus1=BMT137331254.2,bus2=BMT137331268.2,Phases=1,LineCode=tieSwitch1,Length=0.001,Units=km,switch=T !numEQ 201181
new line.CTR284351 bus1=BMT165750183.2,bus2=BMT165750361.2,Phases=1,LineCode=tieSwitch1,Length=0.001,Units=km,switch=T !numEQ 201182
new line.CTR284456 bus1=BMT137343910.3,bus2=BMT137343924.3,Phases=1,LineCode=tieSwitch1,Length=0.001,Units=km,switch=T !numEQ 207521
new line.CTR285506 bus1=BMT165750827.1,bus2=BMT165750829.1,Phases=1,LineCode=tieSwitch1,Length=0.001,Units=km,switch=T !numEQ 203162
new line.CTR285611 bus1=BMT176226057.1.2.3,bus2=BMT176225959.1.2.3,Phases=3,LineCode=tieSwitch,Length=0.001,Units=km,switch=T !numEQ 211994
open line.CTR285611 term=1
new line.CTR285625 bus1=BMT165751050.1.2.3,bus2=BMT165752025.1.2.3,Phases=3,LineCode=tieSwitch,Length=0.001,Units=km,switch=T !numEQ 211995
new line.CTR285632 bus1=BMT165748738.1.2.3,bus2=BMT176226047.1.2.3,Phases=3,LineCode=tieSwitch,Length=0.001,Units=km,switch=T !numEQ 211996