new line.10020716 bus1=BBT145699068.1.2.0,bus2=BBT145699075.1.2.0,Phases=2,Linecode=BT518_BT518_7_2_1,Length=0.000501000,Units=km
new line.10105500 bus1=BBT148023271.1.2.3.0,bus2=BBT148023278.1.2.3.0,Phases=3,Linecode=BT518_BT518_7_3_1,Length=0.000501000,Units=km
new line.18683805 bus1=BBT148023278.1.2.3.0,bus2=BBT148031220.1.2.3.0,Phases=3,Linecode=BT803_BT803_4_3_4,Length=0.029625000,Units=km
new line.18683806 bus1=BBT148031220.1.2.3.0,bus2=BBT148031223.1.2.3.0,Phases=3,Linecode=BT803_BT803_4_3_4,Length=0.005002000,Units=km
new line.18683807 bus1=BBT148031223.1.2.3.0,bus2=BBT148031222.1.2.3.0,Phases=3,Linecode=BT810_BT810_4_3_4,Length=0.037868000,Units=km
new line.18683808 bus1=BBT148023278.1.2.3.0,bus2=BBT656989.1.2.3.0,Phases=3,Linecode=BT803_BT803_4_3_4,Length=0.034941000,Units=km
new line.18702670 bus1=BBT148648386.1.2.0,bus2=BBT148648387.1.2.0,Phases=2,Linecode=BT513_BT513_7_2_1,Length=0.000501000,Units=km
new line.18727515 bus1=BBT149314324.1.2.0,bus2=BBT149314325.1.2.0,Phases=2,Linecode=BT521_BT521_7_2_1,Length=0.000501000,Units=km
new line.18728936 bus1=BBT149345978.1.2.0,bus2=BBT171826543.1.2.0,Phases=2,Linecode=BT518_BT518_7_2_1,Length=0.000501000,Units=km
new line.18778529 bus1=BBT150822564.1.2.0,bus2=BBT150822565.1.2.0,Phases=2,Linecode=BT518_BT518_7_2_1,Length=0.000501000,Units=km
new line.18787871 bus1=BBT151125686.1.2.0,bus2=BBT151125687.1.2.0,Phases=2,Linecode=BT518_BT518_7_2_1,Length=0.000501000,Units=km
new line.18788536 bus1=BBT3349798.1.2.3.0,bus2=BBT151138720.1.2.3.0,Phases=3,Linecode=BT810_BT810_4_3_4,Length=0.005002000,Units=km
new line.18788537 bus1=BBT151138720.1.2.3.0,bus2=BBT151138721.1.2.3.0,Phases=3,Linecode=BT810_BT810_4_3_4,Length=0.042123000,Units=km
new line.18801327 bus1=BBT151520407.1.2.3.0,bus2=BBT3349791.1.2.3.0,Phases=3,Linecode=BT518_BT518_7_3_1,Length=0.000501000,Units=km
new line.18801328 bus1=BBT151520438.1.2.3.0,bus2=BBT151520455.1.2.3.0,Phases=3,Linecode=BT810_BT810_4_3_4,Length=0.025248000,Units=km
new line.18801329 bus1=BBT151520455.1.2.3.0,bus2=BBT151520456.1.2.3.0,Phases=3,Linecode=BT810_BT810_4_3_4,Length=0.036359000,Units=km
new line.18801332 bus1=BBT599071.1.2.3.0,bus2=BBT151520522.1.2.3.0,Phases=3,Linecode=BT808_BT808_4_3_3,Length=0.038654000,Units=km
new line.18801333 bus1=BBT151520522.2.3.0,bus2=BBT151520523.2.3.0,Phases=2,Linecode=BT808_BT808_4_2_3,Length=0.039474000,Units=km
new line.18815366 bus1=BBT151942223.1.2.0,bus2=BBT174164204.1.2.0,Phases=2,Linecode=BT518_BT518_7_2_1,Length=0.000501000,Units=km
new line.18816040 bus1=BBT151976735.1.2.3.0,bus2=BBT151976736.1.2.3.0,Phases=3,Linecode=BT514_BT509_7_3_1,Length=0.000501000,Units=km
new line.18827044 bus1=BBT152327608.1.2.0,bus2=BBT152327609.1.2.0,Phases=2,Linecode=BT518_BT518_7_2_1,Length=0.000501000,Units=km
new line.18827566 bus1=BBT152347873.1.2.0,bus2=BBT152347874.1.2.0,Phases=2,Linecode=BT518_BT518_7_2_1,Length=0.000501000,Units=km
new line.18829648 bus1=BBT152402278.1.2.0,bus2=BBT152402279.1.2.0,Phases=2,Linecode=BT518_BT518_7_2_1,Length=0.000501000,Units=km
new line.18829811 bus1=BBT152404455.1.2.0,bus2=BBT152404456.1.2.0,Phases=2,Linecode=BT521_BT521_7_2_1,Length=0.000501000,Units=km
new line.18833947 bus1=BBT152513232.1.2.0,bus2=BBT152513233.1.2.0,Phases=2,Linecode=BT518_BT518_7_2_1,Length=0.000501000,Units=km
new line.18833948 bus1=BBT152513233.1.2.0,bus2=BBT152513242.1.2.0,Phases=2,Linecode=BT803_BT803_4_2_4,Length=0.029166000,Units=km
new line.18833949 bus1=BBT152513242.1.2.0,bus2=BBT152513243.1.2.0,Phases=2,Linecode=BT810_BT810_4_2_4,Length=0.035070000,Units=km
new line.18833951 bus1=BBT152513243.1.2.0,bus2=BBT152513244.1.2.0,Phases=2,Linecode=BT810_BT810_4_2_4,Length=0.037497000,Units=km
new line.18833953 bus1=BBT152513233.1.2.0,bus2=BBT152513277.1.2.0,Phases=2,Linecode=BT803_BT803_4_2_4,Length=0.029166000,Units=km
new line.18833954 bus1=BBT152513277.1.2.0,bus2=BBT152513278.1.2.0,Phases=2,Linecode=BT803_BT803_4_2_4,Length=0.030161000,Units=km
new line.18842608 bus1=BBT152762856.1.2.0,bus2=BBT152762857.1.2.0,Phases=2,Linecode=BT518_BT518_7_2_1,Length=0.000501000,Units=km
new line.18905876 bus1=BBT154698838.1.2.3.0,bus2=BBT154698839.1.2.3.0,Phases=3,Linecode=BT518_BT518_7_3_1,Length=0.000501000,Units=km
new line.18913759 bus1=BBT154941411.1.2.3.0,bus2=BBT154941412.1.2.3.0,Phases=3,Linecode=BT518_BT518_7_3_1,Length=0.000501000,Units=km
new line.18934177 bus1=BBT155641318.1.2.3.0,bus2=BBT155641319.1.2.3.0,Phases=3,Linecode=BT518_BT518_7_3_1,Length=0.000501000,Units=km
new line.18945176 bus1=BBT155913780.1.2.0,bus2=BBT155913781.1.2.0,Phases=2,Linecode=BT505_BT505_7_2_1,Length=0.000502000,Units=km
new line.18951463 bus1=BBT151138721.1.2.3.0,bus2=BBT156099522.1.2.3.0,Phases=3,Linecode=BT803_BT803_4_3_4,Length=0.041125000,Units=km
new line.18951464 bus1=BBT156099522.1.2.3.0,bus2=BBT156099528.1.2.3.0,Phases=3,Linecode=BT803_BT803_4_3_4,Length=0.042312000,Units=km
new line.18951465 bus1=BBT156099528.1.2.3.0,bus2=BBT156099529.1.2.3.0,Phases=3,Linecode=BT803_BT803_4_3_4,Length=0.036138000,Units=km
new line.18989309 bus1=BBT157138075.1.2.0,bus2=BBT157138076.1.2.0,Phases=2,Linecode=BT518_BT518_7_2_1,Length=0.000501000,Units=km
new line.18991009 bus1=BBT157187012.1.2.0,bus2=BBT157187013.1.2.0,Phases=2,Linecode=BT518_BT518_7_2_1,Length=0.000501000,Units=km
new line.19024777 bus1=BBT158136492.1.2.0,bus2=BBT158136493.1.2.0,Phases=2,Linecode=BT518_BT518_7_2_1,Length=0.000501000,Units=km
new line.19024784 bus1=BBT158136493.1.2.0,bus2=BBT158136610.1.2.0,Phases=2,Linecode=BT808_BT808_4_2_3,Length=0.032291000,Units=km
new line.19031251 bus1=BBT158317595.1.2.0,bus2=BBT158317596.1.2.0,Phases=2,Linecode=BT518_BT518_7_2_1,Length=0.000501000,Units=km
new line.19063442 bus1=BBT159346722.1.2.0,bus2=BBT159346723.1.2.0,Phases=2,Linecode=BT505_BT505_7_2_1,Length=0.000501000,Units=km
new line.19064275 bus1=BBT159372856.1.2.0,bus2=BBT159372857.1.2.0,Phases=2,Linecode=BT518_BT518_7_2_1,Length=0.000501000,Units=km
new line.19067673 bus1=BBT159475094.1.2.0,bus2=BBT159475095.1.2.0,Phases=2,Linecode=BT505_BT505_7_2_1,Length=0.000501000,Units=km
new line.19088087 bus1=BBT160104147.1.2.0,bus2=BBT160104148.1.2.0,Phases=2,Linecode=BT505_BT505_7_2_1,Length=0.000501000,Units=km
new line.19107871 bus1=BBT160966466.1.2.0,bus2=BBT160966467.1.2.0,Phases=2,Linecode=BT518_BT518_7_2_1,Length=0.000501000,Units=km
new line.19107901 bus1=BBT160966467.1.2.0,bus2=BBT160967146.1.2.0,Phases=2,Linecode=BT808_BT808_4_2_3,Length=0.028470000,Units=km
new line.19113310 bus1=BBT161143604.1.2.0,bus2=BBT161143605.1.2.0,Phases=2,Linecode=BT518_BT518_7_2_1,Length=0.000501000,Units=km
new line.19113313 bus1=BBT161143605.1.2.0,bus2=BBT161143907.1.2.0,Phases=2,Linecode=BT808_BT808_4_2_3,Length=0.011666000,Units=km
new line.19158795 bus1=BBT604405.1.2.0,bus2=BBT163007017.1.2.0,Phases=2,Linecode=BT807_BT807_4_2_3,Length=0.026842000,Units=km
new line.19200152 bus1=BBT164516952.1.2.0,bus2=BBT164516953.1.2.0,Phases=2,Linecode=BT518_BT518_7_2_1,Length=0.000501000,Units=km
new line.19209295 bus1=BBT164804854.1.2.0,bus2=BBT164804855.1.2.0,Phases=2,Linecode=BT508_BT508_7_2_1,Length=0.000501000,Units=km
new line.19209308 bus1=BBT164804855.1.2.0,bus2=BBT164805263.1.2.0,Phases=2,Linecode=BT808_BT808_4_2_3,Length=0.030131000,Units=km
new line.19223750 bus1=BBT165237201.1.2.0,bus2=BBT165237182.1.2.0,Phases=2,Linecode=BT808_BT808_4_2_3,Length=0.031412000,Units=km
new line.19225836 bus1=BBT165315385.1.2.0,bus2=BBT165315386.1.2.0,Phases=2,Linecode=BT518_BT518_7_2_1,Length=0.000501000,Units=km
new line.19258814 bus1=BBT166407057.1.2.0,bus2=BBT166407058.1.2.0,Phases=2,Linecode=BT518_BT518_7_2_1,Length=0.000501000,Units=km
new line.19302871 bus1=BBT167562177.1.2.0,bus2=BBT167562178.1.2.0,Phases=2,Linecode=BT518_BT518_7_2_1,Length=0.000501000,Units=km
new line.19314275 bus1=BBT167860168.1.2.3.0,bus2=BBT167860169.1.2.3.0,Phases=3,Linecode=BT513_BT513_7_3_1,Length=0.000501000,Units=km
new line.19314865 bus1=BBT167877361.1.2.0,bus2=BBT167877362.1.2.0,Phases=2,Linecode=BT518_BT518_7_2_1,Length=0.000501000,Units=km
new line.19329044 bus1=BBT599344.1.2.3.0,bus2=BBT168294272.1.2.3.0,Phases=3,Linecode=BT803_BT803_4_3_4,Length=0.005659000,Units=km
new line.19329047 bus1=BBT168294272.1.2.3.0,bus2=BBT168294327.1.2.3.0,Phases=3,Linecode=BT803_BT803_4_3_4,Length=0.033149000,Units=km
new line.19329050 bus1=BBT168294327.1.2.3.0,bus2=BBT168294341.1.2.3.0,Phases=3,Linecode=BT803_BT803_4_3_4,Length=0.036027000,Units=km
new line.19329180 bus1=BBT168297668.1.2.3.0,bus2=BBT599246.1.2.3.0,Phases=3,Linecode=BT518_BT518_7_3_1,Length=0.000501000,Units=km
new line.19329356 bus1=BBT168302199.1.2.0,bus2=BBT168302200.1.2.0,Phases=2,Linecode=BT518_BT518_7_2_1,Length=0.000501000,Units=km
new line.19329391 bus1=BBT168302200.1.2.0,bus2=BBT168302505.1.2.0,Phases=2,Linecode=BT808_BT808_4_2_3,Length=0.029744000,Units=km
new line.19353230 bus1=BBT169042093.1.2.3.0,bus2=BBT169042094.1.2.3.0,Phases=3,Linecode=BT518_BT518_7_3_1,Length=0.000501000,Units=km
new line.19353231 bus1=BBT169042120.1.2.3.0,bus2=BBT169042121.1.2.3.0,Phases=3,Linecode=BT518_BT518_7_3_1,Length=0.000501000,Units=km
new line.19353232 bus1=BBT169042159.1.2.3.0,bus2=BBT169042160.1.2.3.0,Phases=3,Linecode=BT518_BT518_7_3_1,Length=0.000501000,Units=km
new line.19353235 bus1=BBT169042227.1.2.3.0,bus2=BBT169042228.1.2.3.0,Phases=3,Linecode=BT518_BT518_7_3_1,Length=0.000501000,Units=km
new line.19353239 bus1=BBT169042274.1.2.3.0,bus2=BBT169042275.1.2.3.0,Phases=3,Linecode=BT518_BT518_7_3_1,Length=0.000501000,Units=km
new line.19353257 bus1=BBT169042662.1.2.3.0,bus2=BBT169042663.1.2.3.0,Phases=3,Linecode=BT518_BT518_7_3_1,Length=0.000501000,Units=km
new line.19353285 bus1=BBT169043596.1.2.3.0,bus2=BBT169043597.1.2.3.0,Phases=3,Linecode=BT518_BT518_7_3_1,Length=0.000501000,Units=km
new line.19353318 bus1=BBT169042663.1.2.3.0,bus2=BBT169044662.1.2.3.0,Phases=3,Linecode=BT803_BT803_4_3_4,Length=0.032048000,Units=km
new line.19353319 bus1=BBT169044662.1.2.3.0,bus2=BBT169044669.1.2.3.0,Phases=3,Linecode=BT803_BT803_4_3_4,Length=0.013059000,Units=km
new line.19353329 bus1=BBT169044669.1.2.3.0,bus2=BBT169044786.1.2.3.0,Phases=3,Linecode=BT803_BT803_4_3_4,Length=0.024204000,Units=km
new line.19353330 bus1=BBT169044786.1.2.3.0,bus2=BBT169044787.1.2.3.0,Phases=3,Linecode=BT803_BT803_4_3_4,Length=0.034725000,Units=km
new line.19353331 bus1=BBT169044787.1.2.3.0,bus2=BBT169044788.1.2.3.0,Phases=3,Linecode=BT803_BT803_4_3_4,Length=0.037496000,Units=km
new line.19353333 bus1=BBT169042663.1.2.3.0,bus2=BBT169044819.1.2.3.0,Phases=3,Linecode=BT803_BT803_4_3_4,Length=0.038071000,Units=km
new line.19353334 bus1=BBT169044819.1.2.3.0,bus2=BBT169044820.1.2.3.0,Phases=3,Linecode=BT803_BT803_4_3_4,Length=0.038057000,Units=km
new line.19353335 bus1=BBT169044820.1.2.3.0,bus2=BBT169044821.1.2.3.0,Phases=3,Linecode=BT803_BT803_4_3_4,Length=0.038071000,Units=km
new line.19353337 bus1=BBT169044669.1.2.3.0,bus2=BBT169044829.1.2.3.0,Phases=3,Linecode=BT803_BT803_4_3_4,Length=0.009004000,Units=km
new line.19353339 bus1=BBT169044669.1.2.3.0,bus2=BBT169044831.1.2.3.0,Phases=3,Linecode=BT803_BT803_4_3_4,Length=0.026182000,Units=km
new line.19353340 bus1=BBT169042275.1.2.3.0,bus2=BBT169044835.1.2.3.0,Phases=3,Linecode=BT803_BT803_4_3_4,Length=0.041062000,Units=km
new line.19353343 bus1=BBT169044835.1.2.3.0,bus2=BBT169044849.1.2.3.0,Phases=3,Linecode=BT803_BT803_4_3_4,Length=0.007218000,Units=km
new line.19353344 bus1=BBT169044849.1.2.3.0,bus2=BBT169044850.1.2.3.0,Phases=3,Linecode=BT803_BT803_4_3_4,Length=0.032152000,Units=km
new line.19353345 bus1=BBT169042275.1.2.3.0,bus2=BBT169044858.1.2.3.0,Phases=3,Linecode=BT803_BT803_4_3_4,Length=0.037056000,Units=km
new line.19353346 bus1=BBT169044858.1.2.3.0,bus2=BBT169044862.1.2.3.0,Phases=3,Linecode=BT803_BT803_4_3_4,Length=0.037056000,Units=km
new line.19353347 bus1=BBT169044862.1.2.3.0,bus2=BBT169044863.1.2.3.0,Phases=3,Linecode=BT803_BT803_4_3_4,Length=0.043065000,Units=km
new line.19353349 bus1=BBT169044835.1.2.3.0,bus2=BBT169094705.1.2.3.0,Phases=3,Linecode=BT803_BT803_4_3_4,Length=0.005107000,Units=km
new line.19353350 bus1=BBT169044864.1.2.3.0,bus2=BBT169044868.1.2.3.0,Phases=3,Linecode=BT803_BT803_4_3_4,Length=0.039473000,Units=km
new line.19353351 bus1=BBT169044868.1.2.3.0,bus2=BBT169044880.1.2.3.0,Phases=3,Linecode=BT803_BT803_4_3_4,Length=0.035368000,Units=km
new line.19353352 bus1=BBT169044863.1.2.3.0,bus2=BBT169044885.1.2.3.0,Phases=3,Linecode=BT803_BT803_4_3_4,Length=0.041016000,Units=km
new line.19353353 bus1=BBT169042121.1.2.3.0,bus2=BBT169044894.1.2.3.0,Phases=3,Linecode=BT803_BT803_4_3_4,Length=0.034185000,Units=km
new line.19353355 bus1=BBT169044894.1.2.3.0,bus2=BBT169044895.1.2.3.0,Phases=3,Linecode=BT803_BT803_4_3_4,Length=0.033429000,Units=km
new line.19353356 bus1=BBT169044895.1.2.3.0,bus2=BBT169044896.1.2.3.0,Phases=3,Linecode=BT803_BT803_4_3_4,Length=0.040029000,Units=km
new line.19353358 bus1=BBT169044896.1.2.3.0,bus2=BBT169044897.1.2.3.0,Phases=3,Linecode=BT803_BT803_4_3_4,Length=0.042017000,Units=km
new line.19353359 bus1=BBT169042121.1.2.3.0,bus2=BBT169044916.1.2.3.0,Phases=3,Linecode=BT803_BT803_4_3_4,Length=0.032190000,Units=km
new line.19353360 bus1=BBT169044916.1.2.3.0,bus2=BBT169044917.1.2.3.0,Phases=3,Linecode=BT803_BT803_4_3_4,Length=0.032299000,Units=km
new line.19353361 bus1=BBT169044917.1.2.3.0,bus2=BBT169044920.1.2.3.0,Phases=3,Linecode=BT803_BT803_4_3_4,Length=0.034419000,Units=km
new line.19353362 bus1=BBT169044920.1.2.3.0,bus2=BBT169044921.1.2.3.0,Phases=3,Linecode=BT803_BT803_4_3_4,Length=0.033187000,Units=km
new line.19353364 bus1=BBT169042160.1.2.3.0,bus2=BBT169044922.1.2.3.0,Phases=3,Linecode=BT803_BT803_4_3_4,Length=0.037067000,Units=km
new line.19353365 bus1=BBT169044922.1.2.3.0,bus2=BBT169044923.1.2.3.0,Phases=3,Linecode=BT803_BT803_4_3_4,Length=0.033072000,Units=km
new line.19353366 bus1=BBT169044923.1.2.3.0,bus2=BBT169044924.1.2.3.0,Phases=3,Linecode=BT803_BT803_4_3_4,Length=0.033254000,Units=km
new line.19353367 bus1=BBT169042160.1.2.3.0,bus2=BBT169044929.1.2.3.0,Phases=3,Linecode=BT803_BT803_4_3_4,Length=0.039218000,Units=km
new line.19353369 bus1=BBT169044929.1.2.3.0,bus2=BBT169044936.1.2.3.0,Phases=3,Linecode=BT803_BT803_4_3_4,Length=0.035240000,Units=km
new line.19353374 bus1=BBT169044920.1.2.3.0,bus2=BBT169044966.1.2.3.0,Phases=3,Linecode=BT803_BT803_4_3_4,Length=0.030161000,Units=km
new line.19353375 bus1=BBT169042094.1.2.3.0,bus2=BBT169044971.1.2.3.0,Phases=3,Linecode=BT803_BT803_4_3_4,Length=0.033107000,Units=km
new line.19353377 bus1=BBT169042094.1.2.3.0,bus2=BBT169044972.1.2.3.0,Phases=3,Linecode=BT803_BT803_4_3_4,Length=0.038178000,Units=km
new line.19353378 bus1=BBT169044972.1.2.3.0,bus2=BBT169044973.1.2.3.0,Phases=3,Linecode=BT803_BT803_4_3_4,Length=0.038111000,Units=km
new line.19353379 bus1=BBT169044973.1.2.3.0,bus2=BBT169044974.1.2.3.0,Phases=3,Linecode=BT803_BT803_4_3_4,Length=0.038177000,Units=km
new line.19353381 bus1=BBT169044971.1.2.3.0,bus2=BBT169044987.1.2.3.0,Phases=3,Linecode=BT803_BT803_4_3_4,Length=0.013018000,Units=km
new line.19353382 bus1=BBT169044987.1.2.3.0,bus2=BBT169044988.1.2.3.0,Phases=3,Linecode=BT803_BT803_4_3_4,Length=0.027205000,Units=km
new line.19353383 bus1=BBT169044988.1.2.3.0,bus2=BBT169044989.1.2.3.0,Phases=3,Linecode=BT803_BT803_4_3_4,Length=0.038237000,Units=km
new line.19353384 bus1=BBT169044987.1.2.3.0,bus2=BBT169044994.1.2.3.0,Phases=3,Linecode=BT803_BT803_4_3_4,Length=0.008004000,Units=km
new line.19353385 bus1=BBT169044994.1.2.3.0,bus2=BBT169044995.1.2.3.0,Phases=3,Linecode=BT803_BT803_4_3_4,Length=0.026087000,Units=km
new line.19353386 bus1=BBT169042228.1.2.3.0,bus2=BBT169044996.1.2.3.0,Phases=3,Linecode=BT803_BT803_4_3_4,Length=0.037229000,Units=km
new line.19353387 bus1=BBT169044996.1.2.3.0,bus2=BBT169044998.1.2.3.0,Phases=3,Linecode=BT803_BT803_4_3_4,Length=0.038223000,Units=km
new line.19353388 bus1=BBT169044998.1.2.3.0,bus2=BBT169045007.1.2.3.0,Phases=3,Linecode=BT803_BT803_4_3_4,Length=0.039218000,Units=km
new line.19353389 bus1=BBT169044936.1.2.3.0,bus2=BBT169045016.1.2.3.0,Phases=3,Linecode=BT803_BT803_4_3_4,Length=0.031268000,Units=km
new line.19353390 bus1=BBT169042228.1.2.3.0,bus2=BBT169045017.1.2.3.0,Phases=3,Linecode=BT803_BT803_4_3_4,Length=0.037229000,Units=km
new line.19353393 bus1=BBT169045017.1.2.3.0,bus2=BBT169045080.1.2.3.0,Phases=3,Linecode=BT803_BT803_4_3_4,Length=0.036358000,Units=km
new line.19353394 bus1=BBT169045016.1.2.3.0,bus2=BBT169045081.1.2.3.0,Phases=3,Linecode=BT803_BT803_4_3_4,Length=0.007214000,Units=km
new line.19353395 bus1=BBT169045081.1.2.3.0,bus2=BBT169045084.1.2.3.0,Phases=3,Linecode=BT803_BT803_4_3_4,Length=0.025971000,Units=km
new line.19353396 bus1=BBT169045080.1.2.3.0,bus2=BBT169045085.1.2.3.0,Phases=3,Linecode=BT803_BT803_4_3_4,Length=0.006406000,Units=km
new line.19353398 bus1=BBT169045085.1.2.3.0,bus2=BBT169045113.1.2.3.0,Phases=3,Linecode=BT803_BT803_4_3_4,Length=0.036151000,Units=km
new line.19353404 bus1=BBT169045085.1.2.3.0,bus2=BBT169045133.1.2.3.0,Phases=3,Linecode=BT803_BT803_4_3_4,Length=0.036151000,Units=km
new line.19353405 bus1=BBT169044987.1.2.3.0,bus2=BBT169045134.1.2.3.0,Phases=3,Linecode=BT803_BT803_4_3_4,Length=0.027086000,Units=km
new line.19353418 bus1=BBT169043597.1.2.3.0,bus2=BBT169045197.1.2.3.0,Phases=3,Linecode=BT803_BT803_4_3_4,Length=0.036248000,Units=km
new line.19353420 bus1=BBT169043597.1.2.3.0,bus2=BBT169045200.1.2.3.0,Phases=3,Linecode=BT803_BT803_4_3_4,Length=0.034898000,Units=km
new line.19353421 bus1=BBT169045200.1.2.3.0,bus2=BBT169045205.1.2.3.0,Phases=3,Linecode=BT803_BT803_4_3_4,Length=0.006327000,Units=km
new line.19353422 bus1=BBT169045205.1.2.3.0,bus2=BBT169045214.1.2.3.0,Phases=3,Linecode=BT803_BT803_4_3_4,Length=0.029625000,Units=km
new line.19353423 bus1=BBT169045214.1.2.3.0,bus2=BBT169045215.1.2.3.0,Phases=3,Linecode=BT803_BT803_4_3_4,Length=0.031268000,Units=km
new line.19353424 bus1=BBT169045215.1.2.3.0,bus2=BBT169045220.1.2.3.0,Phases=3,Linecode=BT803_BT803_4_3_4,Length=0.032400000,Units=km
new line.19353428 bus1=BBT169045197.1.2.3.0,bus2=BBT169045237.1.2.3.0,Phases=3,Linecode=BT803_BT803_4_3_4,Length=0.007214000,Units=km
new line.19353429 bus1=BBT169045237.1.2.3.0,bus2=BBT169045284.1.2.3.0,Phases=3,Linecode=BT803_BT803_4_3_4,Length=0.040806000,Units=km
new line.19353431 bus1=BBT169045284.1.2.3.0,bus2=BBT169045293.1.2.3.0,Phases=3,Linecode=BT803_BT803_4_3_4,Length=0.038847000,Units=km
new line.19355056 bus1=BBT169094705.1.2.3.0,bus2=BBT169044864.1.2.3.0,Phases=3,Linecode=BT803_BT803_4_3_4,Length=0.035534000,Units=km
new line.19374747 bus1=BBT169663562.1.2.3.0,bus2=BBT169663563.1.2.3.0,Phases=3,Linecode=BT518_BT518_7_3_1,Length=0.000501000,Units=km
new line.19374750 bus1=BBT169663563.1.2.3.0,bus2=BBT169663623.1.2.3.0,Phases=3,Linecode=BT803_BT803_4_3_4,Length=0.038653000,Units=km
new line.19374752 bus1=BBT169663563.1.2.3.0,bus2=BBT169663640.1.2.3.0,Phases=3,Linecode=BT803_BT803_4_3_4,Length=0.039826000,Units=km
new line.19374753 bus1=BBT169663640.1.2.3.0,bus2=BBT169663660.1.2.3.0,Phases=3,Linecode=BT803_BT803_4_3_4,Length=0.005101000,Units=km
new line.19374756 bus1=BBT169664451.1.2.3.0,bus2=BBT169663678.1.2.3.0,Phases=3,Linecode=BT803_BT803_4_3_4,Length=0.006085000,Units=km
new line.19374757 bus1=BBT169664451.1.2.3.0,bus2=BBT169663723.1.2.3.0,Phases=3,Linecode=BT803_BT803_4_3_4,Length=0.017269000,Units=km
new line.19374758 bus1=BBT169663723.1.2.3.0,bus2=BBT169663724.1.2.3.0,Phases=3,Linecode=BT803_BT803_4_3_4,Length=0.033553000,Units=km
new line.19374760 bus1=BBT169664451.1.2.3.0,bus2=BBT169663726.1.2.3.0,Phases=3,Linecode=BT803_BT803_4_3_4,Length=0.020623000,Units=km
new line.19374761 bus1=BBT169663726.1.2.3.0,bus2=BBT169663740.1.2.3.0,Phases=3,Linecode=BT803_BT803_4_3_4,Length=0.028453000,Units=km
new line.19374762 bus1=BBT169663660.1.2.3.0,bus2=BBT169663741.1.2.3.0,Phases=3,Linecode=BT803_BT803_4_3_4,Length=0.006085000,Units=km
new line.19374763 bus1=BBT169663741.1.2.3.0,bus2=BBT169663756.1.2.3.0,Phases=3,Linecode=BT803_BT803_4_3_4,Length=0.036687000,Units=km
new line.19374765 bus1=BBT169663660.1.2.3.0,bus2=BBT169663797.1.2.3.0,Phases=3,Linecode=BT803_BT803_4_3_4,Length=0.037670000,Units=km
new line.19374768 bus1=BBT169663660.1.2.3.0,bus2=BBT169664035.1.2.3.0,Phases=3,Linecode=BT803_BT803_4_3_4,Length=0.026486000,Units=km
new line.19374769 bus1=BBT169664035.1.2.3.0,bus2=BBT169664036.1.2.3.0,Phases=3,Linecode=BT803_BT803_4_3_4,Length=0.033746000,Units=km
new line.19374770 bus1=BBT169664036.1.2.3.0,bus2=BBT169664042.1.2.3.0,Phases=3,Linecode=BT803_BT803_4_3_4,Length=0.046114000,Units=km
new line.19374771 bus1=BBT169664042.1.2.3.0,bus2=BBT169664045.1.2.3.0,Phases=3,Linecode=BT803_BT803_4_3_4,Length=0.044927000,Units=km
new line.19374784 bus1=BBT169663623.1.2.3.0,bus2=BBT169664451.1.2.3.0,Phases=3,Linecode=BT803_BT803_4_3_4,Length=0.031332000,Units=km
new line.19429207 bus1=BBT171281568.1.2.3.0,bus2=BBT171281569.1.2.3.0,Phases=3,Linecode=BT518_BT518_7_3_1,Length=0.000501000,Units=km
new line.19429211 bus1=BBT171281569.1.2.3.0,bus2=BBT171281690.1.2.3.0,Phases=3,Linecode=BT803_BT803_4_3_4,Length=0.044736000,Units=km
new line.19429212 bus1=BBT171281569.1.2.3.0,bus2=BBT171281691.1.2.3.0,Phases=3,Linecode=BT803_BT803_4_3_4,Length=0.045556000,Units=km
new line.19429214 bus1=BBT171281691.1.2.3.0,bus2=BBT171281698.1.2.3.0,Phases=3,Linecode=BT803_BT803_4_3_4,Length=0.044937000,Units=km
new line.19429215 bus1=BBT171281698.1.2.3.0,bus2=BBT171281699.1.2.3.0,Phases=3,Linecode=BT803_BT803_4_3_4,Length=0.044937000,Units=km
new line.19429216 bus1=BBT171281690.1.2.3.0,bus2=BBT171281700.1.2.3.0,Phases=3,Linecode=BT803_BT803_4_3_4,Length=0.044736000,Units=km
new line.19429217 bus1=BBT171281700.1.2.3.0,bus2=BBT171281701.1.2.3.0,Phases=3,Linecode=BT803_BT803_4_3_4,Length=0.044926000,Units=km
new line.19433058 bus1=BBT171396002.1.2.0,bus2=BBT171396003.1.2.0,Phases=2,Linecode=BT508_BT508_7_2_1,Length=0.000501000,Units=km
new line.19447091 bus1=BBT171826543.1.2.0,bus2=BBT149345979.1.2.0,Phases=2,Linecode=BT807_BT807_4_2_3,Length=0.038654000,Units=km
new line.19447092 bus1=BBT171826543.1.2.0,bus2=BBT171826758.1.2.0,Phases=2,Linecode=BT807_BT807_4_2_3,Length=0.034539000,Units=km
new line.19449952 bus1=BBT171908566.1.2.0,bus2=BBT171908567.1.2.0,Phases=2,Linecode=BT508_BT508_7_2_1,Length=0.000501000,Units=km
new line.19449968 bus1=BBT171908567.1.2.0,bus2=BBT171908814.1.2.0,Phases=2,Linecode=BT808_BT808_4_2_3,Length=0.040622000,Units=km
new line.19480531 bus1=BBT172917350.1.2.3.0,bus2=BBT172917351.1.2.3.0,Phases=3,Linecode=BT513_BT513_7_3_1,Length=0.000501000,Units=km
new line.19485712 bus1=BBT173119422.1.2.3.0,bus2=BBT3350631.1.2.3.0,Phases=3,Linecode=BT513_BT513_7_3_1,Length=0.000501000,Units=km
new line.19490413 bus1=BBT173263091.1.2.0,bus2=BBT173263092.1.2.0,Phases=2,Linecode=BT508_BT508_7_2_1,Length=0.000501000,Units=km
new line.19493616 bus1=BBT599995.1.2.3.0,bus2=BBT173352284.1.2.3.0,Phases=3,Linecode=BT803_BT803_4_3_4,Length=0.032570000,Units=km
new line.19493627 bus1=BBT173352362.1.2.3.0,bus2=BBT599995.1.2.3.0,Phases=3,Linecode=BT509_BT509_7_3_1,Length=0.000501000,Units=km
new line.19493631 bus1=BBT173352284.1.2.3.0,bus2=BBT3349763.1.2.3.0,Phases=3,Linecode=BT803_BT803_4_3_4,Length=0.044738000,Units=km
new line.19496864 bus1=BBT173506944.1.2.3.0,bus2=BBT173507013.1.2.3.0,Phases=3,Linecode=BT803_BT803_4_3_4,Length=0.032400000,Units=km
new line.19496865 bus1=BBT173506944.1.2.3.0,bus2=BBT173506945.1.2.3.0,Phases=3,Linecode=BT803_BT803_4_3_4,Length=0.009059000,Units=km
new line.19496866 bus1=BBT173506945.1.2.3.0,bus2=BBT173506946.1.2.3.0,Phases=3,Linecode=BT803_BT803_4_3_4,Length=0.036510000,Units=km
new line.19496871 bus1=BBT3349784.1.2.3.0,bus2=BBT173506944.1.2.3.0,Phases=3,Linecode=BT803_BT803_4_3_4,Length=0.025328000,Units=km
new line.19496872 bus1=BBT173506944.1.2.3.0,bus2=BBT598833.1.2.3.0,Phases=3,Linecode=BT803_BT803_4_3_4,Length=0.011050000,Units=km
new line.19498091 bus1=BBT173545768.1.2.3.0,bus2=BBT655855.1.2.3.0,Phases=3,Linecode=BT509_BT509_7_3_1,Length=0.000501000,Units=km
new line.19498321 bus1=BBT173263092.1.2.0,bus2=BBT173555314.1.2.0,Phases=2,Linecode=BT808_BT808_4_2_3,Length=0.040026000,Units=km
new line.19498664 bus1=BBT10680632.1.2.3.0,bus2=BBT173563753.1.2.3.0,Phases=3,Linecode=BT803_BT803_4_3_4,Length=0.004002000,Units=km
new line.19498666 bus1=BBT173563753.1.2.3.0,bus2=BBT173563757.1.2.3.0,Phases=3,Linecode=BT803_BT803_4_3_4,Length=0.027176000,Units=km
new line.19498669 bus1=BBT173563757.1.2.3.0,bus2=BBT173563780.1.2.3.0,Phases=3,Linecode=BT803_BT803_4_3_4,Length=0.024196000,Units=km
new line.19503749 bus1=BBT173703629.1.2.0,bus2=BBT173703630.1.2.0,Phases=2,Linecode=BT518_BT518_7_2_1,Length=0.000501000,Units=km
new line.19518810 bus1=BBT174164204.1.2.0,bus2=BBT174164226.1.2.0,Phases=2,Linecode=BT808_BT808_4_2_3,Length=0.027900000,Units=km
new line.19518900 bus1=BBT174165877.1.2.0,bus2=BBT174165866.1.2.0,Phases=2,Linecode=BT808_BT808_4_2_3,Length=0.026028000,Units=km
new line.19520784 bus1=BBT174238059.1.2.0,bus2=BBT174238060.1.2.0,Phases=2,Linecode=BT505_BT505_7_2_1,Length=0.000501000,Units=km
new line.19523270 bus1=BBT174314272.1.2.3.0,bus2=BBT174314273.1.2.3.0,Phases=3,Linecode=BT509_BT509_7_3_1,Length=0.000501000,Units=km
new line.19547638 bus1=BBT175178954.1.2.3.0,bus2=BBT175178955.1.2.3.0,Phases=3,Linecode=BT518_BT518_7_3_1,Length=0.000501000,Units=km
new line.19547639 bus1=BBT175178955.1.2.3.0,bus2=BBT175178956.1.2.3.0,Phases=3,Linecode=BT803_BT803_4_3_4,Length=0.032151000,Units=km
new line.19547640 bus1=BBT175178955.1.2.3.0,bus2=BBT175178957.1.2.3.0,Phases=3,Linecode=BT803_BT803_4_3_4,Length=0.045292000,Units=km
new line.19547641 bus1=BBT175178956.1.2.3.0,bus2=BBT175178958.1.2.3.0,Phases=3,Linecode=BT803_BT803_4_3_4,Length=0.034246000,Units=km
new line.19547642 bus1=BBT175178958.1.2.3.0,bus2=BBT175178959.1.2.3.0,Phases=3,Linecode=BT803_BT803_4_3_4,Length=0.015038000,Units=km
new line.19547643 bus1=BBT175178957.1.2.3.0,bus2=BBT175178966.1.2.3.0,Phases=3,Linecode=BT803_BT803_4_3_4,Length=0.044298000,Units=km
new line.19547644 bus1=BBT175178966.1.2.3.0,bus2=BBT175178967.1.2.3.0,Phases=3,Linecode=BT803_BT803_4_3_4,Length=0.035239000,Units=km
new line.19547645 bus1=BBT175178971.1.2.3.0,bus2=BBT175178970.1.2.3.0,Phases=3,Linecode=BT803_BT803_4_3_4,Length=0.011049000,Units=km
new line.19547646 bus1=BBT175178967.1.2.3.0,bus2=BBT175178971.1.2.3.0,Phases=3,Linecode=BT803_BT803_4_3_4,Length=0.019111000,Units=km
new line.19554180 bus1=BBT175369393.1.2.3.0,bus2=BBT175375139.1.2.3.0,Phases=3,Linecode=BT803_BT803_4_3_4,Length=0.036359000,Units=km
new line.19554181 bus1=BBT175369407.1.2.3.0,bus2=BBT175369393.1.2.3.0,Phases=3,Linecode=BT803_BT803_4_3_4,Length=0.032261000,Units=km
new line.19554190 bus1=BBT175369850.1.2.3.0,bus2=BBT598903.1.2.3.0,Phases=3,Linecode=BT518_BT518_7_3_1,Length=0.000501000,Units=km
new line.19566498 bus1=BBT599141.1.2.3.0,bus2=BBT175753598.1.2.3.0,Phases=3,Linecode=BT803_BT803_4_3_4,Length=0.033254000,Units=km
new line.19571405 bus1=BBT656464.1.2.3.0,bus2=BBT175885565.1.2.3.0,Phases=3,Linecode=BT803_BT803_4_3_4,Length=0.029843000,Units=km
new line.19571408 bus1=BBT175885565.1.2.3.0,bus2=BBT175885613.1.2.3.0,Phases=3,Linecode=BT803_BT803_4_3_4,Length=0.029625000,Units=km
new line.19571409 bus1=BBT175885613.1.2.3.0,bus2=BBT175885631.1.2.3.0,Phases=3,Linecode=BT810_BT810_4_3_4,Length=0.030425000,Units=km
new line.19571413 bus1=BBT175885631.1.2.3.0,bus2=BBT175885710.1.2.3.0,Phases=3,Linecode=BT810_BT810_4_3_4,Length=0.031587000,Units=km
new line.19571415 bus1=BBT175885710.1.2.3.0,bus2=BBT175885712.1.2.3.0,Phases=3,Linecode=BT810_BT810_4_3_4,Length=0.030605000,Units=km
new line.2737949 bus1=BBT3139455.1.2.3.0,bus2=BBT3139448.1.2.3.0,Phases=3,Linecode=BT810_BT810_4_3_4,Length=0.024008000,Units=km
new line.2747945 bus1=BBT4529228.2.3.0,bus2=BBT4529242.2.3.0,Phases=2,Linecode=BT808_BT808_4_2_3,Length=0.040127000,Units=km
new line.3455071 bus1=BBT2994520.1.2.0,bus2=BBT2994527.1.2.0,Phases=2,Linecode=BT306_BT306_7_2_1,Length=0.000501000,Units=km
new line.3460139 bus1=BBT3001303.1.2.0,bus2=BBT3001310.1.2.0,Phases=2,Linecode=BT507_BT507_7_2_1,Length=0.000501000,Units=km
new line.3462127 bus1=BBT3002934.1.2.0,bus2=BBT3002941.1.2.0,Phases=2,Linecode=BT508_BT508_7_2_1,Length=0.000501000,Units=km
new line.3463114 bus1=BBT3003921.1.2.0,bus2=BBT3003928.1.2.0,Phases=2,Linecode=BT521_BT521_7_2_1,Length=0.000501000,Units=km
new line.3463387 bus1=BBT3004229.1.2.0,bus2=BBT3004236.1.2.0,Phases=2,Linecode=BT521_BT521_7_2_1,Length=0.000501000,Units=km
new line.3463408 bus1=BBT3004215.1.2.0,bus2=BBT3004222.1.2.0,Phases=2,Linecode=BT521_BT521_7_2_1,Length=0.000501000,Units=km
new line.3463415 bus1=BBT3004243.1.2.0,bus2=BBT3004250.1.2.0,Phases=2,Linecode=BT508_BT508_7_2_1,Length=0.000501000,Units=km
new line.3468994 bus1=BBT3009724.1.2.0,bus2=BBT3009731.1.2.0,Phases=2,Linecode=BT508_BT508_7_2_1,Length=0.000501000,Units=km
new line.3474839 bus1=BBT3015359.1.2.0,bus2=BBT3015366.1.2.0,Phases=2,Linecode=BT508_BT508_7_2_1,Length=0.000501000,Units=km
new line.3474881 bus1=BBT3015457.1.2.0,bus2=BBT3015464.1.2.0,Phases=2,Linecode=BT521_BT521_7_2_1,Length=0.000501000,Units=km
new line.3479347 bus1=BBT3019664.1.2.0,bus2=BBT3019671.1.2.0,Phases=2,Linecode=BT521_BT521_7_2_1,Length=0.000501000,Units=km
new line.3485010 bus1=BBT3024900.1.2.0,bus2=BBT3024907.1.2.0,Phases=2,Linecode=BT508_BT508_7_2_1,Length=0.000501000,Units=km
new line.3485080 bus1=BBT3024914.1.2.0,bus2=BBT3024921.1.2.0,Phases=2,Linecode=BT508_BT508_7_2_1,Length=0.000501000,Units=km
new line.3485087 bus1=BBT3024970.1.2.0,bus2=BBT3024977.1.2.0,Phases=2,Linecode=BT508_BT508_7_2_1,Length=0.000501000,Units=km
new line.3485108 bus1=BBT3024998.1.2.0,bus2=BBT3025005.1.2.0,Phases=2,Linecode=BT508_BT508_7_2_1,Length=0.000501000,Units=km
new line.3485283 bus1=BBT3025019.1.2.0,bus2=BBT3025026.1.2.0,Phases=2,Linecode=BT508_BT508_7_2_1,Length=0.000501000,Units=km
new line.3485479 bus1=BBT3025047.1.2.0,bus2=BBT3025054.1.2.0,Phases=2,Linecode=BT508_BT508_7_2_1,Length=0.000501000,Units=km
new line.3486613 bus1=BBT3025376.1.2.0,bus2=BBT3025383.1.2.0,Phases=2,Linecode=BT508_BT508_7_2_1,Length=0.000501000,Units=km