new line.RML10033707 bus1=BBT606526.2.0,bus2=RML1010033707.2.0,Phases=1,Linecode=CABBTG01_4_1,Length=0.017000000,Units=km
new line.RML10034502 bus1=BBT145753346.2.0,bus2=RML1010034502.2.0,Phases=1,Linecode=CABBTG01_4_1,Length=0.017000000,Units=km
new line.RML10034503 bus1=BBT145756965.2.0,bus2=RML1010034503.2.0,Phases=1,Linecode=CABBTG01_4_1,Length=0.017000000,Units=km
new line.RML10034504 bus1=BBT3139952.1.2.0,bus2=RML1010034504.1.2.0,Phases=2,Linecode=CABBTG05_4_2,Length=0.017000000,Units=km
new line.RML10034507 bus1=BBT610138.1.3.0,bus2=RML1010034507.1.3.0,Phases=2,Linecode=CABBTG05_4_2,Length=0.017000000,Units=km
new line.RML10034509 bus1=BBT142509938.2.3.0,bus2=RML1010034509.2.3.0,Phases=2,Linecode=CABBTG05_4_2,Length=0.017000000,Units=km
new line.RML10034513 bus1=BBT32574560.3.0,bus2=RML1010034513.3.0,Phases=1,Linecode=CABBTG01_4_1,Length=0.017000000,Units=km
new line.RML10034514 bus1=BBT4147063.2.3.0,bus2=RML1010034514.2.3.0,Phases=2,Linecode=CABBTG05_4_2,Length=0.017000000,Units=km
new line.RML10034515 bus1=BBT145745205.1.0,bus2=RML1010034515.1.0,Phases=1,Linecode=CABBTG02_4_1,Length=0.017000000,Units=km
new line.RML10034517 bus1=BBT32576044.2.0,bus2=RML1010034517.2.0,Phases=1,Linecode=CABBTG02_4_1,Length=0.017000000,Units=km
new line.RML10034709 bus1=BBT623011.1.2.0,bus2=RML1010034709.1.2.0,Phases=2,Linecode=CABBTG04_4_2,Length=0.017000000,Units=km
new line.RML10034731 bus1=BBT3649902.1.2.3.0,bus2=RML1010034731.1.2.3.0,Phases=3,Linecode=CABBTG06_4_3,Length=0.017000000,Units=km
new line.RML10034735 bus1=BBT3649902.1.2.3.0,bus2=RML1010034735.1.2.3.0,Phases=3,Linecode=CABBTG06_4_3,Length=0.017000000,Units=km
new line.RML10034832 bus1=BBT610425.1.2.3.0,bus2=RML1010034832.1.2.3.0,Phases=3,Linecode=CABBTG06_4_3,Length=0.017000000,Units=km
new line.RML10034870 bus1=BBT3649902.1.2.3.0,bus2=RML1010034870.1.2.3.0,Phases=3,Linecode=CABBTG06_4_3,Length=0.017000000,Units=km
new line.RML10034874 bus1=BBT3649902.1.2.3.0,bus2=RML1010034874.1.2.3.0,Phases=3,Linecode=CABBTG06_4_3,Length=0.017000000,Units=km
new line.RML10034878 bus1=BBT5078700.1.2.3.0,bus2=RML1010034878.1.2.3.0,Phases=3,Linecode=CABBTG06_4_3,Length=0.017000000,Units=km
new line.RML10034885 bus1=BBT620855.1.2.0,bus2=RML1010034885.1.2.0,Phases=2,Linecode=CABBTG04_4_2,Length=0.017000000,Units=km
new line.RML10034916 bus1=BBT3394780.1.2.0,bus2=RML1010034916.1.2.0,Phases=2,Linecode=CABBTG04_4_2,Length=0.017000000,Units=km
new line.RML10034920 bus1=BBT616186.1.2.3.0,bus2=RML1010034920.1.2.3.0,Phases=3,Linecode=CABBTG06_4_3,Length=0.017000000,Units=km
new line.RML10034925 bus1=BBT624068.1.2.3.0,bus2=RML1010034925.1.2.3.0,Phases=3,Linecode=CABBTG06_4_3,Length=0.017000000,Units=km
new line.RML10034934 bus1=BBT108873832.1.2.3.0,bus2=RML1010034934.1.2.3.0,Phases=3,Linecode=CABBTG06_4_3,Length=0.017000000,Units=km
new line.RML10034938 bus1=BBT606512.1.2.3.0,bus2=RML1010034938.1.2.3.0,Phases=3,Linecode=CABBTG06_4_3,Length=0.017000000,Units=km
new line.RML10035157 bus1=BBT634120.1.2.3.0,bus2=RML1010035157.1.2.3.0,Phases=3,Linecode=CABBTG06_4_3,Length=0.017000000,Units=km
new line.RML10035160 bus1=BBT621667.1.2.3.0,bus2=RML1010035160.1.2.3.0,Phases=3,Linecode=CABBTG06_4_3,Length=0.017000000,Units=km
new line.RML10035177 bus1=BBT32574714.1.2.3.0,bus2=RML1010035177.1.2.3.0,Phases=3,Linecode=CABBTG06_4_3,Length=0.017000000,Units=km
new line.RML10035205 bus1=BBT615437.1.2.3.0,bus2=RML1010035205.1.2.3.0,Phases=3,Linecode=CABBTG07_4_3,Length=0.017000000,Units=km
new line.RML10035209 bus1=BBT676988.1.2.3.0,bus2=RML1010035209.1.2.3.0,Phases=3,Linecode=CABBTG06_4_3,Length=0.017000000,Units=km
new line.RML10035210 bus1=BBT4345779.1.2.3.0,bus2=RML1010035210.1.2.3.0,Phases=3,Linecode=CABBTG07_4_3,Length=0.017000000,Units=km
new line.RML10035223 bus1=BBT99626846.1.2.3.0,bus2=RML1010035223.1.2.3.0,Phases=3,Linecode=CABBTG07_4_3,Length=0.017000000,Units=km
new line.RML10035224 bus1=BBT629080.1.2.3.0,bus2=RML1010035224.1.2.3.0,Phases=3,Linecode=CABBTG07_4_3,Length=0.017000000,Units=km
new line.RML10035240 bus1=BBT634309.1.2.3.0,bus2=RML1010035240.1.2.3.0,Phases=3,Linecode=CABBTG07_4_3,Length=0.017000000,Units=km
new line.RML10035244 bus1=BBT3649902.1.2.3.0,bus2=RML1010035244.1.2.3.0,Phases=3,Linecode=CABBTG07_4_3,Length=0.017000000,Units=km
new line.RML10035262 bus1=BBT146449587.1.2.3.0,bus2=RML1010035262.1.2.3.0,Phases=3,Linecode=CABBTG06_4_3,Length=0.017000000,Units=km
new line.RML10035279 bus1=BBT626896.1.2.0,bus2=RML1010035279.1.2.0,Phases=2,Linecode=CABBTG13_4_2,Length=0.017000000,Units=km
new line.RML10035479 bus1=BBT615150.1.2.3.0,bus2=RML1010035479.1.2.3.0,Phases=3,Linecode=CABBTG07_4_3,Length=0.017000000,Units=km
new line.RML10035481 bus1=BBT3649902.1.2.3.0,bus2=RML1010035481.1.2.3.0,Phases=3,Linecode=CABBTG09_4_3,Length=0.017000000,Units=km
new line.RML10035498 bus1=BBT3052648.1.2.3.0,bus2=RML1010035498.1.2.3.0,Phases=3,Linecode=CABBTG06_4_3,Length=0.017000000,Units=km
new line.RML10036068 bus1=BBT4833826.1.2.0,bus2=RML1010036068.1.2.0,Phases=2,Linecode=CABBTG05_4_2,Length=0.017000000,Units=km
new line.RML10036069 bus1=BBT32574560.2.0,bus2=RML1010036069.2.0,Phases=1,Linecode=CABBTG02_4_1,Length=0.017000000,Units=km
new line.RML10036072 bus1=BBT663695.1.2.0,bus2=RML1010036072.1.2.0,Phases=2,Linecode=CABBTG05_4_2,Length=0.017000000,Units=km
new line.RML10036073 bus1=BBT116880761.2.3.0,bus2=RML1010036073.2.3.0,Phases=2,Linecode=CABBTG05_4_2,Length=0.017000000,Units=km
new line.RML10036074 bus1=BBT654469.2.3.0,bus2=RML1010036074.2.3.0,Phases=2,Linecode=CABBTG05_4_2,Length=0.017000000,Units=km
new line.RML10036075 bus1=BBT148031223.2.0,bus2=RML1010036075.2.0,Phases=1,Linecode=CABBTG01_4_1,Length=0.017000000,Units=km
new line.RML10036077 bus1=BBT614989.1.0,bus2=RML1010036077.1.0,Phases=1,Linecode=CABBTG02_4_1,Length=0.017000000,Units=km
new line.RML10036080 bus1=BBT5078700.1.2.3.0,bus2=RML1010036080.1.2.3.0,Phases=3,Linecode=CABBTG06_4_3,Length=0.017000000,Units=km
new line.RML10036081 bus1=BBT673446.2.3.0,bus2=RML1010036081.2.3.0,Phases=2,Linecode=CABBTG05_4_2,Length=0.017000000,Units=km
new line.RML10036083 bus1=BBT673523.1.2.0,bus2=RML1010036083.1.2.0,Phases=2,Linecode=CABBTG05_4_2,Length=0.017000000,Units=km
new line.RML10049847 bus1=BBT145757763.2.0,bus2=RML1010049847.2.0,Phases=1,Linecode=CABBTG02_4_1,Length=0.017000000,Units=km
new line.RML10049853 bus1=BBT3050037.2.3.0,bus2=RML1010049853.2.3.0,Phases=2,Linecode=CABBTG04_4_2,Length=0.015000000,Units=km
new line.RML10049856 bus1=BBT145739409.1.0,bus2=RML1010049856.1.0,Phases=1,Linecode=CABBTG02_4_1,Length=0.017000000,Units=km
new line.RML10049876 bus1=BBT6183643.2.3.0,bus2=RML1010049876.2.3.0,Phases=2,Linecode=CABBTG05_4_2,Length=0.017000000,Units=km
new line.RML10050064 bus1=BBT140370332.1.0,bus2=RML1010050064.1.0,Phases=1,Linecode=CABBTG01_4_1,Length=0.017000000,Units=km
new line.RML10050069 bus1=BBT5078252.1.2.0,bus2=RML1010050069.1.2.0,Phases=2,Linecode=CABBTG05_4_2,Length=0.017000000,Units=km
new line.RML10050071 bus1=BBT145758876.2.0,bus2=RML1010050071.2.0,Phases=1,Linecode=CABBTG02_4_1,Length=0.017000000,Units=km
new line.RML10050074 bus1=BBT138164688.2.3.0,bus2=RML1010050074.2.3.0,Phases=2,Linecode=CABBTG05_4_2,Length=0.017000000,Units=km
new line.RML10050509 bus1=BBT145757707.3.0,bus2=RML1010050509.3.0,Phases=1,Linecode=CABBTG02_4_1,Length=0.017000000,Units=km
new line.RML10042949 bus1=BBT116861063.1.2.0,bus2=RML1010042949.1.2.0,Phases=2,Linecode=CABBTG05_4_2,Length=0.017000000,Units=km
new line.RML10042952 bus1=BBT146449587.1.2.3.0,bus2=RML1010042952.1.2.3.0,Phases=3,Linecode=CABBTG10_4_3,Length=0.017000000,Units=km
new line.RML10042964 bus1=BBT32574714.2.0,bus2=RML1010042964.2.0,Phases=1,Linecode=CABBTG01_4_1,Length=0.017000000,Units=km
new line.RML10042968 bus1=BBT116865676.1.2.0,bus2=RML1010042968.1.2.0,Phases=2,Linecode=CABBTG05_4_2,Length=0.017000000,Units=km
new line.RML10042970 bus1=BBT615920.1.2.3.0,bus2=RML1010042970.1.2.3.0,Phases=3,Linecode=CABBTG06_4_3,Length=0.017000000,Units=km
new line.RML10042982 bus1=BBT116865081.1.3.0,bus2=RML1010042982.1.3.0,Phases=2,Linecode=CABBTG05_4_2,Length=0.017000000,Units=km
new line.RML10043003 bus1=BBT618517.1.2.3.0,bus2=RML1010043003.1.2.3.0,Phases=3,Linecode=CABBTG07_4_3,Length=0.017000000,Units=km
new line.RML10043008 bus1=BBT618524.2.3.0,bus2=RML1010043008.2.3.0,Phases=2,Linecode=CABBTG13_4_2,Length=0.017000000,Units=km
new line.RML10043009 bus1=BBT618524.2.3.0,bus2=RML1010043009.2.3.0,Phases=2,Linecode=CABBTG13_4_2,Length=0.017000000,Units=km
new line.RML10043019 bus1=BBT607303.1.2.3.0,bus2=RML1010043019.1.2.3.0,Phases=3,Linecode=CABBTG10_4_3,Length=0.017000000,Units=km
new line.RML10043360 bus1=BBT145747746.2.0,bus2=RML1010043360.2.0,Phases=1,Linecode=CABBTG01_4_1,Length=0.017000000,Units=km
new line.RML10043361 bus1=BBT3194181.2.0,bus2=RML1010043361.2.0,Phases=1,Linecode=CABBTG01_4_1,Length=0.017000000,Units=km
new line.RML10043363 bus1=BBT142510176.3.0,bus2=RML1010043363.3.0,Phases=1,Linecode=CABBTG01_4_1,Length=0.017000000,Units=km
new line.RML10043364 bus1=BBT140378039.1.2.3.0,bus2=RML1010043364.1.2.3.0,Phases=3,Linecode=CABBTG06_4_3,Length=0.017000000,Units=km
new line.RML10043365 bus1=BBT140378053.1.2.0,bus2=RML1010043365.1.2.0,Phases=2,Linecode=CABBTG05_4_2,Length=0.017000000,Units=km
new line.RML10043369 bus1=BBT145758925.2.0,bus2=RML1010043369.2.0,Phases=1,Linecode=CABBTG01_4_1,Length=0.017000000,Units=km
new line.RML10043371 bus1=BBT145758911.3.0,bus2=RML1010043371.3.0,Phases=1,Linecode=CABBTG01_4_1,Length=0.017000000,Units=km
new line.RML10043375 bus1=BBT145758918.2.0,bus2=RML1010043375.2.0,Phases=1,Linecode=CABBTG01_4_1,Length=0.017000000,Units=km
new line.RML10043377 bus1=BBT145757770.3.0,bus2=RML1010043377.3.0,Phases=1,Linecode=CABBTG01_4_1,Length=0.017000000,Units=km
new line.RML10043378 bus1=BBT145757763.2.0,bus2=RML1010043378.2.0,Phases=1,Linecode=CABBTG01_4_1,Length=0.017000000,Units=km
new line.RML10043382 bus1=BBT116879963.1.2.3.0,bus2=RML1010043382.1.2.3.0,Phases=3,Linecode=CABBTG06_4_3,Length=0.017000000,Units=km
new line.RML10043397 bus1=BBT3750933.1.0,bus2=RML1010043397.1.0,Phases=1,Linecode=CABBTG01_4_1,Length=0.017000000,Units=km
new line.RML10043403 bus1=BBT145758918.1.0,bus2=RML1010043403.1.0,Phases=1,Linecode=CABBTG02_4_1,Length=0.017000000,Units=km
new line.RML10043405 bus1=BBT32574714.3.0,bus2=RML1010043405.3.0,Phases=1,Linecode=CABBTG02_4_1,Length=0.017000000,Units=km
new line.RML10043407 bus1=BBT32576044.2.0,bus2=RML1010043407.2.0,Phases=1,Linecode=CABBTG02_4_1,Length=0.017000000,Units=km
new line.RML10043408 bus1=BBT142510155.1.2.0,bus2=RML1010043408.1.2.0,Phases=2,Linecode=CABBTG05_4_2,Length=0.017000000,Units=km
new line.RML10043423 bus1=BBT140377395.1.2.0,bus2=RML1010043423.1.2.0,Phases=2,Linecode=CABBTG05_4_2,Length=0.017000000,Units=km
new line.RML10043430 bus1=BBT32574714.1.0,bus2=RML1010043430.1.0,Phases=1,Linecode=CABBTG02_4_1,Length=0.017000000,Units=km
new line.RML10043442 bus1=BBT140379936.1.3.0,bus2=RML1010043442.1.3.0,Phases=2,Linecode=CABBTG05_4_2,Length=0.017000000,Units=km
new line.RML10043467 bus1=BBT5078427.1.3.0,bus2=RML1010043467.1.3.0,Phases=2,Linecode=CABBTG05_4_2,Length=0.017000000,Units=km
new line.RML10043477 bus1=BBT138450792.1.2.0,bus2=RML1010043477.1.2.0,Phases=2,Linecode=CABBTG05_4_2,Length=0.017000000,Units=km
new line.RML10043481 bus1=BBT145757763.2.0,bus2=RML1010043481.2.0,Phases=1,Linecode=CABBTG01_4_1,Length=0.017000000,Units=km
new line.RML10043483 bus1=BBT145757763.3.0,bus2=RML1010043483.3.0,Phases=1,Linecode=CABBTG01_4_1,Length=0.017000000,Units=km
new line.RML10043607 bus1=BBT145758792.1.0,bus2=RML1010043607.1.0,Phases=1,Linecode=CABBTG01_4_1,Length=0.017000000,Units=km
new line.RML10043611 bus1=BBT132119859.1.0,bus2=RML1010043611.1.0,Phases=1,Linecode=CABBTG01_4_1,Length=0.017000000,Units=km
new line.RML10043612 bus1=BBT630858.1.0,bus2=RML1010043612.1.0,Phases=1,Linecode=CABBTG01_4_1,Length=0.017000000,Units=km
new line.RML10043617 bus1=BBT668392.1.2.3.0,bus2=RML1010043617.1.2.3.0,Phases=3,Linecode=CABBTG06_4_3,Length=0.017000000,Units=km
new line.RML10043619 bus1=BBT145758876.3.0,bus2=RML1010043619.3.0,Phases=1,Linecode=CABBTG02_4_1,Length=0.017000000,Units=km
new line.RML10043621 bus1=BBT145758925.1.0,bus2=RML1010043621.1.0,Phases=1,Linecode=CABBTG02_4_1,Length=0.017000000,Units=km
new line.RML10043623 bus1=BBT617117.1.2.0,bus2=RML1010043623.1.2.0,Phases=2,Linecode=CABBTG05_4_2,Length=0.017000000,Units=km
new line.RML10043626 bus1=BBT145745205.2.0,bus2=RML1010043626.2.0,Phases=1,Linecode=CABBTG02_4_1,Length=0.017000000,Units=km
new line.RML10043629 bus1=BBT4815010.2.0,bus2=RML1010043629.2.0,Phases=1,Linecode=CABBTG01_4_1,Length=0.017000000,Units=km
new line.RML10043632 bus1=BBT142922588.1.2.0,bus2=RML1010043632.1.2.0,Phases=2,Linecode=CABBTG05_4_2,Length=0.017000000,Units=km
new line.RML10043641 bus1=BBT142510148.2.3.0,bus2=RML1010043641.2.3.0,Phases=2,Linecode=CABBTG05_4_2,Length=0.017000000,Units=km
new line.RML10043643 bus1=BBT654175.1.0,bus2=RML1010043643.1.0,Phases=1,Linecode=CABBTG01_4_1,Length=0.017000000,Units=km
new line.RML10043647 bus1=BBT5078441.1.2.3.0,bus2=RML1010043647.1.2.3.0,Phases=3,Linecode=CABBTG06_4_3,Length=0.017000000,Units=km
new line.RML10043649 bus1=BBT137662592.1.2.0,bus2=RML1010043649.1.2.0,Phases=2,Linecode=CABBTG05_4_2,Length=0.017000000,Units=km
new line.RML10043651 bus1=BBT656989.1.2.0,bus2=RML1010043651.1.2.0,Phases=2,Linecode=CABBTG05_4_2,Length=0.017000000,Units=km
new line.RML10043652 bus1=BBT5077965.1.2.0,bus2=RML1010043652.1.2.0,Phases=2,Linecode=CABBTG05_4_2,Length=0.017000000,Units=km
new line.RML10043662 bus1=BBT654028.1.3.0,bus2=RML1010043662.1.3.0,Phases=2,Linecode=CABBTG05_4_2,Length=0.017000000,Units=km
new line.RML10043669 bus1=BBT610222.1.2.0,bus2=RML1010043669.1.2.0,Phases=2,Linecode=CABBTG05_4_2,Length=0.017000000,Units=km
new line.RML10043679 bus1=BBT145757707.3.0,bus2=RML1010043679.3.0,Phases=1,Linecode=CABBTG01_4_1,Length=0.017000000,Units=km
new line.RML10043681 bus1=BBT145745128.3.0,bus2=RML1010043681.3.0,Phases=1,Linecode=CABBTG01_4_1,Length=0.017000000,Units=km
new line.RML10043682 bus1=BBT110228136.1.0,bus2=RML1010043682.1.0,Phases=1,Linecode=CABBTG01_4_1,Length=0.017000000,Units=km
new line.RML10043683 bus1=BBT140370318.1.2.0,bus2=RML1010043683.1.2.0,Phases=2,Linecode=CABBTG04_4_2,Length=0.017000000,Units=km
new line.RML10043684 bus1=BBT140375337.1.3.0,bus2=RML1010043684.1.3.0,Phases=2,Linecode=CABBTG04_4_2,Length=0.017000000,Units=km
new line.RML10043685 bus1=BBT5078357.1.2.0,bus2=RML1010043685.1.2.0,Phases=2,Linecode=CABBTG04_4_2,Length=0.017000000,Units=km
new line.RML10043686 bus1=BBT620547.2.3.0,bus2=RML1010043686.2.3.0,Phases=2,Linecode=CABBTG04_4_2,Length=0.017000000,Units=km
new line.RML10043687 bus1=BBT630774.1.0,bus2=RML1010043687.1.0,Phases=1,Linecode=CABBTG02_4_1,Length=0.017000000,Units=km
new line.RML10043688 bus1=BBT598616.2.3.0,bus2=RML1010043688.2.3.0,Phases=2,Linecode=CABBTG04_4_2,Length=0.017000000,Units=km
new line.RML10043689 bus1=BBT145745128.1.2.0,bus2=RML1010043689.1.2.0,Phases=2,Linecode=CABBTG04_4_2,Length=0.017000000,Units=km
new line.RML10056351 bus1=BBT140377409.2.3.0,bus2=RML1010056351.2.3.0,Phases=2,Linecode=CABBTG05_4_2,Length=0.017000000,Units=km
new line.RML10057373 bus1=BBT148648387.1.2.0,bus2=RML1010057373.1.2.0,Phases=2,Linecode=CABBT808_4_2,Length=0.025000000,Units=km
new line.RML10058935 bus1=BBT140378403.1.0,bus2=RML1010058935.1.0,Phases=1,Linecode=CABBTG01_4_1,Length=0.017000000,Units=km
new line.RML10059100 bus1=BBT145739416.3.0,bus2=RML1010059100.3.0,Phases=1,Linecode=CABBTG01_4_1,Length=0.017000000,Units=km
new line.RML10059122 bus1=BBT145693083.1.2.0,bus2=RML1010059122.1.2.0,Phases=2,Linecode=CABBTG04_4_2,Length=0.017000000,Units=km
new line.RML10059125 bus1=BBT613764.2.3.0,bus2=RML1010059125.2.3.0,Phases=2,Linecode=CABBTG04_4_2,Length=0.021000000,Units=km
new line.RML10059126 bus1=BBT621310.1.2.0,bus2=RML1010059126.1.2.0,Phases=2,Linecode=CABBTG04_4_2,Length=0.017000000,Units=km
new line.RML10059129 bus1=BBT628793.1.2.0,bus2=RML1010059129.1.2.0,Phases=2,Linecode=CABBTG05_4_2,Length=0.017000000,Units=km
new line.RML10059131 bus1=BBT116886557.2.3.0,bus2=RML1010059131.2.3.0,Phases=2,Linecode=CABBTG05_4_2,Length=0.017000000,Units=km
new line.RML10059132 bus1=BBT32576093.1.0,bus2=RML1010059132.1.0,Phases=1,Linecode=CABBTG01_4_1,Length=0.017000000,Units=km
new line.RML10059133 bus1=BBT3052585.1.3.0,bus2=RML1010059133.1.3.0,Phases=2,Linecode=CABBTG04_4_2,Length=0.017000000,Units=km
new line.RML10059135 bus1=BBT611594.1.0,bus2=RML1010059135.1.0,Phases=1,Linecode=CABBTG01_4_1,Length=0.017000000,Units=km
new line.RML10059136 bus1=BBT145758792.3.0,bus2=RML1010059136.3.0,Phases=1,Linecode=CABBTG02_4_1,Length=0.017000000,Units=km
new line.RML10072144 bus1=BBT3050618.1.3.0,bus2=RML1010072144.1.3.0,Phases=2,Linecode=CABBTG05_4_2,Length=0.017000000,Units=km
new line.RML10073445 bus1=BBT140379586.2.3.0,bus2=RML1010073445.2.3.0,Phases=2,Linecode=CABBTG05_4_2,Length=0.017000000,Units=km
new line.RML10073843 bus1=BBT629325.1.0,bus2=RML1010073843.1.0,Phases=1,Linecode=CABBTG02_4_1,Length=0.017000000,Units=km
new line.RML10073848 bus1=BBT4145257.1.2.0,bus2=RML1010073848.1.2.0,Phases=2,Linecode=CABBTG05_4_2,Length=0.017000000,Units=km
new line.RML10074369 bus1=BBT671899.1.2.3.0,bus2=RML1010074369.1.2.3.0,Phases=3,Linecode=CABBTG06_4_3,Length=0.017000000,Units=km
new line.RML10074911 bus1=BBT609053.1.2.3.0,bus2=RML1010074911.1.2.3.0,Phases=3,Linecode=CABBTG06_4_3,Length=0.017000000,Units=km
new line.RML10074913 bus1=BBT608913.1.2.3.0,bus2=RML1010074913.1.2.3.0,Phases=3,Linecode=CABBTG06_4_3,Length=0.017000000,Units=km
new line.RML10074924 bus1=BBT142377519.1.2.3.0,bus2=RML1010074924.1.2.3.0,Phases=3,Linecode=CABBTG06_4_3,Length=0.017000000,Units=km
new line.RML10074930 bus1=BBT616578.1.2.3.0,bus2=RML1010074930.1.2.3.0,Phases=3,Linecode=CABBTG06_4_3,Length=0.017000000,Units=km
new line.RML10092452 bus1=BBT4833770.1.0,bus2=RML1010092452.1.0,Phases=1,Linecode=CABBTG01_4_1,Length=0.017000000,Units=km
new line.RML10092454 bus1=BBT4833784.1.0,bus2=RML1010092454.1.0,Phases=1,Linecode=CABBTG02_4_1,Length=0.017000000,Units=km
new line.RML10092456 bus1=BBT4833784.1.2.0,bus2=RML1010092456.1.2.0,Phases=2,Linecode=CABBTG05_4_2,Length=0.017000000,Units=km
new line.RML10092528 bus1=BBT149345979.1.2.0,bus2=RML1010092528.1.2.0,Phases=2,Linecode=CABBTG05_4_2,Length=0.015000000,Units=km
new line.RML10092845 bus1=BBT4833868.1.2.0,bus2=RML1010092845.1.2.0,Phases=2,Linecode=CABBTG05_4_2,Length=0.017000000,Units=km
new line.RML10092847 bus1=BBT108871585.1.0,bus2=RML1010092847.1.0,Phases=1,Linecode=CABBTG02_4_1,Length=0.017000000,Units=km
new line.RML10092868 bus1=BBT132119572.1.0,bus2=RML1010092868.1.0,Phases=1,Linecode=CABBTG02_4_1,Length=0.017000000,Units=km
new line.RML10092923 bus1=BBT132119901.1.0,bus2=RML1010092923.1.0,Phases=1,Linecode=CABBTG02_4_1,Length=0.017000000,Units=km
new line.RML10092930 bus1=BBT132116688.1.0,bus2=RML1010092930.1.0,Phases=1,Linecode=CABBTG02_4_1,Length=0.017000000,Units=km
new line.RML10092935 bus1=BBT132120398.1.2.0,bus2=RML1010092935.1.2.0,Phases=2,Linecode=CABBTG05_4_2,Length=0.017000000,Units=km
new line.RML10092944 bus1=BBT132120314.1.0,bus2=RML1010092944.1.0,Phases=1,Linecode=CABBTG02_4_1,Length=0.017000000,Units=km
new line.RML10092952 bus1=BBT108874091.1.0,bus2=RML1010092952.1.0,Phases=1,Linecode=CABBTG02_4_1,Length=0.017000000,Units=km
new line.RML10092959 bus1=BBT132120419.1.0,bus2=RML1010092959.1.0,Phases=1,Linecode=CABBTG02_4_1,Length=0.017000000,Units=km
new line.RML10092967 bus1=BBT132120503.1.3.0,bus2=RML1010092967.1.3.0,Phases=2,Linecode=CABBTG05_4_2,Length=0.017000000,Units=km
new line.RML10092973 bus1=BBT132119782.1.0,bus2=RML1010092973.1.0,Phases=1,Linecode=CABBTG02_4_1,Length=0.017000000,Units=km
new line.RML10092979 bus1=BBT132119803.1.2.0,bus2=RML1010092979.1.2.0,Phases=2,Linecode=CABBTG05_4_2,Length=0.017000000,Units=km
new line.RML10092985 bus1=BBT142922588.1.0,bus2=RML1010092985.1.0,Phases=1,Linecode=CABBTG01_4_1,Length=0.017000000,Units=km
new line.RML10093002 bus1=BBT142890857.1.0,bus2=RML1010093002.1.0,Phases=1,Linecode=CABBTG02_4_1,Length=0.017000000,Units=km
new line.RML10093010 bus1=BBT132119803.2.0,bus2=RML1010093010.2.0,Phases=1,Linecode=CABBTG01_4_1,Length=0.017000000,Units=km
new line.RML10093046 bus1=BBT132120566.1.0,bus2=RML1010093046.1.0,Phases=1,Linecode=CABBTG02_4_1,Length=0.017000000,Units=km
new line.RML10093048 bus1=BBT132120573.1.0,bus2=RML1010093048.1.0,Phases=1,Linecode=CABBTG02_4_1,Length=0.017000000,Units=km
new line.RML10107363 bus1=BBT613204.1.2.0,bus2=RML1010107363.1.2.0,Phases=2,Linecode=CABBTG05_4_2,Length=0.017000000,Units=km
new line.RML10107369 bus1=BBT613204.1.2.0,bus2=RML1010107369.1.2.0,Phases=2,Linecode=CABBTG04_4_2,Length=0.017000000,Units=km
new line.RML10109629 bus1=BBT633469.1.0,bus2=RML1010109629.1.0,Phases=1,Linecode=CABBTG02_4_1,Length=0.017000000,Units=km
new line.RML10109630 bus1=BBT5078126.1.0,bus2=RML1010109630.1.0,Phases=1,Linecode=CABBTG02_4_1,Length=0.017000000,Units=km
new line.RML10109632 bus1=BBT3052312.1.2.0,bus2=RML1010109632.1.2.0,Phases=2,Linecode=CABBTG04_4_2,Length=0.017000000,Units=km
new line.RML10109637 bus1=BBT3052879.1.2.0,bus2=RML1010109637.1.2.0,Phases=2,Linecode=CABBTG04_4_2,Length=0.017000000,Units=km
new line.RML10109640 bus1=BBT621842.1.2.0,bus2=RML1010109640.1.2.0,Phases=2,Linecode=CABBTG05_4_2,Length=0.017000000,Units=km
new line.RML10129891 bus1=BBT140379992.1.2.0,bus2=RML1010129891.1.2.0,Phases=2,Linecode=CABBTG05_4_2,Length=0.017000000,Units=km
new line.RML10129892 bus1=BBT140379936.1.2.0,bus2=RML1010129892.1.2.0,Phases=2,Linecode=CABBTG05_4_2,Length=0.017000000,Units=km
new line.RML10129895 bus1=BBT140379586.1.2.0,bus2=RML1010129895.1.2.0,Phases=2,Linecode=CABBTG05_4_2,Length=0.017000000,Units=km
new line.RML10129898 bus1=BBT140370437.1.2.0,bus2=RML1010129898.1.2.0,Phases=2,Linecode=CABBTG05_4_2,Length=0.017000000,Units=km
new line.RML10129899 bus1=BBT140370430.1.2.0,bus2=RML1010129899.1.2.0,Phases=2,Linecode=CABBTG05_4_2,Length=0.017000000,Units=km
new line.RML10129900 bus1=BBT140370521.1.2.0,bus2=RML1010129900.1.2.0,Phases=2,Linecode=CABBTG05_4_2,Length=0.017000000,Units=km
new line.RML10129902 bus1=BBT140375351.1.2.0,bus2=RML1010129902.1.2.0,Phases=2,Linecode=CABBTG05_4_2,Length=0.017000000,Units=km
new line.RML10129905 bus1=BBT140375351.1.2.0,bus2=RML1010129905.1.2.0,Phases=2,Linecode=CABBTG05_4_2,Length=0.017000000,Units=km
new line.RML10129907 bus1=BBT140370017.1.2.0,bus2=RML1010129907.1.2.0,Phases=2,Linecode=CABBTG05_4_2,Length=0.017000000,Units=km
new line.RML10129908 bus1=BBT140370017.1.3.0,bus2=RML1010129908.1.3.0,Phases=2,Linecode=CABBTG05_4_2,Length=0.017000000,Units=km
new line.RML10129910 bus1=BBT140370024.2.3.0,bus2=RML1010129910.2.3.0,Phases=2,Linecode=CABBTG05_4_2,Length=0.017000000,Units=km
new line.RML10129911 bus1=BBT140370073.1.2.0,bus2=RML1010129911.1.2.0,Phases=2,Linecode=CABBTG05_4_2,Length=0.017000000,Units=km
new line.RML10129912 bus1=BBT140370073.1.2.0,bus2=RML1010129912.1.2.0,Phases=2,Linecode=CABBTG05_4_2,Length=0.017000000,Units=km
new line.RML10129913 bus1=BBT140370073.1.2.0,bus2=RML1010129913.1.2.0,Phases=2,Linecode=CABBTG05_4_2,Length=0.017000000,Units=km
new line.RML10129937 bus1=BBT140378053.1.2.0,bus2=RML1010129937.1.2.0,Phases=2,Linecode=CABBTG05_4_2,Length=0.017000000,Units=km
new line.RML10129940 bus1=BBT140370325.1.2.0,bus2=RML1010129940.1.2.0,Phases=2,Linecode=CABBTG05_4_2,Length=0.017000000,Units=km
new line.RML10129941 bus1=BBT140378046.1.2.0,bus2=RML1010129941.1.2.0,Phases=2,Linecode=CABBTG05_4_2,Length=0.017000000,Units=km
new line.RML10129942 bus1=BBT140378053.2.3.0,bus2=RML1010129942.2.3.0,Phases=2,Linecode=CABBTG05_4_2,Length=0.017000000,Units=km
new line.RML10129943 bus1=BBT140378046.1.2.0,bus2=RML1010129943.1.2.0,Phases=2,Linecode=CABBTG05_4_2,Length=0.017000000,Units=km
new line.RML10129944 bus1=BBT140378053.1.2.0,bus2=RML1010129944.1.2.0,Phases=2,Linecode=CABBTG05_4_2,Length=0.017000000,Units=km
new line.RML10129945 bus1=BBT140378060.1.2.0,bus2=RML1010129945.1.2.0,Phases=2,Linecode=CABBTG05_4_2,Length=0.017000000,Units=km
new line.RML10129947 bus1=BBT140370325.1.2.0,bus2=RML1010129947.1.2.0,Phases=2,Linecode=CABBTG05_4_2,Length=0.017000000,Units=km
new line.RML10129951 bus1=BBT140369590.1.2.0,bus2=RML1010129951.1.2.0,Phases=2,Linecode=CABBTG05_4_2,Length=0.017000000,Units=km
new line.RML10129952 bus1=BBT140368337.1.2.0,bus2=RML1010129952.1.2.0,Phases=2,Linecode=CABBTG05_4_2,Length=0.017000000,Units=km
new line.RML10129953 bus1=BBT140369506.1.2.0,bus2=RML1010129953.1.2.0,Phases=2,Linecode=CABBTG05_4_2,Length=0.017000000,Units=km
new line.RML10130423 bus1=BBT656254.1.2.0,bus2=RML1010130423.1.2.0,Phases=2,Linecode=CABBTG05_4_2,Length=0.017000000,Units=km
new line.RML10130428 bus1=BBT656170.1.2.0,bus2=RML1010130428.1.2.0,Phases=2,Linecode=CABBTG05_4_2,Length=0.017000000,Units=km
new line.RML10130431 bus1=BBT656170.1.2.0,bus2=RML1010130431.1.2.0,Phases=2,Linecode=CABBTG05_4_2,Length=0.017000000,Units=km
new line.RML10130438 bus1=BBT654882.1.2.3.0,bus2=RML1010130438.1.2.3.0,Phases=3,Linecode=CABBTG06_4_3,Length=0.017000000,Units=km
new line.RML10130441 bus1=BBT654882.1.2.3.0,bus2=RML1010130441.1.2.3.0,Phases=3,Linecode=CABBTG06_4_3,Length=0.017000000,Units=km
new line.RML10130444 bus1=BBT654161.1.2.3.0,bus2=RML1010130444.1.2.3.0,Phases=3,Linecode=CABBTG06_4_3,Length=0.017000000,Units=km
new line.RML10130449 bus1=BBT3154876.1.2.3.0,bus2=RML1010130449.1.2.3.0,Phases=3,Linecode=CABBTG06_4_3,Length=0.017000000,Units=km
new line.RML10130452 bus1=BBT655505.1.2.3.0,bus2=RML1010130452.1.2.3.0,Phases=3,Linecode=CABBTG06_4_3,Length=0.017000000,Units=km
new line.RML10130453 bus1=BBT655491.1.2.3.0,bus2=RML1010130453.1.2.3.0,Phases=3,Linecode=CABBTG06_4_3,Length=0.017000000,Units=km
new line.RML10130454 bus1=BBT655491.1.2.3.0,bus2=RML1010130454.1.2.3.0,Phases=3,Linecode=CABBTG06_4_3,Length=0.017000000,Units=km
new line.RML10130457 bus1=BBT657010.1.2.3.0,bus2=RML1010130457.1.2.3.0,Phases=3,Linecode=CABBTG06_4_3,Length=0.017000000,Units=km
new line.RML10130462 bus1=BBT4859166.1.2.0,bus2=RML1010130462.1.2.0,Phases=2,Linecode=CABBTG05_4_2,Length=0.017000000,Units=km
new line.RML10130469 bus1=BBT655183.1.2.3.0,bus2=RML1010130469.1.2.3.0,Phases=3,Linecode=CABBTG06_4_3,Length=0.017000000,Units=km
new line.RML10130676 bus1=BBT142510148.1.2.0,bus2=RML1010130676.1.2.0,Phases=2,Linecode=CABBTG05_4_2,Length=0.017000000,Units=km
new line.RML10130678 bus1=BBT142510148.1.2.0,bus2=RML1010130678.1.2.0,Phases=2,Linecode=CABBTG05_4_2,Length=0.017000000,Units=km
new line.RML10130681 bus1=BBT142510155.1.2.0,bus2=RML1010130681.1.2.0,Phases=2,Linecode=CABBTG05_4_2,Length=0.017000000,Units=km
new line.RML10130684 bus1=BBT142510183.1.2.0,bus2=RML1010130684.1.2.0,Phases=2,Linecode=CABBTG05_4_2,Length=0.017000000,Units=km
new line.RML10130687 bus1=BBT618034.2.3.0,bus2=RML1010130687.2.3.0,Phases=2,Linecode=CABBTG05_4_2,Length=0.017000000,Units=km
new line.RML10130692 bus1=BBT615815.1.2.3.0,bus2=RML1010130692.1.2.3.0,Phases=3,Linecode=CABBTG06_4_3,Length=0.017000000,Units=km
new line.RML10130694 bus1=BBT673131.1.2.3.0,bus2=RML1010130694.1.2.3.0,Phases=3,Linecode=CABBTG06_4_3,Length=0.017000000,Units=km
new line.RML10130701 bus1=BBT617194.1.2.3.0,bus2=RML1010130701.1.2.3.0,Phases=3,Linecode=CABBTG06_4_3,Length=0.017000000,Units=km
new line.RML10130704 bus1=BBT616774.1.2.3.0,bus2=RML1010130704.1.2.3.0,Phases=3,Linecode=CABBTG06_4_3,Length=0.017000000,Units=km
new line.RML10130709 bus1=BBT616746.1.2.3.0,bus2=RML1010130709.1.2.3.0,Phases=3,Linecode=CABBTG06_4_3,Length=0.017000000,Units=km
new line.RML10130711 bus1=BBT616732.1.2.3.0,bus2=RML1010130711.1.2.3.0,Phases=3,Linecode=CABBTG06_4_3,Length=0.017000000,Units=km
new line.RML10130726 bus1=BBT616998.1.2.3.0,bus2=RML1010130726.1.2.3.0,Phases=3,Linecode=CABBTG06_4_3,Length=0.017000000,Units=km
new line.RML10130729 bus1=BBT616998.1.2.3.0,bus2=RML1010130729.1.2.3.0,Phases=3,Linecode=CABBTG06_4_3,Length=0.017000000,Units=km
new line.RML10130730 bus1=BBT616998.1.2.3.0,bus2=RML1010130730.1.2.3.0,Phases=3,Linecode=CABBTG06_4_3,Length=0.017000000,Units=km
new line.RML10130733 bus1=BBT3050275.1.2.3.0,bus2=RML1010130733.1.2.3.0,Phases=3,Linecode=CABBTG06_4_3,Length=0.017000000,Units=km
new line.RML10130737 bus1=BBT626133.1.2.0,bus2=RML1010130737.1.2.0,Phases=2,Linecode=CABBTG05_4_2,Length=0.017000000,Units=km
new line.RML10130740 bus1=BBT629178.1.2.0,bus2=RML1010130740.1.2.0,Phases=2,Linecode=CABBTG05_4_2,Length=0.017000000,Units=km
new line.RML10130753 bus1=BBT627953.1.2.3.0,bus2=RML1010130753.1.2.3.0,Phases=3,Linecode=CABBTG06_4_3,Length=0.017000000,Units=km
new line.RML10130755 bus1=BBT626931.1.2.3.0,bus2=RML1010130755.1.2.3.0,Phases=3,Linecode=CABBTG06_4_3,Length=0.017000000,Units=km
new line.RML10130756 bus1=BBT628023.1.2.3.0,bus2=RML1010130756.1.2.3.0,Phases=3,Linecode=CABBTG06_4_3,Length=0.017000000,Units=km
new line.RML10050513 bus1=BBT132120020.3.0,bus2=RML1010050513.3.0,Phases=1,Linecode=CABBTG01_4_1,Length=0.017000000,Units=km
new line.RML10050568 bus1=BBT108874455.1.0,bus2=RML1010050568.1.0,Phases=1,Linecode=CABBTG02_4_1,Length=0.017000000,Units=km
new line.RML10068199 bus1=BBT673124.1.2.3.0,bus2=RML1010068199.1.2.3.0,Phases=3,Linecode=CABBTG06_4_3,Length=0.017000000,Units=km
new line.RML10068237 bus1=BBT4833847.2.0,bus2=RML1010068237.2.0,Phases=1,Linecode=CABBTG01_4_1,Length=0.017000000,Units=km
new line.RML10068238 bus1=BBT4528234.2.3.0,bus2=RML1010068238.2.3.0,Phases=2,Linecode=CABBTG04_4_2,Length=0.017000000,Units=km
new line.RML10068240 bus1=BBT5077965.1.2.0,bus2=RML1010068240.1.2.0,Phases=2,Linecode=CABBTG05_4_2,Length=0.017000000,Units=km
new line.RML10068242 bus1=BBT108874203.2.0,bus2=RML1010068242.2.0,Phases=1,Linecode=CABBTG01_4_1,Length=0.017000000,Units=km
new line.RML10068244 bus1=BBT610257.1.2.3.0,bus2=RML1010068244.1.2.3.0,Phases=3,Linecode=CABBTG11_4_3,Length=0.017000000,Units=km
new line.RML10068250 bus1=BBT116887362.1.2.0,bus2=RML1010068250.1.2.0,Phases=2,Linecode=CABBTG05_4_2,Length=0.017000000,Units=km