new line.TR1129370 bus1=BMT2297747B.1.2.3,bus2=BMT474625B.1.2.3,Phases=3,Linecode=CAB103_3_3,Length=0.007074000,Units=km
new line.TR1129377 bus1=BMT2297747B.1.2.3,bus2=BMT474632B.1.2.3,Phases=3,Linecode=CAB103_3_3,Length=0.030424000,Units=km
new line.TR1129384 bus1=BMT2297747B.1.2.3,bus2=BMT474639B.1.2.3,Phases=3,Linecode=CAB104_3_3,Length=0.013606000,Units=km
new line.TR1129391 bus1=BMT165751994.1.2.3,bus2=BMT165751995.1.2.3,Phases=3,Linecode=CAB104_3_3,Length=0.027083000,Units=km
new line.TR1129398 bus1=BMT165751994.1.2.3,bus2=BMT165751996.1.2.3,Phases=3,Linecode=CAB104_3_3,Length=0.010774000,Units=km
new line.TR1129405 bus1=BMT165751994.1.2.3,bus2=BMT515834B.1.2.3,Phases=3,Linecode=CAB104_3_3,Length=0.009852000,Units=km
new line.TR1129412 bus1=BMT174261565.1.2.3,bus2=BMT174261566.1.2.3,Phases=3,Linecode=CAB202_3_3,Length=0.072300000,Units=km
new line.TR1129419 bus1=BMT137327264.1.2.3,bus2=BMT2297775B.1.2.3,Phases=3,Linecode=CAB107_3_3,Length=0.024030000,Units=km
new line.TR1129433 bus1=BMT2297782B.1.2.3,bus2=BMT122155401.1.2.3,Phases=3,Linecode=CAB107_3_3,Length=0.010210000,Units=km
new line.TR1129440 bus1=BMT2297782C.1.2.3,bus2=BMT2297789B.1.2.3,Phases=3,Linecode=CABA08_3_3,Length=0.030606000,Units=km
new line.TR1129475 bus1=BMT156456662.1.2.3,bus2=BMT137327306.1.2.3,Phases=3,Linecode=CAB207_3_3,Length=0.022386000,Units=km
new line.TR1129496 bus1=BMT137327327.1.2.3,bus2=BMT137327334.1.2.3,Phases=3,Linecode=CAB202_3_3,Length=0.099338000,Units=km
new line.TR1129538 bus1=BMT162148518.1.2.3,bus2=BMT4228207B.1.2.3,Phases=3,Linecode=CAB207_3_3,Length=0.063931000,Units=km
new line.TR1129559 bus1=BMT166772677.1.2.3,bus2=BMT137344155.1.2.3,Phases=3,Linecode=CAB204_3_3,Length=0.125709000,Units=km
new line.TR1129566 bus1=BMT166772677.1.2.3,bus2=BMT4228382B.1.2.3,Phases=3,Linecode=CAB202_3_3,Length=0.087993000,Units=km
new line.TR1129573 bus1=BMT137344176.1.2.3,bus2=BMT137344183.1.2.3,Phases=3,Linecode=CAB104_3_3,Length=0.028027000,Units=km
new line.TR1129580 bus1=BMT174871757.1.2.3,bus2=BMT174871758.1.2.3,Phases=3,Linecode=CAB104_3_3,Length=0.063549000,Units=km
new line.TR1129587 bus1=BMT137344218.1.2.3,bus2=BMT4228088B.1.2.3,Phases=3,Linecode=CAB204_3_3,Length=0.123348000,Units=km
new line.TR1129594 bus1=BMT137353094.1.2.3,bus2=BMT4228417B.1.2.3,Phases=3,Linecode=CAB202_3_3,Length=0.139359000,Units=km
new line.TR1129601 bus1=BMT137353101.1.2.3,bus2=BMT137353108.1.2.3,Phases=3,Linecode=CAB102_3_3,Length=0.054276000,Units=km
new line.TR1129615 bus1=BMT137344225.1.2.3,bus2=BMT4228116B.1.2.3,Phases=3,Linecode=CAB204_3_3,Length=0.177100000,Units=km
new line.TR1129622 bus1=BMT137352849.1.2.3,bus2=BMT137352856.1.2.3,Phases=3,Linecode=CAB202_3_3,Length=0.153930000,Units=km
new line.TR1129629 bus1=BMT137344225.2,bus2=BMT4641333B.2,Phases=1,Linecode=CAB202_3_1,Length=0.134224000,Units=km
new line.TR1129650 bus1=BMT137344232.1.2.3,bus2=BMT4228151B.1.2.3,Phases=3,Linecode=CAB204_3_3,Length=0.125031000,Units=km
new line.TR1129657 bus1=BMT152603612.1.2.3,bus2=BMT4228438B.1.2.3,Phases=3,Linecode=CAB202_3_3,Length=0.139518000,Units=km
new line.TR1129664 bus1=BMT174871763.2,bus2=BMT174871764.2,Phases=1,Linecode=CAB103_3_1,Length=0.055171000,Units=km
new line.TR1129671 bus1=BMT174871763.1.2.3,bus2=BMT4228158B.1.2.3,Phases=3,Linecode=CAB204_3_3,Length=0.111927000,Units=km
new line.TR1129678 bus1=BMT152603613.1.2.3,bus2=BMT152603614.1.2.3,Phases=3,Linecode=CAB102_3_3,Length=0.031158000,Units=km
new line.TR1129685 bus1=BMT152603613.2,bus2=BMT2297943B.2,Phases=1,Linecode=CAB202_3_1,Length=0.017007000,Units=km
new line.TR1129692 bus1=BMT2297943B.2,bus2=BMT4599165B.2,Phases=1,Linecode=CAB202_3_1,Length=0.123588000,Units=km
new line.TR1129699 bus1=BMT174871766.1.2.3,bus2=BMT174871768.1.2.3,Phases=3,Linecode=CAB204_3_3,Length=0.108333000,Units=km
new line.TR1129706 bus1=BMT174871766.3,bus2=BMT4228452B.3,Phases=1,Linecode=CAB202_3_1,Length=0.137657000,Units=km
new line.TR1129713 bus1=BMT2297957B.3,bus2=BMT137352786.3,Phases=1,Linecode=CAB202_3_1,Length=0.123686000,Units=km
new line.TR1129720 bus1=BMT137344323.1.2.3,bus2=BMT4255521B.1.2.3,Phases=3,Linecode=CAB204_3_3,Length=0.125054000,Units=km
new line.TR1129727 bus1=BMT175774695.1.2.3,bus2=BMT4255696B.1.2.3,Phases=3,Linecode=CAB202_3_3,Length=0.091619000,Units=km
new line.TR1129741 bus1=BMT137352492.1.2.3,bus2=BMT175774696.1.2.3,Phases=3,Linecode=CAB202_3_3,Length=0.101149000,Units=km
new line.TR1129748 bus1=BMT176022813.1.2.3,bus2=BMT176022814.1.2.3,Phases=3,Linecode=CAB102_3_3,Length=0.057888000,Units=km
new line.TR1129755 bus1=BMT176022813.1.2.3,bus2=BMT4255535B.1.2.3,Phases=3,Linecode=CAB204_3_3,Length=0.120186000,Units=km
new line.TR1129762 bus1=BMT176022815.1.2.3,bus2=BMT176022816.1.2.3,Phases=3,Linecode=CAB102_3_3,Length=0.079251000,Units=km
new line.TR1129769 bus1=BMT176022815.1.2.3,bus2=BMT137344358.1.2.3,Phases=3,Linecode=CAB202_3_3,Length=0.123216000,Units=km
new line.TR1129776 bus1=BMT176022815.1.2.3,bus2=BMT3880433B.1.2.3,Phases=3,Linecode=CAB204_3_3,Length=0.121098000,Units=km
new line.TR1129790 bus1=BMT137344386.1.2.3,bus2=BMT2298006B.1.2.3,Phases=3,Linecode=CAB204_3_3,Length=0.114890000,Units=km
new line.TR1129797 bus1=BMT137352366.1.2.3,bus2=BMT137352373.1.2.3,Phases=3,Linecode=CAB202_3_3,Length=0.120185000,Units=km
new line.TR1129804 bus1=BMT2298006B.1.2.3,bus2=BMT4255654B.1.2.3,Phases=3,Linecode=CAB204_3_3,Length=0.120704000,Units=km
new line.TR1129811 bus1=BMT176022819.1.2.3,bus2=BMT4255661B.1.2.3,Phases=3,Linecode=CAB204_3_3,Length=0.138695000,Units=km
new line.TR1129818 bus1=BMT176022819.1.2.3,bus2=BMT176022821.1.2.3,Phases=3,Linecode=CAB202_3_3,Length=0.130100000,Units=km
new line.TR1129825 bus1=BMT176022820.1.2.3,bus2=BMT137344421.1.2.3,Phases=3,Linecode=CAB204_3_3,Length=0.102050000,Units=km
new line.TR1129832 bus1=BMT176022820.1.2.3,bus2=BMT4255668B.1.2.3,Phases=3,Linecode=CAB102_3_3,Length=0.055595000,Units=km
new line.TR1129846 bus1=BMT137344442.1.2.3,bus2=BMT176022827.1.2.3,Phases=3,Linecode=CAB204_3_3,Length=0.054934000,Units=km
new line.TR1129860 bus1=BMT176022827.1.2.3,bus2=BMT176022828.1.2.3,Phases=3,Linecode=CAB103_3_3,Length=0.061051000,Units=km
new line.TR1129867 bus1=BMT176022827.1.2.3,bus2=BMT4257726B.1.2.3,Phases=3,Linecode=CAB204_3_3,Length=0.124012000,Units=km
new line.TR1129874 bus1=BMT171497240.1.2.3,bus2=BMT4257810B.1.2.3,Phases=3,Linecode=CAB204_3_3,Length=0.116141000,Units=km
new line.TR1129881 bus1=BMT171497240.1.2.3,bus2=BMT4258258B.1.2.3,Phases=3,Linecode=CAB202_3_3,Length=0.129888000,Units=km
new line.TR1129895 bus1=BMT171497243.1.2.3,bus2=BMT171497244.1.2.3,Phases=3,Linecode=CAB102_3_3,Length=0.032398000,Units=km
new line.TR1129902 bus1=BMT171497243.1.2.3,bus2=BMT137344645.1.2.3,Phases=3,Linecode=CAB204_3_3,Length=0.095379000,Units=km
new line.TR1131939 bus1=BMT137349020.2,bus2=BMT137349027.2,Phases=1,Linecode=CAB102_3_1,Length=0.062749000,Units=km
new line.TR1131960 bus1=BMT137348985.2,bus2=BMT137348992.2,Phases=1,Linecode=CAB102_3_1,Length=0.032035000,Units=km
new line.TR1131967 bus1=BMT137349034.2,bus2=BMT137349041.2,Phases=1,Linecode=CAB103_3_1,Length=0.048278000,Units=km
new line.TR1131974 bus1=BMT137349034.2,bus2=BMT2299294B.2,Phases=1,Linecode=CAB202_3_1,Length=0.147567000,Units=km
new line.TR1132002 bus1=BMT137349125.2,bus2=BMT2299322B.2,Phases=1,Linecode=CAB202_3_1,Length=0.131872000,Units=km
new line.TR1132100 bus1=BMT137349188.2,bus2=BMT137349195.2,Phases=1,Linecode=CAB102_3_1,Length=0.077815000,Units=km
new line.TR1132107 bus1=BMT137349188.2,bus2=BMT2299378B.2,Phases=1,Linecode=CAB202_3_1,Length=0.139940000,Units=km
new line.TR1132128 bus1=BMT137346801.1.2.3,bus2=BMT4273490B.1.2.3,Phases=3,Linecode=CAB204_3_3,Length=0.125535000,Units=km
new line.TR1132135 bus1=BMT137346850.1.2.3,bus2=BMT4299467B.1.2.3,Phases=3,Linecode=CAB204_3_3,Length=0.106955000,Units=km
new line.TR1132142 bus1=BMT137347501.3,bus2=BMT137347508.3,Phases=1,Linecode=CAB202_3_1,Length=0.046851000,Units=km
new line.TR1132163 bus1=BMT137346857.1.2.3,bus2=BMT4299488B.1.2.3,Phases=3,Linecode=CAB204_3_3,Length=0.128580000,Units=km
new line.TR1132170 bus1=BMT137347473.3,bus2=BMT4299663B.3,Phases=1,Linecode=CAB202_3_1,Length=0.103349000,Units=km
new line.TR1132177 bus1=BMT137347522.3,bus2=BMT137347529.3,Phases=1,Linecode=CAB102_3_1,Length=0.076569000,Units=km
new line.TR1132205 bus1=BMT137347543.3,bus2=BMT137347550.3,Phases=1,Linecode=CAB102_3_1,Length=0.058836000,Units=km
new line.TR1132212 bus1=BMT137347543.3,bus2=BMT2299434B.3,Phases=1,Linecode=CAB202_3_1,Length=0.177242000,Units=km
new line.TR1132240 bus1=BMT137347802.3,bus2=BMT137347816.3,Phases=1,Linecode=CAB102_3_1,Length=0.036172000,Units=km
new line.TR1132254 bus1=BMT137347571.3,bus2=BMT2299462B.3,Phases=1,Linecode=CAB202_3_1,Length=0.104339000,Units=km
new line.TR1132282 bus1=BMT137347599.3,bus2=BMT137347606.3,Phases=1,Linecode=CAB102_3_1,Length=0.040618000,Units=km
new line.TR1132303 bus1=BMT137348131.3,bus2=BMT4634851B.3,Phases=1,Linecode=CAB202_3_1,Length=0.207001000,Units=km
new line.TR1132310 bus1=BMT137348152.3,bus2=BMT137348159.3,Phases=1,Linecode=CAB102_3_1,Length=0.024172000,Units=km
new line.TR1132331 bus1=BMT137348180.3,bus2=BMT2299504B.3,Phases=1,Linecode=CAB202_3_1,Length=0.113845000,Units=km
new line.TR1132338 bus1=BMT2299504B.3,bus2=BMT2299511B.3,Phases=1,Linecode=CAB202_3_1,Length=0.092230000,Units=km
new line.TR1132352 bus1=BMT137348187.3,bus2=BMT137348208.3,Phases=1,Linecode=CAB102_3_1,Length=0.073046000,Units=km
new line.TR1132359 bus1=BMT137348187.3,bus2=BMT137348215.3,Phases=1,Linecode=CAB202_3_1,Length=0.146204000,Units=km
new line.TR1132366 bus1=BMT137348215.3,bus2=BMT137348222.3,Phases=1,Linecode=CAB202_3_1,Length=0.135107000,Units=km
new line.TR1132429 bus1=BMT137348362.3,bus2=BMT2299567B.3,Phases=1,Linecode=CAB202_3_1,Length=0.117381000,Units=km
new line.TR1132436 bus1=BMT2299567B.3,bus2=BMT2299574B.3,Phases=1,Linecode=CAB202_3_1,Length=0.388842000,Units=km
new line.TR1132450 bus1=BMT137348376.3,bus2=BMT137348397.3,Phases=1,Linecode=CAB102_3_1,Length=0.077815000,Units=km
new line.TR1132457 bus1=BMT137348376.3,bus2=BMT2299588B.3,Phases=1,Linecode=CAB202_3_1,Length=0.119237000,Units=km
new line.TR1132464 bus1=BMT2299588B.3,bus2=BMT2299595B.3,Phases=1,Linecode=CAB202_3_1,Length=0.139467000,Units=km
new line.TR1132513 bus1=BMT137348432.3,bus2=BMT2299623B.3,Phases=1,Linecode=CAB202_3_1,Length=0.115311000,Units=km
new line.TR1132520 bus1=BMT2299623B.3,bus2=BMT137348439.3,Phases=1,Linecode=CAB202_3_1,Length=0.175069000,Units=km
new line.TR1132541 bus1=BMT137348481.3,bus2=BMT137348488.3,Phases=1,Linecode=CAB202_3_1,Length=0.122805000,Units=km
new line.TR1132548 bus1=BMT137348481.3,bus2=BMT2299651B.3,Phases=1,Linecode=CAB202_3_1,Length=0.135362000,Units=km
new line.TR1132569 bus1=BMT137348495.3,bus2=BMT2299665B.3,Phases=1,Linecode=CAB202_3_1,Length=0.119049000,Units=km
new line.TR1132590 bus1=BMT2299672B.3,bus2=BMT2299679B.3,Phases=1,Linecode=CAB202_3_1,Length=0.138070000,Units=km
new line.TR1132625 bus1=BMT137348243.3,bus2=BMT137348250.3,Phases=1,Linecode=CAB102_3_1,Length=0.034141000,Units=km
new line.TR1132632 bus1=BMT137348243.3,bus2=BMT2299707B.3,Phases=1,Linecode=CAB202_3_1,Length=0.115150000,Units=km
new line.TR1132653 bus1=BMT137348257.3,bus2=BMT137348264.3,Phases=1,Linecode=CAB202_3_1,Length=0.186727000,Units=km
new line.TR1132660 bus1=BMT137348257.3,bus2=BMT2924233B.3,Phases=1,Linecode=CAB202_3_1,Length=0.318776000,Units=km
new line.TR1132681 bus1=BMT155971794.3,bus2=BMT155971795.3,Phases=1,Linecode=CAB202_3_1,Length=0.046167000,Units=km
new line.TR1132695 bus1=BMT137347620.3,bus2=BMT137347627.3,Phases=1,Linecode=CAB102_3_1,Length=0.024191000,Units=km
new line.TR1132716 bus1=BMT137347648.3,bus2=BMT137347655.3,Phases=1,Linecode=CAB103_3_1,Length=0.079227000,Units=km
new line.TR1132737 bus1=BMT137347676.3,bus2=BMT137347683.3,Phases=1,Linecode=CAB102_3_1,Length=0.059495000,Units=km
new line.TR1132751 bus1=BMT137347690.3,bus2=BMT137347697.3,Phases=1,Linecode=CAB102_3_1,Length=0.027666000,Units=km
new line.TR1132765 bus1=BMT137347704.3,bus2=BMT137347711.3,Phases=1,Linecode=CAB202_3_1,Length=0.136597000,Units=km
new line.TR1132772 bus1=BMT137347837.3,bus2=BMT3811308B.3,Phases=1,Linecode=CAB202_3_1,Length=0.088610000,Units=km
new line.TR1132779 bus1=BMT137347711.3,bus2=BMT137347718.3,Phases=1,Linecode=CAB102_3_1,Length=0.046109000,Units=km
new line.TR1132786 bus1=BMT137347711.3,bus2=BMT2299784B.3,Phases=1,Linecode=CAB202_3_1,Length=0.106918000,Units=km
new line.TR1132800 bus1=BMT137347725.3,bus2=BMT137347732.3,Phases=1,Linecode=CAB202_3_1,Length=0.046851000,Units=km
new line.TR1132807 bus1=BMT137347725.3,bus2=BMT137347739.3,Phases=1,Linecode=CAB202_3_1,Length=0.135372000,Units=km
new line.TR1132814 bus1=BMT137347739.3,bus2=BMT137347746.3,Phases=1,Linecode=CAB102_3_1,Length=0.081855000,Units=km
new line.TR1132821 bus1=BMT137347739.3,bus2=BMT2981458B.3,Phases=1,Linecode=CAB202_3_1,Length=0.074543000,Units=km
new line.TR1132835 bus1=BMT155971796.3,bus2=BMT2299812B.3,Phases=1,Linecode=CAB202_3_1,Length=0.137265000,Units=km
new line.TR1132842 bus1=BMT155971796.3,bus2=BMT2985252B.3,Phases=1,Linecode=CAB202_3_1,Length=0.133226000,Units=km
new line.TR1132849 bus1=BMT2299812B.3,bus2=BMT2299819B.3,Phases=1,Linecode=CAB202_3_1,Length=0.130176000,Units=km
new line.TR1129916 bus1=BMT137344645.1.2.3,bus2=BMT4258041B.1.2.3,Phases=3,Linecode=CAB204_5_3,Length=0.120388000,Units=km
new line.TR1129930 bus1=BMT171497246.1.2.3,bus2=BMT137344659.1.2.3,Phases=3,Linecode=CAB204_3_3,Length=0.121430000,Units=km
new line.TR1129937 bus1=BMT171497246.1.2.3,bus2=BMT4258559B.1.2.3,Phases=3,Linecode=CAB202_5_3,Length=0.124699000,Units=km
new line.TR1129944 bus1=BMT137344659.1.2.3,bus2=BMT2298104B.1.2.3,Phases=3,Linecode=CAB204_3_3,Length=0.118161000,Units=km
new line.TR1129951 bus1=BMT137351757.1.2.3,bus2=BMT4258601B.1.2.3,Phases=3,Linecode=CAB202_3_3,Length=0.097110000,Units=km
new line.TR1129958 bus1=BMT137351764.1.2.3,bus2=BMT137351771.1.2.3,Phases=3,Linecode=CAB102_3_3,Length=0.033116000,Units=km
new line.TR1129965 bus1=BMT137351764.1.2.3,bus2=BMT2301730B.1.2.3,Phases=3,Linecode=CAB202_3_3,Length=0.103151000,Units=km
new line.TR1129972 bus1=BMT2298104B.1.2.3,bus2=BMT4263487B.1.2.3,Phases=3,Linecode=CAB204_3_3,Length=0.108939000,Units=km
new line.TR1129979 bus1=BMT157054763.1.2.3,bus2=BMT3880377B.1.2.3,Phases=3,Linecode=CAB204_3_3,Length=0.126254000,Units=km
new line.TR1129986 bus1=BMT137344694.1.2.3,bus2=BMT3213781B.1.2.3,Phases=3,Linecode=CAB204_3_3,Length=0.098020000,Units=km
new line.TR1129993 bus1=BMT137351631.1.2.3,bus2=BMT4263809B.1.2.3,Phases=3,Linecode=CAB202_3_3,Length=0.101413000,Units=km
new line.TR1130014 bus1=BMT157054764.1.2.3,bus2=BMT157054765.1.2.3,Phases=3,Linecode=CAB102_3_3,Length=0.067532000,Units=km
new line.TR1130021 bus1=BMT157054764.1.2.3,bus2=BMT4263641B.1.2.3,Phases=3,Linecode=CAB204_3_3,Length=0.088288000,Units=km
new line.TR1130028 bus1=BMT157054766.1.2.3,bus2=BMT2298153B.1.2.3,Phases=3,Linecode=CAB204_3_3,Length=0.124986000,Units=km
new line.TR1130056 bus1=BMT2298153B.1.2.3,bus2=BMT4263690B.1.2.3,Phases=3,Linecode=CAB204_3_3,Length=0.124954000,Units=km
new line.TR1130063 bus1=BMT137351323.1.2.3,bus2=BMT2298167B.1.2.3,Phases=3,Linecode=CAB202_3_3,Length=0.112209000,Units=km
new line.TR1130070 bus1=BMT137344722.1.2.3,bus2=BMT2298174B.1.2.3,Phases=3,Linecode=CAB204_3_3,Length=0.109414000,Units=km
new line.TR1130084 bus1=BMT2298174B.1.2.3,bus2=BMT4232820B.1.2.3,Phases=3,Linecode=CAB204_3_3,Length=0.107230000,Units=km
new line.TR1130091 bus1=BMT157054767.1.2.3,bus2=BMT157054768.1.2.3,Phases=3,Linecode=CAB102_3_3,Length=0.028644000,Units=km
new line.TR1130098 bus1=BMT157054767.1.2.3,bus2=BMT137344743.1.2.3,Phases=3,Linecode=CAB204_3_3,Length=0.063081000,Units=km
new line.TR1130105 bus1=BMT2298188B.1.2.3,bus2=BMT137344757.1.2.3,Phases=3,Linecode=CAB204_3_3,Length=0.063081000,Units=km
new line.TR1130112 bus1=BMT137344771.1.2.3,bus2=BMT137344778.1.2.3,Phases=3,Linecode=CAB202_3_3,Length=0.068968000,Units=km
new line.TR1130119 bus1=BMT137344771.1.2.3,bus2=BMT3213823B.1.2.3,Phases=3,Linecode=CAB204_3_3,Length=0.104875000,Units=km
new line.TR1130133 bus1=BMT2298209B.1.2.3,bus2=BMT4232932B.1.2.3,Phases=3,Linecode=CAB204_3_3,Length=0.124191000,Units=km
new line.TR1130140 bus1=BMT137346059.1.2.3,bus2=BMT3479760B.1.2.3,Phases=3,Linecode=CAB204_3_3,Length=0.107460000,Units=km
new line.TR1130147 bus1=BMT143354929.1.2.3,bus2=BMT4233597B.1.2.3,Phases=3,Linecode=CAB202_3_3,Length=0.099227000,Units=km
new line.TR1130154 bus1=BMT2298223B.1.2.3,bus2=BMT3479746B.1.2.3,Phases=3,Linecode=CAB204_3_3,Length=0.104965000,Units=km
new line.TR1130161 bus1=BMT137346066.1.2.3,bus2=BMT137346073.1.2.3,Phases=3,Linecode=CAB204_3_3,Length=0.038963000,Units=km
new line.TR1130168 bus1=BMT137346066.1.2.3,bus2=BMT137346080.1.2.3,Phases=3,Linecode=CAB202_3_3,Length=0.126832000,Units=km
new line.TR1130175 bus1=BMT2298237B.1.2.3,bus2=BMT137346115.1.2.3,Phases=3,Linecode=CAB204_3_3,Length=0.101213000,Units=km
new line.TR1130182 bus1=BMT137346129.1.2.3,bus2=BMT137346136.1.2.3,Phases=3,Linecode=CAB202_3_3,Length=0.106181000,Units=km
new line.TR1130189 bus1=BMT137346129.1.2.3,bus2=BMT137346143.1.2.3,Phases=3,Linecode=CAB204_3_3,Length=0.094721000,Units=km
new line.TR1130196 bus1=BMT137346150.1.2.3,bus2=BMT2300631B.1.2.3,Phases=3,Linecode=CAB202_3_3,Length=0.107743000,Units=km
new line.TR1130203 bus1=BMT170806806.1.2.3,bus2=BMT2298265B.1.2.3,Phases=3,Linecode=CAB204_3_3,Length=0.127102000,Units=km
new line.TR1130210 bus1=BMT2298265B.1.2.3,bus2=BMT4262878B.1.2.3,Phases=3,Linecode=CAB204_3_3,Length=0.125451000,Units=km
new line.TR1130217 bus1=BMT170806807.2,bus2=BMT170806808.2,Phases=1,Linecode=CAB103_3_1,Length=0.081654000,Units=km
new line.TR1130224 bus1=BMT170806807.1.2.3,bus2=BMT4262934B.1.2.3,Phases=3,Linecode=CAB204_3_3,Length=0.114024000,Units=km
new line.TR1130231 bus1=BMT170806809.1.2.3,bus2=BMT4262948B.1.2.3,Phases=3,Linecode=CAB204_3_3,Length=0.148729000,Units=km
new line.TR1130245 bus1=BMT167349533.3,bus2=BMT2298300B.3,Phases=1,Linecode=CAB202_3_1,Length=0.133773000,Units=km
new line.TR1130252 bus1=BMT137346633.1.2.3,bus2=BMT3213858B.1.2.3,Phases=3,Linecode=CAB204_3_3,Length=0.130443000,Units=km
new line.TR1130259 bus1=BMT137346654.1.2.3,bus2=BMT137346661.1.2.3,Phases=3,Linecode=CAB204_3_3,Length=0.141219000,Units=km
new line.TR1130266 bus1=BMT137351211.3,bus2=BMT137351218.3,Phases=1,Linecode=CAB202_3_1,Length=0.119960000,Units=km
new line.TR1130280 bus1=BMT167349535.3,bus2=BMT167349537.3,Phases=1,Linecode=CAB102_3_1,Length=0.036397000,Units=km
new line.TR1130294 bus1=BMT2298314B.3,bus2=BMT167349538.3,Phases=1,Linecode=CAB202_3_1,Length=0.128428000,Units=km
new line.TR1130301 bus1=BMT167349538.3,bus2=BMT167349539.3,Phases=1,Linecode=CAB202_3_1,Length=0.054137000,Units=km
new line.TR1130308 bus1=BMT167349538.3,bus2=BMT3363000B.3,Phases=1,Linecode=CAB202_3_1,Length=0.156581000,Units=km
new line.TR1130315 bus1=BMT137351190.2,bus2=BMT4263382B.2,Phases=1,Linecode=CAB202_3_1,Length=0.188605000,Units=km
new line.TR1130322 bus1=BMT137346661.1.2.3,bus2=BMT4273245B.1.2.3,Phases=3,Linecode=CAB204_3_3,Length=0.149459000,Units=km
new line.TR1130329 bus1=BMT137351218.3,bus2=BMT137351225.3,Phases=1,Linecode=CAB102_3_1,Length=0.057286000,Units=km
new line.TR1130343 bus1=BMT170806814.1.2.3,bus2=BMT170806815.1.2.3,Phases=3,Linecode=CAB204_3_3,Length=0.121293000,Units=km
new line.TR1130350 bus1=BMT170806814.2,bus2=BMT4273336B.2,Phases=1,Linecode=CAB102_3_1,Length=0.090824000,Units=km
new line.TR1130357 bus1=BMT170806815.1.2.3,bus2=BMT4273343B.1.2.3,Phases=3,Linecode=CAB204_3_3,Length=0.154776000,Units=km
new line.TR1130413 bus1=BMT171791310.2,bus2=BMT171791313.2,Phases=1,Linecode=CAB102_3_1,Length=0.051003000,Units=km
new line.TR1130441 bus1=BMT137349370.1.2.3,bus2=BMT137349377.1.2.3,Phases=3,Linecode=CAB202_3_3,Length=0.108410000,Units=km
new line.TR1130448 bus1=BMT137349916.1.2.3,bus2=BMT137349923.1.2.3,Phases=3,Linecode=CAB202_3_3,Length=0.119720000,Units=km
new line.TR1130462 bus1=BMT137349377.1.2.3,bus2=BMT2298804B.1.2.3,Phases=3,Linecode=CAB202_3_3,Length=0.119459000,Units=km
new line.TR1130469 bus1=BMT137349930.3,bus2=BMT137349944.3,Phases=1,Linecode=CAB102_3_1,Length=0.029544000,Units=km
new line.TR1130476 bus1=BMT137349930.1.2.3,bus2=BMT2298426B.1.2.3,Phases=3,Linecode=CAB202_3_3,Length=0.128025000,Units=km
new line.TR1130511 bus1=BMT137351106.2,bus2=BMT2298797B.2,Phases=1,Linecode=CAB202_3_1,Length=0.081013000,Units=km
new line.TR1130525 bus1=BMT137349958.1.2.3,bus2=BMT137349965.1.2.3,Phases=3,Linecode=CAB202_3_3,Length=0.120796000,Units=km
new line.TR1130546 bus1=BMT2298461B.1,bus2=BMT137351071.1,Phases=1,Linecode=CAB202_3_1,Length=0.055798000,Units=km
new line.TR1130560 bus1=BMT166581611.3,bus2=BMT166581612.3,Phases=1,Linecode=CAB102_3_1,Length=0.028643000,Units=km
new line.TR1130567 bus1=BMT166581611.1.2.3,bus2=BMT137350000.1.2.3,Phases=3,Linecode=CAB202_3_3,Length=0.119835000,Units=km
new line.TR1130588 bus1=BMT137350987.2,bus2=BMT137350994.2,Phases=1,Linecode=CAB102_3_1,Length=0.079830000,Units=km
new line.TR1130595 bus1=BMT137350987.2,bus2=BMT2298741B.2,Phases=1,Linecode=CAB202_3_1,Length=0.122441000,Units=km
new line.TR1130609 bus1=BMT137350007.1.2.3,bus2=BMT2298517B.1.2.3,Phases=3,Linecode=CAB202_3_3,Length=0.111546000,Units=km
new line.TR1130616 bus1=BMT137350945.3,bus2=BMT3363812B.3,Phases=1,Linecode=CAB202_3_1,Length=0.079226000,Units=km
new line.TR1130623 bus1=BMT2298510B.3,bus2=BMT137350959.3,Phases=1,Linecode=CAB202_3_1,Length=0.073372000,Units=km
new line.TR1130658 bus1=BMT137350028.1.2.3,bus2=BMT2298538B.1.2.3,Phases=3,Linecode=CAB202_3_3,Length=0.122440000,Units=km
new line.TR1130672 bus1=BMT137350903.1,bus2=BMT2298552B.1,Phases=1,Linecode=CAB202_3_1,Length=0.073180000,Units=km
new line.TR1130693 bus1=BMT166584943.1.2.3,bus2=BMT4837606B.1.2.3,Phases=3,Linecode=CAB202_3_3,Length=0.148161000,Units=km
new line.TR1130714 bus1=BMT166580973.2,bus2=BMT166580974.2,Phases=1,Linecode=CAB102_3_1,Length=0.036265000,Units=km
new line.TR1130742 bus1=BMT166584944.1.2.3,bus2=BMT166584945.1.2.3,Phases=3,Linecode=CAB202_3_3,Length=0.119298000,Units=km
new line.TR1130763 bus1=BMT166629863.1,bus2=BMT166629864.1,Phases=1,Linecode=CAB102_3_1,Length=0.040556000,Units=km
new line.TR1130791 bus1=BMT166629867.2,bus2=BMT166629868.2,Phases=1,Linecode=CAB102_3_1,Length=0.073192000,Units=km
new line.TR1130805 bus1=BMT2298622B.1.2.3,bus2=BMT166629869.1.2.3,Phases=3,Linecode=CAB202_3_3,Length=0.076417000,Units=km
new line.TR1130812 bus1=BMT166580975.2,bus2=BMT166580976.2,Phases=1,Linecode=CAB102_3_1,Length=0.057284000,Units=km
new line.TR1130875 bus1=BMT166580979.2,bus2=BMT166580980.2,Phases=1,Linecode=CAB202_3_1,Length=0.178679000,Units=km
new line.TR1130882 bus1=BMT166580980.2,bus2=BMT166580982.2,Phases=1,Linecode=CAB102_3_1,Length=0.026431000,Units=km
new line.TR1130903 bus1=BMT166580983.2,bus2=BMT166580984.2,Phases=1,Linecode=CAB202_3_1,Length=0.108108000,Units=km
new line.TR1130917 bus1=BMT166580984.2,bus2=BMT137350371.2,Phases=1,Linecode=CAB202_3_1,Length=0.129298000,Units=km
new line.TR1130924 bus1=BMT137350371.2,bus2=BMT166580988.2,Phases=1,Linecode=CAB202_3_1,Length=0.102178000,Units=km
new line.TR1130938 bus1=BMT166580988.2,bus2=BMT166580989.2,Phases=1,Linecode=CAB102_3_1,Length=0.064426000,Units=km
new line.TR1130952 bus1=BMT137350707.2,bus2=BMT137350714.2,Phases=1,Linecode=CAB202_3_1,Length=0.082407000,Units=km
new line.TR1130966 bus1=BMT137350714.2,bus2=BMT137350721.2,Phases=1,Linecode=CAB102_3_1,Length=0.048534000,Units=km
new line.TR1130973 bus1=BMT137350714.2,bus2=BMT137350728.2,Phases=1,Linecode=CAB202_3_1,Length=0.083380000,Units=km
new line.TR1130987 bus1=BMT137350770.2,bus2=BMT2298720B.2,Phases=1,Linecode=CAB202_3_1,Length=0.126521000,Units=km
new line.TR1131015 bus1=BMT166580990.2,bus2=BMT166580991.2,Phases=1,Linecode=CAB102_3_1,Length=0.041445000,Units=km
new line.TR1131022 bus1=BMT166580990.2,bus2=BMT166580992.2,Phases=1,Linecode=CAB202_3_1,Length=0.121733000,Units=km
new line.TR1131050 bus1=BMT137351001.2,bus2=BMT137351008.2,Phases=1,Linecode=CAB202_3_1,Length=0.120235000,Units=km
new line.TR1131057 bus1=BMT2298762B.2,bus2=BMT137351043.2,Phases=1,Linecode=CAB202_3_1,Length=0.102980000,Units=km
new line.TR1131064 bus1=BMT137351008.2,bus2=BMT137351015.2,Phases=1,Linecode=CAB102_3_1,Length=0.026633000,Units=km
new line.TR1131078 bus1=BMT137351022.2,bus2=BMT137351029.2,Phases=1,Linecode=CAB102_3_1,Length=0.053578000,Units=km
new line.TR1131085 bus1=BMT137351022.2,bus2=BMT2298783B.2,Phases=1,Linecode=CAB202_3_1,Length=0.118305000,Units=km
new line.TR1131099 bus1=BMT137351043.2,bus2=BMT137351050.2,Phases=1,Linecode=CAB202_3_1,Length=0.313300000,Units=km
new line.TR1131106 bus1=BMT137351043.2,bus2=BMT137351057.2,Phases=1,Linecode=CAB202_3_1,Length=0.070727000,Units=km
new line.TR1131148 bus1=BMT137349384.1,bus2=BMT137349391.1,Phases=1,Linecode=CAB202_3_1,Length=0.112982000,Units=km
new line.TR1131162 bus1=BMT137349398.1.2.3,bus2=BMT2298846B.1.2.3,Phases=3,Linecode=CAB202_3_3,Length=0.131024000,Units=km
new line.TR1131169 bus1=BMT137349391.1,bus2=BMT137349468.1,Phases=1,Linecode=CAB103_3_1,Length=0.066307000,Units=km
new line.TR1131176 bus1=BMT137349818.1,bus2=BMT137349825.1,Phases=1,Linecode=CAB102_3_1,Length=0.069889000,Units=km
new line.TR1131197 bus1=BMT137349405.1,bus2=BMT137349412.1,Phases=1,Linecode=CAB102_3_1,Length=0.053928000,Units=km
new line.TR1131211 bus1=BMT137349419.1,bus2=BMT137349426.1,Phases=1,Linecode=CAB102_3_1,Length=0.054413000,Units=km
new line.TR1131218 bus1=BMT137349419.1.2.3,bus2=BMT2298867B.1.2.3,Phases=3,Linecode=CAB202_3_3,Length=0.134028000,Units=km
new line.TR1131225 bus1=BMT2298867B.1.2.3,bus2=BMT3315064B.1.2.3,Phases=3,Linecode=CAB202_3_3,Length=0.117956000,Units=km
new line.TR1131232 bus1=BMT137349433.3,bus2=BMT137349440.3,Phases=1,Linecode=CAB103_3_1,Length=0.031435000,Units=km
new line.TR1131246 bus1=BMT137349433.1.2.3,bus2=BMT3315064B.1.2.3,Phases=3,Linecode=CAB202_3_3,Length=0.118882000,Units=km
new line.TR1131260 bus1=BMT137349447.2,bus2=BMT137349454.2,Phases=1,Linecode=CAB202_3_1,Length=0.130313000,Units=km
new line.TR1131267 bus1=BMT137349447.3,bus2=BMT137349461.3,Phases=1,Linecode=CAB202_3_1,Length=0.140123000,Units=km
new line.TR1131274 bus1=BMT137349762.1,bus2=BMT137349769.1,Phases=1,Linecode=CAB102_3_1,Length=0.025332000,Units=km
new line.TR1131295 bus1=BMT137349482.2,bus2=BMT137349489.2,Phases=1,Linecode=CAB102_3_1,Length=0.017115000,Units=km
new line.TR1131302 bus1=BMT137349482.2,bus2=BMT2298909B.2,Phases=1,Linecode=CAB202_3_1,Length=0.126068000,Units=km
new line.TR1132863 bus1=BMT166386111.3,bus2=BMT166386112.3,Phases=1,Linecode=CAB102_3_1,Length=0.062664000,Units=km
new line.TR1132870 bus1=BMT166386111.1.2.3,bus2=BMT4299551B.1.2.3,Phases=3,Linecode=CAB204_3_3,Length=0.104810000,Units=km
new line.TR1132877 bus1=BMT137347480.3,bus2=BMT137347487.3,Phases=1,Linecode=CAB102_3_1,Length=0.037652000,Units=km
new line.TR1132884 bus1=BMT137347480.3,bus2=BMT2299840B.3,Phases=1,Linecode=CAB202_3_1,Length=0.135479000,Units=km
new line.TR1132898 bus1=BMT166386113.1.2.3,bus2=BMT4299579B.1.2.3,Phases=3,Linecode=CAB204_3_3,Length=0.115547000,Units=km
new line.TR1132905 bus1=BMT166386113.3,bus2=BMT166386114.3,Phases=1,Linecode=CAB202_3_1,Length=0.194209000,Units=km
new line.TR1132912 bus1=BMT137346885.1.2.3,bus2=BMT137346906.1.2.3,Phases=3,Linecode=CAB204_3_3,Length=0.068426000,Units=km
new line.TR1132919 bus1=BMT137347312.3,bus2=BMT4299677B.3,Phases=1,Linecode=CAB202_3_1,Length=0.104259000,Units=km
new line.TR1132926 bus1=BMT137346906.1.2.3,bus2=BMT4299586B.1.2.3,Phases=3,Linecode=CAB204_3_3,Length=0.083260000,Units=km
new line.TR1132933 bus1=BMT137347214.1,bus2=BMT4299684B.1,Phases=1,Linecode=CAB202_3_1,Length=0.105708000,Units=km
new line.TR1132940 bus1=BMT137347319.3,bus2=BMT137347326.3,Phases=1,Linecode=CAB102_3_1,Length=0.063521000,Units=km
new line.TR1132975 bus1=BMT137347459.3,bus2=BMT137347466.3,Phases=1,Linecode=CAB102_3_1,Length=0.025501000,Units=km
new line.TR1132982 bus1=BMT137347340.3,bus2=BMT137347347.3,Phases=1,Linecode=CAB202_3_1,Length=0.073372000,Units=km
new line.TR1132989 bus1=BMT137347354.3,bus2=BMT137347361.3,Phases=1,Linecode=CAB202_3_1,Length=0.188643000,Units=km
new line.TR1132996 bus1=BMT137347361.3,bus2=BMT137347368.3,Phases=1,Linecode=CAB202_3_1,Length=0.070230000,Units=km
new line.TR1133003 bus1=BMT137347361.3,bus2=BMT137347375.3,Phases=1,Linecode=CAB202_3_1,Length=0.080231000,Units=km
new line.TR1133010 bus1=BMT2299910B.3,bus2=BMT137347382.3,Phases=1,Linecode=CAB202_3_1,Length=0.123677000,Units=km
new line.TR1133017 bus1=BMT137347382.3,bus2=BMT137347389.3,Phases=1,Linecode=CAB202_3_1,Length=0.066769000,Units=km
new line.TR1133031 bus1=BMT166386116.1,bus2=BMT166386117.1,Phases=1,Linecode=CAB102_3_1,Length=0.044056000,Units=km
new line.TR1133038 bus1=BMT166386116.1.2.3,bus2=BMT4299600B.1.2.3,Phases=3,Linecode=CAB204_3_3,Length=0.085886000,Units=km
new line.TR1133045 bus1=BMT137347221.1,bus2=BMT2299938B.1,Phases=1,Linecode=CAB202_3_1,Length=0.093043000,Units=km
new line.TR1133059 bus1=BMT2299938B.1,bus2=BMT137347228.1,Phases=1,Linecode=CAB202_3_1,Length=0.061145000,Units=km
new line.TR1133073 bus1=BMT137347284.1,bus2=BMT137347291.1,Phases=1,Linecode=CAB202_3_1,Length=0.225708000,Units=km
new line.TR1133080 bus1=BMT2299952B.1,bus2=BMT137347242.1,Phases=1,Linecode=CAB202_3_1,Length=0.100979000,Units=km
new line.TR1133108 bus1=BMT2299973B.1,bus2=BMT137347249.1,Phases=1,Linecode=CAB202_3_1,Length=0.079205000,Units=km
new line.TR1133115 bus1=BMT137347263.1,bus2=BMT137347270.1,Phases=1,Linecode=CAB103_3_1,Length=0.077219000,Units=km
new line.TR1133122 bus1=BMT137347263.1,bus2=BMT2811190B.1,Phases=1,Linecode=CAB202_3_1,Length=0.054418000,Units=km
new line.TR1133129 bus1=BMT2299987B.1.2.3,bus2=BMT3223686B.1.2.3,Phases=3,Linecode=CAB204_3_3,Length=0.121627000,Units=km
new line.TR1133136 bus1=BMT160114285.1.2.3,bus2=BMT160114286.1.2.3,Phases=3,Linecode=CAB204_3_3,Length=0.106701000,Units=km