new load.3009005447M1 bus1=BMT172355353.1.2.3.0,Phases=3,kv=13.8,kW=985.9347,pf=0.92,Vminpu=0.93,Vmaxpu=1.5,model=1,daily=A4-6,status=variable
new load.3009012972M1 bus1=BMT170810436.1.2.3.0,Phases=3,kv=13.8,kW=488.4477,pf=0.92,Vminpu=0.93,Vmaxpu=1.5,model=1,daily=A4-7,status=variable
new load.3009013921M1 bus1=BMT136016876.1.2.3.0,Phases=3,kv=13.8,kW=78.93638,pf=0.92,Vminpu=0.93,Vmaxpu=1.5,model=1,daily=A4-5,status=variable
new load.3009015060M1 bus1=BMT101526385.1.2.3.0,Phases=3,kv=13.8,kW=107.69456,pf=0.92,Vminpu=0.93,Vmaxpu=1.5,model=1,daily=A4-2,status=variable
new load.3009015061M1 bus1=BMT101526399.1.2.3.0,Phases=3,kv=13.8,kW=115.35636,pf=0.92,Vminpu=0.93,Vmaxpu=1.5,model=1,daily=A4-3,status=variable
new load.3009015062M1 bus1=BMT101532538.1.2.3.0,Phases=3,kv=13.8,kW=62.82182,pf=0.92,Vminpu=0.93,Vmaxpu=1.5,model=1,daily=A4-2,status=variable
new load.3009020473M1 bus1=BMT163655121.1.2.3.0,Phases=3,kv=13.8,kW=14.93806,pf=0.92,Vminpu=0.93,Vmaxpu=1.5,model=1,daily=A4-4,status=variable
new load.3009021302M1 bus1=BMT101527008.1.2.3.0,Phases=3,kv=13.8,kW=78.52728,pf=0.92,Vminpu=0.93,Vmaxpu=1.5,model=1,daily=A4-2,status=variable
new load.3010086721M1 bus1=BMT136016862.1.2.3.0,Phases=3,kv=13.8,kW=69.55274,pf=0.92,Vminpu=0.93,Vmaxpu=1.5,model=1,daily=A4-2,status=variable
new load.3010228938M1 bus1=BMT136018570.1.2.3.0,Phases=3,kv=13.8,kW=6.7309,pf=0.92,Vminpu=0.93,Vmaxpu=1.5,model=1,daily=A4-2,status=variable
new load.3010508750M1 bus1=BMT136029854.1.2.3.0,Phases=3,kv=13.8,kW=40.54616,pf=0.92,Vminpu=0.93,Vmaxpu=1.5,model=1,daily=A4-4,status=variable
new load.3010561433M1 bus1=BMT101532524.1.2.3.0,Phases=3,kv=13.8,kW=5446.10678,pf=0.92,Vminpu=0.93,Vmaxpu=1.5,model=1,daily=A4-7,status=variable
new load.3010629250M1 bus1=BMT165757369.1.2.3.0,Phases=3,kv=13.8,kW=204.86486,pf=0.92,Vminpu=0.93,Vmaxpu=1.5,model=1,daily=A4-4,status=variable
new load.3010669373M1 bus1=BMT101526952.1.2.3.0,Phases=3,kv=13.8,kW=144.70666,pf=0.92,Vminpu=0.93,Vmaxpu=1.5,model=1,daily=A4-6,status=variable
new load.3010839038M1 bus1=BMT101531292.1.2.3.0,Phases=3,kv=13.8,kW=3.1923,pf=0.92,Vminpu=0.93,Vmaxpu=1.5,model=1,daily=A4-1,status=variable
new load.3010983477M1 bus1=BMT101527155.1.2.3.0,Phases=3,kv=13.8,kW=4.48728,pf=0.92,Vminpu=0.93,Vmaxpu=1.5,model=1,daily=A4-2,status=variable
new load.3011435558M1 bus1=BMT163457788.1.2.3.0,Phases=3,kv=13.8,kW=29.87612,pf=0.92,Vminpu=0.93,Vmaxpu=1.5,model=1,daily=A4-4,status=variable
new load.3012180386M1 bus1=BMT165757658.1.2.3.0,Phases=3,kv=13.8,kW=20.97388,pf=0.92,Vminpu=0.93,Vmaxpu=1.5,model=1,daily=A4-3,status=variable
new load.3012698755M1 bus1=BMT168756776.1.2.3.0,Phases=3,kv=13.8,kW=65.01904,pf=0.92,Vminpu=0.93,Vmaxpu=1.5,model=1,daily=A4-3,status=variable
new load.3013586527M1 bus1=BMT168397562.1.2.3.0,Phases=3,kv=13.8,kW=106.96682,pf=0.92,Vminpu=0.93,Vmaxpu=1.5,model=1,daily=A4-3,status=variable
