new line.10683394 bus1=BBT2656055.1.2.0,bus2=BBT2656062.1.2.0,Phases=2,Linecode=BT307_BT307_7_2_1,Length=0.000501000,Units=km
new line.11100839 bus1=BBT3146986.1.2.0,bus2=BBT3146993.1.2.0,Phases=2,Linecode=BT316_BT316_7_2_1,Length=0.000501000,Units=km
new line.11110989 bus1=BBT2711705.1.2.0,bus2=BBT2711712.1.2.0,Phases=2,Linecode=BT316_BT316_7_2_1,Length=0.000501000,Units=km
new line.11112186 bus1=BBT2711831.1.2.0,bus2=BBT2711838.1.2.0,Phases=2,Linecode=BT518_BT518_7_2_1,Length=0.000501000,Units=km
new line.11112193 bus1=BBT2711838.1.2.0,bus2=BBT2711845.1.2.0,Phases=2,Linecode=BT808_BT808_4_2_3,Length=0.031903000,Units=km
new line.11112340 bus1=BBT2711845.1.2.0,bus2=BBT2711852.1.2.0,Phases=2,Linecode=BT808_BT808_4_2_3,Length=0.031397000,Units=km
new line.11113040 bus1=BBT2711894.1.2.0,bus2=BBT2711901.1.2.0,Phases=2,Linecode=BT316_BT316_7_2_1,Length=0.000501000,Units=km
new line.11113082 bus1=BBT2711908.1.2.0,bus2=BBT2711915.1.2.0,Phases=2,Linecode=BT508_BT508_7_2_1,Length=0.000501000,Units=km
new line.11113355 bus1=BBT2711936.1.2.0,bus2=BBT2711943.1.2.0,Phases=2,Linecode=BT808_BT808_4_2_3,Length=0.036702000,Units=km
new line.11113383 bus1=BBT2711950.1.2.0,bus2=BBT2711957.1.2.0,Phases=2,Linecode=BT808_BT808_4_2_3,Length=0.048774000,Units=km
new line.11113481 bus1=BBT2711999.1.2.0,bus2=BBT2712006.1.2.0,Phases=2,Linecode=BT316_BT316_7_2_1,Length=0.000501000,Units=km
new line.11113530 bus1=BBT2711929.1.2.0,bus2=BBT2711936.1.2.0,Phases=2,Linecode=BT808_BT808_4_2_3,Length=0.061294000,Units=km
new line.11113537 bus1=BBT2711929.1.2.0,bus2=BBT2711950.1.2.0,Phases=2,Linecode=BT808_BT808_4_2_3,Length=0.061294000,Units=km
new line.11113544 bus1=BBT2711922.1.2.0,bus2=BBT2711929.1.2.0,Phases=2,Linecode=BT518_BT518_7_2_1,Length=0.000501000,Units=km
new line.11114580 bus1=BBT2712153.1.2.0,bus2=BBT2712160.1.2.0,Phases=2,Linecode=BT316_BT316_7_2_1,Length=0.000501000,Units=km
new line.11114643 bus1=BBT2712139.1.2.0,bus2=BBT2712146.1.2.0,Phases=2,Linecode=BT316_BT316_7_2_1,Length=0.000501000,Units=km
new line.11114713 bus1=BBT2712216.1.2.0,bus2=BBT2712223.1.2.0,Phases=2,Linecode=BT518_BT518_7_2_1,Length=0.000501000,Units=km
new line.11114720 bus1=BBT2712223.1.2.0,bus2=BBT2712251.1.2.0,Phases=2,Linecode=BT808_BT808_4_2_3,Length=0.030426000,Units=km
new line.11114727 bus1=BBT2712223.1.2.0,bus2=BBT2712258.1.2.0,Phases=2,Linecode=BT808_BT808_4_2_3,Length=0.053171000,Units=km
new line.11114734 bus1=BBT2712223.1.2.0,bus2=BBT2712230.1.2.0,Phases=2,Linecode=BT808_BT808_4_2_3,Length=0.039576000,Units=km
new line.11114846 bus1=BBT2712258.1.2.0,bus2=BBT2712265.1.2.0,Phases=2,Linecode=BT808_BT808_4_2_3,Length=0.053171000,Units=km
new line.11114874 bus1=BBT2712230.1.2.0,bus2=BBT2712237.1.2.0,Phases=2,Linecode=BT808_BT808_4_2_3,Length=0.039941000,Units=km
new line.11114895 bus1=BBT2712237.1.2.0,bus2=BBT2712244.1.2.0,Phases=2,Linecode=BT808_BT808_4_2_3,Length=0.039941000,Units=km
new line.11114916 bus1=BBT2712244.1.2.0,bus2=BBT2712272.1.2.0,Phases=2,Linecode=BT808_BT808_4_2_3,Length=0.076351000,Units=km
new line.11114937 bus1=BBT2712202.1.2.0,bus2=BBT2712209.1.2.0,Phases=2,Linecode=BT316_BT316_7_2_1,Length=0.000501000,Units=km
new line.11115665 bus1=BBT2712398.1.2.0,bus2=BBT2712405.1.2.0,Phases=2,Linecode=BT316_BT316_7_2_1,Length=0.000501000,Units=km
new line.11115700 bus1=BBT2712412.1.2.0,bus2=BBT2712419.1.2.0,Phases=2,Linecode=BT316_BT316_7_2_1,Length=0.000501000,Units=km
new line.11122035 bus1=BBT2713371.1.2.0,bus2=BBT2713378.1.2.0,Phases=2,Linecode=BT316_BT316_7_2_1,Length=0.000501000,Units=km
new line.12014374 bus1=BBT2861372.1.2.0,bus2=BBT2861379.1.2.0,Phases=2,Linecode=BT807_BT807_4_2_3,Length=0.054142000,Units=km
new line.12014416 bus1=BBT2861323.1.2.0,bus2=BBT2861372.1.2.0,Phases=2,Linecode=BT807_BT807_4_2_3,Length=0.047019000,Units=km
new line.12014430 bus1=BBT2861316.1.2.0,bus2=BBT2861323.1.2.0,Phases=2,Linecode=BT807_BT807_4_2_3,Length=0.049060000,Units=km
new line.12014437 bus1=BBT2861309.1.2.0,bus2=BBT2861316.1.2.0,Phases=2,Linecode=BT518_BT518_7_2_1,Length=0.000501000,Units=km
new line.12014444 bus1=BBT2861316.1.2.0,bus2=BBT2861344.1.2.0,Phases=2,Linecode=BT807_BT807_4_2_3,Length=0.055995000,Units=km
new line.12014521 bus1=BBT2861379.1.2.0,bus2=BBT2861386.1.2.0,Phases=2,Linecode=BT807_BT807_4_2_3,Length=0.055384000,Units=km
new line.12015081 bus1=BBT2861358.1.2.0,bus2=BBT2861365.1.2.0,Phases=2,Linecode=BT808_BT808_4_2_3,Length=0.039028000,Units=km
new line.12015214 bus1=BBT2861218.1.2.0,bus2=BBT2861225.1.2.0,Phases=2,Linecode=BT807_BT807_4_2_3,Length=0.061547000,Units=km
new line.12015249 bus1=BBT2861211.1.2.0,bus2=BBT2861218.1.2.0,Phases=2,Linecode=BT807_BT807_4_2_3,Length=0.061685000,Units=km
new line.12015270 bus1=BBT2860560.1.2.0,bus2=BBT2860588.1.2.0,Phases=2,Linecode=BT808_BT808_4_2_3,Length=0.049789000,Units=km
new line.12015277 bus1=BBT2860560.1.2.0,bus2=BBT2860567.1.2.0,Phases=2,Linecode=BT807_BT807_4_2_3,Length=0.055049000,Units=km
new line.12015298 bus1=BBT2860553.1.2.0,bus2=BBT2860560.1.2.0,Phases=2,Linecode=BT807_BT807_4_2_3,Length=0.038913000,Units=km
new line.12015305 bus1=BBT2860546.1.2.0,bus2=BBT2860553.1.2.0,Phases=2,Linecode=BT518_BT518_7_2_1,Length=0.000501000,Units=km
new line.12015312 bus1=BBT2860553.1.2.0,bus2=BBT2860581.1.2.0,Phases=2,Linecode=BT807_BT807_4_2_3,Length=0.040178000,Units=km
new line.12015375 bus1=BBT2860581.1.2.0,bus2=BBT2861211.1.2.0,Phases=2,Linecode=BT807_BT807_4_2_3,Length=0.055601000,Units=km
new line.12015473 bus1=BBT2860588.1.2.0,bus2=BBT2861204.1.2.0,Phases=2,Linecode=BT808_BT808_4_2_3,Length=0.050000000,Units=km
new line.12015599 bus1=BBT2860567.1.2.0,bus2=BBT2860574.1.2.0,Phases=2,Linecode=BT808_BT808_4_2_3,Length=0.054446000,Units=km
new line.12015746 bus1=BBT2861638.1.2.0,bus2=BBT2861645.1.2.0,Phases=2,Linecode=BT808_BT808_4_2_3,Length=0.039677000,Units=km
new line.12015795 bus1=BBT2861617.1.2.0,bus2=BBT2861638.1.2.0,Phases=2,Linecode=BT808_BT808_4_2_3,Length=0.040016000,Units=km
new line.12015914 bus1=BBT2861414.1.2.0,bus2=BBT2861617.1.2.0,Phases=2,Linecode=BT807_BT807_4_2_3,Length=0.041646000,Units=km
new line.12015970 bus1=BBT2861351.1.2.0,bus2=BBT2861358.1.2.0,Phases=2,Linecode=BT807_BT807_4_2_3,Length=0.056103000,Units=km
new line.12016033 bus1=BBT2861344.1.2.0,bus2=BBT2861351.1.2.0,Phases=2,Linecode=BT807_BT807_4_2_3,Length=0.056325000,Units=km
new line.12016103 bus1=BBT2861407.1.2.0,bus2=BBT2861421.1.2.0,Phases=2,Linecode=BT807_BT807_4_2_3,Length=0.052832000,Units=km
new line.12016124 bus1=BBT2861400.1.2.0,bus2=BBT2861414.1.2.0,Phases=2,Linecode=BT807_BT807_4_2_3,Length=0.048403000,Units=km
new line.12016131 bus1=BBT2861400.1.2.0,bus2=BBT2861407.1.2.0,Phases=2,Linecode=BT807_BT807_4_2_3,Length=0.044962000,Units=km
new line.12016138 bus1=BBT2861393.1.2.0,bus2=BBT2861400.1.2.0,Phases=2,Linecode=BT518_BT518_7_2_1,Length=0.000501000,Units=km
new line.12016201 bus1=BBT2861421.1.2.0,bus2=BBT2861428.1.2.0,Phases=2,Linecode=BT808_BT808_4_2_3,Length=0.009438000,Units=km
new line.12016292 bus1=BBT2861603.1.2.0,bus2=BBT2861610.1.2.0,Phases=2,Linecode=BT807_BT807_4_2_3,Length=0.062651000,Units=km
new line.12016369 bus1=BBT2861491.1.2.0,bus2=BBT2861498.1.2.0,Phases=2,Linecode=BT518_BT518_7_2_1,Length=0.000501000,Units=km
new line.12016376 bus1=BBT2861498.1.2.0,bus2=BBT2861505.1.2.0,Phases=2,Linecode=BT807_BT807_4_2_3,Length=0.050468000,Units=km
new line.10101449 bus1=BBT2571663.1.2.0,bus2=BBT2571670.1.2.0,Phases=2,Linecode=BT316_BT316_7_2_1,Length=0.000501000,Units=km
new line.10127951 bus1=BBT2574883.1.2.0,bus2=BBT2574890.1.2.0,Phases=2,Linecode=BT808_BT808_4_2_3,Length=0.043617000,Units=km
new line.10127958 bus1=BBT2574883.1.2.0,bus2=BBT4442301.1.2.0,Phases=2,Linecode=BT808_BT808_4_2_3,Length=0.049426000,Units=km
new line.10127979 bus1=BBT2574876.1.2.0,bus2=BBT2574883.1.2.0,Phases=2,Linecode=BT807_BT807_4_2_3,Length=0.041247000,Units=km
new line.10127986 bus1=BBT2574869.1.2.0,bus2=BBT2574876.1.2.0,Phases=2,Linecode=BT518_BT518_7_2_1,Length=0.000501000,Units=km
new line.10127993 bus1=BBT2574876.1.2.0,bus2=BBT2574897.1.2.0,Phases=2,Linecode=BT807_BT807_4_2_3,Length=0.041247000,Units=km
new line.10128021 bus1=BBT2574897.1.2.0,bus2=BBT2574904.1.2.0,Phases=2,Linecode=BT807_BT807_4_2_3,Length=0.037028000,Units=km
new line.10128028 bus1=BBT2574897.1.2.0,bus2=BBT4155196.1.2.0,Phases=2,Linecode=BT808_BT808_4_2_3,Length=0.027470000,Units=km
new line.10128063 bus1=BBT2574904.1.2.0,bus2=BBT2574911.1.2.0,Phases=2,Linecode=BT807_BT807_4_2_3,Length=0.033851000,Units=km
new line.10128091 bus1=BBT2574911.1.2.0,bus2=BBT26151974.1.2.0,Phases=2,Linecode=BT808_BT808_4_2_3,Length=0.048289000,Units=km
new line.10815694 bus1=BBT2668494.1.3.0,bus2=BBT3439061.1.3.0,Phases=2,Linecode=BT808_BT808_4_2_3,Length=0.043846000,Units=km
new line.10815722 bus1=BBT120739145.1.2.3.0,bus2=BBT2668508.1.2.3.0,Phases=3,Linecode=BT810_BT810_4_3_4,Length=0.032215000,Units=km
new line.10815764 bus1=BBT2668508.1.2.3.0,bus2=BBT2668515.1.2.3.0,Phases=3,Linecode=BT810_BT810_4_3_4,Length=0.045239000,Units=km
new line.10815785 bus1=BBT2668515.1.2.3.0,bus2=BBT2668522.1.2.3.0,Phases=3,Linecode=BT810_BT810_4_3_4,Length=0.044424000,Units=km
new line.10830625 bus1=BBT2670678.1.2.0,bus2=BBT2670685.1.2.0,Phases=2,Linecode=BT316_BT316_7_2_1,Length=0.000501000,Units=km
new line.10830765 bus1=BBT2670713.1.2.0,bus2=BBT2670720.1.2.0,Phases=2,Linecode=BT316_BT316_7_2_1,Length=0.000501000,Units=km
new line.10831199 bus1=BBT2670832.1.2.0,bus2=BBT2670839.1.2.0,Phases=2,Linecode=BT316_BT316_7_2_1,Length=0.000501000,Units=km
new line.10831269 bus1=BBT2670846.1.2.0,bus2=BBT2670853.1.2.0,Phases=2,Linecode=BT316_BT316_7_2_1,Length=0.000501000,Units=km
new line.10831339 bus1=BBT2670874.1.2.0,bus2=BBT2670881.1.2.0,Phases=2,Linecode=BT808_BT808_4_2_3,Length=0.039220000,Units=km
new line.10831367 bus1=BBT2670888.1.2.0,bus2=BBT2670895.1.2.0,Phases=2,Linecode=BT316_BT316_7_2_1,Length=0.000501000,Units=km
new line.10831423 bus1=BBT2670902.1.2.0,bus2=BBT2670909.1.2.0,Phases=2,Linecode=BT316_BT316_7_2_1,Length=0.000501000,Units=km
new line.10831444 bus1=BBT2670916.1.2.0,bus2=BBT2670923.1.2.0,Phases=2,Linecode=BT518_BT518_7_2_1,Length=0.000501000,Units=km
new line.10831451 bus1=BBT2670923.1.2.0,bus2=BBT2670930.1.2.0,Phases=2,Linecode=BT808_BT808_4_2_3,Length=0.050980000,Units=km
new line.10831521 bus1=BBT2670937.1.2.0,bus2=BBT2670944.1.2.0,Phases=2,Linecode=BT808_BT808_4_2_3,Length=0.049273000,Units=km
new line.10831612 bus1=BBT2670951.1.2.0,bus2=BBT2670958.1.2.0,Phases=2,Linecode=BT316_BT316_7_2_1,Length=0.000501000,Units=km
new line.10831647 bus1=BBT2670965.1.2.0,bus2=BBT2670972.1.2.0,Phases=2,Linecode=BT316_BT316_7_2_1,Length=0.000501000,Units=km
new line.10831682 bus1=BBT2670979.1.2.0,bus2=BBT2670986.1.2.0,Phases=2,Linecode=BT316_BT316_7_2_1,Length=0.000501000,Units=km
new line.10831717 bus1=BBT2671007.1.2.0,bus2=BBT2671014.1.2.0,Phases=2,Linecode=BT307_BT307_7_2_1,Length=0.000501000,Units=km
new line.10831836 bus1=BBT2671021.1.2.0,bus2=BBT2671028.1.2.0,Phases=2,Linecode=BT316_BT316_7_2_1,Length=0.000501000,Units=km
new line.10831885 bus1=BBT2671035.1.2.0,bus2=BBT2671042.1.2.0,Phases=2,Linecode=BT316_BT316_7_2_1,Length=0.000501000,Units=km
new line.10831899 bus1=BBT2671049.1.2.0,bus2=BBT2671056.1.2.0,Phases=2,Linecode=BT316_BT316_7_2_1,Length=0.000501000,Units=km
new line.10831941 bus1=BBT2671063.1.2.0,bus2=BBT2671070.1.2.0,Phases=2,Linecode=BT316_BT316_7_2_1,Length=0.000501000,Units=km
new line.11269224 bus1=BBT2794907.1.2.0,bus2=BBT2794914.1.2.0,Phases=2,Linecode=BT808_BT808_4_2_3,Length=0.035819000,Units=km
new line.11269266 bus1=BBT2794823.1.2.0,bus2=BBT2794907.1.2.0,Phases=2,Linecode=BT808_BT808_4_2_3,Length=0.039423000,Units=km
new line.11757068 bus1=BBT2812960.1.2.0,bus2=BBT2812967.1.2.0,Phases=2,Linecode=BT316_BT316_7_2_1,Length=0.000501000,Units=km
new line.12199811 bus1=BBT2898339.1.2.0,bus2=BBT2898346.1.2.0,Phases=2,Linecode=BT521_BT521_7_2_1,Length=0.000501000,Units=km
new line.12200581 bus1=BBT2898640.1.3.0,bus2=BBT3898793.1.3.0,Phases=2,Linecode=BT808_BT808_4_2_3,Length=0.035860000,Units=km
new line.12202317 bus1=BBT2898927.1.2.0,bus2=BBT2898934.1.2.0,Phases=2,Linecode=BT518_BT518_7_2_1,Length=0.000501000,Units=km
new line.12202338 bus1=BBT2898941.1.2.0,bus2=BBT2898948.1.2.0,Phases=2,Linecode=BT316_BT316_7_2_1,Length=0.000501000,Units=km
new line.12219656 bus1=BBT2901734.2.3.0,bus2=BBT3513114.2.3.0,Phases=2,Linecode=BT808_BT808_4_2_3,Length=0.041609000,Units=km
new line.12692821 bus1=BBT3016912.1.2.3.0,bus2=BBT3016919.1.2.3.0,Phases=3,Linecode=BT803_BT803_4_3_4,Length=0.025089000,Units=km
new line.12692828 bus1=BBT3016912.1.2.3.0,bus2=BBT84038845.1.2.3.0,Phases=3,Linecode=BT803_BT803_4_3_4,Length=0.023546000,Units=km
new line.12692849 bus1=BBT3016926.1.2.3.0,bus2=BBT3016933.1.2.3.0,Phases=3,Linecode=BT803_BT803_4_3_4,Length=0.031918000,Units=km
new line.12692884 bus1=BBT3016933.1.2.3.0,bus2=BBT3016940.1.2.3.0,Phases=3,Linecode=BT803_BT803_4_3_4,Length=0.034013000,Units=km
new line.12692898 bus1=BBT3016905.1.2.3.0,bus2=BBT3016912.1.2.3.0,Phases=3,Linecode=BT803_BT803_4_3_4,Length=0.037657000,Units=km
new line.12695271 bus1=BBT3017045.1.2.0,bus2=BBT3017059.1.2.0,Phases=2,Linecode=BT808_BT808_4_2_3,Length=0.032662000,Units=km
new line.12695285 bus1=BBT3017059.1.2.0,bus2=BBT3017066.1.2.0,Phases=2,Linecode=BT808_BT808_4_2_3,Length=0.035369000,Units=km
new line.12695299 bus1=BBT3017066.1.2.0,bus2=BBT3577164.1.2.0,Phases=2,Linecode=BT808_BT808_4_2_3,Length=0.006406000,Units=km
new line.12695334 bus1=BBT3017024.1.2.0,bus2=BBT3017031.1.2.0,Phases=2,Linecode=BT807_BT807_4_2_3,Length=0.024606000,Units=km
new line.12695355 bus1=BBT3017031.1.2.0,bus2=BBT3017038.1.2.0,Phases=2,Linecode=BT808_BT808_4_2_3,Length=0.023716000,Units=km
new line.12695362 bus1=BBT3017031.1.2.0,bus2=BBT3017045.1.2.0,Phases=2,Linecode=BT808_BT808_4_2_3,Length=0.008948000,Units=km
new line.12695369 bus1=BBT3017031.1.2.0,bus2=BBT3017052.1.2.0,Phases=2,Linecode=BT807_BT807_4_2_3,Length=0.025505000,Units=km
new line.12695390 bus1=BBT3017017.1.2.0,bus2=BBT3017024.1.2.0,Phases=2,Linecode=BT807_BT807_4_2_3,Length=0.034899000,Units=km
new line.12695411 bus1=BBT3017010.1.2.0,bus2=BBT3017017.1.2.0,Phases=2,Linecode=BT807_BT807_4_2_3,Length=0.033133000,Units=km
new line.12695418 bus1=BBT3017003.1.2.0,bus2=BBT3017010.1.2.0,Phases=2,Linecode=BT518_BT518_7_2_1,Length=0.000501000,Units=km
new line.12695425 bus1=BBT3017010.1.2.0,bus2=BBT3577227.1.2.0,Phases=2,Linecode=BT807_BT807_4_2_3,Length=0.020599000,Units=km
new line.12695446 bus1=BBT3017073.1.2.0,bus2=BBT3017080.1.2.0,Phases=2,Linecode=BT807_BT807_4_2_3,Length=0.044738000,Units=km
new line.12695467 bus1=BBT3017080.1.2.0,bus2=BBT3577262.1.2.0,Phases=2,Linecode=BT807_BT807_4_2_3,Length=0.015659000,Units=km
new line.10323370 bus1=BBT2604584.2.3.0,bus2=BBT2604591.2.3.0,Phases=2,Linecode=BT519_BT519_5_2_1,Length=0.045821000,Units=km
new line.10345357 bus1=BBT2608854.1.2.0,bus2=BBT2608861.1.2.0,Phases=2,Linecode=BT807_BT807_4_2_3,Length=0.047820000,Units=km
new line.10345385 bus1=BBT2608861.1.2.0,bus2=BBT2608868.1.2.0,Phases=2,Linecode=BT807_BT807_4_2_3,Length=0.050029000,Units=km
new line.10345406 bus1=BBT2608868.1.2.0,bus2=BBT22198528.1.2.0,Phases=2,Linecode=BT807_BT807_4_2_3,Length=0.041015000,Units=km
new line.10345560 bus1=BBT2607825.1.2.3.0,bus2=BBT2607832.1.2.3.0,Phases=3,Linecode=BT810_BT810_4_3_4,Length=0.044839000,Units=km
new line.10345567 bus1=BBT2607825.1.2.0,bus2=BBT3912723.1.2.0,Phases=2,Linecode=BT808_BT808_4_2_3,Length=0.039423000,Units=km
new line.10345588 bus1=BBT2607832.1.2.3.0,bus2=BBT3912737.1.2.3.0,Phases=3,Linecode=BT810_BT810_4_3_4,Length=0.045017000,Units=km
new line.10345602 bus1=BBT2607811.1.2.0,bus2=BBT3912751.1.2.0,Phases=2,Linecode=BT808_BT808_4_2_3,Length=0.044794000,Units=km
new line.10345609 bus1=BBT2607811.1.2.0,bus2=BBT3912744.1.2.0,Phases=2,Linecode=BT810_BT810_4_2_4,Length=0.047452000,Units=km
new line.10345672 bus1=BBT2607846.1.2.0,bus2=BBT2607853.1.2.0,Phases=2,Linecode=BT808_BT808_4_2_3,Length=0.026182000,Units=km
new line.10345707 bus1=BBT2607853.1.2.0,bus2=BBT2607860.1.2.0,Phases=2,Linecode=BT808_BT808_4_2_3,Length=0.035027000,Units=km
new line.10345721 bus1=BBT2607860.1.2.0,bus2=BBT2607867.1.2.0,Phases=2,Linecode=BT808_BT808_4_2_3,Length=0.034495000,Units=km
new line.10345798 bus1=BBT2607888.1.2.3.0,bus2=BBT2607895.1.2.3.0,Phases=3,Linecode=BT810_BT810_4_3_4,Length=0.040326000,Units=km
new line.10346078 bus1=BBT2607923.1.2.0,bus2=BBT3765555.1.2.0,Phases=2,Linecode=BT808_BT808_4_2_3,Length=0.027597000,Units=km
new line.10346400 bus1=BBT2607951.1.2.0,bus2=BBT3432922.1.2.0,Phases=2,Linecode=BT808_BT808_4_2_3,Length=0.042958000,Units=km
new line.10346638 bus1=BBT2607958.1.2.3.0,bus2=BBT2607965.1.2.3.0,Phases=3,Linecode=BT810_BT810_4_3_4,Length=0.043846000,Units=km
new line.10346645 bus1=BBT2607958.1.2.3.0,bus2=BBT4220898.1.2.3.0,Phases=3,Linecode=BT803_BT803_4_3_4,Length=0.034451000,Units=km
new line.10693642 bus1=BBT2657252.1.2.0,bus2=BBT2657259.1.2.0,Phases=2,Linecode=BT304_BT304_7_2_1,Length=0.000501000,Units=km
new line.10693880 bus1=BBT2657273.1.0,bus2=BBT2657280.1.0,Phases=1,Linecode=BT816_BT816_4_1_2,Length=0.090083000,Units=km
new line.10702735 bus1=BBT2658253.1.2.0,bus2=BBT2658260.1.2.0,Phases=2,Linecode=BT316_BT316_7_2_1,Length=0.000501000,Units=km
new line.10702826 bus1=BBT2658267.1.2.0,bus2=BBT2658274.1.2.0,Phases=2,Linecode=BT316_BT316_7_2_1,Length=0.000501000,Units=km
new line.10702896 bus1=BBT2658281.1.2.0,bus2=BBT2658288.1.2.0,Phases=2,Linecode=BT316_BT316_7_2_1,Length=0.000501000,Units=km
new line.10702980 bus1=BBT2658344.1.2.0,bus2=BBT2658351.1.2.0,Phases=2,Linecode=BT316_BT316_7_2_1,Length=0.000501000,Units=km
new line.10703029 bus1=BBT2658400.1.2.0,bus2=BBT2658407.1.2.0,Phases=2,Linecode=BT316_BT316_7_2_1,Length=0.000501000,Units=km
new line.10703043 bus1=BBT2658428.1.2.0,bus2=BBT2658435.1.2.0,Phases=2,Linecode=BT316_BT316_7_2_1,Length=0.000501000,Units=km
new line.10703120 bus1=BBT2658470.1.2.0,bus2=BBT2658477.1.2.0,Phases=2,Linecode=BT316_BT316_7_2_1,Length=0.000501000,Units=km
new line.10742425 bus1=BBT4403052.1.2.0,bus2=BBT4403059.1.2.0,Phases=2,Linecode=BT317_BT317_7_2_1,Length=0.000501000,Units=km
new line.11363437 bus1=BBT2745508.1.2.3.0,bus2=BBT2745515.1.2.3.0,Phases=3,Linecode=BT810_BT810_4_3_4,Length=0.031903000,Units=km
new line.11365754 bus1=BBT2746334.1.2.3.0,bus2=BBT1904325.1.2.3.0,Phases=3,Linecode=BT803_BT803_4_3_4,Length=0.006711000,Units=km
new line.11365761 bus1=BBT2746334.1.2.3.0,bus2=BBT2746348.1.2.3.0,Phases=3,Linecode=BT803_BT803_4_3_4,Length=0.008489000,Units=km
new line.11365768 bus1=BBT2746334.1.2.3.0,bus2=BBT2746341.1.2.3.0,Phases=3,Linecode=BT810_BT810_4_3_4,Length=0.033254000,Units=km
new line.12219873 bus1=BBT2901769.1.2.0,bus2=BBT2901776.1.2.0,Phases=2,Linecode=BT521_BT521_7_2_1,Length=0.000501000,Units=km
new line.12243722 bus1=BBT2911107.1.2.0,bus2=BBT2911114.1.2.0,Phases=2,Linecode=BT316_BT316_7_2_1,Length=0.000501000,Units=km
new line.12244562 bus1=BBT2911422.1.2.0,bus2=BBT2911429.1.2.0,Phases=2,Linecode=BT304_BT304_7_2_1,Length=0.000501000,Units=km
new line.12250701 bus1=BBT2912535.1.2.0,bus2=BBT2912542.1.2.0,Phases=2,Linecode=BT317_BT317_7_2_1,Length=0.000501000,Units=km
new line.12255489 bus1=BBT2913193.1.2.0,bus2=BBT2913200.1.2.0,Phases=2,Linecode=BT304_BT304_7_2_1,Length=0.000501000,Units=km
new line.12255496 bus1=BBT2913200.1.2.0,bus2=BBT2913214.1.2.0,Phases=2,Linecode=BT808_BT808_4_2_3,Length=0.040326000,Units=km
new line.12255503 bus1=BBT2913200.1.2.0,bus2=BBT2913207.1.2.0,Phases=2,Linecode=BT808_BT808_4_2_3,Length=0.048783000,Units=km
new line.12255524 bus1=BBT2913214.1.2.0,bus2=BBT2913221.1.2.0,Phases=2,Linecode=BT808_BT808_4_2_3,Length=0.046115000,Units=km
new line.12808258 bus1=BBT3052549.1.2.0,bus2=BBT3052556.1.2.0,Phases=2,Linecode=BT304_BT304_7_2_1,Length=0.000501000,Units=km
new line.12808279 bus1=BBT3052563.1.2.0,bus2=BBT3052570.1.2.0,Phases=2,Linecode=BT316_BT316_7_2_1,Length=0.000501000,Units=km
new line.12814285 bus1=BBT3056847.1.2.3.0,bus2=BBT3056854.1.2.3.0,Phases=3,Linecode=BT810_BT810_4_3_4,Length=0.031902000,Units=km
new line.12814320 bus1=BBT3056833.1.2.3.0,bus2=BBT3056840.1.2.3.0,Phases=3,Linecode=BT810_BT810_4_3_4,Length=0.039714000,Units=km
new line.12814334 bus1=BBT3056826.1.2.3.0,bus2=BBT3056833.1.2.3.0,Phases=3,Linecode=BT810_BT810_4_3_4,Length=0.038224000,Units=km
new line.12814369 bus1=BBT3056819.1.2.3.0,bus2=BBT3056826.1.2.3.0,Phases=3,Linecode=BT803_BT803_4_3_4,Length=0.032662000,Units=km
new line.12814397 bus1=BBT3056812.1.2.3.0,bus2=BBT3056819.1.2.3.0,Phases=3,Linecode=BT803_BT803_4_3_4,Length=0.030491000,Units=km
new line.12814418 bus1=BBT3056749.1.2.3.0,bus2=BBT3056812.1.2.3.0,Phases=3,Linecode=BT803_BT803_4_3_4,Length=0.034726000,Units=km
new line.12814425 bus1=BBT3056742.1.2.3.0,bus2=BBT3056749.1.2.3.0,Phases=3,Linecode=BT803_BT803_4_3_4,Length=0.036249000,Units=km
new line.12814446 bus1=BBT3056658.1.2.3.0,bus2=BBT3056742.1.2.3.0,Phases=3,Linecode=BT803_BT803_4_3_4,Length=0.041125000,Units=km
new line.12814453 bus1=BBT3056651.1.2.3.0,bus2=BBT3056658.1.2.3.0,Phases=3,Linecode=BT518_BT518_7_3_1,Length=0.000501000,Units=km
new line.12814460 bus1=BBT3056658.1.2.3.0,bus2=BBT3056756.1.2.3.0,Phases=3,Linecode=BT803_BT803_4_3_4,Length=0.041125000,Units=km
new line.12814488 bus1=BBT3056756.1.2.3.0,bus2=BBT3056777.1.2.3.0,Phases=3,Linecode=BT803_BT803_4_3_4,Length=0.040376000,Units=km
new line.12814502 bus1=BBT3056777.1.2.3.0,bus2=BBT3056784.1.2.3.0,Phases=3,Linecode=BT803_BT803_4_3_4,Length=0.044705000,Units=km
new line.12814516 bus1=BBT3056791.1.2.3.0,bus2=BBT150118829.1.2.3.0,Phases=3,Linecode=BT810_BT810_4_3_4,Length=0.043948000,Units=km
new line.12814544 bus1=BBT3056798.1.2.3.0,bus2=BBT3056791.1.2.3.0,Phases=3,Linecode=BT810_BT810_4_3_4,Length=0.034726000,Units=km
new line.12814586 bus1=BBT3056805.1.2.3.0,bus2=BBT3056798.1.2.3.0,Phases=3,Linecode=BT810_BT810_4_3_4,Length=0.034726000,Units=km
new line.12831645 bus1=BBT3068425.1.2.3.0,bus2=BBT3068432.1.2.3.0,Phases=3,Linecode=BT803_BT803_4_3_4,Length=0.038963000,Units=km
new line.12831666 bus1=BBT3068418.1.2.3.0,bus2=BBT3068425.1.2.3.0,Phases=3,Linecode=BT803_BT803_4_3_4,Length=0.024196000,Units=km
new line.12842999 bus1=BBT3068411.1.2.3.0,bus2=BBT3068418.1.2.3.0,Phases=3,Linecode=BT803_BT803_4_3_4,Length=0.017007000,Units=km
new line.12843013 bus1=BBT3068362.1.2.3.0,bus2=BBT3068411.1.2.3.0,Phases=3,Linecode=BT803_BT803_4_3_4,Length=0.045194000,Units=km
new line.12843027 bus1=BBT3068355.1.2.3.0,bus2=BBT3068362.1.2.3.0,Phases=3,Linecode=BT803_BT803_4_3_4,Length=0.039372000,Units=km
new line.12843034 bus1=BBT3068348.1.2.3.0,bus2=BBT3068355.1.2.3.0,Phases=3,Linecode=BT521_BT521_7_3_1,Length=0.000501000,Units=km
new line.12843041 bus1=BBT3068355.1.2.3.0,bus2=BBT3068369.1.2.3.0,Phases=3,Linecode=BT803_BT803_4_3_4,Length=0.039372000,Units=km
new line.12843118 bus1=BBT3068390.1.2.3.0,bus2=BBT3068397.1.2.3.0,Phases=3,Linecode=BT516_BT516_7_3_1,Length=0.000501000,Units=km
new line.12843671 bus1=BBT3069363.1.2.0,bus2=BBT3069370.1.2.0,Phases=2,Linecode=BT316_BT316_7_2_1,Length=0.000501000,Units=km
new line.13239962 bus1=BBT3432789.1.2.3.0,bus2=BBT3432796.1.2.3.0,Phases=3,Linecode=BT810_BT810_4_3_4,Length=0.040326000,Units=km
new line.13239990 bus1=BBT3432796.1.2.3.0,bus2=BBT3432803.1.2.3.0,Phases=3,Linecode=BT810_BT810_4_3_4,Length=0.043398000,Units=km
new line.13240046 bus1=BBT3432775.1.2.3.0,bus2=BBT3432782.1.2.3.0,Phases=3,Linecode=BT810_BT810_4_3_4,Length=0.029080000,Units=km
new line.13240067 bus1=BBT3432768.1.2.3.0,bus2=BBT3432775.1.2.3.0,Phases=3,Linecode=BT810_BT810_4_3_4,Length=0.036249000,Units=km
new line.13240123 bus1=BBT3432810.1.3.0,bus2=BBT29004642.1.3.0,Phases=2,Linecode=BT808_BT808_4_2_3,Length=0.030011000,Units=km
new line.13240396 bus1=BBT3432936.2.3.0,bus2=BBT3513121.2.3.0,Phases=2,Linecode=BT808_BT808_4_2_3,Length=0.039840000,Units=km
new line.13240410 bus1=BBT3432943.1.2.0,bus2=BBT4438794.1.2.0,Phases=2,Linecode=BT807_BT807_4_2_3,Length=0.021032000,Units=km
new line.13240522 bus1=BBT3432992.1.2.3.0,bus2=BBT3432999.1.2.3.0,Phases=3,Linecode=BT810_BT810_4_3_4,Length=0.046082000,Units=km
new line.13242370 bus1=BBT3434735.1.2.0,bus2=BBT3434742.1.2.0,Phases=2,Linecode=BT304_BT304_7_2_1,Length=0.000501000,Units=km
new line.13243049 bus1=BBT3434847.1.2.0,bus2=BBT3434854.1.2.0,Phases=2,Linecode=BT316_BT316_7_2_1,Length=0.000501000,Units=km
new line.13243252 bus1=BBT3435197.1.2.3.0,bus2=BBT3435204.1.2.3.0,Phases=3,Linecode=BT307_BT307_7_3_1,Length=0.000501000,Units=km
new line.13244127 bus1=BBT3435358.1.2.0,bus2=BBT3435365.1.2.0,Phases=2,Linecode=BT508_BT508_7_2_1,Length=0.000501000,Units=km
new line.13244225 bus1=BBT3435372.1.2.0,bus2=BBT3435379.1.2.0,Phases=2,Linecode=BT521_BT521_7_2_1,Length=0.000501000,Units=km
new line.13244246 bus1=BBT3435386.1.2.0,bus2=BBT3435393.1.2.0,Phases=2,Linecode=BT518_BT518_7_2_1,Length=0.000501000,Units=km
new line.13244253 bus1=BBT3435393.2.0,bus2=BBT3435414.2.0,Phases=1,Linecode=BT816_BT816_4_1_2,Length=0.039423000,Units=km
new line.13244260 bus1=BBT3435393.1.0,bus2=BBT3435400.1.0,Phases=1,Linecode=BT816_BT816_4_1_2,Length=0.025010000,Units=km
new line.13244323 bus1=BBT3435400.1.0,bus2=BBT3435407.1.0,Phases=1,Linecode=BT816_BT816_4_1_2,Length=0.055103000,Units=km
new line.13245653 bus1=BBT3436905.1.2.0,bus2=BBT3436912.1.2.0,Phases=2,Linecode=BT521_BT521_7_2_1,Length=0.000501000,Units=km
new line.13260696 bus1=BBT3450240.1.2.3.0,bus2=BBT3450247.1.2.3.0,Phases=3,Linecode=BT810_BT810_4_3_4,Length=0.044794000,Units=km
new line.13260717 bus1=BBT3450247.1.2.3.0,bus2=BBT3450254.1.2.3.0,Phases=3,Linecode=BT810_BT810_4_3_4,Length=0.044311000,Units=km
new line.13260745 bus1=BBT3450261.1.2.3.0,bus2=BBT3450268.1.2.3.0,Phases=3,Linecode=BT810_BT810_4_3_4,Length=0.041198000,Units=km
new line.13260766 bus1=BBT3450268.1.2.3.0,bus2=BBT3450275.1.2.3.0,Phases=3,Linecode=BT810_BT810_4_3_4,Length=0.040721000,Units=km
new line.13260787 bus1=BBT3450275.1.2.3.0,bus2=BBT3450282.1.2.3.0,Phases=3,Linecode=BT810_BT810_4_3_4,Length=0.044794000,Units=km
new line.13260836 bus1=BBT3450317.1.2.3.0,bus2=BBT3450324.1.2.3.0,Phases=3,Linecode=BT810_BT810_4_3_4,Length=0.041198000,Units=km
new line.13260850 bus1=BBT3450324.1.2.3.0,bus2=BBT3450331.1.2.3.0,Phases=3,Linecode=BT810_BT810_4_3_4,Length=0.042075000,Units=km
new line.13260871 bus1=BBT3450331.1.2.3.0,bus2=BBT3450338.1.2.3.0,Phases=3,Linecode=BT810_BT810_4_3_4,Length=0.044311000,Units=km
new line.13260892 bus1=BBT3450289.1.2.3.0,bus2=BBT3450296.1.2.3.0,Phases=3,Linecode=BT810_BT810_4_3_4,Length=0.041198000,Units=km
new line.13260913 bus1=BBT3450296.1.2.3.0,bus2=BBT3450303.1.2.3.0,Phases=3,Linecode=BT810_BT810_4_3_4,Length=0.042075000,Units=km
new line.13260920 bus1=BBT3450303.1.2.3.0,bus2=BBT3450310.1.2.3.0,Phases=3,Linecode=BT810_BT810_4_3_4,Length=0.044794000,Units=km
new line.13261991 bus1=BBT3453383.1.2.0,bus2=BBT3453390.1.2.0,Phases=2,Linecode=BT807_BT807_4_2_3,Length=0.048783000,Units=km
new line.13262019 bus1=BBT3453376.1.2.0,bus2=BBT3453383.1.2.0,Phases=2,Linecode=BT807_BT807_4_2_3,Length=0.039840000,Units=km
new line.13262026 bus1=BBT3453376.1.2.0,bus2=BBT3453397.1.2.0,Phases=2,Linecode=BT808_BT808_4_2_3,Length=0.018035000,Units=km
new line.13262040 bus1=BBT3453362.1.2.0,bus2=BBT3453369.1.2.0,Phases=2,Linecode=BT807_BT807_4_2_3,Length=0.038342000,Units=km
new line.13262068 bus1=BBT3453089.1.2.0,bus2=BBT3453362.1.2.0,Phases=2,Linecode=BT807_BT807_4_2_3,Length=0.040721000,Units=km
new line.13262075 bus1=BBT3453082.1.2.0,bus2=BBT3453089.1.2.0,Phases=2,Linecode=BT513_BT513_7_2_1,Length=0.000501000,Units=km
new line.13262082 bus1=BBT3453089.1.2.0,bus2=BBT3453320.1.2.0,Phases=2,Linecode=BT807_BT807_4_2_3,Length=0.031777000,Units=km
new line.13262103 bus1=BBT3453733.1.2.0,bus2=BBT3453740.1.2.0,Phases=2,Linecode=BT808_BT808_4_2_3,Length=0.046082000,Units=km
new line.13262124 bus1=BBT3453278.1.2.0,bus2=BBT3453285.1.2.0,Phases=2,Linecode=BT808_BT808_4_2_3,Length=0.038485000,Units=km
new line.13262131 bus1=BBT3453278.1.2.0,bus2=BBT3453299.1.2.0,Phases=2,Linecode=BT808_BT808_4_2_3,Length=0.046082000,Units=km
new line.13262159 bus1=BBT3453705.1.2.0,bus2=BBT3453761.1.2.0,Phases=2,Linecode=BT808_BT808_4_2_3,Length=0.048319000,Units=km
new line.13262194 bus1=BBT3453698.1.2.0,bus2=BBT3453705.1.2.0,Phases=2,Linecode=BT807_BT807_4_2_3,Length=0.034013000,Units=km
new line.13262208 bus1=BBT3453691.1.2.0,bus2=BBT3453698.1.2.0,Phases=2,Linecode=BT807_BT807_4_2_3,Length=0.033133000,Units=km
new line.13262243 bus1=BBT3453684.1.2.0,bus2=BBT3453691.1.2.0,Phases=2,Linecode=BT807_BT807_4_2_3,Length=0.034013000,Units=km
new line.13262257 bus1=BBT3453684.1.2.0,bus2=BBT3453754.1.2.0,Phases=2,Linecode=BT808_BT808_4_2_3,Length=0.024606000,Units=km
new line.13262271 bus1=BBT3453677.1.2.0,bus2=BBT3453684.1.2.0,Phases=2,Linecode=BT807_BT807_4_2_3,Length=0.038485000,Units=km
new line.13262292 bus1=BBT3453103.1.2.0,bus2=BBT3453677.1.2.0,Phases=2,Linecode=BT807_BT807_4_2_3,Length=0.029541000,Units=km
new line.13262299 bus1=BBT3453096.1.2.0,bus2=BBT3453103.1.2.0,Phases=2,Linecode=BT513_BT513_7_2_1,Length=0.000501000,Units=km
new line.13262306 bus1=BBT3453103.1.2.0,bus2=BBT3453712.1.2.0,Phases=2,Linecode=BT807_BT807_4_2_3,Length=0.031777000,Units=km
new line.13262334 bus1=BBT3453712.1.2.0,bus2=BBT3453719.1.2.0,Phases=2,Linecode=BT807_BT807_4_2_3,Length=0.038485000,Units=km
new line.13262341 bus1=BBT3453712.1.2.0,bus2=BBT3453747.1.2.0,Phases=2,Linecode=BT808_BT808_4_2_3,Length=0.045194000,Units=km
new line.13262362 bus1=BBT3453719.1.2.0,bus2=BBT3453726.1.2.0,Phases=2,Linecode=BT807_BT807_4_2_3,Length=0.034013000,Units=km
new line.13262383 bus1=BBT3453726.1.2.0,bus2=BBT3453733.1.2.0,Phases=2,Linecode=BT807_BT807_4_2_3,Length=0.044738000,Units=km
new line.13262404 bus1=BBT3453243.1.2.0,bus2=BBT3453313.1.2.0,Phases=2,Linecode=BT808_BT808_4_2_3,Length=0.035791000,Units=km
new line.13262453 bus1=BBT3453236.1.2.0,bus2=BBT3453243.1.2.0,Phases=2,Linecode=BT807_BT807_4_2_3,Length=0.034899000,Units=km
new line.13262474 bus1=BBT3453229.1.2.0,bus2=BBT3453236.1.2.0,Phases=2,Linecode=BT807_BT807_4_2_3,Length=0.032662000,Units=km