new line.RML10051776 bus1=BBT1750150.1.2.3.0,bus2=RML1060051776.1.2.3.0,Phases=3,Linecode=CABBTG06_4_3,Length=0.017000000,Units=km
new line.RML10051869 bus1=BBT2394549.1.2.0,bus2=RML1060051869.1.2.0,Phases=2,Linecode=CABBTG04_4_2,Length=0.017000000,Units=km
new line.RML10051894 bus1=BBT49518982.1.2.0,bus2=RML1060051894.1.2.0,Phases=2,Linecode=CABBTG04_4_2,Length=0.017000000,Units=km
new line.RML10052206 bus1=BBT3577206.2.0,bus2=RML1060052206.2.0,Phases=1,Linecode=CABBTG01_4_1,Length=0.008000000,Units=km
new line.RML10052208 bus1=BBT1901238.1.2.3.0,bus2=RML1060052208.1.2.3.0,Phases=3,Linecode=CABBTG06_4_3,Length=0.013000000,Units=km
new line.RML10052210 bus1=BBT1909022.1.2.3.0,bus2=RML1060052210.1.2.3.0,Phases=3,Linecode=CABBTG06_4_3,Length=0.008000000,Units=km
new line.RML10052216 bus1=BBT1740735.1.2.0,bus2=RML1060052216.1.2.0,Phases=2,Linecode=CABBTG05_4_2,Length=0.025000000,Units=km
new line.RML10052234 bus1=BBT3450324.1.0,bus2=RML1060052234.1.0,Phases=1,Linecode=CABBTG02_4_1,Length=0.017000000,Units=km
new line.RML10052237 bus1=BBT4004276.1.2.0,bus2=RML1060052237.1.2.0,Phases=2,Linecode=CABBTG05_4_2,Length=0.017000000,Units=km
new line.RML10052247 bus1=BBT28948985.1.2.3.0,bus2=RML1060052247.1.2.3.0,Phases=3,Linecode=CABBTG08_4_3,Length=0.017000000,Units=km
new line.RML10052254 bus1=BBT1902414.1.0,bus2=RML1060052254.1.0,Phases=1,Linecode=CABBTG02_4_1,Length=0.027000000,Units=km
new line.RML10052256 bus1=BBT1907818.2.0,bus2=RML1060052256.2.0,Phases=1,Linecode=CABBTG02_4_1,Length=0.018000000,Units=km
new line.RML10052267 bus1=BBT1843621.1.0,bus2=RML1060052267.1.0,Phases=1,Linecode=CABBTG01_4_1,Length=0.017000000,Units=km
new line.RML10052298 bus1=BBT1888596.1.3.0,bus2=RML1060052298.1.3.0,Phases=2,Linecode=CABBTG05_4_2,Length=0.018000000,Units=km
new line.RML10052302 bus1=BBT2220704.2.0,bus2=RML1060052302.2.0,Phases=1,Linecode=CABBTG01_4_1,Length=0.006000000,Units=km
new line.RML10052318 bus1=BBT4350741.1.2.0,bus2=RML1060052318.1.2.0,Phases=2,Linecode=CABBTG05_4_2,Length=0.023000000,Units=km
new line.RML10052323 bus1=BBT1880770.1.2.0,bus2=RML1060052323.1.2.0,Phases=2,Linecode=CABBTG05_4_2,Length=0.020000000,Units=km
new line.RML10052325 bus1=BBT3432810.1.0,bus2=RML1060052325.1.0,Phases=1,Linecode=CABBTG02_4_1,Length=0.020000000,Units=km
new line.RML10052419 bus1=BBT1773537.1.0,bus2=RML1060052419.1.0,Phases=1,Linecode=CABBTG01_4_1,Length=0.017000000,Units=km
new line.RML10052486 bus1=BBT137420369.1.2.0,bus2=RML1060052486.1.2.0,Phases=2,Linecode=CABBTG05_4_2,Length=0.024000000,Units=km
new line.RML10052494 bus1=BBT4005242.1.2.0,bus2=RML1060052494.1.2.0,Phases=2,Linecode=CABBTG05_4_2,Length=0.017000000,Units=km
new line.RML10052508 bus1=BBT1903996.2.0,bus2=RML1060052508.2.0,Phases=1,Linecode=CABBTG02_4_1,Length=0.017000000,Units=km
new line.RML10052511 bus1=BBT1883465.1.0,bus2=RML1060052511.1.0,Phases=1,Linecode=CABBTG02_4_1,Length=0.017000000,Units=km
new line.RML10052516 bus1=BBT3766955.1.0,bus2=RML1060052516.1.0,Phases=1,Linecode=CABBTG02_4_1,Length=0.017000000,Units=km
new line.RML10053130 bus1=BBT2668515.1.2.3.0,bus2=RML1060053130.1.2.3.0,Phases=3,Linecode=CABBTG06_4_3,Length=0.012000000,Units=km
new line.RML10053144 bus1=BBT52836751.1.2.0,bus2=RML1060053144.1.2.0,Phases=2,Linecode=CABBT811_4_2,Length=0.028000000,Units=km
new line.RML10053149 bus1=BBT1879370.1.0,bus2=RML1060053149.1.0,Phases=1,Linecode=CABBTG02_4_1,Length=0.021000000,Units=km
new line.RML10053152 bus1=BBT1774090.1.2.3.0,bus2=RML1060053152.1.2.3.0,Phases=3,Linecode=CABBTG06_4_3,Length=0.028000000,Units=km
new line.RML10053164 bus1=BBT1897724.2.3.0,bus2=RML1060053164.2.3.0,Phases=2,Linecode=CABBTG05_4_2,Length=0.017000000,Units=km
new line.RML10053239 bus1=BBT54282713.1.2.0,bus2=RML1060053239.1.2.0,Phases=2,Linecode=CABBTG05_4_2,Length=0.017000000,Units=km
new line.RML10053247 bus1=BBT4006187.1.2.0,bus2=RML1060053247.1.2.0,Phases=2,Linecode=CABBT815_4_2,Length=0.013000000,Units=km
new line.RML10053259 bus1=BBT1885509.2.3.0,bus2=RML1060053259.2.3.0,Phases=2,Linecode=CABBT811_4_2,Length=0.019000000,Units=km
new line.RML10053264 bus1=BBT3912786.2.0,bus2=RML1060053264.2.0,Phases=1,Linecode=CABBTG02_4_1,Length=0.025000000,Units=km
new line.RML10053278 bus1=BBT54281138.2.0,bus2=RML1060053278.2.0,Phases=1,Linecode=CABBTG01_4_1,Length=0.015000000,Units=km
new line.RML10053280 bus1=BBT1740539.1.2.0,bus2=RML1060053280.1.2.0,Phases=2,Linecode=CABBTG05_4_2,Length=0.013000000,Units=km
new line.RML10053288 bus1=BBT138385816.1.0,bus2=RML1060053288.1.0,Phases=1,Linecode=CABBTG02_4_1,Length=0.006000000,Units=km
new line.RML10053390 bus1=BBT4005984.1.2.0,bus2=RML1060053390.1.2.0,Phases=2,Linecode=CABBTG05_4_2,Length=0.013000000,Units=km
new line.RML10053398 bus1=BBT117205797.1.0,bus2=RML1060053398.1.0,Phases=1,Linecode=CABBTG02_4_1,Length=0.011000000,Units=km
new line.RML10053400 bus1=BBT117205384.2.0,bus2=RML1060053400.2.0,Phases=1,Linecode=CABBTG02_4_1,Length=0.013000000,Units=km
new line.RML10053403 bus1=BBT3246260.1.0,bus2=RML1060053403.1.0,Phases=1,Linecode=CABBTG01_4_1,Length=0.015000000,Units=km
new line.RML10053409 bus1=BBT54267789.1.2.0,bus2=RML1060053409.1.2.0,Phases=2,Linecode=CABBTG05_4_2,Length=0.018000000,Units=km
new line.RML10053411 bus1=BBT1868030.2.3.0,bus2=RML1060053411.2.3.0,Phases=2,Linecode=CABBTG05_4_2,Length=0.017000000,Units=km
new line.RML10053412 bus1=BBT1877466.1.2.0,bus2=RML1060053412.1.2.0,Phases=2,Linecode=CABBTG05_4_2,Length=0.020000000,Units=km
new line.RML10053428 bus1=BBT2220718.1.2.0,bus2=RML1060053428.1.2.0,Phases=2,Linecode=CABBTG05_4_2,Length=0.017000000,Units=km
new line.RML10053430 bus1=BBT4006061.1.2.0,bus2=RML1060053430.1.2.0,Phases=2,Linecode=CABBTG05_4_2,Length=0.008000000,Units=km
new line.RML10053433 bus1=BBT3432943.2.0,bus2=RML1060053433.2.0,Phases=1,Linecode=CABBTG01_4_1,Length=0.015000000,Units=km
new line.RML10053506 bus1=BBT51880236.1.0,bus2=RML1060053506.1.0,Phases=1,Linecode=CABBTG01_4_1,Length=0.015000000,Units=km
new line.RML10053507 bus1=BBT1890108.1.3.0,bus2=RML1060053507.1.3.0,Phases=2,Linecode=CABBTG05_4_2,Length=0.017000000,Units=km
new line.RML10053522 bus1=BBT1907349.1.2.0,bus2=RML1060053522.1.2.0,Phases=2,Linecode=CABBTG05_4_2,Length=0.015000000,Units=km
new line.RML10053545 bus1=BBT54301949.1.2.0,bus2=RML1060053545.1.2.0,Phases=2,Linecode=CABBTG05_4_2,Length=0.017000000,Units=km
new line.RML10053563 bus1=BBT138385781.1.0,bus2=RML1060053563.1.0,Phases=1,Linecode=CABBTG01_4_1,Length=0.013000000,Units=km
new line.RML10053646 bus1=BBT1906677.2.0,bus2=RML1060053646.2.0,Phases=1,Linecode=CABBTG02_4_1,Length=0.008000000,Units=km
new line.RML10053663 bus1=BBT1897976.1.2.3.0,bus2=RML1060053663.1.2.3.0,Phases=3,Linecode=CABBTG06_4_3,Length=0.019000000,Units=km
new line.RML10053680 bus1=BBT3769356.1.0,bus2=RML1060053680.1.0,Phases=1,Linecode=CABBTG02_4_1,Length=0.012000000,Units=km
new line.RML10053690 bus1=BBT1733973.3.0,bus2=RML1060053690.3.0,Phases=1,Linecode=CABBTG02_4_1,Length=0.022000000,Units=km
new line.RML10053691 bus1=BBT1905557.1.2.0,bus2=RML1060053691.1.2.0,Phases=2,Linecode=CABBTG05_4_2,Length=0.008000000,Units=km
new line.RML10053693 bus1=BBT1873840.1.2.3.0,bus2=RML1060053693.1.2.3.0,Phases=3,Linecode=CABBTG06_4_3,Length=0.021000000,Units=km
new line.RML10043339 bus1=BBT3439054.1.2.0,bus2=RML1060043339.1.2.0,Phases=2,Linecode=CABBTG05_4_2,Length=0.017000000,Units=km
new line.RML10043341 bus1=BBT1895078.1.0,bus2=RML1060043341.1.0,Phases=1,Linecode=CABBTG01_4_1,Length=0.017000000,Units=km
new line.RML10048646 bus1=BBT435837.1.2.0,bus2=RML1060048646.1.2.0,Phases=2,Linecode=CABBTG05_4_2,Length=0.017000000,Units=km
new line.RML10049684 bus1=BBT1892782.1.2.0,bus2=RML1060049684.1.2.0,Phases=2,Linecode=CABBTG05_4_2,Length=0.017000000,Units=km
new line.RML10049698 bus1=BBT4350601.1.2.0,bus2=RML1060049698.1.2.0,Phases=2,Linecode=CABBTG05_4_2,Length=0.017000000,Units=km
new line.RML10049701 bus1=BBT1909253.1.0,bus2=RML1060049701.1.0,Phases=1,Linecode=CABBTG02_4_1,Length=0.017000000,Units=km
new line.RML10049709 bus1=BBT4438794.2.0,bus2=RML1060049709.2.0,Phases=1,Linecode=CABBTG02_4_1,Length=0.017000000,Units=km
new line.RML10049712 bus1=BBT1881442.1.3.0,bus2=RML1060049712.1.3.0,Phases=2,Linecode=CABBT801_4_2,Length=0.017000000,Units=km
new line.RML10049713 bus1=BBT40425114.1.2.0,bus2=RML1060049713.1.2.0,Phases=2,Linecode=CABBTG05_4_2,Length=0.017000000,Units=km
new line.RML10049717 bus1=BBT1867491.1.2.0,bus2=RML1060049717.1.2.0,Phases=2,Linecode=CABBTG05_4_2,Length=0.017000000,Units=km
new line.RML10049771 bus1=BBT4307068.3.0,bus2=RML1060049771.3.0,Phases=1,Linecode=CABBTG02_4_1,Length=0.017000000,Units=km
new line.RML10049815 bus1=BBT4220898.2.3.0,bus2=RML1060049815.2.3.0,Phases=2,Linecode=CABBTG05_4_2,Length=0.017000000,Units=km
new line.RML10049822 bus1=BBT54267789.1.0,bus2=RML1060049822.1.0,Phases=1,Linecode=CABBTG02_4_1,Length=0.017000000,Units=km
new line.RML10049830 bus1=BBT1882723.1.2.3.0,bus2=RML1060049830.1.2.3.0,Phases=3,Linecode=CABBTG07_4_3,Length=0.017000000,Units=km
new line.RML10123266 bus1=BBT3453229.1.2.0,bus2=RML1060123266.1.2.0,Phases=2,Linecode=CABBTG05_4_2,Length=0.017000000,Units=km
new line.RML10123281 bus1=BBT1900580.1.2.3.0,bus2=RML1060123281.1.2.3.0,Phases=3,Linecode=CABBTG07_4_3,Length=0.017000000,Units=km
new line.RML10123363 bus1=BBT4005270.1.2.0,bus2=RML1060123363.1.2.0,Phases=2,Linecode=CABBTG05_4_2,Length=0.017000000,Units=km
new line.RML10123412 bus1=BBT1903814.1.0,bus2=RML1060123412.1.0,Phases=1,Linecode=CABBTG01_4_1,Length=0.017000000,Units=km
new line.RML10123540 bus1=BBT1886482.1.2.0,bus2=RML1060123540.1.2.0,Phases=2,Linecode=CABBTG05_4_2,Length=0.017000000,Units=km
new line.RML10123627 bus1=BBT1901665.1.2.0,bus2=RML1060123627.1.2.0,Phases=2,Linecode=CABBTG05_4_2,Length=0.017000000,Units=km
new line.RML10124016 bus1=BBT1886741.1.2.0,bus2=RML1060124016.1.2.0,Phases=2,Linecode=CABBTG05_4_2,Length=0.017000000,Units=km
new line.RML10124027 bus1=BBT1893363.1.2.3.0,bus2=RML1060124027.1.2.3.0,Phases=3,Linecode=CABBTG07_4_3,Length=0.017000000,Units=km
new line.RML10124038 bus1=BBT1890304.1.0,bus2=RML1060124038.1.0,Phases=1,Linecode=CABBTG01_4_1,Length=0.017000000,Units=km
new line.RML10124069 bus1=BBT1876871.1.2.0,bus2=RML1060124069.1.2.0,Phases=2,Linecode=CABBTG05_4_2,Length=0.017000000,Units=km
new line.RML10124082 bus1=BBT1878761.1.2.3.0,bus2=RML1060124082.1.2.3.0,Phases=3,Linecode=CABBTG06_4_3,Length=0.017000000,Units=km
new line.RML10124501 bus1=BBT1884557.2.3.0,bus2=RML1060124501.2.3.0,Phases=2,Linecode=CABBTG05_4_2,Length=0.017000000,Units=km
new line.RML10124830 bus1=BBT2898682.3.0,bus2=RML1060124830.3.0,Phases=1,Linecode=CABBTG01_4_1,Length=0.017000000,Units=km
new line.RML10124850 bus1=BBT1872930.1.3.0,bus2=RML1060124850.1.3.0,Phases=2,Linecode=CABBTG05_4_2,Length=0.017000000,Units=km
new line.RML10124891 bus1=BBT1883843.2.3.0,bus2=RML1060124891.2.3.0,Phases=2,Linecode=CABBTG05_4_2,Length=0.017000000,Units=km
new line.RML10124929 bus1=BBT1833212.2.3.0,bus2=RML1060124929.2.3.0,Phases=2,Linecode=CABBTG05_4_2,Length=0.017000000,Units=km
new line.RML10124952 bus1=BBT3453320.1.2.0,bus2=RML1060124952.1.2.0,Phases=2,Linecode=CABBTG05_4_2,Length=0.017000000,Units=km
new line.RML10124976 bus1=BBT1867337.1.2.0,bus2=RML1060124976.1.2.0,Phases=2,Linecode=CABBTG05_4_2,Length=0.017000000,Units=km
new line.RML10125003 bus1=BBT135017598.1.2.3.0,bus2=RML1060125003.1.2.3.0,Phases=3,Linecode=CABBTG06_4_3,Length=0.017000000,Units=km
new line.RML10125125 bus1=BBT1888001.1.2.3.0,bus2=RML1060125125.1.2.3.0,Phases=3,Linecode=CABBTG10_4_3,Length=0.017000000,Units=km
new line.RML10125126 bus1=BBT1874372.1.2.3.0,bus2=RML1060125126.1.2.3.0,Phases=3,Linecode=CABBTG06_4_3,Length=0.017000000,Units=km
new line.RML10125151 bus1=BBT149692064.1.2.0,bus2=RML1060125151.1.2.0,Phases=2,Linecode=CABBTG05_4_2,Length=0.019000000,Units=km
new line.RML10125194 bus1=BBT1897031.1.0,bus2=RML1060125194.1.0,Phases=1,Linecode=CABBTG01_4_1,Length=0.017000000,Units=km
new line.RML10125426 bus1=BBT1879734.2.3.0,bus2=RML1060125426.2.3.0,Phases=2,Linecode=CABBTG05_4_2,Length=0.017000000,Units=km
new line.RML10125501 bus1=BBT1887392.2.3.0,bus2=RML1060125501.2.3.0,Phases=2,Linecode=CABBTG05_4_2,Length=0.017000000,Units=km
new line.RML10125611 bus1=BBT1908910.1.2.3.0,bus2=RML1060125611.1.2.3.0,Phases=3,Linecode=CABBTG06_4_3,Length=0.017000000,Units=km
new line.RML10125716 bus1=BBT1887434.1.3.0,bus2=RML1060125716.1.3.0,Phases=2,Linecode=CABBTG05_4_2,Length=0.017000000,Units=km
new line.RML10125738 bus1=BBT1901749.1.2.0,bus2=RML1060125738.1.2.0,Phases=2,Linecode=CABBTG05_4_2,Length=0.017000000,Units=km
new line.RML10125879 bus1=BBT1887399.1.2.0,bus2=RML1060125879.1.2.0,Phases=2,Linecode=CABBTG05_4_2,Length=0.017000000,Units=km
new line.RML10126169 bus1=BBT1929203.1.0,bus2=RML1060126169.1.0,Phases=1,Linecode=CABBTG01_4_1,Length=0.017000000,Units=km
new line.RML10126176 bus1=BBT1906642.1.2.0,bus2=RML1060126176.1.2.0,Phases=2,Linecode=CABBTG05_4_2,Length=0.017000000,Units=km
new line.RML10126217 bus1=BBT1875135.1.2.0,bus2=RML1060126217.1.2.0,Phases=2,Linecode=CABBTG05_4_2,Length=0.017000000,Units=km
new line.RML10126231 bus1=BBT1903443.2.0,bus2=RML1060126231.2.0,Phases=1,Linecode=CABBTG01_4_1,Length=0.017000000,Units=km
new line.RML10126355 bus1=BBT1886881.2.0,bus2=RML1060126355.2.0,Phases=1,Linecode=CABBTG01_4_1,Length=0.017000000,Units=km
new line.RML10126614 bus1=BBT3766598.1.0,bus2=RML1060126614.1.0,Phases=1,Linecode=CABBTG02_4_1,Length=0.016000000,Units=km
new line.RML10126646 bus1=BBT1844174.1.0,bus2=RML1060126646.1.0,Phases=1,Linecode=CABBTG01_4_1,Length=0.017000000,Units=km
new line.RML10171140 bus1=BBT3770413.1.2.0,bus2=RML1060171140.1.2.0,Phases=2,Linecode=CABBTG05_4_2,Length=0.017000000,Units=km
new line.RML10171147 bus1=BBT2273519.1.2.0,bus2=RML1060171147.1.2.0,Phases=2,Linecode=CABBTG05_4_2,Length=0.017000000,Units=km
new line.RML10172012 bus1=BBT2129823.1.2.0,bus2=RML1060172012.1.2.0,Phases=2,Linecode=CABBTG05_4_2,Length=0.017000000,Units=km
new line.RML10172015 bus1=BBT4221332.1.2.0,bus2=RML1060172015.1.2.0,Phases=2,Linecode=CABBTG05_4_2,Length=0.017000000,Units=km
new line.RML10173729 bus1=BBT3766955.2.0,bus2=RML1060173729.2.0,Phases=1,Linecode=CABBTG01_4_1,Length=0.017000000,Units=km
new line.RML10173736 bus1=BBT1880812.1.2.0,bus2=RML1060173736.1.2.0,Phases=2,Linecode=CABBTG05_4_2,Length=0.017000000,Units=km
new line.RML10173739 bus1=BBT1733035.1.2.3.0,bus2=RML1060173739.1.2.3.0,Phases=3,Linecode=CABBTG10_4_3,Length=0.017000000,Units=km
new line.RML10075640 bus1=BBT1883850.1.2.0,bus2=RML1060075640.1.2.0,Phases=2,Linecode=CABBTG05_4_2,Length=0.017000000,Units=km
new line.RML10075641 bus1=BBT2272728.1.2.0,bus2=RML1060075641.1.2.0,Phases=2,Linecode=CABBTG05_4_2,Length=0.017000000,Units=km
new line.RML10131167 bus1=BBT148489191.1.0,bus2=RML1060131167.1.0,Phases=1,Linecode=CABBTG01_4_1,Length=0.017000000,Units=km
new line.RML10131613 bus1=BBT148959521.1.2.0,bus2=RML1060131613.1.2.0,Phases=2,Linecode=CABBTG05_4_2,Length=0.021000000,Units=km
new line.RML10131785 bus1=BBT149324452.1.2.0,bus2=RML1060131785.1.2.0,Phases=2,Linecode=CABBTG05_4_2,Length=0.018000000,Units=km
new line.RML10131791 bus1=BBT149324452.1.2.0,bus2=RML1060131791.1.2.0,Phases=2,Linecode=CABBTG05_4_2,Length=0.018000000,Units=km
new line.RML10137019 bus1=BBT4005270.1.2.0,bus2=RML1060137019.1.2.0,Phases=2,Linecode=CABBTG05_4_2,Length=0.025000000,Units=km
new line.RML10138543 bus1=BBT135001141.1.2.0,bus2=RML1060138543.1.2.0,Phases=2,Linecode=CABBTG05_4_2,Length=0.015000000,Units=km
new line.RML10138576 bus1=BBT40914512.1.0,bus2=RML1060138576.1.0,Phases=1,Linecode=CABBTG02_4_1,Length=0.030000000,Units=km
new line.RML10138586 bus1=BBT1877473.1.0,bus2=RML1060138586.1.0,Phases=1,Linecode=CABBTG02_4_1,Length=0.021000000,Units=km
new line.RML10188391 bus1=BBT3453691.1.2.0,bus2=RML1060188391.1.2.0,Phases=2,Linecode=CABBTG05_4_2,Length=0.017000000,Units=km
new line.RML10188393 bus1=BBT3453089.1.2.0,bus2=RML1060188393.1.2.0,Phases=2,Linecode=CABBTG05_4_2,Length=0.017000000,Units=km
new line.RML10188395 bus1=BBT3453341.2.0,bus2=RML1060188395.2.0,Phases=1,Linecode=CABBTG01_4_1,Length=0.017000000,Units=km
new line.RML10188397 bus1=BBT3453075.1.2.0,bus2=RML1060188397.1.2.0,Phases=2,Linecode=CABBTG05_4_2,Length=0.017000000,Units=km
new line.RML10188405 bus1=BBT4005249.1.2.0,bus2=RML1060188405.1.2.0,Phases=2,Linecode=CABBTG05_4_2,Length=0.017000000,Units=km
new line.RML10188406 bus1=BBT4006131.2.0,bus2=RML1060188406.2.0,Phases=1,Linecode=CABBTG01_4_1,Length=0.017000000,Units=km
new line.RML10188409 bus1=BBT4004696.1.2.0,bus2=RML1060188409.1.2.0,Phases=2,Linecode=CABBTG05_4_2,Length=0.017000000,Units=km
new line.RML10188410 bus1=BBT3450324.1.3.0,bus2=RML1060188410.1.3.0,Phases=2,Linecode=CABBTG05_4_2,Length=0.017000000,Units=km
new line.RML10189713 bus1=BBT1889422.1.0,bus2=RML1060189713.1.0,Phases=1,Linecode=CABBTG01_4_1,Length=0.017000000,Units=km
new line.RML10191344 bus1=BBT114290976.1.2.0,bus2=RML1060191344.1.2.0,Phases=2,Linecode=CABBTG05_4_2,Length=0.017000000,Units=km
new line.RML10191350 bus1=BBT4523732.1.2.0,bus2=RML1060191350.1.2.0,Phases=2,Linecode=CABBTG05_4_2,Length=0.017000000,Units=km
new line.RML10191796 bus1=BBT4005991.1.2.0,bus2=RML1060191796.1.2.0,Phases=2,Linecode=CABBTG05_4_2,Length=0.017000000,Units=km
new line.RML10192113 bus1=BBT1842529.1.2.0,bus2=RML1060192113.1.2.0,Phases=2,Linecode=CABBTG05_4_2,Length=0.017000000,Units=km
new line.RML10192125 bus1=BBT1894441.2.3.0,bus2=RML1060192125.2.3.0,Phases=2,Linecode=CABBTG05_4_2,Length=0.017000000,Units=km
new line.RML10192180 bus1=BBT1843628.1.0,bus2=RML1060192180.1.0,Phases=1,Linecode=CABBTG01_4_1,Length=0.017000000,Units=km
new line.RML10192183 bus1=BBT1843670.1.0,bus2=RML1060192183.1.0,Phases=1,Linecode=CABBTG01_4_1,Length=0.017000000,Units=km
new line.RML10192216 bus1=BBT1888099.1.2.0,bus2=RML1060192216.1.2.0,Phases=2,Linecode=CABBTG05_4_2,Length=0.017000000,Units=km
new line.RML10192230 bus1=BBT54303419.2.0,bus2=RML1060192230.2.0,Phases=1,Linecode=CABBTG02_4_1,Length=0.017000000,Units=km
new line.RML10192234 bus1=BBT54306037.1.2.0,bus2=RML1060192234.1.2.0,Phases=2,Linecode=CABBTG05_4_2,Length=0.017000000,Units=km
new line.RML10192262 bus1=BBT54282727.1.2.0,bus2=RML1060192262.1.2.0,Phases=2,Linecode=CABBTG05_4_2,Length=0.017000000,Units=km
new line.RML10192264 bus1=BBT54282713.1.2.0,bus2=RML1060192264.1.2.0,Phases=2,Linecode=CABBTG05_4_2,Length=0.017000000,Units=km
new line.RML10192265 bus1=BBT54287389.1.2.0,bus2=RML1060192265.1.2.0,Phases=2,Linecode=CABBTG05_4_2,Length=0.017000000,Units=km
new line.RML10192266 bus1=BBT2010214.2.0,bus2=RML1060192266.2.0,Phases=1,Linecode=CABBTG02_4_1,Length=0.017000000,Units=km
new line.RML10192271 bus1=BBT1883164.1.2.3.0,bus2=RML1060192271.1.2.3.0,Phases=3,Linecode=CABBTG10_4_3,Length=0.039,Units=km
new line.RML10192303 bus1=BBT54287389.1.2.0,bus2=RML1060192303.1.2.0,Phases=2,Linecode=CABBTG05_4_2,Length=0.017000000,Units=km
new line.RML10192305 bus1=BBT54302628.1.0,bus2=RML1060192305.1.0,Phases=1,Linecode=CABBTG02_4_1,Length=0.017000000,Units=km
new line.RML10192329 bus1=BBT54284281.1.0,bus2=RML1060192329.1.0,Phases=1,Linecode=CABBTG01_4_1,Length=0.017000000,Units=km
new line.RML10192330 bus1=BBT54284281.1.2.0,bus2=RML1060192330.1.2.0,Phases=2,Linecode=CABBTG05_4_2,Length=0.017000000,Units=km
new line.RML10192331 bus1=BBT54284281.1.0,bus2=RML1060192331.1.0,Phases=1,Linecode=CABBTG02_4_1,Length=0.017000000,Units=km
new line.RML10192343 bus1=BBT54282713.1.2.0,bus2=RML1060192343.1.2.0,Phases=2,Linecode=CABBTG13_4_2,Length=0.017000000,Units=km
new line.RML10192345 bus1=BBT1873322.1.2.0,bus2=RML1060192345.1.2.0,Phases=2,Linecode=CABBTG05_4_2,Length=0.017000000,Units=km
new line.RML10192346 bus1=BBT1874197.1.2.0,bus2=RML1060192346.1.2.0,Phases=2,Linecode=CABBTG05_4_2,Length=0.017000000,Units=km
new line.RML10192349 bus1=BBT1875702.1.2.0,bus2=RML1060192349.1.2.0,Phases=2,Linecode=CABBTG05_4_2,Length=0.017000000,Units=km
new line.RML10192354 bus1=BBT1875681.1.2.0,bus2=RML1060192354.1.2.0,Phases=2,Linecode=CABBTG05_4_2,Length=0.017000000,Units=km
new line.RML10192356 bus1=BBT1874351.2.3.0,bus2=RML1060192356.2.3.0,Phases=2,Linecode=CABBTG05_4_2,Length=0.017000000,Units=km
new line.RML10192357 bus1=BBT1874337.1.2.3.0,bus2=RML1060192357.1.2.3.0,Phases=3,Linecode=CABBTG06_4_3,Length=0.017000000,Units=km
new line.RML10192359 bus1=BBT1874239.1.2.0,bus2=RML1060192359.1.2.0,Phases=2,Linecode=CABBTG05_4_2,Length=0.017000000,Units=km
new line.RML10192360 bus1=BBT1873847.1.2.3.0,bus2=RML1060192360.1.2.3.0,Phases=3,Linecode=CABBTG06_4_3,Length=0.017000000,Units=km
new line.RML10192364 bus1=BBT1887399.1.0,bus2=RML1060192364.1.0,Phases=1,Linecode=CABBTG02_4_1,Length=0.017000000,Units=km
new line.RML10192378 bus1=BBT1886685.2.3.0,bus2=RML1060192378.2.3.0,Phases=2,Linecode=CABBT811_4_2,Length=0.017000000,Units=km
new line.RML10192387 bus1=BBT1882751.1.2.3.0,bus2=RML1060192387.1.2.3.0,Phases=3,Linecode=CABBTG06_4_3,Length=0.017000000,Units=km
new line.RML10192404 bus1=BBT1893482.1.2.0,bus2=RML1060192404.1.2.0,Phases=2,Linecode=CABBTG05_4_2,Length=0.017000000,Units=km
new line.RML10192411 bus1=BBT1878887.1.2.0,bus2=RML1060192411.1.2.0,Phases=2,Linecode=CABBTG05_4_2,Length=0.017000000,Units=km
new line.RML10192419 bus1=BBT1878887.1.2.0,bus2=RML1060192419.1.2.0,Phases=2,Linecode=CABBTG05_4_2,Length=0.017000000,Units=km
new line.RML10192424 bus1=BBT4523676.1.2.0,bus2=RML1060192424.1.2.0,Phases=2,Linecode=CABBTG05_4_2,Length=0.025000000,Units=km
new line.RML10192428 bus1=BBT149639925.1.0,bus2=RML1060192428.1.0,Phases=1,Linecode=CABBTG02_4_1,Length=0.017000000,Units=km
new line.RML10192434 bus1=BBT149639925.2.0,bus2=RML1060192434.2.0,Phases=1,Linecode=CABBTG02_4_1,Length=0.017000000,Units=km
new line.RML10192440 bus1=BBT1907195.1.2.0,bus2=RML1060192440.1.2.0,Phases=2,Linecode=CABBTG05_4_2,Length=0.017000000,Units=km
new line.RML10192476 bus1=BBT2455106.2.0,bus2=RML1060192476.2.0,Phases=1,Linecode=CABBTG01_4_1,Length=0.017000000,Units=km
new line.RML10192482 bus1=BBT32779539.1.2.0,bus2=RML1060192482.1.2.0,Phases=2,Linecode=CABBTG05_4_2,Length=0.017000000,Units=km
new line.RML10192489 bus1=BBT32778419.1.0,bus2=RML1060192489.1.0,Phases=1,Linecode=CABBTG02_4_1,Length=0.017000000,Units=km
new line.RML10192491 bus1=BBT1872930.2.3.0,bus2=RML1060192491.2.3.0,Phases=2,Linecode=CABBTG05_4_2,Length=0.017000000,Units=km
new line.RML10192493 bus1=BBT1878474.1.2.0,bus2=RML1060192493.1.2.0,Phases=2,Linecode=CABBTG05_4_2,Length=0.017000000,Units=km
new line.RML10192495 bus1=BBT40425114.1.2.0,bus2=RML1060192495.1.2.0,Phases=2,Linecode=CABBTG05_4_2,Length=0.017000000,Units=km
new line.RML10192498 bus1=BBT1881666.3.0,bus2=RML1060192498.3.0,Phases=1,Linecode=CABBTG01_4_1,Length=0.017000000,Units=km
new line.RML10192499 bus1=BBT1880665.1.3.0,bus2=RML1060192499.1.3.0,Phases=2,Linecode=CABBTG05_4_2,Length=0.017000000,Units=km
new line.RML10192503 bus1=BBT114287357.1.3.0,bus2=RML1060192503.1.3.0,Phases=2,Linecode=CABBTG05_4_2,Length=0.017000000,Units=km
new line.RML10192504 bus1=BBT114293146.1.2.0,bus2=RML1060192504.1.2.0,Phases=2,Linecode=CABBTG05_4_2,Length=0.017000000,Units=km
new line.RML10192506 bus1=BBT40433241.1.2.0,bus2=RML1060192506.1.2.0,Phases=2,Linecode=CABBTG05_4_2,Length=0.017000000,Units=km
new line.RML10192509 bus1=BBT1866966.2.3.0,bus2=RML1060192509.2.3.0,Phases=2,Linecode=CABBTG05_4_2,Length=0.017000000,Units=km
new line.RML10192515 bus1=BBT1899369.1.2.0,bus2=RML1060192515.1.2.0,Phases=2,Linecode=CABBTG05_4_2,Length=0.017000000,Units=km
new line.RML10192522 bus1=BBT1897794.1.0,bus2=RML1060192522.1.0,Phases=1,Linecode=CABBTG01_4_1,Length=0.017000000,Units=km
new line.RML10192527 bus1=BBT4221402.1.2.0,bus2=RML1060192527.1.2.0,Phases=2,Linecode=CABBTG05_4_2,Length=0.017000000,Units=km
new line.RML10192530 bus1=BBT4221535.1.2.0,bus2=RML1060192530.1.2.0,Phases=2,Linecode=CABBTG05_4_2,Length=0.017000000,Units=km
new line.RML10192534 bus1=BBT1907993.2.0,bus2=RML1060192534.2.0,Phases=1,Linecode=CABBTG02_4_1,Length=0.017000000,Units=km
new line.RML10192536 bus1=BBT1890542.1.2.0,bus2=RML1060192536.1.2.0,Phases=2,Linecode=CABBTG05_4_2,Length=0.017000000,Units=km
new line.RML10192539 bus1=BBT1890458.1.2.3.0,bus2=RML1060192539.1.2.3.0,Phases=3,Linecode=CABBTG06_4_3,Length=0.017000000,Units=km
new line.RML10192542 bus1=BBT4523669.1.2.0,bus2=RML1060192542.1.2.0,Phases=2,Linecode=CABBTG05_4_2,Length=0.017000000,Units=km
new line.RML10192548 bus1=BBT3234794.2.3.0,bus2=RML1060192548.2.3.0,Phases=2,Linecode=CABBTG05_4_2,Length=0.017000000,Units=km
new line.RML10192553 bus1=BBT3234794.1.2.3.0,bus2=RML1060192553.1.2.3.0,Phases=3,Linecode=CABBTG06_4_3,Length=0.016000000,Units=km
new line.RML10192561 bus1=BBT4221535.1.2.0,bus2=RML1060192561.1.2.0,Phases=2,Linecode=CABBTG05_4_2,Length=0.017000000,Units=km
new line.RML10192563 bus1=BBT4646113.1.2.0,bus2=RML1060192563.1.2.0,Phases=2,Linecode=CABBTG05_4_2,Length=0.017000000,Units=km
new line.RML10192566 bus1=BBT4646064.1.2.0,bus2=RML1060192566.1.2.0,Phases=2,Linecode=CABBTG05_4_2,Length=0.017000000,Units=km
new line.RML10192568 bus1=BBT1890808.1.2.0,bus2=RML1060192568.1.2.0,Phases=2,Linecode=CABBTG05_4_2,Length=0.017000000,Units=km
new line.RML10192576 bus1=BBT1732692.2.3.0,bus2=RML1060192576.2.3.0,Phases=2,Linecode=CABBTG05_4_2,Length=0.017000000,Units=km
new line.RML10192578 bus1=BBT2263873.1.2.0,bus2=RML1060192578.1.2.0,Phases=2,Linecode=CABBTG05_4_2,Length=0.017000000,Units=km
new line.RML10192580 bus1=BBT3453845.2.0,bus2=RML1060192580.2.0,Phases=1,Linecode=CABBTG02_4_1,Length=0.017000000,Units=km
new line.RML10192587 bus1=BBT1899110.1.2.0,bus2=RML1060192587.1.2.0,Phases=2,Linecode=CABBTG05_4_2,Length=0.017000000,Units=km
new line.RML10192588 bus1=BBT3479906.1.2.0,bus2=RML1060192588.1.2.0,Phases=2,Linecode=CABBTG05_4_2,Length=0.017000000,Units=km
new line.RML10192593 bus1=BBT1888575.1.2.0,bus2=RML1060192593.1.2.0,Phases=2,Linecode=CABBTG05_4_2,Length=0.017000000,Units=km
new line.RML10192596 bus1=BBT1908077.1.0,bus2=RML1060192596.1.0,Phases=1,Linecode=CABBTG02_4_1,Length=0.017000000,Units=km
new line.RML10192597 bus1=BBT1903380.1.0,bus2=RML1060192597.1.0,Phases=1,Linecode=CABBTG01_4_1,Length=0.017000000,Units=km
new line.RML10192603 bus1=BBT1876388.1.2.3.0,bus2=RML1060192603.1.2.3.0,Phases=3,Linecode=CABBTG10_4_3,Length=0.017000000,Units=km
new line.RML10192608 bus1=BBT54267789.1.2.0,bus2=RML1060192608.1.2.0,Phases=2,Linecode=CABBTG05_4_2,Length=0.017000000,Units=km
new line.RML10192612 bus1=BBT1906509.1.2.0,bus2=RML1060192612.1.2.0,Phases=2,Linecode=CABBTG05_4_2,Length=0.017000000,Units=km
new line.RML10192621 bus1=BBT1906523.1.0,bus2=RML1060192621.1.0,Phases=1,Linecode=CABBTG01_4_1,Length=0.017000000,Units=km
new line.RML10192624 bus1=BBT3770413.1.2.0,bus2=RML1060192624.1.2.0,Phases=2,Linecode=CABBTG05_4_2,Length=0.017000000,Units=km
new line.RML10192636 bus1=BBT1884221.2.0,bus2=RML1060192636.2.0,Phases=1,Linecode=CABBTG01_4_1,Length=0.017000000,Units=km
new line.RML10192650 bus1=BBT1891746.3.0,bus2=RML1060192650.3.0,Phases=1,Linecode=CABBTG02_4_1,Length=0.017000000,Units=km
new line.RML10192662 bus1=BBT1885887.1.2.0,bus2=RML1060192662.1.2.0,Phases=2,Linecode=CABBTG05_4_2,Length=0.017000000,Units=km
new line.RML10192667 bus1=BBT1885901.1.2.0,bus2=RML1060192667.1.2.0,Phases=2,Linecode=CABBTG05_4_2,Length=0.017000000,Units=km
new line.RML10192681 bus1=BBT1886237.1.2.0,bus2=RML1060192681.1.2.0,Phases=2,Linecode=CABBTG05_4_2,Length=0.017000000,Units=km
new line.RML10192690 bus1=BBT1726826.3.0,bus2=RML1060192690.3.0,Phases=1,Linecode=CABBTG02_4_1,Length=0.017000000,Units=km
new line.RML10192707 bus1=BBT1886188.1.2.3.0,bus2=RML1060192707.1.2.3.0,Phases=3,Linecode=CABBTG06_4_3,Length=0.017000000,Units=km
new line.RML10192716 bus1=BBT1886188.1.2.3.0,bus2=RML1060192716.1.2.3.0,Phases=3,Linecode=CABBTG10_4_3,Length=0.017000000,Units=km
new line.RML10192734 bus1=BBT1890129.2.3.0,bus2=RML1060192734.2.3.0,Phases=2,Linecode=CABBTG05_4_2,Length=0.017000000,Units=km
new line.RML10192744 bus1=BBT1887042.1.0,bus2=RML1060192744.1.0,Phases=1,Linecode=CABBTG01_4_1,Length=0.017000000,Units=km
new line.RML10192757 bus1=BBT1887021.2.0,bus2=RML1060192757.2.0,Phases=1,Linecode=CABBTG01_4_1,Length=0.017000000,Units=km
new line.RML10192762 bus1=BBT1890164.1.2.0,bus2=RML1060192762.1.2.0,Phases=2,Linecode=CABBTG05_4_2,Length=0.017000000,Units=km
new line.RML10192777 bus1=BBT126376567.1.2.3.0,bus2=RML1060192777.1.2.3.0,Phases=3,Linecode=CABBTG08_4_3,Length=0.03,Units=km
new line.RML10192781 bus1=BBT3432936.3.0,bus2=RML1060192781.3.0,Phases=1,Linecode=CABBTG01_4_1,Length=0.017000000,Units=km
new line.RML10192784 bus1=BBT1887098.1.2.3.0,bus2=RML1060192784.1.2.3.0,Phases=3,Linecode=CABBTG06_4_3,Length=0.006000000,Units=km
new line.RML10192797 bus1=BBT1895099.1.2.0,bus2=RML1060192797.1.2.0,Phases=2,Linecode=CABBTG05_4_2,Length=0.017000000,Units=km
new line.RML10192803 bus1=BBT3898002.2.0,bus2=RML1060192803.2.0,Phases=1,Linecode=CABBTG01_4_1,Length=0.017000000,Units=km
new line.RML10192805 bus1=BBT23541583.1.2.0,bus2=RML1060192805.1.2.0,Phases=2,Linecode=CABBTG05_4_2,Length=0.017000000,Units=km
new line.RML10192806 bus1=BBT23541583.1.2.0,bus2=RML1060192806.1.2.0,Phases=2,Linecode=CABBTG05_4_2,Length=0.017000000,Units=km
new line.RML10192807 bus1=BBT104448318.2.3.0,bus2=RML1060192807.2.3.0,Phases=2,Linecode=CABBTG05_4_2,Length=0.017000000,Units=km
new line.RML10192808 bus1=BBT104448318.2.3.0,bus2=RML1060192808.2.3.0,Phases=2,Linecode=CABBTG05_4_2,Length=0.017000000,Units=km
new line.RML10192809 bus1=BBT104448318.2.3.0,bus2=RML1060192809.2.3.0,Phases=2,Linecode=CABBTG05_4_2,Length=0.017000000,Units=km
new line.RML10192810 bus1=BBT104448318.1.2.0,bus2=RML1060192810.1.2.0,Phases=2,Linecode=CABBTG05_4_2,Length=0.017000000,Units=km
new line.RML10192812 bus1=BBT104448318.1.2.0,bus2=RML1060192812.1.2.0,Phases=2,Linecode=CABBTG05_4_2,Length=0.017000000,Units=km
new line.RML10192816 bus1=BBT2274002.1.0,bus2=RML1060192816.1.0,Phases=1,Linecode=CABBTG01_4_1,Length=0.017000000,Units=km
new line.RML10192821 bus1=BBT1900181.3.0,bus2=RML1060192821.3.0,Phases=1,Linecode=CABBTG01_4_1,Length=0.017000000,Units=km