new line.CTR114332 bus1=BMT165757375.1.2.3,bus2=BMT165757396.1.2.3,Phases=3,LineCode=tieSwitch,Length=0.001,Units=km,switch=T !numEQ 77263
new line.CTR114752 bus1=BMT101527736.1,bus2=BMT168591926.1,Phases=1,LineCode=tieSwitch1,Length=0.001,Units=km,switch=T !numEQ 77247
new line.CTR114955 bus1=BMT101527743.1.2.3,bus2=BMT157293404.1.2.3,Phases=3,LineCode=tieSwitch,Length=0.001,Units=km,switch=T !numEQ 382174
new line.CTR114997 bus1=BMT136018850.1,bus2=BMT136019172.1,Phases=1,LineCode=tieSwitch1,Length=0.001,Units=km,switch=T !numEQ 77271
new line.CTR115165 bus1=BMT164191121.1.2.3,bus2=BMT136017989.1.2.3,Phases=3,LineCode=tieSwitch,Length=0.001,Units=km,switch=T !numEQ 76683
open line.CTR115165 term=1
new line.CTR115179 bus1=BMT101525727.1.2.3,bus2=BMT172008088.1.2.3,Phases=3,LineCode=tieSwitch,Length=0.001,Units=km,switch=T !numEQ 76710
new line.CTR11544 bus1=BMT162034420.1.2.3,bus2=BMT136019830.1.2.3,Phases=3,LineCode=tieSwitch,Length=0.001,Units=km,switch=T !numEQ 36060
new line.CTR115648 bus1=BMT165757452.1.2.3,bus2=BMT165757456.1.2.3,Phases=3,LineCode=tieSwitch,Length=0.001,Units=km,switch=T !numEQ 77260
new line.CTR14078 bus1=BMT101527484.1,bus2=BMT101527498.1,Phases=1,LineCode=tieSwitch1,Length=0.001,Units=km,switch=T !numEQ 160819
new line.CTR155667 bus1=BMT101526637.1.2.3,bus2=BMT101532062.1.2.3,Phases=3,LineCode=tieSwitch,Length=0.001,Units=km,switch=T !numEQ 36174
new line.CTR157025 bus1=BMT98729388.1.2.3,bus2=BMT98729409.1.2.3,Phases=3,LineCode=tieSwitch,Length=0.001,Units=km,switch=T !numEQ 88806
new line.CTR157053 bus1=BMT98729423.3,bus2=BMT98729430.3,Phases=1,LineCode=tieSwitch1,Length=0.001,Units=km,switch=T !numEQ 88521
new line.CTR171536 bus1=BMT158134795.3,bus2=BMT170810036.3,Phases=1,LineCode=tieSwitch1,Length=0.001,Units=km,switch=T !numEQ 161274
new line.CTR171746 bus1=BMT101529822.2,bus2=BMT154863447.2,Phases=1,LineCode=tieSwitch1,Length=0.001,Units=km,switch=T !numEQ 29694
new line.CTR171872 bus1=BMT165757709.3,bus2=BMT165757718.3,Phases=1,LineCode=tieSwitch1,Length=0.001,Units=km,switch=T !numEQ 161048
new line.CTR28064 bus1=BMT136025507.1,bus2=BMT171731233.1,Phases=1,LineCode=tieSwitch1,Length=0.001,Units=km,switch=T !numEQ 162304
new line.CTR31627 bus1=BMT136022616.2,bus2=BMT136025878.2,Phases=1,LineCode=tieSwitch1,Length=0.001,Units=km,switch=T !numEQ 88839
new line.CTR36828 bus1=BMT101532426.1.2.3,bus2=BMT159363617.1.2.3,Phases=3,LineCode=tieSwitch,Length=0.001,Units=km,switch=T !numEQ 36111
new line.CTR36856 bus1=BMT149945866.1.2.3,bus2=BMT149172838.1.2.3,Phases=3,LineCode=tieSwitch,Length=0.001,Units=km,switch=T !numEQ 36115
new line.CTR41294 bus1=BMT136018360.1.2.3,bus2=BMT136029847.1.2.3,Phases=3,LineCode=tieSwitch,Length=0.001,Units=km,switch=T !numEQ 162062
new line.CTR41504 bus1=BMT136021713.2,bus2=BMT163546308.2,Phases=1,LineCode=tieSwitch1,Length=0.001,Units=km,switch=T !numEQ 159956
new line.CTR46684 bus1=BMT101529514.2,bus2=BMT154863380.2,Phases=1,LineCode=tieSwitch1,Length=0.001,Units=km,switch=T !numEQ 140567
new line.CTR46698 bus1=BMT136024009.1,bus2=BMT160844890.1,Phases=1,LineCode=tieSwitch1,Length=0.001,Units=km,switch=T !numEQ 160079
new line.CTR50870 bus1=BMT136022854.1,bus2=BMT160844705.1,Phases=1,LineCode=tieSwitch1,Length=0.001,Units=km,switch=T !numEQ 161646
new line.CTR50996 bus1=BMT136015168.2,bus2=BMT136015196.2,Phases=1,LineCode=tieSwitch1,Length=0.001,Units=km,switch=T !numEQ 9537
new line.CTR51010 bus1=BMT101524152.2,bus2=BMT149692186.2,Phases=1,LineCode=tieSwitch1,Length=0.001,Units=km,switch=T !numEQ 9555
new line.CTR51024 bus1=BMT149582730.1,bus2=BMT149582748.1,Phases=1,LineCode=tieSwitch1,Length=0.001,Units=km,switch=T !numEQ 9539
new line.CTR51038 bus1=BMT136018164.3,bus2=BMT136018213.3,Phases=1,LineCode=tieSwitch1,Length=0.001,Units=km,switch=T !numEQ 9540
new line.CTR51045 bus1=BMT101531369.1,bus2=BMT101531628.1,Phases=1,LineCode=tieSwitch1,Length=0.001,Units=km,switch=T !numEQ 9541
new line.CTR51059 bus1=BMT101525349.2,bus2=BMT134723941.2,Phases=1,LineCode=tieSwitch1,Length=0.001,Units=km,switch=T !numEQ 9542
new line.CTR51073 bus1=BMT101525811.1.2.3,bus2=BMT101525818.1.2.3,Phases=3,LineCode=tieSwitch,Length=0.001,Units=km,switch=T !numEQ 9543
new line.CTR510882 bus1=BMT101521786.1.2.3,bus2=BMT162816955.1.2.3,Phases=3,LineCode=tieSwitch,Length=0.001,Units=km,switch=T !numEQ 9501
new line.CTR510896 bus1=BMT136018346.1.2.3,bus2=BMT136029861.1.2.3,Phases=3,LineCode=tieSwitch,Length=0.001,Units=km,switch=T !numEQ 9502
new line.CTR510910 bus1=BMT165757314.1.2.3,bus2=BMT165757324.1.2.3,Phases=3,LineCode=tieSwitch,Length=0.001,Units=km,switch=T !numEQ 9503
new line.CTR510924 bus1=BMT101528541.1,bus2=BMT157714453.1,Phases=1,LineCode=tieSwitch1,Length=0.001,Units=km,switch=T !numEQ 9505
new line.CTR510938 bus1=BMT101527946.1,bus2=BMT101529248.1,Phases=1,LineCode=tieSwitch1,Length=0.001,Units=km,switch=T !numEQ 9506
new line.CTR510952 bus1=BMT101527953.1,bus2=BMT101529276.1,Phases=1,LineCode=tieSwitch1,Length=0.001,Units=km,switch=T !numEQ 9507
new line.CTR510994 bus1=BMT136015581.1,bus2=BMT136015595.1,Phases=1,LineCode=tieSwitch1,Length=0.001,Units=km,switch=T !numEQ 9524
new line.CTR511008 bus1=BMT136029630.2,bus2=BMT160941702.2,Phases=1,LineCode=tieSwitch1,Length=0.001,Units=km,switch=T !numEQ 9525
new line.CTR511022 bus1=BMT136030204.3,bus2=BMT151156760.3,Phases=1,LineCode=tieSwitch1,Length=0.001,Units=km,switch=T !numEQ 9526
new line.CTR511036 bus1=BMT136028223.1.2.3,bus2=BMT160795418.1.2.3,Phases=3,LineCode=tieSwitch,Length=0.001,Units=km,switch=T !numEQ 9527
new line.CTR511050 bus1=BMT136028335.1,bus2=BMT170972159.1,Phases=1,LineCode=tieSwitch1,Length=0.001,Units=km,switch=T !numEQ 9529
new line.CTR511064 bus1=BMT136028776.2,bus2=BMT136028902.2,Phases=1,LineCode=tieSwitch1,Length=0.001,Units=km,switch=T !numEQ 9530
new line.CTR511078 bus1=BMT136028839.2,bus2=BMT166905600.2,Phases=1,LineCode=tieSwitch1,Length=0.001,Units=km,switch=T !numEQ 9531
new line.CTR51136 bus1=BMT101525167.1,bus2=BMT171660946.1,Phases=1,LineCode=tieSwitch1,Length=0.001,Units=km,switch=T !numEQ 9559
new line.CTR511638 bus1=BMT160254475.2,bus2=BMT160254477.2,Phases=1,LineCode=tieSwitch1,Length=0.001,Units=km,switch=T !numEQ 237658
new line.CTR51178 bus1=BMT101527309.1.2.3,bus2=BMT101531250.1.2.3,Phases=3,LineCode=tieSwitch,Length=0.001,Units=km,switch=T !numEQ 198668
new line.CTR51192 bus1=BMT136018661.1,bus2=BMT136019291.1,Phases=1,LineCode=tieSwitch1,Length=0.001,Units=km,switch=T !numEQ 9563
new line.CTR51206 bus1=BMT136018689.1,bus2=BMT148251027.1,Phases=1,LineCode=tieSwitch1,Length=0.001,Units=km,switch=T !numEQ 9564
new line.CTR111469 bus1=BMT136028139.2,bus2=BMT136028153.2,Phases=1,LineCode=tieSwitch1,Length=0.001,Units=km,switch=T !numEQ 100257
new line.CTR11194 bus1=BMT165757420.1.2.3,bus2=BMT165757445.1.2.3,Phases=3,LineCode=tieSwitch,Length=0.001,Units=km,switch=T !numEQ 9584
new line.CTR112316 bus1=BMT98729339.1.2.3,bus2=BMT151992245.1.2.3,Phases=3,LineCode=tieSwitch,Length=0.001,Units=km,switch=T !numEQ 88526
new line.CTR123250 bus1=BMT101529619.2,bus2=BMT154863467.2,Phases=1,LineCode=tieSwitch1,Length=0.001,Units=km,switch=T !numEQ 88705
new line.CTR123278 bus1=BMT152544434.1,bus2=BMT152544459.1,Phases=1,LineCode=tieSwitch1,Length=0.001,Units=km,switch=T !numEQ 112521
new line.CTR12342 bus1=BMT136029910.1.2.3,bus2=BMT171565727.1.2.3,Phases=3,LineCode=tieSwitch,Length=0.001,Units=km,switch=T !numEQ 134010
new line.CTR123439 bus1=BMT98729297.2,bus2=BMT98729808.2,Phases=1,LineCode=tieSwitch1,Length=0.001,Units=km,switch=T !numEQ 120004
new line.CTR123530 bus1=BMT101525965.1.2.3,bus2=BMT172828249.1.2.3,Phases=3,LineCode=tieSwitch,Length=0.001,Units=km,switch=T !numEQ 88993
new line.CTR123544 bus1=BMT136014328.1.2.3,bus2=BMT168859602.1.2.3,Phases=3,LineCode=tieSwitch,Length=0.001,Units=km,switch=T !numEQ 88995
new line.CTR123670 bus1=BMT136018906.1,bus2=BMT161314660.1,Phases=1,LineCode=tieSwitch1,Length=0.001,Units=km,switch=T !numEQ 88717
new line.CTR123964 bus1=BMT101531376.1,bus2=BMT101531600.1,Phases=1,LineCode=tieSwitch1,Length=0.001,Units=km,switch=T !numEQ 88725
new line.CTR123978 bus1=BMT165757476.3,bus2=BMT165757479.3,Phases=1,LineCode=tieSwitch1,Length=0.001,Units=km,switch=T !numEQ 88976
new line.CTR123992 bus1=BMT166531434.1,bus2=BMT166531438.1,Phases=1,LineCode=tieSwitch1,Length=0.001,Units=km,switch=T !numEQ 88978
new line.CTR124006 bus1=BMT101527267.3,bus2=BMT166486465.3,Phases=1,LineCode=tieSwitch1,Length=0.001,Units=km,switch=T !numEQ 88997
new line.CTR124132 bus1=BMT101524768.1,bus2=BMT170467076.1,Phases=1,LineCode=tieSwitch1,Length=0.001,Units=km,switch=T !numEQ 88740
new line.CTR124160 bus1=BMT136023393.1,bus2=BMT160844910.1,Phases=1,LineCode=tieSwitch1,Length=0.001,Units=km,switch=T !numEQ 88802
new line.CTR124244 bus1=BMT101526476.1.2.3,bus2=BMT136469748.1.2.3,Phases=3,LineCode=tieSwitch,Length=0.001,Units=km,switch=T !numEQ 88956
new line.CTR124342 bus1=BMT101527281.1,bus2=BMT172707397.1,Phases=1,LineCode=tieSwitch1,Length=0.001,Units=km,switch=T !numEQ 88723
new line.CTR124356 bus1=BMT136028174.1.2.3,bus2=BMT136029203.1.2.3,Phases=3,LineCode=tieSwitch,Length=0.001,Units=km,switch=T !numEQ 88736
new line.CTR124398 bus1=BMT98729584.1.2.3,bus2=BMT98729612.1.2.3,Phases=3,LineCode=tieSwitch,Length=0.001,Units=km,switch=T !numEQ 88803
new line.CTR124412 bus1=BMT136027054.1,bus2=BMT160942017.1,Phases=1,LineCode=tieSwitch1,Length=0.001,Units=km,switch=T !numEQ 88816
new line.CTR124650 bus1=BMT136029028.1.2.3,bus2=BMT136029042.1.2.3,Phases=3,LineCode=tieSwitch,Length=0.001,Units=km,switch=T !numEQ 88951
new line.CTR124692 bus1=BMT136014454.1.2.3,bus2=BMT136014566.1.2.3,Phases=3,LineCode=tieSwitch,Length=0.001,Units=km,switch=T !numEQ 88962
new line.CTR137166 bus1=BMT101527666.1,bus2=BMT165092257.1,Phases=1,LineCode=tieSwitch1,Length=0.001,Units=km,switch=T !numEQ 77289
new line.CTR149542 bus1=BMT101527855.1,bus2=BMT165164706.1,Phases=1,LineCode=tieSwitch1,Length=0.001,Units=km,switch=T !numEQ 76774
new line.CTR150172 bus1=BMT101522199.1.2.3,bus2=BMT101524628.1.2.3,Phases=3,LineCode=tieSwitch,Length=0.001,Units=km,switch=T !numEQ 122925
new line.CTR28218 bus1=BMT170838718.1,bus2=BMT171379493.1,Phases=1,LineCode=tieSwitch1,Length=0.001,Units=km,switch=T !numEQ 382129
new line.CTR28470 bus1=BMT172842380.1.2.3,bus2=BMT172842392.1.2.3,Phases=3,LineCode=tieSwitch,Length=0.001,Units=km,switch=T !numEQ 323578
new line.CTR29954 bus1=BMT136024723.1,bus2=BMT160844769.1,Phases=1,LineCode=tieSwitch1,Length=0.001,Units=km,switch=T !numEQ 88305
new line.CTR29968 bus1=BMT136021027.2,bus2=BMT163546234.2,Phases=1,LineCode=tieSwitch1,Length=0.001,Units=km,switch=T !numEQ 88349
new line.CTR35946 bus1=BMT98729374.3,bus2=BMT98729514.3,Phases=1,LineCode=tieSwitch1,Length=0.001,Units=km,switch=T !numEQ 88807
new line.CTR41980 bus1=BMT136014370.1,bus2=BMT167417031.1,Phases=1,LineCode=tieSwitch1,Length=0.001,Units=km,switch=T !numEQ 163443
new line.CTR44178 bus1=BMT136015343.1.2.3,bus2=BMT136015679.1.2.3,Phases=3,LineCode=tieSwitch,Length=0.001,Units=km,switch=T !numEQ 9572
new line.CTR473257 bus1=BMT160795044.1,bus2=BMT160844926.1,Phases=1,LineCode=tieSwitch1,Length=0.001,Units=km,switch=T !numEQ 217437
new line.CTR547674 bus1=BMT136021699.2,bus2=BMT163546311.2,Phases=1,LineCode=tieSwitch1,Length=0.001,Units=km,switch=T !numEQ 105474
new line.CTR548752 bus1=BMT101528457.1,bus2=BMT168565196.1,Phases=1,LineCode=tieSwitch1,Length=0.001,Units=km,switch=T !numEQ 160873
new line.CTR548843 bus1=BMT136021391.2,bus2=BMT163546273.2,Phases=1,LineCode=tieSwitch1,Length=0.001,Units=km,switch=T !numEQ 160150
new line.CTR549158 bus1=BMT136015882.2,bus2=BMT168154197.2,Phases=1,LineCode=tieSwitch1,Length=0.001,Units=km,switch=T !numEQ 161019
new line.CTR549718 bus1=BMT101521814.1,bus2=BMT101525867.1,Phases=1,LineCode=tieSwitch1,Length=0.001,Units=km,switch=T !numEQ 163648
new line.CTR551370 bus1=BMT101526672.1.2.3,bus2=BMT171960666.1.2.3,Phases=3,LineCode=tieSwitch,Length=0.001,Units=km,switch=T !numEQ 36136
new line.CTR552196 bus1=BMT136019060.1,bus2=BMT136019109.1,Phases=1,LineCode=tieSwitch1,Length=0.001,Units=km,switch=T !numEQ 161544
new line.CTR552294 bus1=BMT136016022.1,bus2=BMT149274019.1,Phases=1,LineCode=tieSwitch1,Length=0.001,Units=km,switch=T !numEQ 161082
new line.CTR553064 bus1=BMT173175336.1.2.3,bus2=BMT3890064.1.2.3,Phases=3,LineCode=tieSwitch,Length=0.001,Units=km,switch=T !numEQ 36119
open line.CTR553064 term=1
new line.CTR553274 bus1=BMT136018605.1,bus2=BMT136019347.1,Phases=1,LineCode=tieSwitch1,Length=0.001,Units=km,switch=T !numEQ 9533
new line.CTR553288 bus1=BMT136028454.1,bus2=BMT136028545.1,Phases=1,LineCode=tieSwitch1,Length=0.001,Units=km,switch=T !numEQ 9534
new line.CTR553302 bus1=BMT136028475.1,bus2=BMT136028524.1,Phases=1,LineCode=tieSwitch1,Length=0.001,Units=km,switch=T !numEQ 9535
new line.CTR553456 bus1=BMT101522143.2,bus2=BMT161912250.2,Phases=1,LineCode=tieSwitch1,Length=0.001,Units=km,switch=T !numEQ 9558
new line.CTR553470 bus1=BMT101527337.3,bus2=BMT161453688.3,Phases=1,LineCode=tieSwitch1,Length=0.001,Units=km,switch=T !numEQ 9570
new line.CTR553484 bus1=BMT101527659.3,bus2=BMT171543061.3,Phases=1,LineCode=tieSwitch1,Length=0.001,Units=km,switch=T !numEQ 9571
new line.CTR109936 bus1=BMT136029665.2,bus2=BMT160941700.2,Phases=1,LineCode=tieSwitch1,Length=0.001,Units=km,switch=T !numEQ 77277
new line.CTR11054 bus1=BMT136029098.3,bus2=BMT136029105.3,Phases=1,LineCode=tieSwitch1,Length=0.001,Units=km,switch=T !numEQ 119951
new line.CTR121710 bus1=BMT136015028.2,bus2=BMT167898594.2,Phases=1,LineCode=tieSwitch1,Length=0.001,Units=km,switch=T !numEQ 88715
new line.CTR121724 bus1=BMT101525517.2,bus2=BMT166644190.2,Phases=1,LineCode=tieSwitch1,Length=0.001,Units=km,switch=T !numEQ 88728
new line.CTR121773 bus1=BMT101527204.3,bus2=BMT161346341.3,Phases=1,LineCode=tieSwitch1,Length=0.001,Units=km,switch=T !numEQ 88968
new line.CTR121878 bus1=BMT136020131.2,bus2=BMT136020663.2,Phases=1,LineCode=tieSwitch1,Length=0.001,Units=km,switch=T !numEQ 88488
new line.CTR121934 bus1=BMT136029441.2,bus2=BMT160941704.2,Phases=1,LineCode=tieSwitch1,Length=0.001,Units=km,switch=T !numEQ 88543
new line.CTR122074 bus1=BMT136027180.1,bus2=BMT171219559.1,Phases=1,LineCode=tieSwitch1,Length=0.001,Units=km,switch=T !numEQ 88827
new line.CTR122130 bus1=BMT165757756.1.2.3,bus2=BMT165757759.1.2.3,Phases=3,LineCode=tieSwitch,Length=0.001,Units=km,switch=T !numEQ 88553
new line.CTR122158 bus1=BMT136015287.1,bus2=BMT157990268.1,Phases=1,LineCode=tieSwitch1,Length=0.001,Units=km,switch=T !numEQ 88563
new line.CTR122256 bus1=BMT136022644.1.2.3,bus2=BMT157396187.1.2.3,Phases=3,LineCode=tieSwitch,Length=0.001,Units=km,switch=T !numEQ 88670
new line.CTR122284 bus1=BMT136018780.1,bus2=BMT158966547.1,Phases=1,LineCode=tieSwitch1,Length=0.001,Units=km,switch=T !numEQ 88551
new line.CTR122298 bus1=BMT101525293.1.2.3,bus2=BMT101525489.1.2.3,Phases=3,LineCode=tieSwitch,Length=0.001,Units=km,switch=T !numEQ 88559
new line.CTR122592 bus1=BMT136015560.1,bus2=BMT136015609.1,Phases=1,LineCode=tieSwitch1,Length=0.001,Units=km,switch=T !numEQ 88701
new line.CTR122662 bus1=BMT101526217.1.2.3,bus2=BMT105385373.1.2.3,Phases=3,LineCode=tieSwitch,Length=0.001,Units=km,switch=T !numEQ 88971
new line.CTR122760 bus1=BMT136019669.2,bus2=BMT171842165.2,Phases=1,LineCode=tieSwitch1,Length=0.001,Units=km,switch=T !numEQ 105195
new line.CTR122774 bus1=BMT136026739.1,bus2=BMT136026851.1,Phases=1,LineCode=tieSwitch1,Length=0.001,Units=km,switch=T !numEQ 88822
new line.CTR122802 bus1=BMT136015749.1.2.3,bus2=BMT136015840.1.2.3,Phases=3,LineCode=tieSwitch,Length=0.001,Units=km,switch=T !numEQ 88546
new line.CTR122816 bus1=BMT101527393.1,bus2=BMT101527421.1,Phases=1,LineCode=tieSwitch1,Length=0.001,Units=km,switch=T !numEQ 88549
new line.CTR122900 bus1=BMT101527463.1,bus2=BMT101527617.1,Phases=1,LineCode=tieSwitch1,Length=0.001,Units=km,switch=T !numEQ 88964
new line.CTR123040 bus1=BMT136018465.1.2.3,bus2=BMT136029217.1.2.3,Phases=3,LineCode=tieSwitch,Length=0.001,Units=km,switch=T !numEQ 382181
new line.CTR123054 bus1=BMT136029231.2,bus2=BMT169981547.2,Phases=1,LineCode=tieSwitch1,Length=0.001,Units=km,switch=T !numEQ 88955
new line.CTR123068 bus1=BMT136030841.3,bus2=BMT137831661.3,Phases=1,LineCode=tieSwitch1,Length=0.001,Units=km,switch=T !numEQ 88974
new line.CTR123082 bus1=BMT165757521.1.2.3,bus2=BMT165757531.1.2.3,Phases=3,LineCode=tieSwitch,Length=0.001,Units=km,switch=T !numEQ 88983
new line.CTR16430 bus1=BMT101523970.3,bus2=BMT166787642.3,Phases=1,LineCode=tieSwitch1,Length=0.001,Units=km,switch=T !numEQ 135303
new line.CTR16444 bus1=BMT101523340.3,bus2=BMT101523732.3,Phases=1,LineCode=tieSwitch1,Length=0.001,Units=km,switch=T !numEQ 135304
new line.CTR164886 bus1=BMT98729276.3,bus2=BMT98729822.3,Phases=1,LineCode=tieSwitch1,Length=0.001,Units=km,switch=T !numEQ 161697
new line.CTR165040 bus1=BMT101526994.1.2.3,bus2=BMT101527001.1.2.3,Phases=3,LineCode=tieSwitch,Length=0.001,Units=km,switch=T !numEQ 160757
new line.CTR30724 bus1=BMT136023386.1,bus2=BMT160844929.1,Phases=1,LineCode=tieSwitch1,Length=0.001,Units=km,switch=T !numEQ 88540
new line.CTR30934 bus1=BMT136024912.2,bus2=BMT156653698.2,Phases=1,LineCode=tieSwitch1,Length=0.001,Units=km,switch=T !numEQ 88654
new line.CTR30948 bus1=BMT101521982.1.2.3,bus2=BMT170071258.1.2.3,Phases=3,LineCode=tieSwitch,Length=0.001,Units=km,switch=T !numEQ 88742
new line.CTR30976 bus1=BMT136019683.2,bus2=BMT158481483.2,Phases=1,LineCode=tieSwitch1,Length=0.001,Units=km,switch=T !numEQ 105196
new line.CTR31144 bus1=BMT160844713.1,bus2=BMT136023232.1,Phases=1,LineCode=tieSwitch1,Length=0.001,Units=km,switch=T !numEQ 88532
open line.CTR31144 term=1
new line.CTR31158 bus1=BMT136028328.1,bus2=BMT136028426.1,Phases=1,LineCode=tieSwitch1,Length=0.001,Units=km,switch=T !numEQ 88560
new line.CTR34014 bus1=BMT101521667.1.2.3,bus2=BMT101521674.1.2.3,Phases=3,LineCode=tieSwitch,Length=0.001,Units=km,switch=T !numEQ 162100
new line.CTR41042 bus1=BMT165757276.1.2.3,bus2=BMT165757296.1.2.3,Phases=3,LineCode=tieSwitch,Length=0.001,Units=km,switch=T !numEQ 161991
new line.CTR41070 bus1=BMT149782713.1,bus2=BMT158481632.1,Phases=1,LineCode=tieSwitch1,Length=0.001,Units=km,switch=T !numEQ 160238
new line.CTR48462 bus1=BMT101525251.1.2.3,bus2=BMT101525258.1.2.3,Phases=3,LineCode=tieSwitch,Length=0.001,Units=km,switch=T !numEQ 161207
new line.CTR519758 bus1=BMT101528093.1,bus2=BMT101528849.1,Phases=1,LineCode=tieSwitch1,Length=0.001,Units=km,switch=T !numEQ 9593
new line.CTR519772 bus1=BMT165757610.1.2.3,bus2=BMT173065353.1.2.3,Phases=3,LineCode=tieSwitch,Length=0.001,Units=km,switch=T !numEQ 9603
new line.CTR521186 bus1=BMT136023547.1,bus2=BMT160844807.1,Phases=1,LineCode=tieSwitch1,Length=0.001,Units=km,switch=T !numEQ 31363
new line.CTR521774 bus1=BMT136014426.1.2.3,bus2=BMT167325812.1.2.3,Phases=3,LineCode=tieSwitch,Length=0.001,Units=km,switch=T !numEQ 161981
new line.CTR522467 bus1=BMT136018087.1.2.3,bus2=BMT136030001.1.2.3,Phases=3,LineCode=tieSwitch,Length=0.001,Units=km,switch=T !numEQ 142933
new line.CTR522481 bus1=BMT136030008.1.2.3,bus2=BMT136030043.1.2.3,Phases=3,LineCode=tieSwitch,Length=0.001,Units=km,switch=T !numEQ 142931
new line.CTR5678 bus1=BMT136020005.3,bus2=BMT136022350.3,Phases=1,LineCode=tieSwitch1,Length=0.001,Units=km,switch=T !numEQ 198660
new line.CTR568149 bus1=BMT98729990.3,bus2=BMT98730004.3,Phases=1,LineCode=tieSwitch1,Length=0.001,Units=km,switch=T !numEQ 88810
new line.CTR570249 bus1=BMT136023449.1,bus2=BMT160844829.1,Phases=1,LineCode=tieSwitch1,Length=0.001,Units=km,switch=T !numEQ 32415
new line.CTR570263 bus1=BMT136023428.1,bus2=BMT172360759.1,Phases=1,LineCode=tieSwitch1,Length=0.001,Units=km,switch=T !numEQ 32416
new line.CTR572111 bus1=BMT101521989.1.2.3,bus2=BMT169608690.1.2.3,Phases=3,LineCode=tieSwitch,Length=0.001,Units=km,switch=T !numEQ 77264
new line.CTR51220 bus1=BMT136019214.1,bus2=BMT136019242.1,Phases=1,LineCode=tieSwitch1,Length=0.001,Units=km,switch=T !numEQ 9565
new line.CTR51234 bus1=BMT136018829.1,bus2=BMT136018983.1,Phases=1,LineCode=tieSwitch1,Length=0.001,Units=km,switch=T !numEQ 9566
new line.CTR51248 bus1=BMT101527470.1,bus2=BMT164419634.1,Phases=1,LineCode=tieSwitch1,Length=0.001,Units=km,switch=T !numEQ 9567
new line.CTR51262 bus1=BMT136028433.1,bus2=BMT136028580.1,Phases=1,LineCode=tieSwitch1,Length=0.001,Units=km,switch=T !numEQ 9568
new line.CTR51276 bus1=BMT101527323.2,bus2=BMT101527351.2,Phases=1,LineCode=tieSwitch1,Length=0.001,Units=km,switch=T !numEQ 9569
new line.CTR51290 bus1=BMT101527057.1,bus2=BMT101531964.1,Phases=1,LineCode=tieSwitch1,Length=0.001,Units=km,switch=T !numEQ 9583
new line.CTR51304 bus1=BMT101528891.1,bus2=BMT172827775.1,Phases=1,LineCode=tieSwitch1,Length=0.001,Units=km,switch=T !numEQ 9590
new line.CTR51318 bus1=BMT136030225.3,bus2=BMT166474237.3,Phases=1,LineCode=tieSwitch1,Length=0.001,Units=km,switch=T !numEQ 9585
new line.CTR542144 bus1=BMT136018395.1.2.3,bus2=BMT136029777.1.2.3,Phases=3,LineCode=tieSwitch,Length=0.001,Units=km,switch=T !numEQ 160948
new line.CTR542718 bus1=BMT136018857.1,bus2=BMT136019158.1,Phases=1,LineCode=tieSwitch1,Length=0.001,Units=km,switch=T !numEQ 143229
new line.CTR542774 bus1=BMT101528954.1,bus2=BMT101529059.1,Phases=1,LineCode=tieSwitch1,Length=0.001,Units=km,switch=T !numEQ 160473
new line.CTR543110 bus1=BMT136028944.2,bus2=BMT155386025.2,Phases=1,LineCode=tieSwitch1,Length=0.001,Units=km,switch=T !numEQ 160817
new line.CTR544398 bus1=BMT159363624.1.2.3,bus2=BMT156974978.1.2.3,Phases=3,LineCode=tieSwitch,Length=0.001,Units=km,switch=T !numEQ 36110
open line.CTR544398 term=1
new line.CTR544412 bus1=BMT165142290.1.2.3,bus2=BMT136017051.1.2.3,Phases=3,LineCode=tieSwitch,Length=0.001,Units=km,switch=T !numEQ 385434
new line.CTR544790 bus1=BMT101530011.2,bus2=BMT154863436.2,Phases=1,LineCode=tieSwitch1,Length=0.001,Units=km,switch=T !numEQ 237538
new line.CTR578873 bus1=BMT136014923.1.2.3,bus2=BMT171059927.1.2.3,Phases=3,LineCode=tieSwitch,Length=0.001,Units=km,switch=T !numEQ 36095
new line.CTR578957 bus1=BMT165757304.1.2.3,bus2=BMT165757310.1.2.3,Phases=3,LineCode=tieSwitch,Length=0.001,Units=km,switch=T !numEQ 161995
new line.CTR578999 bus1=BMT168859598.1.2.3,bus2=BMT2014288.1.2.3,Phases=3,LineCode=tieSwitch,Length=0.001,Units=km,switch=T !numEQ 36084
open line.CTR578999 term=1
new line.CTR579027 bus1=BMT165757338.1.2.3,bus2=BMT173175464.1.2.3,Phases=3,LineCode=tieSwitch,Length=0.001,Units=km,switch=T !numEQ 324975
new line.CTR579097 bus1=BMT101526259.1.2.3,bus2=BMT101526308.1.2.3,Phases=3,LineCode=tieSwitch,Length=0.001,Units=km,switch=T !numEQ 36128
new line.CTR579111 bus1=BMT101526224.1.2.3,bus2=BMT173065493.1.2.3,Phases=3,LineCode=tieSwitch,Length=0.001,Units=km,switch=T !numEQ 36129
new line.CTR579125 bus1=BMT157716509.1.2.3,bus2=BMT101526161.1.2.3,Phases=3,LineCode=tieSwitch,Length=0.001,Units=km,switch=T !numEQ 36130
new line.CTR579139 bus1=BMT101526203.1.2.3,bus2=BMT151429434.1.2.3,Phases=3,LineCode=tieSwitch,Length=0.001,Units=km,switch=T !numEQ 36131
new line.CTR579153 bus1=BMT101526490.1.2.3,bus2=BMT129519455.1.2.3,Phases=3,LineCode=tieSwitch,Length=0.001,Units=km,switch=T !numEQ 36132
new line.CTR579167 bus1=BMT101526595.1.2.3,bus2=BMT169514807.1.2.3,Phases=3,LineCode=tieSwitch,Length=0.001,Units=km,switch=T !numEQ 36134
new line.CTR579307 bus1=BMT136014461.1.2.3,bus2=BMT136014594.1.2.3,Phases=3,LineCode=tieSwitch,Length=0.001,Units=km,switch=T !numEQ 36180
new line.CTR58080 bus1=BMT136020117.1,bus2=BMT136020677.1,Phases=1,LineCode=tieSwitch1,Length=0.001,Units=km,switch=T !numEQ 133848
new line.CTR582401 bus1=BMT101522052.1.2.3,bus2=BMT101522059.1.2.3,Phases=3,LineCode=tieSwitch,Length=0.001,Units=km,switch=T !numEQ 161865
new line.CTR58283 bus1=BMT101529780.2,bus2=BMT154863440.2,Phases=1,LineCode=tieSwitch1,Length=0.001,Units=km,switch=T !numEQ 29750
new line.CTR58430 bus1=BMT136020334.1.2.3,bus2=BMT150343237.1.2.3,Phases=3,LineCode=tieSwitch,Length=0.001,Units=km,switch=T !numEQ 127036
new line.CTR622651 bus1=BMT136021475.2,bus2=BMT163546549.2,Phases=1,LineCode=tieSwitch1,Length=0.001,Units=km,switch=T !numEQ 88432
new line.CTR623253 bus1=BMT136024667.1,bus2=BMT161393289.1,Phases=1,LineCode=tieSwitch1,Length=0.001,Units=km,switch=T !numEQ 88306
new line.CTR623393 bus1=BMT136027187.1,bus2=BMT160942042.1,Phases=1,LineCode=tieSwitch1,Length=0.001,Units=km,switch=T !numEQ 88525
new line.CTR623561 bus1=BMT136022707.1,bus2=BMT136025185.1,Phases=1,LineCode=tieSwitch1,Length=0.001,Units=km,switch=T !numEQ 88805
new line.CTR623575 bus1=BMT136028006.2,bus2=BMT161187877.2,Phases=1,LineCode=tieSwitch1,Length=0.001,Units=km,switch=T !numEQ 88821
new line.CTR623729 bus1=BMT98729101.2,bus2=BMT172838694.2,Phases=1,LineCode=tieSwitch1,Length=0.001,Units=km,switch=T !numEQ 88539
new line.CTR623813 bus1=BMT170239165.1.2.3,bus2=BMT155245279.1.2.3,Phases=3,LineCode=tieSwitch,Length=0.001,Units=km,switch=T !numEQ 245352
open line.CTR623813 term=1
new line.CTR623827 bus1=BMT136015490.1.2.3,bus2=BMT136015504.1.2.3,Phases=3,LineCode=tieSwitch,Length=0.001,Units=km,switch=T !numEQ 88702
new line.CTR623925 bus1=BMT98729164.1,bus2=BMT98729864.1,Phases=1,LineCode=tieSwitch1,Length=0.001,Units=km,switch=T !numEQ 88528
new line.CTR623939 bus1=BMT136023344.1,bus2=BMT160844782.1,Phases=1,LineCode=tieSwitch1,Length=0.001,Units=km,switch=T !numEQ 88530
new line.CTR623953 bus1=BMT136028251.1.2.3,bus2=BMT136029021.1.2.3,Phases=3,LineCode=tieSwitch,Length=0.001,Units=km,switch=T !numEQ 88542
new line.CTR624114 bus1=BMT136020229.2,bus2=BMT136020481.2,Phases=1,LineCode=tieSwitch1,Length=0.001,Units=km,switch=T !numEQ 88389
new line.CTR624142 bus1=BMT172315998.1.2.3,bus2=BMT2014337.1.2.3,Phases=3,LineCode=tieSwitch,Length=0.001,Units=km,switch=T !numEQ 88579
open line.CTR624142 term=1
new line.CTR624177 bus1=BMT101522157.2,bus2=BMT171850197.2,Phases=1,LineCode=tieSwitch1,Length=0.001,Units=km,switch=T !numEQ 88710
new line.CTR624331 bus1=BMT101522038.1.2.3,bus2=BMT101522045.1.2.3,Phases=3,LineCode=tieSwitch,Length=0.001,Units=km,switch=T !numEQ 112511
open line.CTR624331 term=1
new line.CTR624345 bus1=BMT136021587.2,bus2=BMT163546381.2,Phases=1,LineCode=tieSwitch1,Length=0.001,Units=km,switch=T !numEQ 88477
new line.CTR624415 bus1=BMT98729185.1.2.3,bus2=BMT166960981.1.2.3,Phases=3,LineCode=tieSwitch,Length=0.001,Units=km,switch=T !numEQ 88527
new line.CTR624429 bus1=BMT136015441.1.2.3,bus2=BMT136015693.1.2.3,Phases=3,LineCode=tieSwitch,Length=0.001,Units=km,switch=T !numEQ 88544
new line.CTR624450 bus1=BMT165757621.1.2.3,bus2=BMT172355580.1.2.3,Phases=3,LineCode=tieSwitch,Length=0.001,Units=km,switch=T !numEQ 88695
new line.CTR10522 bus1=BMT101525545.1,bus2=BMT160452074.1,Phases=1,LineCode=tieSwitch1,Length=0.001,Units=km,switch=T !numEQ 88555
new line.CTR118448 bus1=BMT165757514.1.2.3,bus2=BMT165757525.1.2.3,Phases=3,LineCode=tieSwitch,Length=0.001,Units=km,switch=T !numEQ 128971
new line.CTR128500 bus1=BMT101524369.3,bus2=BMT171767245.3,Phases=1,LineCode=tieSwitch1,Length=0.001,Units=km,switch=T !numEQ 76688
new line.CTR1296 bus1=BMT165757362.1.2.3,bus2=BMT165757368.1.2.3,Phases=3,LineCode=tieSwitch,Length=0.001,Units=km,switch=T !numEQ 198151
new line.CTR14309 bus1=BMT101528387.1,bus2=BMT101528401.1,Phases=1,LineCode=tieSwitch1,Length=0.001,Units=km,switch=T !numEQ 140557
new line.CTR143480 bus1=BMT165757750.1.2.3,bus2=BMT165757751.1.2.3,Phases=3,LineCode=tieSwitch,Length=0.001,Units=km,switch=T !numEQ 161866
new line.CTR153924 bus1=BMT101527344.1.2.3,bus2=BMT168163738.1.2.3,Phases=3,LineCode=tieSwitch,Length=0.001,Units=km,switch=T !numEQ 36182
new line.CTR154092 bus1=BMT149157507.1.2.3,bus2=BMT170810434.1.2.3,Phases=3,LineCode=tieSwitch,Length=0.001,Units=km,switch=T !numEQ 105479
new line.CTR154344 bus1=BMT171841315.1.2.3,bus2=BMT136014489.1.2.3,Phases=3,LineCode=tieSwitch,Length=0.001,Units=km,switch=T !numEQ 36085
new line.CTR154358 bus1=BMT156777029.1.2.3,bus2=BMT156804886.1.2.3,Phases=3,LineCode=tieSwitch,Length=0.001,Units=km,switch=T !numEQ 36087
new line.CTR154372 bus1=BMT136014762.1.2.3,bus2=BMT136014811.1.2.3,Phases=3,LineCode=tieSwitch,Length=0.001,Units=km,switch=T !numEQ 36089
new line.CTR154386 bus1=BMT136014797.1.2.3,bus2=BMT162478848.1.2.3,Phases=3,LineCode=tieSwitch,Length=0.001,Units=km,switch=T !numEQ 36090
new line.CTR154400 bus1=BMT136014860.1.2.3,bus2=BMT167725568.1.2.3,Phases=3,LineCode=tieSwitch,Length=0.001,Units=km,switch=T !numEQ 36092
new line.CTR154414 bus1=BMT101522185.1.2.3,bus2=BMT101522311.1.2.3,Phases=3,LineCode=tieSwitch,Length=0.001,Units=km,switch=T !numEQ 88982
new line.CTR154442 bus1=BMT136016302.1.2.3,bus2=BMT167202540.1.2.3,Phases=3,LineCode=tieSwitch,Length=0.001,Units=km,switch=T !numEQ 36097
new line.CTR154456 bus1=BMT101526777.1.2.3,bus2=BMT170888191.1.2.3,Phases=3,LineCode=tieSwitch,Length=0.001,Units=km,switch=T !numEQ 36099
new line.CTR154904 bus1=BMT101526056.1.2.3,bus2=BMT157716504.1.2.3,Phases=3,LineCode=tieSwitch,Length=0.001,Units=km,switch=T !numEQ 36118
new line.CTR154918 bus1=BMT165757675.1.2.3,bus2=BMT165757676.1.2.3,Phases=3,LineCode=tieSwitch,Length=0.001,Units=km,switch=T !numEQ 36121
new line.CTR155002 bus1=BMT98729052.1.2.3,bus2=BMT169057194.1.2.3,Phases=3,LineCode=tieSwitch,Length=0.001,Units=km,switch=T !numEQ 36072
new line.CTR155016 bus1=BMT136022840.2,bus2=BMT136023162.2,Phases=1,LineCode=tieSwitch1,Length=0.001,Units=km,switch=T !numEQ 36073
new line.CTR169198 bus1=BMT136022602.2,bus2=BMT160600015.2,Phases=1,LineCode=tieSwitch1,Length=0.001,Units=km,switch=T !numEQ 88804
new line.CTR275862 bus1=BMT161911724.2,bus2=BMT170472991.2,Phases=1,LineCode=tieSwitch1,Length=0.001,Units=km,switch=T !numEQ 177740
new line.CTR529957 bus1=BMT136025479.1,bus2=BMT171245626.1,Phases=1,LineCode=tieSwitch1,Length=0.001,Units=km,switch=T !numEQ 88801
new line.CTR530426 bus1=BMT136027222.1,bus2=BMT160942046.1,Phases=1,LineCode=tieSwitch1,Length=0.001,Units=km,switch=T !numEQ 76701
new line.CTR531126 bus1=BMT170858433.1.2.3,bus2=BMT170859470.1.2.3,Phases=3,LineCode=tieSwitch,Length=0.001,Units=km,switch=T !numEQ 246246