new load.3000165959M1 bus1=RML1005204354.1.2.3.0,Phases=3,kv=0.22,kW=0.00982,pf=0.92,Vminpu=0.92,Vmaxpu=1.5,model=8,zipv=[0.5,0,0.5,1,0,0,0],daily=RES1_2,status=variable
new load.3000165960M1 bus1=RML1005204354.1.2.3.0,Phases=3,kv=0.22,kW=0.00982,pf=0.92,Vminpu=0.92,Vmaxpu=1.5,model=8,zipv=[0.5,0,0.5,1,0,0,0],daily=RES1_2,status=variable
new load.3000165961M1 bus1=RML1005204403.1.2.0,Phases=2,kv=0.22,kW=1.41234,pf=0.92,Vminpu=0.92,Vmaxpu=1.5,model=8,zipv=[0.5,0,0.5,1,0,0,0],daily=RES1_2,status=variable
new load.3000165962M1 bus1=RML1005204403.1.2.0,Phases=2,kv=0.22,kW=0.59888,pf=0.92,Vminpu=0.92,Vmaxpu=1.5,model=8,zipv=[0.5,0,0.5,1,0,0,0],daily=RES1_2,status=variable
new load.3000165963M1 bus1=RML1005204389.1.2.3.0,Phases=3,kv=0.22,kW=0.00982,pf=0.92,Vminpu=0.92,Vmaxpu=1.5,model=8,zipv=[0.5,0,0.5,1,0,0,0],daily=RES1_2,status=variable
new load.3000165965M1 bus1=RML1005204417.1.2.3.0,Phases=3,kv=0.22,kW=2.9259,pf=0.92,Vminpu=0.92,Vmaxpu=1.5,model=8,zipv=[0.5,0,0.5,1,0,0,0],daily=RES1_2,status=variable
new load.3000165966M1 bus1=RML1005204431.2.3.0,Phases=2,kv=0.22,kW=5.3381,pf=0.92,Vminpu=0.92,Vmaxpu=1.5,model=8,zipv=[0.5,0,0.5,1,0,0,0],daily=RES1_2,status=variable
new load.3000165967M1 bus1=RML1005204431.2.3.0,Phases=2,kv=0.22,kW=1.23084,pf=0.92,Vminpu=0.92,Vmaxpu=1.5,model=8,zipv=[0.5,0,0.5,1,0,0,0],daily=RES1_2,status=variable
new load.3000165969M1 bus1=RML1011115999.1.2.3.0,Phases=3,kv=0.22,kW=3.59488,pf=0.92,Vminpu=0.92,Vmaxpu=1.5,model=8,zipv=[0.5,0,0.5,1,0,0,0],daily=RES1_2,status=variable
new load.3000165970M1 bus1=RML1005204410.1.2.3.0,Phases=3,kv=0.22,kW=0.00982,pf=0.92,Vminpu=0.92,Vmaxpu=1.5,model=8,zipv=[0.5,0,0.5,1,0,0,0],daily=RES1_2,status=variable
new load.3000165971M1 bus1=RML1005204396.2.3.0,Phases=2,kv=0.22,kW=2.32276,pf=0.92,Vminpu=0.92,Vmaxpu=1.5,model=8,zipv=[0.5,0,0.5,1,0,0,0],daily=RES1_2,status=variable
new load.3000165972M1 bus1=RML1005204340.1.3.0,Phases=2,kv=0.22,kW=2.18092,pf=0.92,Vminpu=0.92,Vmaxpu=1.5,model=8,zipv=[0.5,0,0.5,1,0,0,0],daily=RES1_2,status=variable
new load.3000165973M1 bus1=RML1005204347.1.3.0,Phases=2,kv=0.22,kW=1.2364,pf=0.92,Vminpu=0.92,Vmaxpu=1.5,model=8,zipv=[0.5,0,0.5,1,0,0,0],daily=RES1_2,status=variable
new load.3000165974M1 bus1=RML1005204312.1.3.0,Phases=2,kv=0.22,kW=3.13942,pf=0.92,Vminpu=0.92,Vmaxpu=1.5,model=8,zipv=[0.5,0,0.5,1,0,0,0],daily=RES1_2,status=variable
new load.3000165975M1 bus1=RML1005204319.1.2.0,Phases=2,kv=0.22,kW=3.81504,pf=0.92,Vminpu=0.92,Vmaxpu=1.5,model=8,zipv=[0.5,0,0.5,1,0,0,0],daily=RES1_2,status=variable
new load.3000165976M1 bus1=RML1006893370.1.3.0,Phases=2,kv=0.22,kW=4.30318,pf=0.92,Vminpu=0.92,Vmaxpu=1.5,model=8,zipv=[0.5,0,0.5,1,0,0,0],daily=RES1_2,status=variable
new load.3000165977M1 bus1=RML1005204284.2.3.0,Phases=2,kv=0.22,kW=0.27716,pf=0.92,Vminpu=0.92,Vmaxpu=1.5,model=8,zipv=[0.5,0,0.5,1,0,0,0],daily=RES1_2,status=variable
new load.3000165978M1 bus1=RML1005204291.1.2.3.0,Phases=3,kv=0.22,kW=0.75744,pf=0.92,Vminpu=0.92,Vmaxpu=1.5,model=8,zipv=[0.5,0,0.5,1,0,0,0],daily=RES1_2,status=variable
new load.3000165979M1 bus1=RML1005204291.1.2.3.0,Phases=3,kv=0.22,kW=1.05,pf=0.92,Vminpu=0.92,Vmaxpu=1.5,model=8,zipv=[0.5,0,0.5,1,0,0,0],daily=RES1_2,status=variable
new load.3000165980M1 bus1=RML1005204291.1.2.3.0,Phases=3,kv=0.22,kW=2.49148,pf=0.92,Vminpu=0.92,Vmaxpu=1.5,model=8,zipv=[0.5,0,0.5,1,0,0,0],daily=RES1_2,status=variable
new load.3000165981M1 bus1=RML1005204291.1.2.3.0,Phases=3,kv=0.22,kW=1.23084,pf=0.92,Vminpu=0.92,Vmaxpu=1.5,model=8,zipv=[0.5,0,0.5,1,0,0,0],daily=RES1_2,status=variable
new load.3000165982M1 bus1=RML1005204291.1.2.3.0,Phases=3,kv=0.22,kW=1.75304,pf=0.92,Vminpu=0.92,Vmaxpu=1.5,model=8,zipv=[0.5,0,0.5,1,0,0,0],daily=RES1_2,status=variable
new load.3000165983M1 bus1=RML1005204291.1.2.3.0,Phases=3,kv=0.22,kW=1.90376,pf=0.92,Vminpu=0.92,Vmaxpu=1.5,model=8,zipv=[0.5,0,0.5,1,0,0,0],daily=RES1_2,status=variable
new load.3000165984M1 bus1=RML1005204291.1.2.3.0,Phases=3,kv=0.22,kW=0.00982,pf=0.92,Vminpu=0.92,Vmaxpu=1.5,model=8,zipv=[0.5,0,0.5,1,0,0,0],daily=RES1_2,status=variable
new load.3000165985M1 bus1=RML1005204291.1.2.3.0,Phases=3,kv=0.22,kW=2.4122,pf=0.92,Vminpu=0.92,Vmaxpu=1.5,model=8,zipv=[0.5,0,0.5,1,0,0,0],daily=RES1_2,status=variable
new load.3000165986M1 bus1=RML1005204291.1.2.3.0,Phases=3,kv=0.22,kW=1.53748,pf=0.92,Vminpu=0.92,Vmaxpu=1.5,model=8,zipv=[0.5,0,0.5,1,0,0,0],daily=RES1_2,status=variable
new load.3000165987M1 bus1=RML1005204291.1.2.3.0,Phases=3,kv=0.22,kW=1.18432,pf=0.92,Vminpu=0.92,Vmaxpu=1.5,model=8,zipv=[0.5,0,0.5,1,0,0,0],daily=RES1_2,status=variable
new load.3000165988M1 bus1=RML1005204298.1.2.3.0,Phases=3,kv=0.22,kW=1.34944,pf=0.92,Vminpu=0.92,Vmaxpu=1.5,model=8,zipv=[0.5,0,0.5,1,0,0,0],daily=RES1_2,status=variable
new load.3000165989M1 bus1=RML1005204298.1.2.3.0,Phases=3,kv=0.22,kW=2.00072,pf=0.92,Vminpu=0.92,Vmaxpu=1.5,model=8,zipv=[0.5,0,0.5,1,0,0,0],daily=RES1_2,status=variable
new load.3000165990M1 bus1=RML1005204298.1.2.3.0,Phases=3,kv=0.22,kW=2.04364,pf=0.92,Vminpu=0.92,Vmaxpu=1.5,model=8,zipv=[0.5,0,0.5,1,0,0,0],daily=RES1_2,status=variable
new load.3000165991M1 bus1=RML1005204298.1.2.3.0,Phases=3,kv=0.22,kW=0.73974,pf=0.92,Vminpu=0.92,Vmaxpu=1.5,model=8,zipv=[0.5,0,0.5,1,0,0,0],daily=RES1_2,status=variable
new load.3000165992M1 bus1=RML1005204298.1.2.3.0,Phases=3,kv=0.22,kW=0.85966,pf=0.92,Vminpu=0.92,Vmaxpu=1.5,model=8,zipv=[0.5,0,0.5,1,0,0,0],daily=RES1_2,status=variable
new load.3000165993M1 bus1=RML1005204298.1.2.3.0,Phases=3,kv=0.22,kW=2.60778,pf=0.92,Vminpu=0.92,Vmaxpu=1.5,model=8,zipv=[0.5,0,0.5,1,0,0,0],daily=RES1_2,status=variable
new load.3000165994M1 bus1=RML1005204298.1.2.3.0,Phases=3,kv=0.22,kW=0.28436,pf=0.92,Vminpu=0.92,Vmaxpu=1.5,model=8,zipv=[0.5,0,0.5,1,0,0,0],daily=RES1_2,status=variable
new load.3000165995M1 bus1=RML1005204298.1.2.3.0,Phases=3,kv=0.22,kW=1.03984,pf=0.92,Vminpu=0.92,Vmaxpu=1.5,model=8,zipv=[0.5,0,0.5,1,0,0,0],daily=RES1_2,status=variable
new load.3000165996M1 bus1=RML1005204298.1.2.3.0,Phases=3,kv=0.22,kW=1.27506,pf=0.92,Vminpu=0.92,Vmaxpu=1.5,model=8,zipv=[0.5,0,0.5,1,0,0,0],daily=RES1_2,status=variable
new load.3000165997M1 bus1=RML1005204298.1.2.3.0,Phases=3,kv=0.22,kW=1.55812,pf=0.92,Vminpu=0.92,Vmaxpu=1.5,model=8,zipv=[0.5,0,0.5,1,0,0,0],daily=RES1_2,status=variable
new load.3000165998M1 bus1=RML1005204242.1.2.3.0,Phases=3,kv=0.22,kW=0.00982,pf=0.92,Vminpu=0.92,Vmaxpu=1.5,model=8,zipv=[0.5,0,0.5,1,0,0,0],daily=RES1_2,status=variable
new load.3000165999M1 bus1=RML1005204242.1.2.3.0,Phases=3,kv=0.22,kW=0.33038,pf=0.92,Vminpu=0.92,Vmaxpu=1.5,model=8,zipv=[0.5,0,0.5,1,0,0,0],daily=RES1_2,status=variable
new load.3000166000M1 bus1=RML1005204242.1.2.3.0,Phases=3,kv=0.22,kW=1.9031,pf=0.92,Vminpu=0.92,Vmaxpu=1.5,model=8,zipv=[0.5,0,0.5,1,0,0,0],daily=RES1_2,status=variable
new load.3000166001M1 bus1=RML1005204242.1.2.3.0,Phases=3,kv=0.22,kW=0.03834,pf=0.92,Vminpu=0.92,Vmaxpu=1.5,model=8,zipv=[0.5,0,0.5,1,0,0,0],daily=RES1_2,status=variable
new load.3000166002M1 bus1=RML1005204242.1.2.3.0,Phases=3,kv=0.22,kW=0.48768,pf=0.92,Vminpu=0.92,Vmaxpu=1.5,model=8,zipv=[0.5,0,0.5,1,0,0,0],daily=COM1_8,status=variable
new load.3000166003M1 bus1=RML1005204242.1.2.3.0,Phases=3,kv=0.22,kW=1.94884,pf=0.92,Vminpu=0.92,Vmaxpu=1.5,model=8,zipv=[0.5,0,0.5,1,0,0,0],daily=COM1_8,status=variable
new load.3000166004M1 bus1=RML1005204242.1.2.3.0,Phases=3,kv=0.22,kW=0.24772,pf=0.92,Vminpu=0.92,Vmaxpu=1.5,model=8,zipv=[0.5,0,0.5,1,0,0,0],daily=COM1_8,status=variable
new load.3000166006M1 bus1=RML1005204263.1.2.3.0,Phases=3,kv=0.22,kW=0.00982,pf=0.92,Vminpu=0.92,Vmaxpu=1.5,model=8,zipv=[0.5,0,0.5,1,0,0,0],daily=RES1_2,status=variable
new load.3000166007M1 bus1=RML1005204200.1.2.3.0,Phases=3,kv=0.22,kW=0.00982,pf=0.92,Vminpu=0.92,Vmaxpu=1.5,model=8,zipv=[0.5,0,0.5,1,0,0,0],daily=RES1_2,status=variable
new load.3000166008M1 bus1=RML1005204207.1.2.3.0,Phases=3,kv=0.22,kW=2.33718,pf=0.92,Vminpu=0.92,Vmaxpu=1.5,model=8,zipv=[0.5,0,0.5,1,0,0,0],daily=RES1_2,status=variable
new load.3000166009M1 bus1=RML1005204235.1.2.3.0,Phases=3,kv=0.22,kW=0.00982,pf=0.92,Vminpu=0.92,Vmaxpu=1.5,model=8,zipv=[0.5,0,0.5,1,0,0,0],daily=RES1_2,status=variable
new load.3000166010M1 bus1=RML1005204235.1.2.3.0,Phases=3,kv=0.22,kW=1.78352,pf=0.92,Vminpu=0.92,Vmaxpu=1.5,model=8,zipv=[0.5,0,0.5,1,0,0,0],daily=RES1_2,status=variable
new load.3000166011M1 bus1=RML1005204235.1.2.3.0,Phases=3,kv=0.22,kW=0.00982,pf=0.92,Vminpu=0.92,Vmaxpu=1.5,model=8,zipv=[0.5,0,0.5,1,0,0,0],daily=RES1_2,status=variable
new load.3000166012M1 bus1=RML1005204193.1.2.0,Phases=2,kv=0.22,kW=2.38828,pf=0.92,Vminpu=0.92,Vmaxpu=1.5,model=8,zipv=[0.5,0,0.5,1,0,0,0],daily=RES1_2,status=variable
new load.3000166013M1 bus1=RML1005204193.1.2.0,Phases=2,kv=0.22,kW=0.25292,pf=0.92,Vminpu=0.92,Vmaxpu=1.5,model=8,zipv=[0.5,0,0.5,1,0,0,0],daily=RES1_2,status=variable
new load.3000166014M1 bus1=RML1005204193.1.2.0,Phases=2,kv=0.22,kW=1.1948,pf=0.92,Vminpu=0.92,Vmaxpu=1.5,model=8,zipv=[0.5,0,0.5,1,0,0,0],daily=RES1_2,status=variable
new load.3000166015M1 bus1=RML1005204186.1.2.3.0,Phases=3,kv=0.22,kW=2.98984,pf=0.92,Vminpu=0.92,Vmaxpu=1.5,model=8,zipv=[0.5,0,0.5,1,0,0,0],daily=COM1_8,status=variable
new load.3000166016M1 bus1=RML1006950231.2.3.0,Phases=2,kv=0.22,kW=0.00982,pf=0.92,Vminpu=0.92,Vmaxpu=1.5,model=8,zipv=[0.5,0,0.5,1,0,0,0],daily=RES1_2,status=variable
new load.3000166017M1 bus1=RML1010276964.1.2.3.0,Phases=3,kv=0.22,kW=1.92242,pf=0.92,Vminpu=0.92,Vmaxpu=1.5,model=8,zipv=[0.5,0,0.5,1,0,0,0],daily=RES1_2,status=variable
new load.3000164324M1 bus1=RML1004392557.2.3.0,Phases=2,kv=0.22,kW=5.24118,pf=0.92,Vminpu=0.92,Vmaxpu=1.5,model=8,zipv=[0.5,0,0.5,1,0,0,0],daily=RES1_2,status=variable
new load.3000164325M1 bus1=RML1004392564.1.2.3.0,Phases=3,kv=0.22,kW=0.00982,pf=0.92,Vminpu=0.92,Vmaxpu=1.5,model=8,zipv=[0.5,0,0.5,1,0,0,0],daily=RES1_2,status=variable
new load.3000164326M1 bus1=RML1004392564.1.2.3.0,Phases=3,kv=0.22,kW=0.00982,pf=0.92,Vminpu=0.92,Vmaxpu=1.5,model=8,zipv=[0.5,0,0.5,1,0,0,0],daily=RES1_2,status=variable
new load.3000164327M1 bus1=RML1004392564.1.2.3.0,Phases=3,kv=0.22,kW=0.00982,pf=0.92,Vminpu=0.92,Vmaxpu=1.5,model=8,zipv=[0.5,0,0.5,1,0,0,0],daily=RES1_2,status=variable
new load.3000164354M1 bus1=RML1004385221.1.0,Phases=1,kv=0.127,kW=0.69226,pf=0.92,Vminpu=0.92,Vmaxpu=1.5,model=8,zipv=[0.5,0,0.5,1,0,0,0],daily=RES1_2,status=variable
new load.3000164355M1 bus1=RML1004385228.2.0,Phases=1,kv=0.127,kW=4.84962,pf=0.92,Vminpu=0.92,Vmaxpu=1.5,model=8,zipv=[0.5,0,0.5,1,0,0,0],daily=COM1_8,status=variable
new load.3000164356M1 bus1=RML1004385242.1.2.3.0,Phases=3,kv=0.22,kW=11.02184,pf=0.92,Vminpu=0.92,Vmaxpu=1.5,model=8,zipv=[0.5,0,0.5,1,0,0,0],daily=RES1_2,status=variable
new load.3000164357M1 bus1=RML1004385235.1.2.3.0,Phases=3,kv=0.22,kW=0.00506,pf=0.92,Vminpu=0.92,Vmaxpu=1.5,model=8,zipv=[0.5,0,0.5,1,0,0,0],daily=COM1_8,status=variable
new load.3000164358M1 bus1=RML1004385235.1.2.3.0,Phases=3,kv=0.22,kW=1.45308,pf=0.92,Vminpu=0.92,Vmaxpu=1.5,model=8,zipv=[0.5,0,0.5,1,0,0,0],daily=RES1_2,status=variable
new load.3000164359M1 bus1=RML1004385235.1.2.3.0,Phases=3,kv=0.22,kW=1.7072,pf=0.92,Vminpu=0.92,Vmaxpu=1.5,model=8,zipv=[0.5,0,0.5,1,0,0,0],daily=RES1_2,status=variable
new load.3000164360M1 bus1=RML1004385235.1.2.3.0,Phases=3,kv=0.22,kW=0.04716,pf=0.92,Vminpu=0.92,Vmaxpu=1.5,model=8,zipv=[0.5,0,0.5,1,0,0,0],daily=RES1_2,status=variable
new load.3000164361M1 bus1=RML1004385235.1.2.3.0,Phases=3,kv=0.22,kW=1.4646,pf=0.92,Vminpu=0.92,Vmaxpu=1.5,model=8,zipv=[0.5,0,0.5,1,0,0,0],daily=RES1_2,status=variable
new load.3000164362M1 bus1=RML1004392459.1.2.3.0,Phases=3,kv=0.22,kW=0.2874,pf=0.92,Vminpu=0.92,Vmaxpu=1.5,model=8,zipv=[0.5,0,0.5,1,0,0,0],daily=RES1_2,status=variable
new load.3000164363M1 bus1=RML1004392452.1.2.0,Phases=2,kv=0.22,kW=4.15922,pf=0.92,Vminpu=0.92,Vmaxpu=1.5,model=8,zipv=[0.5,0,0.5,1,0,0,0],daily=RES1_2,status=variable
new load.3000164364M1 bus1=RML1004392473.1.2.3.0,Phases=3,kv=0.22,kW=3.25856,pf=0.92,Vminpu=0.92,Vmaxpu=1.5,model=8,zipv=[0.5,0,0.5,1,0,0,0],daily=RES1_2,status=variable
new load.3000164365M1 bus1=RML1004392466.1.2.0,Phases=2,kv=0.22,kW=4.24258,pf=0.92,Vminpu=0.92,Vmaxpu=1.5,model=8,zipv=[0.5,0,0.5,1,0,0,0],daily=RES1_2,status=variable
new load.3000164367M1 bus1=RML1004392515.1.0,Phases=1,kv=0.127,kW=0.00982,pf=0.92,Vminpu=0.92,Vmaxpu=1.5,model=8,zipv=[0.5,0,0.5,1,0,0,0],daily=RES1_2,status=variable
new load.3000164368M1 bus1=RML1004392522.1.2.3.0,Phases=3,kv=0.22,kW=0.00506,pf=0.92,Vminpu=0.92,Vmaxpu=1.5,model=8,zipv=[0.5,0,0.5,1,0,0,0],daily=COM1_8,status=variable
new load.3000164369M1 bus1=RML1004392522.1.2.3.0,Phases=3,kv=0.22,kW=0.00982,pf=0.92,Vminpu=0.92,Vmaxpu=1.5,model=8,zipv=[0.5,0,0.5,1,0,0,0],daily=RES1_2,status=variable
new load.3000164370M1 bus1=RML1004392522.1.2.3.0,Phases=3,kv=0.22,kW=0.46286,pf=0.92,Vminpu=0.92,Vmaxpu=1.5,model=8,zipv=[0.5,0,0.5,1,0,0,0],daily=RES1_2,status=variable
new load.3000164371M1 bus1=RML1004392522.1.2.3.0,Phases=3,kv=0.22,kW=2.50986,pf=0.92,Vminpu=0.92,Vmaxpu=1.5,model=8,zipv=[0.5,0,0.5,1,0,0,0],daily=RES1_2,status=variable
new load.3000164372M1 bus1=RML1004392529.1.2.3.0,Phases=3,kv=0.22,kW=0.8634,pf=0.92,Vminpu=0.92,Vmaxpu=1.5,model=8,zipv=[0.5,0,0.5,1,0,0,0],daily=COM1_8,status=variable
new load.3000164373M1 bus1=RML1004392529.1.2.3.0,Phases=3,kv=0.22,kW=8.56522,pf=0.92,Vminpu=0.92,Vmaxpu=1.5,model=8,zipv=[0.5,0,0.5,1,0,0,0],daily=COM1_8,status=variable
new load.3000164374M1 bus1=RML1004392529.1.2.3.0,Phases=3,kv=0.22,kW=0.14452,pf=0.92,Vminpu=0.92,Vmaxpu=1.5,model=8,zipv=[0.5,0,0.5,1,0,0,0],daily=COM1_8,status=variable
new load.3000164375M1 bus1=RML1004392529.1.2.3.0,Phases=3,kv=0.22,kW=2.06304,pf=0.92,Vminpu=0.92,Vmaxpu=1.5,model=8,zipv=[0.5,0,0.5,1,0,0,0],daily=COM1_8,status=variable
new load.3000164376M1 bus1=RML1004392529.1.2.3.0,Phases=3,kv=0.22,kW=2.28456,pf=0.92,Vminpu=0.92,Vmaxpu=1.5,model=8,zipv=[0.5,0,0.5,1,0,0,0],daily=RES1_2,status=variable
new load.3000164377M1 bus1=RML1004392536.1.2.3.0,Phases=3,kv=0.22,kW=20.73878,pf=0.92,Vminpu=0.92,Vmaxpu=1.5,model=8,zipv=[0.5,0,0.5,1,0,0,0],daily=COM1_8,status=variable
new load.3000164378M1 bus1=RML1004392536.1.2.3.0,Phases=3,kv=0.22,kW=1.32398,pf=0.92,Vminpu=0.92,Vmaxpu=1.5,model=8,zipv=[0.5,0,0.5,1,0,0,0],daily=RES1_2,status=variable
new load.3000166018M1 bus1=RML1005143965.1.2.3.0,Phases=3,kv=0.22,kW=2.13406,pf=0.92,Vminpu=0.92,Vmaxpu=1.5,model=8,zipv=[0.5,0,0.5,1,0,0,0],daily=RES1_2,status=variable
new load.3000166020M1 bus1=RML1005143832.1.2.3.0,Phases=3,kv=0.22,kW=2.19336,pf=0.92,Vminpu=0.92,Vmaxpu=1.5,model=8,zipv=[0.5,0,0.5,1,0,0,0],daily=RES1_2,status=variable
new load.3000166021M1 bus1=RML1005143832.1.2.3.0,Phases=3,kv=0.22,kW=0.43572,pf=0.92,Vminpu=0.92,Vmaxpu=1.5,model=8,zipv=[0.5,0,0.5,1,0,0,0],daily=RES1_2,status=variable
new load.3000166022M1 bus1=RML1005098815.2.3.0,Phases=2,kv=0.22,kW=1.6184,pf=0.92,Vminpu=0.92,Vmaxpu=1.5,model=8,zipv=[0.5,0,0.5,1,0,0,0],daily=RES1_2,status=variable
new load.3000166103M1 bus1=RML1005006604.1.2.3.0,Phases=3,kv=0.22,kW=2.55512,pf=0.92,Vminpu=0.92,Vmaxpu=1.5,model=8,zipv=[0.5,0,0.5,1,0,0,0],daily=IND1_10,status=variable
new load.3000166104M1 bus1=RML1005079131.1.2.3.0,Phases=3,kv=0.22,kW=2.64424,pf=0.92,Vminpu=0.92,Vmaxpu=1.5,model=8,zipv=[0.5,0,0.5,1,0,0,0],daily=COM1_8,status=variable
new load.3000166105M1 bus1=RML1005079131.1.2.3.0,Phases=3,kv=0.22,kW=0.00506,pf=0.92,Vminpu=0.92,Vmaxpu=1.5,model=8,zipv=[0.5,0,0.5,1,0,0,0],daily=COM1_8,status=variable
new load.3000166106M1 bus1=RML1005006611.1.2.3.0,Phases=3,kv=0.22,kW=0.00506,pf=0.92,Vminpu=0.92,Vmaxpu=1.5,model=8,zipv=[0.5,0,0.5,1,0,0,0],daily=COM1_8,status=variable
new load.3000166148M1 bus1=RML1005087349.1.2.3.0,Phases=3,kv=0.22,kW=0.27224,pf=0.92,Vminpu=0.92,Vmaxpu=1.5,model=8,zipv=[0.5,0,0.5,1,0,0,0],daily=RES1_2,status=variable
new load.3000166149M1 bus1=RML1005087349.1.2.3.0,Phases=3,kv=0.22,kW=1.62234,pf=0.92,Vminpu=0.92,Vmaxpu=1.5,model=8,zipv=[0.5,0,0.5,1,0,0,0],daily=RES1_2,status=variable
new load.3000166150M1 bus1=RML1005087349.1.2.3.0,Phases=3,kv=0.22,kW=0.37578,pf=0.92,Vminpu=0.92,Vmaxpu=1.5,model=8,zipv=[0.5,0,0.5,1,0,0,0],daily=RES1_2,status=variable
new load.3000166151M1 bus1=RML1005087349.1.2.3.0,Phases=3,kv=0.22,kW=1.48964,pf=0.92,Vminpu=0.92,Vmaxpu=1.5,model=8,zipv=[0.5,0,0.5,1,0,0,0],daily=RES1_2,status=variable
new load.3000166152M1 bus1=RML1005087349.1.2.3.0,Phases=3,kv=0.22,kW=1.0798,pf=0.92,Vminpu=0.92,Vmaxpu=1.5,model=8,zipv=[0.5,0,0.5,1,0,0,0],daily=RES1_2,status=variable
new load.3000166153M1 bus1=RML1005087342.1.2.3.0,Phases=3,kv=0.22,kW=1.61906,pf=0.92,Vminpu=0.92,Vmaxpu=1.5,model=8,zipv=[0.5,0,0.5,1,0,0,0],daily=RES1_2,status=variable
new load.3000166154M1 bus1=RML1005087328.1.2.3.0,Phases=3,kv=0.22,kW=2.38042,pf=0.92,Vminpu=0.92,Vmaxpu=1.5,model=8,zipv=[0.5,0,0.5,1,0,0,0],daily=RES1_2,status=variable
new load.3000166155M1 bus1=RML1005087335.1.2.3.0,Phases=3,kv=0.22,kW=0.74106,pf=0.92,Vminpu=0.92,Vmaxpu=1.5,model=8,zipv=[0.5,0,0.5,1,0,0,0],daily=RES1_2,status=variable
new load.3000166156M1 bus1=RML1005087356.1.2.3.0,Phases=3,kv=0.22,kW=2.4548,pf=0.92,Vminpu=0.92,Vmaxpu=1.5,model=8,zipv=[0.5,0,0.5,1,0,0,0],daily=RES1_2,status=variable
new load.3000166157M1 bus1=RML1005087356.1.2.3.0,Phases=3,kv=0.22,kW=1.34484,pf=0.92,Vminpu=0.92,Vmaxpu=1.5,model=8,zipv=[0.5,0,0.5,1,0,0,0],daily=RES1_2,status=variable
new load.3000166159M1 bus1=RML1005087356.1.2.3.0,Phases=3,kv=0.22,kW=1.80318,pf=0.92,Vminpu=0.92,Vmaxpu=1.5,model=8,zipv=[0.5,0,0.5,1,0,0,0],daily=RES1_2,status=variable
new load.3000166160M1 bus1=RML1005087356.1.2.3.0,Phases=3,kv=0.22,kW=0.83344,pf=0.92,Vminpu=0.92,Vmaxpu=1.5,model=8,zipv=[0.5,0,0.5,1,0,0,0],daily=RES1_2,status=variable
new load.3000166161M1 bus1=RML1005087356.1.2.3.0,Phases=3,kv=0.22,kW=1.76256,pf=0.92,Vminpu=0.92,Vmaxpu=1.5,model=8,zipv=[0.5,0,0.5,1,0,0,0],daily=RES1_2,status=variable
new load.3000166163M1 bus1=RML1005087377.1.2.3.0,Phases=3,kv=0.22,kW=3.3364,pf=0.92,Vminpu=0.92,Vmaxpu=1.5,model=8,zipv=[0.5,0,0.5,1,0,0,0],daily=RES1_2,status=variable
new load.3000166164M1 bus1=RML1005087384.1.2.3.0,Phases=3,kv=0.22,kW=0.6274,pf=0.92,Vminpu=0.92,Vmaxpu=1.5,model=8,zipv=[0.5,0,0.5,1,0,0,0],daily=COM1_8,status=variable
new load.3000166165M1 bus1=RML1005087391.1.2.3.0,Phases=3,kv=0.22,kW=0.62554,pf=0.92,Vminpu=0.92,Vmaxpu=1.5,model=8,zipv=[0.5,0,0.5,1,0,0,0],daily=COM1_8,status=variable
new load.3000166167M1 bus1=RML1005087370.1.0,Phases=1,kv=0.127,kW=1.07194,pf=0.92,Vminpu=0.92,Vmaxpu=1.5,model=8,zipv=[0.5,0,0.5,1,0,0,0],daily=RES1_2,status=variable
new load.3000166168M1 bus1=RML1005087363.1.2.3.0,Phases=3,kv=0.22,kW=2.58912,pf=0.92,Vminpu=0.92,Vmaxpu=1.5,model=8,zipv=[0.5,0,0.5,1,0,0,0],daily=RES1_2,status=variable
new load.3000166170M1 bus1=RML1005087321.1.2.3.0,Phases=3,kv=0.22,kW=2.36764,pf=0.92,Vminpu=0.92,Vmaxpu=1.5,model=8,zipv=[0.5,0,0.5,1,0,0,0],daily=RES1_2,status=variable
new load.3000166171M1 bus1=RML1005087321.1.2.3.0,Phases=3,kv=0.22,kW=1.66392,pf=0.92,Vminpu=0.92,Vmaxpu=1.5,model=8,zipv=[0.5,0,0.5,1,0,0,0],daily=RES1_2,status=variable
new load.3000164379M1 bus1=RML1004392536.1.2.3.0,Phases=3,kv=0.22,kW=2.18514,pf=0.92,Vminpu=0.92,Vmaxpu=1.5,model=8,zipv=[0.5,0,0.5,1,0,0,0],daily=COM1_8,status=variable
new load.3000164380M1 bus1=RML1004392536.1.2.3.0,Phases=3,kv=0.22,kW=0.00982,pf=0.92,Vminpu=0.92,Vmaxpu=1.5,model=8,zipv=[0.5,0,0.5,1,0,0,0],daily=RES1_2,status=variable
new load.3000164381M1 bus1=RML1004395308.1.2.3.0,Phases=3,kv=0.22,kW=3.7507,pf=0.92,Vminpu=0.92,Vmaxpu=1.5,model=8,zipv=[0.5,0,0.5,1,0,0,0],daily=COM1_8,status=variable
new load.3000164382M1 bus1=RML1004403498.2.3.0,Phases=2,kv=0.22,kW=3.64498,pf=0.92,Vminpu=0.92,Vmaxpu=1.5,model=8,zipv=[0.5,0,0.5,1,0,0,0],daily=COM1_8,status=variable
new load.3000164383M1 bus1=RML1004395322.1.2.3.0,Phases=3,kv=0.22,kW=3.0057,pf=0.92,Vminpu=0.92,Vmaxpu=1.5,model=8,zipv=[0.5,0,0.5,1,0,0,0],daily=COM1_8,status=variable
new load.3000164384M1 bus1=RML1004395322.1.2.3.0,Phases=3,kv=0.22,kW=4.3852,pf=0.92,Vminpu=0.92,Vmaxpu=1.5,model=8,zipv=[0.5,0,0.5,1,0,0,0],daily=COM1_8,status=variable
new load.3000164385M1 bus1=RML1004395322.1.2.3.0,Phases=3,kv=0.22,kW=3.07628,pf=0.92,Vminpu=0.92,Vmaxpu=1.5,model=8,zipv=[0.5,0,0.5,1,0,0,0],daily=RES1_2,status=variable
new load.3000164386M1 bus1=RML1004395322.1.2.3.0,Phases=3,kv=0.22,kW=1.92118,pf=0.92,Vminpu=0.92,Vmaxpu=1.5,model=8,zipv=[0.5,0,0.5,1,0,0,0],daily=COM1_8,status=variable
new load.3000164387M1 bus1=RML1004395322.1.2.3.0,Phases=3,kv=0.22,kW=3.32042,pf=0.92,Vminpu=0.92,Vmaxpu=1.5,model=8,zipv=[0.5,0,0.5,1,0,0,0],daily=COM1_8,status=variable
new load.3000164388M1 bus1=RML1004395315.1.2.3.0,Phases=3,kv=0.22,kW=105.25746,pf=0.92,Vminpu=0.92,Vmaxpu=1.5,model=8,zipv=[0.5,0,0.5,1,0,0,0],daily=IND1_10,status=variable
new load.3000164390M1 bus1=RML1004395343.1.2.3.0,Phases=3,kv=0.22,kW=0.00506,pf=0.92,Vminpu=0.92,Vmaxpu=1.5,model=8,zipv=[0.5,0,0.5,1,0,0,0],daily=COM1_8,status=variable
new load.3000164392M1 bus1=RML1004367518.1.2.3.0,Phases=3,kv=0.22,kW=1.57238,pf=0.92,Vminpu=0.92,Vmaxpu=1.5,model=8,zipv=[0.5,0,0.5,1,0,0,0],daily=COM1_8,status=variable
new load.3000164393M1 bus1=RML1004367518.1.2.3.0,Phases=3,kv=0.22,kW=5.2188,pf=0.92,Vminpu=0.92,Vmaxpu=1.5,model=8,zipv=[0.5,0,0.5,1,0,0,0],daily=COM1_8,status=variable
new load.3000164394M1 bus1=RML1004367518.1.2.3.0,Phases=3,kv=0.22,kW=3.09378,pf=0.92,Vminpu=0.92,Vmaxpu=1.5,model=8,zipv=[0.5,0,0.5,1,0,0,0],daily=COM1_8,status=variable
new load.3000164395M1 bus1=RML1004367518.1.2.3.0,Phases=3,kv=0.22,kW=0.89266,pf=0.92,Vminpu=0.92,Vmaxpu=1.5,model=8,zipv=[0.5,0,0.5,1,0,0,0],daily=COM1_8,status=variable
new load.3000164396M1 bus1=RML1004367511.1.2.3.0,Phases=3,kv=0.22,kW=1.5827,pf=0.92,Vminpu=0.92,Vmaxpu=1.5,model=8,zipv=[0.5,0,0.5,1,0,0,0],daily=RES1_2,status=variable
new load.3000164398M1 bus1=RML1004367504.1.3.0,Phases=2,kv=0.22,kW=2.2294,pf=0.92,Vminpu=0.92,Vmaxpu=1.5,model=8,zipv=[0.5,0,0.5,1,0,0,0],daily=RES1_2,status=variable
new load.3000164400M1 bus1=RML1004367497.1.2.3.0,Phases=3,kv=0.22,kW=0.3974,pf=0.92,Vminpu=0.92,Vmaxpu=1.5,model=8,zipv=[0.5,0,0.5,1,0,0,0],daily=RES1_2,status=variable
new load.3000164401M1 bus1=RML1004367490.1.2.3.0,Phases=3,kv=0.22,kW=0.39334,pf=0.92,Vminpu=0.92,Vmaxpu=1.5,model=8,zipv=[0.5,0,0.5,1,0,0,0],daily=COM1_8,status=variable
new load.3000164402M1 bus1=RML1004367490.1.2.3.0,Phases=3,kv=0.22,kW=2.44628,pf=0.92,Vminpu=0.92,Vmaxpu=1.5,model=8,zipv=[0.5,0,0.5,1,0,0,0],daily=RES1_2,status=variable
new load.3000164403M1 bus1=RML1004367490.1.2.3.0,Phases=3,kv=0.22,kW=2.01154,pf=0.92,Vminpu=0.92,Vmaxpu=1.5,model=8,zipv=[0.5,0,0.5,1,0,0,0],daily=RES1_2,status=variable
new load.3000164404M1 bus1=RML1004367483.1.2.3.0,Phases=3,kv=0.22,kW=0.61828,pf=0.92,Vminpu=0.92,Vmaxpu=1.5,model=8,zipv=[0.5,0,0.5,1,0,0,0],daily=COM1_8,status=variable
new load.3000164406M1 bus1=RML1004385144.1.3.0,Phases=2,kv=0.22,kW=0.00982,pf=0.92,Vminpu=0.92,Vmaxpu=1.5,model=8,zipv=[0.5,0,0.5,1,0,0,0],daily=RES1_2,status=variable
new load.3000164407M1 bus1=RML1004385137.1.2.3.0,Phases=3,kv=0.22,kW=6.26858,pf=0.92,Vminpu=0.92,Vmaxpu=1.5,model=8,zipv=[0.5,0,0.5,1,0,0,0],daily=COM1_8,status=variable
new load.3000164408M1 bus1=RML1004385137.1.2.3.0,Phases=3,kv=0.22,kW=0.73776,pf=0.92,Vminpu=0.92,Vmaxpu=1.5,model=8,zipv=[0.5,0,0.5,1,0,0,0],daily=COM1_8,status=variable
new load.3000164409M1 bus1=RML1004385137.1.2.3.0,Phases=3,kv=0.22,kW=0.50388,pf=0.92,Vminpu=0.92,Vmaxpu=1.5,model=8,zipv=[0.5,0,0.5,1,0,0,0],daily=COM1_8,status=variable
new load.3000164410M1 bus1=RML1004385137.1.2.3.0,Phases=3,kv=0.22,kW=0.00506,pf=0.92,Vminpu=0.92,Vmaxpu=1.5,model=8,zipv=[0.5,0,0.5,1,0,0,0],daily=COM1_8,status=variable
new load.3000164411M1 bus1=RML1004385137.1.2.3.0,Phases=3,kv=0.22,kW=0.73776,pf=0.92,Vminpu=0.92,Vmaxpu=1.5,model=8,zipv=[0.5,0,0.5,1,0,0,0],daily=COM1_8,status=variable
new load.3000166172M1 bus1=RML1005087321.1.2.3.0,Phases=3,kv=0.22,kW=0.7273,pf=0.92,Vminpu=0.92,Vmaxpu=1.5,model=8,zipv=[0.5,0,0.5,1,0,0,0],daily=RES1_2,status=variable
new load.3000166173M1 bus1=RML1005087321.1.2.3.0,Phases=3,kv=0.22,kW=1.794,pf=0.92,Vminpu=0.92,Vmaxpu=1.5,model=8,zipv=[0.5,0,0.5,1,0,0,0],daily=RES1_2,status=variable
new load.3000166174M1 bus1=RML1005087321.1.2.3.0,Phases=3,kv=0.22,kW=0.77774,pf=0.92,Vminpu=0.92,Vmaxpu=1.5,model=8,zipv=[0.5,0,0.5,1,0,0,0],daily=RES1_2,status=variable
new load.3000166178M1 bus1=RML1005110855.1.3.0,Phases=2,kv=0.22,kW=1.45688,pf=0.92,Vminpu=0.92,Vmaxpu=1.5,model=8,zipv=[0.5,0,0.5,1,0,0,0],daily=RES1_2,status=variable
new load.3000166179M1 bus1=RML1005110848.1.2.0,Phases=2,kv=0.22,kW=0.98808,pf=0.92,Vminpu=0.92,Vmaxpu=1.5,model=8,zipv=[0.5,0,0.5,1,0,0,0],daily=RES1_2,status=variable
new load.3000166180M1 bus1=RML1005110897.1.2.3.0,Phases=3,kv=0.22,kW=1.27474,pf=0.92,Vminpu=0.92,Vmaxpu=1.5,model=8,zipv=[0.5,0,0.5,1,0,0,0],daily=RES1_2,status=variable
new load.3000166181M1 bus1=RML1005110897.1.2.3.0,Phases=3,kv=0.22,kW=0.99496,pf=0.92,Vminpu=0.92,Vmaxpu=1.5,model=8,zipv=[0.5,0,0.5,1,0,0,0],daily=RES1_2,status=variable
new load.3000166182M1 bus1=RML1005110897.1.2.3.0,Phases=3,kv=0.22,kW=3.21714,pf=0.92,Vminpu=0.92,Vmaxpu=1.5,model=8,zipv=[0.5,0,0.5,1,0,0,0],daily=RES1_2,status=variable
new load.3000166183M1 bus1=RML1005110897.1.2.3.0,Phases=3,kv=0.22,kW=2.09016,pf=0.92,Vminpu=0.92,Vmaxpu=1.5,model=8,zipv=[0.5,0,0.5,1,0,0,0],daily=RES1_2,status=variable
new load.3000166184M1 bus1=RML1005110897.1.2.3.0,Phases=3,kv=0.22,kW=0.58086,pf=0.92,Vminpu=0.92,Vmaxpu=1.5,model=8,zipv=[0.5,0,0.5,1,0,0,0],daily=RES1_2,status=variable
new load.3000166185M1 bus1=RML1005110890.1.2.3.0,Phases=3,kv=0.22,kW=0.24374,pf=0.92,Vminpu=0.92,Vmaxpu=1.5,model=8,zipv=[0.5,0,0.5,1,0,0,0],daily=RES1_2,status=variable
new load.3000166186M1 bus1=RML1005110890.1.2.3.0,Phases=3,kv=0.22,kW=2.157,pf=0.92,Vminpu=0.92,Vmaxpu=1.5,model=8,zipv=[0.5,0,0.5,1,0,0,0],daily=RES1_2,status=variable
new load.3000166187M1 bus1=RML1005110890.1.2.3.0,Phases=3,kv=0.22,kW=1.12108,pf=0.92,Vminpu=0.92,Vmaxpu=1.5,model=8,zipv=[0.5,0,0.5,1,0,0,0],daily=RES1_2,status=variable
new load.3000166189M1 bus1=RML1005110890.1.2.3.0,Phases=3,kv=0.22,kW=2.53768,pf=0.92,Vminpu=0.92,Vmaxpu=1.5,model=8,zipv=[0.5,0,0.5,1,0,0,0],daily=RES1_2,status=variable
new load.3000166190M1 bus1=RML1005110890.1.2.3.0,Phases=3,kv=0.22,kW=2.56716,pf=0.92,Vminpu=0.92,Vmaxpu=1.5,model=8,zipv=[0.5,0,0.5,1,0,0,0],daily=RES1_2,status=variable
new load.3000166191M1 bus1=RML1005110890.1.2.3.0,Phases=3,kv=0.22,kW=2.1144,pf=0.92,Vminpu=0.92,Vmaxpu=1.5,model=8,zipv=[0.5,0,0.5,1,0,0,0],daily=RES1_2,status=variable
new load.3000166192M1 bus1=RML1005110890.1.2.3.0,Phases=3,kv=0.22,kW=0.64278,pf=0.92,Vminpu=0.92,Vmaxpu=1.5,model=8,zipv=[0.5,0,0.5,1,0,0,0],daily=RES1_2,status=variable
new load.3000166193M1 bus1=RML1005110890.1.2.3.0,Phases=3,kv=0.22,kW=1.86902,pf=0.92,Vminpu=0.92,Vmaxpu=1.5,model=8,zipv=[0.5,0,0.5,1,0,0,0],daily=RES1_2,status=variable
new load.3000166194M1 bus1=RML1005110918.1.2.3.0,Phases=3,kv=0.22,kW=1.20036,pf=0.92,Vminpu=0.92,Vmaxpu=1.5,model=8,zipv=[0.5,0,0.5,1,0,0,0],daily=RES1_2,status=variable
new load.3000166195M1 bus1=RML1005110925.2.3.0,Phases=2,kv=0.22,kW=0.00982,pf=0.92,Vminpu=0.92,Vmaxpu=1.5,model=8,zipv=[0.5,0,0.5,1,0,0,0],daily=RES1_2,status=variable
new load.3000166196M1 bus1=RML1005110932.1.2.3.0,Phases=3,kv=0.22,kW=0.00982,pf=0.92,Vminpu=0.92,Vmaxpu=1.5,model=8,zipv=[0.5,0,0.5,1,0,0,0],daily=RES1_2,status=variable
new load.3000166197M1 bus1=RML1005110939.1.2.3.0,Phases=3,kv=0.22,kW=6.2436,pf=0.92,Vminpu=0.92,Vmaxpu=1.5,model=8,zipv=[0.5,0,0.5,1,0,0,0],daily=COM1_8,status=variable
new load.3000166198M1 bus1=RML1005110939.1.2.3.0,Phases=3,kv=0.22,kW=1.69202,pf=0.92,Vminpu=0.92,Vmaxpu=1.5,model=8,zipv=[0.5,0,0.5,1,0,0,0],daily=COM1_8,status=variable
new load.3000166199M1 bus1=RML1005110939.1.2.3.0,Phases=3,kv=0.22,kW=0.00506,pf=0.92,Vminpu=0.92,Vmaxpu=1.5,model=8,zipv=[0.5,0,0.5,1,0,0,0],daily=COM1_8,status=variable
new load.3000166200M1 bus1=RML1005110939.1.2.3.0,Phases=3,kv=0.22,kW=2.90546,pf=0.92,Vminpu=0.92,Vmaxpu=1.5,model=8,zipv=[0.5,0,0.5,1,0,0,0],daily=COM1_8,status=variable
new load.3000166201M1 bus1=RML1005110911.1.2.0,Phases=2,kv=0.22,kW=0.00982,pf=0.92,Vminpu=0.92,Vmaxpu=1.5,model=8,zipv=[0.5,0,0.5,1,0,0,0],daily=RES1_2,status=variable
new load.3000166202M1 bus1=RML1005110904.1.2.3.0,Phases=3,kv=0.22,kW=0.00982,pf=0.92,Vminpu=0.92,Vmaxpu=1.5,model=8,zipv=[0.5,0,0.5,1,0,0,0],daily=RES1_2,status=variable
new load.3000166203M1 bus1=RML1005110946.3.0,Phases=1,kv=0.127,kW=0.90322,pf=0.92,Vminpu=0.92,Vmaxpu=1.5,model=8,zipv=[0.5,0,0.5,1,0,0,0],daily=RES1_2,status=variable
new load.3000164412M1 bus1=RML1004385130.1.2.3.0,Phases=3,kv=0.22,kW=0.00982,pf=0.92,Vminpu=0.92,Vmaxpu=1.5,model=8,zipv=[0.5,0,0.5,1,0,0,0],daily=RES1_2,status=variable
new load.3000164413M1 bus1=RML1004385130.1.2.3.0,Phases=3,kv=0.22,kW=3.09756,pf=0.92,Vminpu=0.92,Vmaxpu=1.5,model=8,zipv=[0.5,0,0.5,1,0,0,0],daily=RES1_2,status=variable
new load.3000164414M1 bus1=RML1004385130.1.2.3.0,Phases=3,kv=0.22,kW=0.94712,pf=0.92,Vminpu=0.92,Vmaxpu=1.5,model=8,zipv=[0.5,0,0.5,1,0,0,0],daily=RES1_2,status=variable
new load.3000164415M1 bus1=RML1004385130.1.2.3.0,Phases=3,kv=0.22,kW=0.04184,pf=0.92,Vminpu=0.92,Vmaxpu=1.5,model=8,zipv=[0.5,0,0.5,1,0,0,0],daily=COM1_8,status=variable
new load.3000164416M1 bus1=RML1004385130.1.2.3.0,Phases=3,kv=0.22,kW=0.62874,pf=0.92,Vminpu=0.92,Vmaxpu=1.5,model=8,zipv=[0.5,0,0.5,1,0,0,0],daily=COM1_8,status=variable
new load.3000164417M1 bus1=RML1004385151.1.2.3.0,Phases=3,kv=0.22,kW=8.14852,pf=0.92,Vminpu=0.92,Vmaxpu=1.5,model=8,zipv=[0.5,0,0.5,1,0,0,0],daily=IND1_10,status=variable
new load.3000164418M1 bus1=RML1004385151.1.2.3.0,Phases=3,kv=0.22,kW=2.26542,pf=0.92,Vminpu=0.92,Vmaxpu=1.5,model=8,zipv=[0.5,0,0.5,1,0,0,0],daily=COM1_8,status=variable
new load.3000164419M1 bus1=RML1004385151.1.2.3.0,Phases=3,kv=0.22,kW=0.26088,pf=0.92,Vminpu=0.92,Vmaxpu=1.5,model=8,zipv=[0.5,0,0.5,1,0,0,0],daily=COM1_8,status=variable
new load.3000164420M1 bus1=RML1004385151.1.2.3.0,Phases=3,kv=0.22,kW=1.12402,pf=0.92,Vminpu=0.92,Vmaxpu=1.5,model=8,zipv=[0.5,0,0.5,1,0,0,0],daily=COM1_8,status=variable