new line.RBT_10045848 bus1=BBT2171072.1.2.3.0,bus2=RML1010045848.1.2.3.0,Phases=3,Linecode=CABBTG06_4_3_3,Length=0.029000000,Units=km
new line.RBT_10099566 bus1=BBT2447558.1.2.3.0,bus2=RML1010099566.1.2.3.0,Phases=3,Linecode=CABBTG06_4_3_3,Length=0.029000000,Units=km
new line.RBT_10099589 bus1=BBT2423933.1.2.3.0,bus2=RML1010099589.1.2.3.0,Phases=3,Linecode=CABBTG06_4_3_3,Length=0.017000000,Units=km
new line.RBT_10099633 bus1=BBT2454481.2.3.0,bus2=RML1010099633.2.3.0,Phases=2,Linecode=CABBTG05_4_2_2,Length=0.029000000,Units=km
new line.RBT_10099735 bus1=BBT3317126.1.2.3.0,bus2=RML1010099735.1.2.3.0,Phases=3,Linecode=CABBTG06_4_3_3,Length=0.029000000,Units=km
new line.RBT_10099737 bus1=BBT2183651.1.2.3.0,bus2=RML1010099737.1.2.3.0,Phases=3,Linecode=CABBTG06_4_3_3,Length=0.029000000,Units=km
new line.RBT_10128290 bus1=BBT2181922.2.3.0,bus2=RML1010128290.2.3.0,Phases=2,Linecode=CABBTG05_4_2_2,Length=0.029000000,Units=km
new line.RBT_10178383 bus1=BBT3617769.1.2.3.0,bus2=RML1010178383.1.2.3.0,Phases=3,Linecode=CABBTG07_4_3_3,Length=0.029000000,Units=km
new line.RBT_10272532 bus1=BBT2161349.1.2.3.0,bus2=RML1010272532.1.2.3.0,Phases=3,Linecode=CABBTG06_4_3_3,Length=0.029000000,Units=km
new line.RBT_10300538 bus1=BBT2174838.1.2.3.0,bus2=RML1010300538.1.2.3.0,Phases=3,Linecode=CABBTG06_4_3_3,Length=0.029000000,Units=km
new line.RBT_10302862 bus1=BBT2210349.1.2.0,bus2=RML1010302862.1.2.0,Phases=2,Linecode=CABBTG05_4_2_2,Length=0.029000000,Units=km
new line.RBT_10329922 bus1=BBT3586829.1.2.0,bus2=RML1010329922.1.2.0,Phases=2,Linecode=CABBTG05_4_2_2,Length=0.017000000,Units=km
new line.RBT_10409081 bus1=BBT2194340.1.2.3.0,bus2=RML1010409081.1.2.3.0,Phases=3,Linecode=CABBTG12_4_3_3,Length=0.029000000,Units=km
new line.RBT_10409144 bus1=BBT2934310.2.3.0,bus2=RML1010409144.2.3.0,Phases=2,Linecode=CABBTG05_4_2_2,Length=0.017000000,Units=km
new line.RBT_10440697 bus1=BBT2158556.1.2.3.0,bus2=RML1010440697.1.2.3.0,Phases=3,Linecode=CABBTG09_4_3_3,Length=0.029000000,Units=km
new line.RBT_10443069 bus1=BBT2443981.2.3.0,bus2=RML1010443069.2.3.0,Phases=2,Linecode=CABBTG05_4_2_2,Length=0.029000000,Units=km
new line.RBT_10471249 bus1=BBT4197586.1.2.3.0,bus2=RML1010471249.1.2.3.0,Phases=3,Linecode=CABBTG07_4_3_3,Length=0.029000000,Units=km
new line.RBT_10725933 bus1=BBT2169448.1.2.0,bus2=RML1010725933.1.2.0,Phases=2,Linecode=CABBTG05_4_2_2,Length=0.017000000,Units=km
new line.RBT_10853889 bus1=BBT2400350.1.2.3.0,bus2=RML1010853889.1.2.3.0,Phases=3,Linecode=CABBTG06_4_3_3,Length=0.017000000,Units=km
new line.RBT_10854826 bus1=BBT2178632.1.2.3.0,bus2=RML1010854826.1.2.3.0,Phases=3,Linecode=CABBTG06_4_3_3,Length=0.017000000,Units=km
new line.RBT_10912771 bus1=BBT2179850.1.0,bus2=RML1010912771.1.0,Phases=1,Linecode=CABBTG02_4_1_1,Length=0.017000000,Units=km
new line.RBT_11062290 bus1=BBT4587941.1.0,bus2=RML1011062290.1.0,Phases=1,Linecode=CABBTG02_4_1_1,Length=0.017000000,Units=km
new line.RBT_11212459 bus1=BBT2449637.2.3.0,bus2=RML1011212459.2.3.0,Phases=2,Linecode=CABBTG05_4_2_2,Length=0.029000000,Units=km
new line.RBT_11236341 bus1=BBT2180522.1.2.0,bus2=RML1011236341.1.2.0,Phases=2,Linecode=CABBTG05_4_2_2,Length=0.017000000,Units=km
new line.RBT_11237744 bus1=BBT2445010.1.2.0,bus2=RML1011237744.1.2.0,Phases=2,Linecode=CABBTG05_4_2_2,Length=0.017000000,Units=km
new line.RBT_11238074 bus1=BBT2171058.1.2.3.0,bus2=RML1011238074.1.2.3.0,Phases=3,Linecode=CABBTG06_4_3_3,Length=0.017000000,Units=km
new line.RBT_11238187 bus1=BBT2445038.1.2.0,bus2=RML1011238187.1.2.0,Phases=2,Linecode=CABBTG05_4_2_2,Length=0.017000000,Units=km
new line.RBT_11296348 bus1=BBT2449602.1.2.3.0,bus2=RML1011296348.1.2.3.0,Phases=3,Linecode=CABBTG06_4_3_3,Length=0.017000000,Units=km
new line.RBT_11296390 bus1=BBT2445038.1.2.3.0,bus2=RML1011296390.1.2.3.0,Phases=3,Linecode=CABBTG06_4_3_3,Length=0.017000000,Units=km
new line.RBT_11356080 bus1=BBT2212148.1.2.0,bus2=RML1011356080.1.2.0,Phases=2,Linecode=CABBTG05_4_2_2,Length=0.017000000,Units=km
new line.RBT_11356083 bus1=BBT109647470.1.2.3.0,bus2=RML1011356083.1.2.3.0,Phases=3,Linecode=CABBTG07_4_3_3,Length=0.017000000,Units=km
new line.RBT_11356683 bus1=BBT2409520.1.2.0,bus2=RML1011356683.1.2.0,Phases=2,Linecode=CABBTG05_4_2_2,Length=0.017000000,Units=km
new line.RBT_4153773 bus1=BBT2210363.3.1.0,bus2=RML1004153773.3.1.0,Phases=2,Linecode=CABBTG05_4_2_2,Length=0.029000000,Units=km
new line.RBT_4153780 bus1=BBT2092742.3.0,bus2=RML1004153780.3.0,Phases=1,Linecode=CABBTG01_4_1_1,Length=0.029000000,Units=km
new line.RBT_4153787 bus1=BBT2092749.1.2.0,bus2=RML1004153787.1.2.0,Phases=2,Linecode=CABBTG05_4_2_2,Length=0.029000000,Units=km
new line.RBT_4153794 bus1=BBT2092749.3.0,bus2=RML1004153794.3.0,Phases=1,Linecode=CABBTG01_4_1_1,Length=0.029000000,Units=km
new line.RBT_4153801 bus1=BBT2092749.2.3.0,bus2=RML1004153801.2.3.0,Phases=2,Linecode=CABBTG05_4_2_2,Length=0.029000000,Units=km
new line.RBT_10120961 bus1=BBT2400686.1.0,bus2=RML1010120961.1.0,Phases=1,Linecode=CABBTG02_4_1_1,Length=0.029000000,Units=km
new line.RBT_10149975 bus1=BBT2443806.1.2.3.0,bus2=RML1010149975.1.2.3.0,Phases=3,Linecode=CABBTG06_4_3_3,Length=0.008000000,Units=km
new line.RBT_10217378 bus1=BBT15763316.1.2.0,bus2=RML1010217378.1.2.0,Phases=2,Linecode=CABBTG05_4_2_2,Length=0.029000000,Units=km
new line.RBT_10217460 bus1=BBT2465632.1.2.3.0,bus2=RML1010217460.1.2.3.0,Phases=3,Linecode=CABBTG07_4_3_3,Length=0.029000000,Units=km
new line.RBT_10315365 bus1=BBT2452206.1.2.0,bus2=RML1010315365.1.2.0,Phases=2,Linecode=CABBTG05_4_2_2,Length=0.029000000,Units=km
new line.RBT_10317113 bus1=BBT2160362.1.2.3.0,bus2=RML1010317113.1.2.3.0,Phases=3,Linecode=CABBTG06_4_3_3,Length=0.029000000,Units=km
new line.RBT_10349881 bus1=BBT2185513.1.2.3.0,bus2=RML1010349881.1.2.3.0,Phases=3,Linecode=CABBTG08_4_3_3,Length=0.017000000,Units=km
new line.RBT_10350840 bus1=BBT2174894.1.2.3.0,bus2=RML1010350840.1.2.3.0,Phases=3,Linecode=CABBTG07_4_3_3,Length=0.029000000,Units=km
new line.RBT_10389518 bus1=BBT2196825.2.3.0,bus2=RML1010389518.2.3.0,Phases=2,Linecode=CABBTG05_4_2_2,Length=0.029000000,Units=km
new line.RBT_10438927 bus1=BBT148407001.1.2.3.0,bus2=RML1010438927.1.2.3.0,Phases=3,Linecode=CABBTG09_4_3_3,Length=0.017000000,Units=km
new line.RBT_10439492 bus1=BBT2174824.1.2.0,bus2=RML1010439492.1.2.0,Phases=2,Linecode=CABBTG05_4_2_2,Length=0.029000000,Units=km
new line.RBT_10440221 bus1=BBT2469475.1.2.0,bus2=RML1010440221.1.2.0,Phases=2,Linecode=CABBTG05_4_2_2,Length=0.029000000,Units=km
new line.RBT_10440298 bus1=BBT2438115.1.2.0,bus2=RML1010440298.1.2.0,Phases=2,Linecode=CABBTG05_4_2_2,Length=0.029000000,Units=km
new line.RBT_10487409 bus1=BBT4099740.1.2.3.0,bus2=RML1010487409.1.2.3.0,Phases=3,Linecode=CABBTG06_4_3_3,Length=0.029000000,Units=km
new line.RBT_10612430 bus1=BBT2449616.1.2.3.0,bus2=RML1010612430.1.2.3.0,Phases=3,Linecode=CABBTG06_4_3_3,Length=0.014000000,Units=km
new line.RBT_10772231 bus1=BBT2164240.1.2.3.0,bus2=RML1010772231.1.2.3.0,Phases=3,Linecode=CABBTG06_4_3_3,Length=0.017000000,Units=km
new line.RBT_10807033 bus1=BBT2181334.1.2.0,bus2=RML1010807033.1.2.0,Phases=2,Linecode=CABBTG05_4_2_2,Length=0.017000000,Units=km
new line.RBT_10894530 bus1=BBT2160971.1.2.0,bus2=RML1010894530.1.2.0,Phases=2,Linecode=CABBTG05_4_2_2,Length=0.011000000,Units=km
new line.RBT_10976555 bus1=BBT2095143.1.2.3.0,bus2=RML1010976555.1.2.3.0,Phases=3,Linecode=CABBTG06_4_3_3,Length=0.017000000,Units=km
new line.RBT_10979309 bus1=BBT2443785.1.2.3.0,bus2=RML1010979309.1.2.3.0,Phases=3,Linecode=CABBTG06_4_3_3,Length=0.017000000,Units=km
new line.RBT_11039730 bus1=BBT2155952.1.0,bus2=RML1011039730.1.0,Phases=1,Linecode=CABBTG02_4_1_1,Length=0.017000000,Units=km
new line.RBT_11040043 bus1=BBT2180578.1.0,bus2=RML1011040043.1.0,Phases=1,Linecode=CABBTG02_4_1_1,Length=0.017000000,Units=km
new line.RBT_11101392 bus1=BBT2166459.1.2.0,bus2=RML1011101392.1.2.0,Phases=2,Linecode=CABBTG05_4_2_2,Length=0.029000000,Units=km
new line.RBT_11129760 bus1=BBT2472604.1.2.3.0,bus2=RML1011129760.1.2.3.0,Phases=3,Linecode=CABBTG06_4_3_3,Length=0.015000000,Units=km
new line.RBT_11129934 bus1=BBT2097880.1.2.3.0,bus2=RML1011129934.1.2.3.0,Phases=3,Linecode=CABBTG06_4_3_3,Length=0.017000000,Units=km
new line.RBT_11151341 bus1=BBT2155966.1.2.3.0,bus2=RML1011151341.1.2.3.0,Phases=3,Linecode=CABBTG12_4_3_3,Length=0.017000000,Units=km
new line.RBT_11153541 bus1=BBT2404879.1.0,bus2=RML1011153541.1.0,Phases=1,Linecode=CABBTG02_4_1_1,Length=0.017000000,Units=km
new line.RBT_11215903 bus1=BBT2168727.1.2.3.0,bus2=RML1011215903.1.2.3.0,Phases=3,Linecode=CABBTG06_4_3_3,Length=0.006000000,Units=km
new line.RBT_11218624 bus1=BBT2186507.1.2.0,bus2=RML1011218624.1.2.0,Phases=2,Linecode=CABBTG05_4_2_2,Length=0.014000000,Units=km
new line.RBT_11218774 bus1=BBT2198519.1.2.0,bus2=RML1011218774.1.2.0,Phases=2,Linecode=CABBTG05_4_2_2,Length=0.013000000,Units=km
new line.RBT_4158687 bus1=BBT2095108.1.2.3.0,bus2=RML1004158687.1.2.3.0,Phases=3,Linecode=CABBTG07_4_3_3,Length=0.029000000,Units=km
new line.RBT_4158694 bus1=BBT2095129.2.3.0,bus2=RML1004158694.2.3.0,Phases=2,Linecode=CABBTG05_4_2_2,Length=0.029000000,Units=km
new line.RBT_4158701 bus1=BBT2095136.1.2.0,bus2=RML1004158701.1.2.0,Phases=2,Linecode=CABBTG05_4_2_2,Length=0.029000000,Units=km
new line.RBT_4158708 bus1=BBT2095136.1.2.0,bus2=RML1004158708.1.2.0,Phases=2,Linecode=CABBTG05_4_2_2,Length=0.029000000,Units=km
new line.RBT_4158715 bus1=BBT2095143.1.0,bus2=RML1004158715.1.0,Phases=1,Linecode=CABBTG01_4_1_1,Length=0.029000000,Units=km
new line.RBT_4158722 bus1=BBT2095143.1.0,bus2=RML1004158722.1.0,Phases=1,Linecode=CABBTG01_4_1_1,Length=0.029000000,Units=km
new line.RBT_4158729 bus1=BBT2095171.3.0,bus2=RML1004158729.3.0,Phases=1,Linecode=CABBTG01_4_1_1,Length=0.029000000,Units=km
new line.RBT_10078060 bus1=BBT2210356.1.2.0,bus2=RML1010078060.1.2.0,Phases=2,Linecode=CABBTG04_4_2_2,Length=0.029000000,Units=km
new line.RBT_10080002 bus1=BBT2161475.1.2.3.0,bus2=RML1010080002.1.2.3.0,Phases=3,Linecode=CABBTG07_4_3_3,Length=0.029000000,Units=km
new line.RBT_10276376 bus1=BBT2409520.1.0,bus2=RML1010276376.1.0,Phases=1,Linecode=CABBTG02_4_1_1,Length=0.029000000,Units=km
new line.RBT_10276390 bus1=BBT2407882.1.2.3.0,bus2=RML1010276390.1.2.3.0,Phases=3,Linecode=CABBTG12_4_3_3,Length=0.029000000,Units=km
new line.RBT_10304600 bus1=BBT2934331.1.2.0,bus2=RML1010304600.1.2.0,Phases=2,Linecode=CABBTG05_4_2_2,Length=0.017000000,Units=km
new line.RBT_10304990 bus1=BBT2174453.1.2.0,bus2=RML1010304990.1.2.0,Phases=2,Linecode=CABBTG05_4_2_2,Length=0.029000000,Units=km
new line.RBT_10333026 bus1=BBT2452206.1.2.0,bus2=RML1010333026.1.2.0,Phases=2,Linecode=CABBTG05_4_2_2,Length=0.029000000,Units=km
new line.RBT_10334865 bus1=BBT2463119.2.0,bus2=RML1010334865.2.0,Phases=1,Linecode=CABBTG02_4_1_1,Length=0.029000000,Units=km
new line.RBT_10366269 bus1=BBT2168601.1.2.3.0,bus2=RML1010366269.1.2.3.0,Phases=3,Linecode=CABBTG12_4_3_3,Length=0.029000000,Units=km
new line.RBT_10445525 bus1=BBT2202880.2.0,bus2=RML1010445525.2.0,Phases=1,Linecode=CABBTG02_4_1_1,Length=0.029000000,Units=km
new line.RBT_10480151 bus1=BBT2183546.1.2.3.0,bus2=RML1010480151.1.2.3.0,Phases=3,Linecode=CABBTG12_4_3_3,Length=0.011000000,Units=km
new line.RBT_10734778 bus1=BBT2174852.1.2.3.0,bus2=RML1010734778.1.2.3.0,Phases=3,Linecode=CABBTG08_4_3_3,Length=0.017000000,Units=km
new line.RBT_10920041 bus1=BBT112669860.1.2.3.0,bus2=RML1010920041.1.2.3.0,Phases=3,Linecode=CABBTG06_4_3_3,Length=0.017000000,Units=km
new line.RBT_10974773 bus1=BBT2195061.1.2.0,bus2=RML1010974773.1.2.0,Phases=2,Linecode=CABBTG05_4_2_2,Length=0.030000000,Units=km
new line.RBT_11006955 bus1=BBT2166431.1.2.3.0,bus2=RML1011006955.1.2.3.0,Phases=3,Linecode=CABBTG06_4_3_3,Length=0.017000000,Units=km
new line.RBT_11070509 bus1=BBT2187781.1.2.3.0,bus2=RML1011070509.1.2.3.0,Phases=3,Linecode=CABBTG06_4_3_3,Length=0.014000000,Units=km
new line.RBT_11322135 bus1=BBT2445038.1.2.3.0,bus2=RML1011322135.1.2.3.0,Phases=3,Linecode=CABBTG06_4_3_3,Length=0.017000000,Units=km
new line.RBT_4165253 bus1=BBT2097880.2.3.0,bus2=RML1004165253.2.3.0,Phases=2,Linecode=CABBTG05_4_2_2,Length=0.029000000,Units=km
new line.RBT_4165260 bus1=BBT2097880.1.2.3.0,bus2=RML1004165260.1.2.3.0,Phases=3,Linecode=CABBTG07_4_3_3,Length=0.029000000,Units=km
new line.RBT_4165267 bus1=BBT2097880.1.2.0,bus2=RML1004165267.1.2.0,Phases=2,Linecode=CABBTG05_4_2_2,Length=0.029000000,Units=km
new line.RBT_4165274 bus1=BBT2097887.2.0,bus2=RML1004165274.2.0,Phases=1,Linecode=CABBTG01_4_1_1,Length=0.029000000,Units=km
new line.RBT_4165281 bus1=BBT2097887.1.2.3.0,bus2=RML1004165281.1.2.3.0,Phases=3,Linecode=CABBTG07_4_3_3,Length=0.029000000,Units=km
new line.RBT_4165288 bus1=BBT2097894.1.0,bus2=RML1004165288.1.0,Phases=1,Linecode=CABBTG01_4_1_1,Length=0.029000000,Units=km
new line.RBT_4165295 bus1=BBT2097901.2.0,bus2=RML1004165295.2.0,Phases=1,Linecode=CABBTG01_4_1_1,Length=0.029000000,Units=km
new line.RBT_4165302 bus1=BBT2097908.3.0,bus2=RML1004165302.3.0,Phases=1,Linecode=CABBTG01_4_1_1,Length=0.029000000,Units=km
new line.RBT_4165309 bus1=BBT2097908.2.0,bus2=RML1004165309.2.0,Phases=1,Linecode=CABBTG01_4_1_1,Length=0.029000000,Units=km
new line.RBT_4165316 bus1=BBT2097908.1.0,bus2=RML1004165316.1.0,Phases=1,Linecode=CABBTG01_4_1_1,Length=0.029000000,Units=km
new line.RBT_4165323 bus1=BBT2097915.1.0,bus2=RML1004165323.1.0,Phases=1,Linecode=CABBTG01_4_1_1,Length=0.029000000,Units=km
new line.RBT_4165330 bus1=BBT2097922.1.0,bus2=RML1004165330.1.0,Phases=1,Linecode=CABBTG01_4_1_1,Length=0.029000000,Units=km
new line.RBT_4165337 bus1=BBT2097922.3.0,bus2=RML1004165337.3.0,Phases=1,Linecode=CABBTG01_4_1_1,Length=0.029000000,Units=km
new line.RBT_4165344 bus1=BBT2097922.2.0,bus2=RML1004165344.2.0,Phases=1,Linecode=CABBTG01_4_1_1,Length=0.029000000,Units=km
new line.RBT_4165351 bus1=BBT2097929.3.0,bus2=RML1004165351.3.0,Phases=1,Linecode=CABBTG01_4_1_1,Length=0.029000000,Units=km
new line.RBT_4165358 bus1=BBT2097929.1.0,bus2=RML1004165358.1.0,Phases=1,Linecode=CABBTG01_4_1_1,Length=0.029000000,Units=km
new line.RBT_4165365 bus1=BBT2097929.2.0,bus2=RML1004165365.2.0,Phases=1,Linecode=CABBTG01_4_1_1,Length=0.029000000,Units=km
new line.RBT_4165372 bus1=BBT2097929.2.0,bus2=RML1004165372.2.0,Phases=1,Linecode=CABBTG01_4_1_1,Length=0.029000000,Units=km
new line.RBT_4165379 bus1=BBT2097929.3.0,bus2=RML1004165379.3.0,Phases=1,Linecode=CABBTG01_4_1_1,Length=0.029000000,Units=km
new line.RBT_4165407 bus1=BBT2097943.1.0,bus2=RML1004165407.1.0,Phases=1,Linecode=CABBTG01_4_1_1,Length=0.029000000,Units=km
new line.RBT_10102700 bus1=BBT2199184.1.2.0,bus2=RML1010102700.1.2.0,Phases=2,Linecode=CABBTG05_4_2_2,Length=0.017000000,Units=km
new line.RBT_10165810 bus1=BBT131702090.1.2.0,bus2=RML1010165810.1.2.0,Phases=2,Linecode=CABBTG04_4_2_2,Length=0.029000000,Units=km
new line.RBT_10168716 bus1=BBT2210356.3.1.0,bus2=RML1010168716.3.1.0,Phases=2,Linecode=CABBTG04_4_2_2,Length=0.029000000,Units=km
new line.RBT_10169298 bus1=BBT2418032.1.2.3.0,bus2=RML1010169298.1.2.3.0,Phases=3,Linecode=CABBTG11_4_3_3,Length=0.017000000,Units=km
new line.RBT_10200881 bus1=BBT2427986.1.2.3.0,bus2=RML1010200881.1.2.3.0,Phases=3,Linecode=CABBTG10_4_3_3,Length=0.029000000,Units=km
new line.RBT_10288527 bus1=BBT2202901.3.0,bus2=RML1010288527.3.0,Phases=1,Linecode=CABBTG02_4_1_1,Length=0.029000000,Units=km
new line.RBT_10320267 bus1=BBT2205652.1.0,bus2=RML1010320267.1.0,Phases=1,Linecode=CABBTG02_4_1_1,Length=0.029000000,Units=km
new line.RBT_10400537 bus1=BBT2448531.1.2.3.0,bus2=RML1010400537.1.2.3.0,Phases=3,Linecode=CABBTG06_4_3_3,Length=0.029000000,Units=km
new line.RBT_10433044 bus1=BBT2212148.1.2.0,bus2=RML1010433044.1.2.0,Phases=2,Linecode=CABBTG05_4_2_2,Length=0.029000000,Units=km
new line.RBT_10498098 bus1=BBT2219470.1.2.3.0,bus2=RML1010498098.1.2.3.0,Phases=3,Linecode=CABBT815_4_3_3,Length=0.015000000,Units=km
new line.RBT_10532273 bus1=BBT2194382.1.2.0,bus2=RML1010532273.1.2.0,Phases=2,Linecode=CABBT811_4_2_2,Length=0.014000000,Units=km
new line.RBT_10739481 bus1=BBT2377005.1.2.3.0,bus2=RML1010739481.1.2.3.0,Phases=3,Linecode=CABBTG07_4_3_3,Length=0.015000000,Units=km
new line.RBT_10759560 bus1=BBT2156099.1.2.3.0,bus2=RML1010759560.1.2.3.0,Phases=3,Linecode=CABBT318_7_3_3,Length=0.017000000,Units=km
new line.RBT_10927503 bus1=BBT2449616.1.2.3.0,bus2=RML1010927503.1.2.3.0,Phases=3,Linecode=CABBTG06_4_3_3,Length=0.017000000,Units=km
new line.RBT_10927519 bus1=BBT2156036.1.2.0,bus2=RML1010927519.1.2.0,Phases=2,Linecode=CABBTG05_4_2_2,Length=0.017000000,Units=km
new line.RBT_11011425 bus1=BBT2182195.1.2.0,bus2=RML1011011425.1.2.0,Phases=2,Linecode=CABBTG05_4_2_2,Length=0.017000000,Units=km
new line.RBT_11048740 bus1=BBT2178422.1.2.0,bus2=RML1011048740.1.2.0,Phases=2,Linecode=CABBTG05_4_2_2,Length=0.017000000,Units=km
new line.RBT_11107664 bus1=BBT2178443.1.2.3.0,bus2=RML1011107664.1.2.3.0,Phases=3,Linecode=CABBTG06_4_3_3,Length=0.017000000,Units=km
new line.RBT_11108634 bus1=BBT2156036.1.2.3.0,bus2=RML1011108634.1.2.3.0,Phases=3,Linecode=CABBTG06_4_3_3,Length=0.013000000,Units=km
new line.RBT_4322564 bus1=BBT2155854.1.0,bus2=RML1004322564.1.0,Phases=1,Linecode=CABBTG01_4_1_1,Length=0.029000000,Units=km
new line.RBT_4322571 bus1=BBT2155868.1.0,bus2=RML1004322571.1.0,Phases=1,Linecode=CABBTG01_4_1_1,Length=0.029000000,Units=km
new line.RBT_4322578 bus1=BBT2155882.1.2.0,bus2=RML1004322578.1.2.0,Phases=2,Linecode=CABBTG04_4_2_2,Length=0.029000000,Units=km
new line.RBT_4322585 bus1=BBT2155889.2.3.0,bus2=RML1004322585.2.3.0,Phases=2,Linecode=CABBTG05_4_2_2,Length=0.029000000,Units=km
new line.RBT_4322592 bus1=BBT2155889.1.2.3.0,bus2=RML1004322592.1.2.3.0,Phases=3,Linecode=CABBTG07_4_3_3,Length=0.029000000,Units=km
new line.RBT_4322599 bus1=BBT2155889.1.2.0,bus2=RML1004322599.1.2.0,Phases=2,Linecode=CABBTG04_4_2_2,Length=0.029000000,Units=km
new line.RBT_4322606 bus1=BBT2155896.2.3.0,bus2=RML1004322606.2.3.0,Phases=2,Linecode=CABBTG05_4_2_2,Length=0.029000000,Units=km
new line.RBT_4322613 bus1=BBT2155896.2.3.0,bus2=RML1004322613.2.3.0,Phases=2,Linecode=CABBTG04_4_2_2,Length=0.029000000,Units=km
new line.RBT_4322620 bus1=BBT2155896.3.1.0,bus2=RML1004322620.3.1.0,Phases=2,Linecode=CABBTG05_4_2_2,Length=0.029000000,Units=km
new line.RBT_4322627 bus1=BBT2155910.2.3.0,bus2=RML1004322627.2.3.0,Phases=2,Linecode=CABBTG05_4_2_2,Length=0.029000000,Units=km
new line.RBT_4322634 bus1=BBT2155945.1.2.3.0,bus2=RML1004322634.1.2.3.0,Phases=3,Linecode=CABBTG07_4_3_3,Length=0.029000000,Units=km
new line.RBT_4322641 bus1=BBT2155945.1.2.3.0,bus2=RML1004322641.1.2.3.0,Phases=3,Linecode=CABBTG07_4_3_3,Length=0.029000000,Units=km
new line.RBT_4322655 bus1=BBT2156001.2.0,bus2=RML1004322655.2.0,Phases=1,Linecode=CABBTG01_4_1_1,Length=0.029000000,Units=km
new line.RBT_4322662 bus1=BBT2156036.1.2.3.0,bus2=RML1004322662.1.2.3.0,Phases=3,Linecode=CABBTG12_4_3_3,Length=0.029000000,Units=km
new line.RBT_4322669 bus1=BBT2156036.1.2.3.0,bus2=RML1004322669.1.2.3.0,Phases=3,Linecode=CABBTG07_4_3_3,Length=0.029000000,Units=km
new line.RBT_4322676 bus1=BBT2156057.2.3.0,bus2=RML1004322676.2.3.0,Phases=2,Linecode=CABBTG04_4_2_2,Length=0.029000000,Units=km
new line.RBT_4322683 bus1=BBT2156057.2.0,bus2=RML1004322683.2.0,Phases=1,Linecode=CABBTG01_4_1_1,Length=0.029000000,Units=km
new line.RBT_4322690 bus1=BBT2156064.3.0,bus2=RML1004322690.3.0,Phases=1,Linecode=CABBTG01_4_1_1,Length=0.029000000,Units=km
new line.RBT_4322697 bus1=BBT2156064.1.2.3.0,bus2=RML1004322697.1.2.3.0,Phases=3,Linecode=CABBTG07_4_3_3,Length=0.029000000,Units=km
new line.RBT_4322704 bus1=BBT2156064.3.0,bus2=RML1004322704.3.0,Phases=1,Linecode=CABBTG01_4_1_1,Length=0.029000000,Units=km
new line.RBT_4322711 bus1=BBT2156064.1.2.0,bus2=RML1004322711.1.2.0,Phases=2,Linecode=CABBTG05_4_2_2,Length=0.029000000,Units=km
new line.RBT_4322718 bus1=BBT2156071.1.2.0,bus2=RML1004322718.1.2.0,Phases=2,Linecode=CABBTG05_4_2_2,Length=0.029000000,Units=km
new line.RBT_4322732 bus1=BBT2156092.1.2.0,bus2=RML1004322732.1.2.0,Phases=2,Linecode=CABBTG05_4_2_2,Length=0.029000000,Units=km
new line.RBT_4322739 bus1=BBT2156092.1.0,bus2=RML1004322739.1.0,Phases=1,Linecode=CABBTG01_4_1_1,Length=0.029000000,Units=km
new line.RBT_4322746 bus1=BBT2156099.1.2.0,bus2=RML1004322746.1.2.0,Phases=2,Linecode=CABBTG05_4_2_2,Length=0.029000000,Units=km
new line.RBT_4322753 bus1=BBT2156106.1.2.0,bus2=RML1004322753.1.2.0,Phases=2,Linecode=CABBTG05_4_2_2,Length=0.029000000,Units=km
new line.RBT_4322760 bus1=BBT2156127.2.0,bus2=RML1004322760.2.0,Phases=1,Linecode=CABBTG01_4_1_1,Length=0.029000000,Units=km
new line.RBT_4322767 bus1=BBT2156141.1.0,bus2=RML1004322767.1.0,Phases=1,Linecode=CABBTG01_4_1_1,Length=0.029000000,Units=km
new line.RBT_4322774 bus1=BBT2156141.1.2.3.0,bus2=RML1004322774.1.2.3.0,Phases=3,Linecode=CABBTG06_4_3_3,Length=0.029000000,Units=km
new line.RBT_4322781 bus1=BBT2156141.1.2.3.0,bus2=RML1004322781.1.2.3.0,Phases=3,Linecode=CABBTG11_4_3_3,Length=0.029000000,Units=km
new line.RBT_4322788 bus1=BBT2156155.2.0,bus2=RML1004322788.2.0,Phases=1,Linecode=CABBTG01_4_1_1,Length=0.029000000,Units=km
new line.RBT_4322795 bus1=BBT2156162.2.0,bus2=RML1004322795.2.0,Phases=1,Linecode=CABBTG01_4_1_1,Length=0.029000000,Units=km
new line.RBT_4322802 bus1=BBT2156169.2.0,bus2=RML1004322802.2.0,Phases=1,Linecode=CABBTG01_4_1_1,Length=0.029000000,Units=km
new line.RBT_4322809 bus1=BBT2156169.1.0,bus2=RML1004322809.1.0,Phases=1,Linecode=CABBTG01_4_1_1,Length=0.029000000,Units=km
new line.RBT_4322816 bus1=BBT2156169.2.0,bus2=RML1004322816.2.0,Phases=1,Linecode=CABBTG01_4_1_1,Length=0.029000000,Units=km
new line.RBT_4322823 bus1=BBT2156176.1.2.0,bus2=RML1004322823.1.2.0,Phases=2,Linecode=CABBTG04_4_2_2,Length=0.029000000,Units=km
new line.RBT_4324118 bus1=BBT2463168.2.3.0,bus2=RML1004324118.2.3.0,Phases=2,Linecode=CABBTG05_4_2_2,Length=0.029000000,Units=km
new line.RBT_4324125 bus1=BBT2463168.1.2.3.0,bus2=RML1004324125.1.2.3.0,Phases=3,Linecode=CABBTG07_4_3_3,Length=0.029000000,Units=km
new line.RBT_4324132 bus1=BBT2156701.2.0,bus2=RML1004324132.2.0,Phases=1,Linecode=CABBTG01_4_1_1,Length=0.029000000,Units=km
new line.RBT_4324139 bus1=BBT2156701.3.0,bus2=RML1004324139.3.0,Phases=1,Linecode=CABBTG01_4_1_1,Length=0.029000000,Units=km
new line.RBT_4324146 bus1=BBT2156701.1.2.0,bus2=RML1004324146.1.2.0,Phases=2,Linecode=CABBTG04_4_2_2,Length=0.029000000,Units=km
new line.RBT_4324153 bus1=BBT2156701.1.2.3.0,bus2=RML1004324153.1.2.3.0,Phases=3,Linecode=CABBTG07_4_3_3,Length=0.029000000,Units=km
new line.RBT_4324160 bus1=BBT2156701.1.0,bus2=RML1004324160.1.0,Phases=1,Linecode=CABBTG01_4_1_1,Length=0.029000000,Units=km
new line.RBT_4324167 bus1=BBT2156701.1.0,bus2=RML1004324167.1.0,Phases=1,Linecode=CABBTG01_4_1_1,Length=0.029000000,Units=km
new line.RBT_4324174 bus1=BBT2156701.1.2.0,bus2=RML1004324174.1.2.0,Phases=2,Linecode=CABBTG05_4_2_2,Length=0.029000000,Units=km
new line.RBT_4324181 bus1=BBT2156701.1.2.0,bus2=RML1004324181.1.2.0,Phases=2,Linecode=CABBTG05_4_2_2,Length=0.029000000,Units=km
new line.RBT_4324188 bus1=BBT2156701.2.3.0,bus2=RML1004324188.2.3.0,Phases=2,Linecode=CABBTG04_4_2_2,Length=0.029000000,Units=km
new line.RBT_4324195 bus1=BBT2156701.2.0,bus2=RML1004324195.2.0,Phases=1,Linecode=CABBTG01_4_1_1,Length=0.029000000,Units=km
new line.RBT_4324202 bus1=BBT2156701.1.0,bus2=RML1004324202.1.0,Phases=1,Linecode=CABBTG01_4_1_1,Length=0.029000000,Units=km
new line.RBT_4324209 bus1=BBT2156708.3.0,bus2=RML1004324209.3.0,Phases=1,Linecode=CABBTG01_4_1_1,Length=0.029000000,Units=km
new line.RBT_4324216 bus1=BBT2156708.2.0,bus2=RML1004324216.2.0,Phases=1,Linecode=CABBTG01_4_1_1,Length=0.029000000,Units=km
new line.RBT_4324223 bus1=BBT2156708.3.1.0,bus2=RML1004324223.3.1.0,Phases=2,Linecode=CABBTG04_4_2_2,Length=0.029000000,Units=km
new line.RBT_4324230 bus1=BBT2156708.2.0,bus2=RML1004324230.2.0,Phases=1,Linecode=CABBTG01_4_1_1,Length=0.029000000,Units=km
new line.RBT_4324237 bus1=BBT2156722.2.3.0,bus2=RML1004324237.2.3.0,Phases=2,Linecode=CABBTG04_4_2_2,Length=0.029000000,Units=km
new line.RBT_4324244 bus1=BBT2156722.1.2.3.0,bus2=RML1004324244.1.2.3.0,Phases=3,Linecode=CABBTG06_4_3_3,Length=0.029000000,Units=km
new line.RBT_4324251 bus1=BBT2156722.1.2.3.0,bus2=RML1004324251.1.2.3.0,Phases=3,Linecode=CABBTG07_4_3_3,Length=0.029000000,Units=km
new line.RBT_10051482 bus1=BBT2175622.1.2.3.0,bus2=RML1010051482.1.2.3.0,Phases=3,Linecode=CABBTG06_4_3_3,Length=0.029000000,Units=km
new line.RBT_10081143 bus1=BBT93383341.1.2.3.0,bus2=RML1010081143.1.2.3.0,Phases=3,Linecode=CABBTG06_4_3_3,Length=0.029000000,Units=km
new line.RBT_10110873 bus1=BBT2092777.1.2.3.0,bus2=RML1010110873.1.2.3.0,Phases=3,Linecode=CABBTG06_4_3_3,Length=0.029000000,Units=km
new line.RBT_10143899 bus1=BBT2403731.1.2.3.0,bus2=RML1010143899.1.2.3.0,Phases=3,Linecode=CABBTG08_4_3_3,Length=0.020000000,Units=km
new line.RBT_10213064 bus1=BBT2454474.1.2.3.0,bus2=RML1010213064.1.2.3.0,Phases=3,Linecode=CABBTG07_4_3_3,Length=0.029000000,Units=km
new line.RBT_10213776 bus1=BBT2180641.1.2.3.0,bus2=RML1010213776.1.2.3.0,Phases=3,Linecode=CABBTG12_4_3_3,Length=0.029000000,Units=km
new line.RBT_10276964 bus1=BBT3614339.1.2.3.0,bus2=RML1010276964.1.2.3.0,Phases=3,Linecode=CABBTG12_4_3_3,Length=0.029000000,Units=km
new line.RBT_10306774 bus1=BBT2404879.2.0,bus2=RML1010306774.2.0,Phases=1,Linecode=CABBTG02_4_1_1,Length=0.029000000,Units=km
new line.RBT_10363110 bus1=BBT2178793.1.2.3.0,bus2=RML1010363110.1.2.3.0,Phases=3,Linecode=CABBTG08_4_3_3,Length=0.029000000,Units=km
new line.RBT_10431448 bus1=BBT2189685.1.2.3.0,bus2=RML1010431448.1.2.3.0,Phases=3,Linecode=CABBTG06_4_3_3,Length=0.029000000,Units=km
new line.RBT_10432002 bus1=BBT2220681.2.0,bus2=RML1010432002.2.0,Phases=1,Linecode=CABBTG02_4_1_1,Length=0.029000000,Units=km
new line.RBT_10432521 bus1=BBT2178429.1.2.3.0,bus2=RML1010432521.1.2.3.0,Phases=3,Linecode=CABBTG06_4_3_3,Length=0.029000000,Units=km
new line.RBT_10465705 bus1=BBT2196839.3.1.0,bus2=RML1010465705.3.1.0,Phases=2,Linecode=CABBTG05_4_2_2,Length=0.029000000,Units=km
new line.RBT_10465848 bus1=BBT2403787.1.0,bus2=RML1010465848.1.0,Phases=1,Linecode=CABBTG02_4_1_1,Length=0.017000000,Units=km
new line.RBT_10622137 bus1=BBT2447558.1.2.3.0,bus2=RML1010622137.1.2.3.0,Phases=3,Linecode=CABBTG07_4_3_3,Length=0.006000000,Units=km
new line.RBT_10650565 bus1=BBT2167355.1.2.0,bus2=RML1010650565.1.2.0,Phases=2,Linecode=CABBTG05_4_2_2,Length=0.017000000,Units=km
new line.RBT_10650629 bus1=BBT2443799.1.2.3.0,bus2=RML1010650629.1.2.3.0,Phases=3,Linecode=CABBTG06_4_3_3,Length=0.017000000,Units=km
new line.RBT_10682449 bus1=BBT2174824.1.2.0,bus2=RML1010682449.1.2.0,Phases=2,Linecode=CABBTG05_4_2_2,Length=0.017000000,Units=km
new line.RBT_10744364 bus1=BBT2181922.1.2.3.0,bus2=RML1010744364.1.2.3.0,Phases=3,Linecode=CABBTG07_4_3_3,Length=0.015000000,Units=km
new line.RBT_10746012 bus1=BBT2174383.1.2.3.0,bus2=RML1010746012.1.2.3.0,Phases=3,Linecode=CABBTG07_4_3_3,Length=0.015000000,Units=km
new line.RBT_10747324 bus1=BBT2174838.1.2.3.0,bus2=RML1010747324.1.2.3.0,Phases=3,Linecode=CABBTG07_4_3_3,Length=0.015000000,Units=km
new line.RBT_10802541 bus1=BBT2448573.1.2.0,bus2=RML1010802541.1.2.0,Phases=2,Linecode=CABBTG05_4_2_2,Length=0.017000000,Units=km
new line.RBT_10858254 bus1=BBT2455328.1.0,bus2=RML1010858254.1.0,Phases=1,Linecode=CABBTG02_4_1_1,Length=0.017000000,Units=km
new line.RBT_10859390 bus1=BBT2169448.1.0,bus2=RML1010859390.1.0,Phases=1,Linecode=CABBTG02_4_1_1,Length=0.017000000,Units=km
new line.RBT_10903140 bus1=BBT2189650.1.2.3.0,bus2=RML1010903140.1.2.3.0,Phases=3,Linecode=CABBTG06_4_3_3,Length=0.017000000,Units=km
new line.RBT_11056668 bus1=BBT2183525.2.0,bus2=RML1011056668.2.0,Phases=1,Linecode=CABBTG02_4_1_1,Length=0.017000000,Units=km
new line.RBT_11057613 bus1=BBT2180634.1.2.3.0,bus2=RML1011057613.1.2.3.0,Phases=3,Linecode=CABBTG06_4_3_3,Length=0.017000000,Units=km
new line.RBT_11114221 bus1=BBT2461740.1.2.3.0,bus2=RML1011114221.1.2.3.0,Phases=3,Linecode=CABBTG06_4_3_3,Length=0.017000000,Units=km
new line.RBT_11274469 bus1=BBT2445038.1.2.0,bus2=RML1011274469.1.2.0,Phases=2,Linecode=CABBTG05_4_2_2,Length=0.017000000,Units=km
new line.RBT_11274561 bus1=BBT2156001.1.2.3.0,bus2=RML1011274561.1.2.3.0,Phases=3,Linecode=CABBTG06_4_3_3,Length=0.017000000,Units=km
new line.RBT_11274686 bus1=BBT2186472.1.2.3.0,bus2=RML1011274686.1.2.3.0,Phases=3,Linecode=CABBTG06_4_3_3,Length=0.017000000,Units=km
new line.RBT_11275465 bus1=BBT2178415.1.2.3.0,bus2=RML1011275465.1.2.3.0,Phases=3,Linecode=CABBTG06_4_3_3,Length=0.017000000,Units=km
new line.RBT_11275467 bus1=BBT2377012.1.2.3.0,bus2=RML1011275467.1.2.3.0,Phases=3,Linecode=CABBTG06_4_3_3,Length=0.017000000,Units=km
new line.RBT_4330523 bus1=BBT2158507.1.2.0,bus2=RML1004330523.1.2.0,Phases=2,Linecode=CABBTG05_4_2_2,Length=0.029000000,Units=km
new line.RBT_4330530 bus1=BBT2158514.1.2.0,bus2=RML1004330530.1.2.0,Phases=2,Linecode=CABBTG05_4_2_2,Length=0.029000000,Units=km
new line.RBT_4330537 bus1=BBT2158528.1.2.0,bus2=RML1004330537.1.2.0,Phases=2,Linecode=CABBTG05_4_2_2,Length=0.029000000,Units=km
new line.RBT_4330544 bus1=BBT2158528.1.2.0,bus2=RML1004330544.1.2.0,Phases=2,Linecode=CABBTG05_4_2_2,Length=0.029000000,Units=km
new line.RBT_4165414 bus1=BBT2097943.2.0,bus2=RML1004165414.2.0,Phases=1,Linecode=CABBTG01_4_1_1,Length=0.029000000,Units=km
new line.RBT_4165421 bus1=BBT2097943.1.0,bus2=RML1004165421.1.0,Phases=1,Linecode=CABBTG01_4_1_1,Length=0.029000000,Units=km
new line.RBT_4165428 bus1=BBT2097943.3.0,bus2=RML1004165428.3.0,Phases=1,Linecode=CABBTG01_4_1_1,Length=0.029000000,Units=km
new line.RBT_4165435 bus1=BBT2097950.1.0,bus2=RML1004165435.1.0,Phases=1,Linecode=CABBTG01_4_1_1,Length=0.029000000,Units=km
new line.RBT_4165442 bus1=BBT2097950.1.0,bus2=RML1004165442.1.0,Phases=1,Linecode=CABBTG01_4_1_1,Length=0.029000000,Units=km
new line.RBT_4165449 bus1=BBT2097950.1.2.3.0,bus2=RML1004165449.1.2.3.0,Phases=3,Linecode=CABBTG07_4_3_3,Length=0.029000000,Units=km
new line.RBT_4165456 bus1=BBT2097950.1.2.3.0,bus2=RML1004165456.1.2.3.0,Phases=3,Linecode=CABBTG07_4_3_3,Length=0.029000000,Units=km