new line.SBT_10877840 bus1=BBT3368107.1.2.3.0,bus2=BBT2427825.1.2.3.0,Phases=3,Linecode=BT803_BT803_4_3_4_3,Length=0.020814000,Units=km
new line.SBT_11636080 bus1=BBT3498048.1.2.3.0,bus2=BBT2214451.1.2.3.0,Phases=3,Linecode=BT514_BT513_5_3_1_3,Length=0.017093000,Units=km
new line.SBT_11929940 bus1=BBT3599814.1.2.3.0,bus2=BBT3599821.1.2.3.0,Phases=3,Linecode=BT514_BT509_7_3_1_3,Length=0.000501000,Units=km
new line.SBT_12512998 bus1=BBT3930081.1.2.3.0,bus2=BBT3930088.1.2.3.0,Phases=3,Linecode=BT513_BT513_7_3_1_3,Length=0.000501000,Units=km
new line.SBT_12513089 bus1=BBT4119431.1.2.3.0,bus2=BBT4119438.1.2.3.0,Phases=3,Linecode=BT513_BT513_7_3_1_3,Length=0.000501000,Units=km
new line.SBT_12685415 bus1=BBT4002636.1.2.0,bus2=BBT4002643.1.2.0,Phases=2,Linecode=BT503_BT503_5_2_1_2,Length=0.008547000,Units=km
new line.SBT_12685422 bus1=BBT4002636.1.2.0,bus2=BBT4002650.1.2.0,Phases=2,Linecode=BT503_BT503_5_2_1_2,Length=0.004002000,Units=km
new line.SBT_12685702 bus1=BBT4002629.1.2.0,bus2=BBT4002636.1.2.0,Phases=2,Linecode=BT503_BT503_5_2_1_2,Length=0.005833000,Units=km
new line.SBT_12685772 bus1=BBT4002643.1.2.0,bus2=BBT4002671.1.2.0,Phases=2,Linecode=BT503_BT503_5_2_1_2,Length=0.009003000,Units=km
new line.SBT_12685793 bus1=BBT4002650.1.2.0,bus2=BBT4002657.1.2.0,Phases=2,Linecode=BT503_BT503_5_2_1_2,Length=0.010053000,Units=km
new line.SBT_12685814 bus1=BBT4002657.1.2.0,bus2=BBT4002664.1.2.0,Phases=2,Linecode=BT503_BT503_5_2_1_2,Length=0.013605000,Units=km
new line.SBT_12685849 bus1=BBT4002671.1.2.0,bus2=BBT4002678.1.2.0,Phases=2,Linecode=BT503_BT503_5_2_1_2,Length=0.007002000,Units=km
new line.SBT_12685856 bus1=BBT4002671.1.2.0,bus2=BBT4002685.1.2.0,Phases=2,Linecode=BT503_BT503_5_2_1_2,Length=0.015269000,Units=km
new line.SBT_12685884 bus1=BBT4002685.1.2.0,bus2=BBT4002692.1.2.0,Phases=2,Linecode=BT503_BT503_5_2_1_2,Length=0.005833000,Units=km
new line.SBT_12685891 bus1=BBT4002685.1.2.0,bus2=BBT4002699.1.2.0,Phases=2,Linecode=BT503_BT503_5_2_1_2,Length=0.008947000,Units=km
new line.SBT_12685912 bus1=BBT4002706.1.2.0,bus2=BBT4002713.1.2.0,Phases=2,Linecode=BT503_BT503_5_2_1_2,Length=0.007813000,Units=km
new line.SBT_12685933 bus1=BBT4002699.1.2.0,bus2=BBT4002706.1.2.0,Phases=2,Linecode=BT503_BT503_5_2_1_2,Length=0.009003000,Units=km
new line.SBT_13172139 bus1=BBT4099922.1.2.3.0,bus2=BBT4099929.1.2.3.0,Phases=3,Linecode=BT810_BT810_4_3_4_3,Length=0.036807000,Units=km
new line.SBT_13172160 bus1=BBT4099747.1.2.3.0,bus2=BBT4099922.1.2.3.0,Phases=3,Linecode=BT810_BT810_4_3_4_3,Length=0.037653000,Units=km
new line.SBT_13172181 bus1=BBT4099740.1.2.3.0,bus2=BBT4099747.1.2.3.0,Phases=3,Linecode=BT810_BT810_4_3_4_3,Length=0.037493000,Units=km
new line.SBT_13172209 bus1=BBT4099642.1.2.3.0,bus2=BBT4099740.1.2.3.0,Phases=3,Linecode=BT810_BT810_4_3_4_3,Length=0.038220000,Units=km
new line.SBT_13172216 bus1=BBT4099642.1.2.3.0,bus2=BBT4099684.1.2.3.0,Phases=3,Linecode=BT803_BT803_4_3_4_3,Length=0.016283000,Units=km
new line.SBT_13172223 bus1=BBT4099642.1.2.3.0,bus2=BBT4099649.1.2.3.0,Phases=3,Linecode=BT810_BT810_4_3_4_3,Length=0.026084000,Units=km
new line.SBT_13172454 bus1=BBT4099698.1.2.3.0,bus2=BBT4099705.1.2.3.0,Phases=3,Linecode=BT810_BT810_4_3_4_3,Length=0.039709000,Units=km
new line.SBT_13172482 bus1=BBT4099691.1.2.3.0,bus2=BBT4099698.1.2.3.0,Phases=3,Linecode=BT810_BT810_4_3_4_3,Length=0.029214000,Units=km
new line.SBT_13172503 bus1=BBT4099684.1.2.3.0,bus2=BBT4099691.1.2.3.0,Phases=3,Linecode=BT810_BT810_4_3_4_3,Length=0.028433000,Units=km
new line.SBT_13172531 bus1=BBT4099649.1.2.3.0,bus2=BBT4099656.1.2.3.0,Phases=3,Linecode=BT810_BT810_4_3_4_3,Length=0.025949000,Units=km
new line.SBT_1719999IP bus1=BBT2160355.1.2.0,bus2=BBT5001719999.1.2.0,Phases=2,Linecode=IP_2,Length=0.002840000,Units=km
new line.SBT_17210971 bus1=BBT2156701.1.2.3.0,bus2=BBT54165883.1.2.3.0,Phases=3,Linecode=BT805_BT805_4_3_4_3,Length=0.068428000,Units=km
new line.SBT_1721259IP bus1=BBT2161363.3.1.0,bus2=BBT5001721259.3.1.0,Phases=2,Linecode=IP_2,Length=0.002840000,Units=km
new line.SBT_1721385IP bus1=BBT117227231.2.3.0,bus2=BBT5001721385.2.3.0,Phases=2,Linecode=IP_2,Length=0.002960000,Units=km
new line.SBT_1721406IP bus1=BBT2161454.3.1.0,bus2=BBT5001721406.3.1.0,Phases=2,Linecode=IP_2,Length=0.002960000,Units=km
new line.SBT_17217327 bus1=BBT54489367.1.2.3.0,bus2=BBT54489374.1.2.3.0,Phases=3,Linecode=BT514_BT514_7_3_1_3,Length=0.000501000,Units=km
new line.SBT_17452926 bus1=BBT68497998.1.2.3.0,bus2=BBT68498005.1.2.3.0,Phases=3,Linecode=BT514_BT514_7_3_1_3,Length=0.000501000,Units=km
new line.SBT_1746235IP bus1=BBT2179843.1.2.0,bus2=BBT5001746235.1.2.0,Phases=2,Linecode=IP_2,Length=0.005530000,Units=km
new line.SBT_1747243IP bus1=BBT2180466.2.3.0,bus2=BBT5001747243.2.3.0,Phases=2,Linecode=IP_2,Length=0.005530000,Units=km
new line.SBT_1747285IP bus1=BBT2180473.3.1.0,bus2=BBT5001747285.3.1.0,Phases=2,Linecode=IP_2,Length=0.005530000,Units=km
new line.SBT_1747390IP bus1=BBT2180515.2.3.0,bus2=BBT5001747390.2.3.0,Phases=2,Linecode=IP_2,Length=0.002960000,Units=km
new line.SBT_1747432IP bus1=BBT2180543.1.2.0,bus2=BBT5001747432.1.2.0,Phases=2,Linecode=IP_2,Length=0.002960000,Units=km
new line.SBT_1770644IP bus1=BBT2198498.2.3.0,bus2=BBT5001770644.2.3.0,Phases=2,Linecode=IP_2,Length=0.002960000,Units=km
new line.SBT_1770686IP bus1=BBT2198512.1.2.0,bus2=BBT5001770686.1.2.0,Phases=2,Linecode=IP_2,Length=0.002960000,Units=km
new line.SBT_1770728IP bus1=BBT2198533.1.2.0,bus2=BBT5001770728.1.2.0,Phases=2,Linecode=IP_2,Length=0.002960000,Units=km
new line.SBT_1770749IP bus1=BBT2198540.2.3.0,bus2=BBT5001770749.2.3.0,Phases=2,Linecode=IP_2,Length=0.002960000,Units=km
new line.SBT_1770770IP bus1=BBT2198547.3.1.0,bus2=BBT5001770770.3.1.0,Phases=2,Linecode=IP_2,Length=0.002960000,Units=km
new line.SBT_1771526IP bus1=BBT2199205.1.2.0,bus2=BBT5001771526.1.2.0,Phases=2,Linecode=IP_2,Length=0.002840000,Units=km
new line.SBT_1771547IP bus1=BBT2199212.1.2.0,bus2=BBT5001771547.1.2.0,Phases=2,Linecode=IP_2,Length=0.002960000,Units=km
new line.SBT_17942961 bus1=BBT2168720.1.2.0,bus2=BBT94299753.1.2.0,Phases=2,Linecode=BT503_BT503_5_2_1_2,Length=0.003607000,Units=km
new line.SBT_17942968 bus1=BBT2168720.1.2.0,bus2=BBT94299760.1.2.0,Phases=2,Linecode=BT503_BT503_5_2_1_2,Length=0.023437000,Units=km
new line.SBT_17942975 bus1=BBT94299760.1.2.0,bus2=BBT94299767.1.2.0,Phases=2,Linecode=BT503_BT503_5_2_1_2,Length=0.004244000,Units=km
new line.SBT_17942982 bus1=BBT94299760.1.2.0,bus2=BBT94299774.1.2.0,Phases=2,Linecode=BT503_BT503_5_2_1_2,Length=0.015236000,Units=km
new line.SBT_17942989 bus1=BBT94299774.1.2.0,bus2=BBT94299781.1.2.0,Phases=2,Linecode=BT503_BT503_5_2_1_2,Length=0.004125000,Units=km
new line.SBT_17942996 bus1=BBT94299774.1.2.0,bus2=BBT94299788.1.2.0,Phases=2,Linecode=BT503_BT503_5_2_1_2,Length=0.016283000,Units=km
new line.SBT_17943003 bus1=BBT94299788.1.2.0,bus2=BBT94299795.1.2.0,Phases=2,Linecode=BT503_BT503_5_2_1_2,Length=0.004125000,Units=km
new line.SBT_17943010 bus1=BBT2168720.1.2.0,bus2=BBT94299802.1.2.0,Phases=2,Linecode=BT503_BT503_5_2_1_2,Length=0.009222000,Units=km
new line.SBT_17943017 bus1=BBT94299802.1.2.0,bus2=BBT94299809.1.2.0,Phases=2,Linecode=BT503_BT503_5_2_1_2,Length=0.003607000,Units=km
new line.SBT_17943024 bus1=BBT94299802.1.2.0,bus2=BBT94299816.1.2.0,Phases=2,Linecode=BT503_BT503_5_2_1_2,Length=0.015038000,Units=km
new line.SBT_17943031 bus1=BBT94299816.1.2.0,bus2=BBT94299823.1.2.0,Phases=2,Linecode=BT503_BT503_5_2_1_2,Length=0.003607000,Units=km
new line.SBT_17943038 bus1=BBT94299816.1.2.0,bus2=BBT94299830.1.2.0,Phases=2,Linecode=BT503_BT503_5_2_1_2,Length=0.022006000,Units=km
new line.SBT_17943045 bus1=BBT94299830.1.2.0,bus2=BBT94299837.1.2.0,Phases=2,Linecode=BT503_BT503_5_2_1_2,Length=0.004244000,Units=km
new line.SBT_17943052 bus1=BBT94299830.1.2.0,bus2=BBT94299844.1.2.0,Phases=2,Linecode=BT503_BT503_5_2_1_2,Length=0.008065000,Units=km
new line.SBT_10100609 bus1=BBT82819081.1.2.0,bus2=BBT2934373.1.2.0,Phases=2,Linecode=BT503_BT503_5_2_1_2,Length=0.004244000,Units=km
new line.SBT_10100630 bus1=BBT82818759.1.2.0,bus2=BBT2934366.1.2.0,Phases=2,Linecode=BT503_BT503_5_2_1_2,Length=0.004474000,Units=km
new line.SBT_10100672 bus1=BBT2934352.1.2.3.0,bus2=BBT82816827.1.2.3.0,Phases=3,Linecode=BT503_BT503_5_3_1_3,Length=0.005002000,Units=km
new line.SBT_10100714 bus1=BBT2934345.1.2.3.0,bus2=BBT2934352.1.2.3.0,Phases=3,Linecode=BT803_BT803_4_3_4_3,Length=0.039228000,Units=km
new line.SBT_12462080 bus1=BBT2168615.1.2.3.0,bus2=BBT3885470.1.2.3.0,Phases=3,Linecode=BT805_BT805_4_3_4_3,Length=0.039835000,Units=km
new line.SBT_12462087 bus1=BBT3885470.1.2.3.0,bus2=BBT2168629.1.2.3.0,Phases=3,Linecode=BT803_BT803_4_3_4_3,Length=0.005002000,Units=km
new line.SBT_12462094 bus1=BBT3885470.1.2.3.0,bus2=BBT2168643.1.2.3.0,Phases=3,Linecode=BT803_BT803_4_3_4_3,Length=0.022367000,Units=km
new line.SBT_12462136 bus1=BBT3885498.1.2.3.0,bus2=BBT2181320.1.2.3.0,Phases=3,Linecode=BT108_BT107_7_3_1_3,Length=0.006002000,Units=km
new line.SBT_12462143 bus1=BBT3885505.1.2.3.0,bus2=BBT2178779.1.2.3.0,Phases=3,Linecode=BT108_BT107_7_3_1_3,Length=0.038010000,Units=km
new line.SBT_12462864 bus1=BBT3886079.1.2.3.0,bus2=BBT2180627.1.2.3.0,Phases=3,Linecode=BT107_BT107_7_3_1_3,Length=0.026007000,Units=km
new line.SBT_12462871 bus1=BBT3886079.1.2.3.0,bus2=BBT2180634.1.2.3.0,Phases=3,Linecode=BT107_BT107_7_3_1_3,Length=0.011049000,Units=km
new line.SBT_12462878 bus1=BBT3886079.1.2.3.0,bus2=BBT2180641.1.2.3.0,Phases=3,Linecode=BT107_BT107_7_3_1_3,Length=0.016768000,Units=km
new line.SBT_12462892 bus1=BBT3886086.1.2.3.0,bus2=BBT2196790.1.2.3.0,Phases=3,Linecode=BT107_BT107_7_3_1_3,Length=0.013004000,Units=km
new line.SBT_12462899 bus1=BBT3886086.1.2.3.0,bus2=BBT2196797.1.2.3.0,Phases=3,Linecode=BT107_BT107_7_3_1_3,Length=0.011049000,Units=km
new line.SBT_12462906 bus1=BBT3886086.1.2.3.0,bus2=BBT2196825.1.2.3.0,Phases=3,Linecode=BT107_BT107_7_3_1_3,Length=0.023028000,Units=km
new line.SBT_12464061 bus1=BBT3886632.1.2.3.0,bus2=BBT2181355.1.2.3.0,Phases=3,Linecode=BT107_BT107_7_3_1_3,Length=0.006002000,Units=km
new line.SBT_12464068 bus1=BBT3886632.1.2.3.0,bus2=BBT2181362.1.2.3.0,Phases=3,Linecode=BT107_BT107_7_3_1_3,Length=0.026026000,Units=km
new line.SBT_12464075 bus1=BBT3886632.1.2.3.0,bus2=BBT3886639.1.2.3.0,Phases=3,Linecode=BT108_BT107_7_3_1_3,Length=0.015137000,Units=km
new line.SBT_12467505 bus1=BBT3890762.1.2.3.0,bus2=BBT2158787.1.2.3.0,Phases=3,Linecode=BT805_BT805_4_3_4_3,Length=0.031024000,Units=km
new line.SBT_12467512 bus1=BBT3890762.1.2.3.0,bus2=BBT2158815.1.2.3.0,Phases=3,Linecode=BT805_BT805_4_3_4_3,Length=0.006710000,Units=km
new line.SBT_12467519 bus1=BBT3890762.1.2.3.0,bus2=BBT2158829.1.2.3.0,Phases=3,Linecode=BT805_BT805_4_3_4_3,Length=0.029555000,Units=km
new line.SBT_12468100 bus1=BBT3891623.1.2.3.0,bus2=BBT2174873.1.2.3.0,Phases=3,Linecode=BT805_BT805_4_3_4_3,Length=0.007282000,Units=km
new line.SBT_12468107 bus1=BBT3891623.1.2.3.0,bus2=BBT2174894.1.2.3.0,Phases=3,Linecode=BT805_BT805_4_3_4_3,Length=0.027521000,Units=km
new line.SBT_12468114 bus1=BBT2174901.1.2.3.0,bus2=BBT3891623.1.2.3.0,Phases=3,Linecode=BT805_BT805_4_3_4_3,Length=0.029975000,Units=km
new line.SBT_12468450 bus1=BBT3891735.1.2.3.0,bus2=BBT2175657.1.2.3.0,Phases=3,Linecode=BT805_BT805_4_3_4_3,Length=0.006710000,Units=km
new line.SBT_12468457 bus1=BBT3891735.1.2.3.0,bus2=BBT2175678.1.2.3.0,Phases=3,Linecode=BT805_BT805_4_3_4_3,Length=0.037706000,Units=km
new line.SBT_12468464 bus1=BBT3891735.1.2.3.0,bus2=BBT2175685.1.2.3.0,Phases=3,Linecode=BT805_BT805_4_3_4_3,Length=0.034938000,Units=km
new line.SBT_12468653 bus1=BBT3891910.1.2.3.0,bus2=BBT109647470.1.2.3.0,Phases=3,Linecode=BT805_BT805_4_3_4_3,Length=0.006085000,Units=km
new line.SBT_12468688 bus1=BBT2175692.1.2.3.0,bus2=BBT2175713.1.2.3.0,Phases=3,Linecode=BT805_BT805_4_3_4_3,Length=0.017894000,Units=km
new line.SBT_13904647 bus1=BBT4587920.1.2.3.0,bus2=BBT2189594.1.2.3.0,Phases=3,Linecode=BT803_BT803_4_3_4_3,Length=0.022029000,Units=km
new line.SBT_13904668 bus1=BBT4587934.1.2.3.0,bus2=BBT4587941.1.2.3.0,Phases=3,Linecode=BT514_BT514_7_3_1_3,Length=0.000501000,Units=km
new line.SBT_14216448 bus1=BBT5166715.1.2.3.0,bus2=BBT5166722.1.2.3.0,Phases=3,Linecode=BT810_BT810_4_3_4_3,Length=0.025087000,Units=km
new line.SBT_16241646 bus1=BBT16193557.1.2.0,bus2=BBT16194544.1.2.0,Phases=2,Linecode=BT503_BT503_5_2_1_2,Length=0.014322000,Units=km
new line.SBT_16241653 bus1=BBT16194544.1.2.0,bus2=BBT16194943.1.2.0,Phases=2,Linecode=BT503_BT503_5_2_1_2,Length=0.011184000,Units=km
new line.SBT_17277520 bus1=BBT2192114.1.2.0,bus2=BBT58041538.1.2.0,Phases=2,Linecode=BT503_BT503_5_2_1_2,Length=0.004125000,Units=km
new line.SBT_17277534 bus1=BBT58041538.1.2.0,bus2=BBT58041545.1.2.0,Phases=2,Linecode=BT503_BT503_5_2_1_2,Length=0.010053000,Units=km
new line.SBT_17277541 bus1=BBT58041545.1.2.0,bus2=BBT58041601.1.2.0,Phases=2,Linecode=BT503_BT503_5_2_1_2,Length=0.006002000,Units=km
new line.SBT_17277569 bus1=BBT58041601.1.2.0,bus2=BBT58041818.1.2.0,Phases=2,Linecode=BT503_BT503_5_2_1_2,Length=0.005002000,Units=km
new line.SBT_17572150 bus1=BBT74379958.1.2.3.0,bus2=BBT74379965.1.2.3.0,Phases=3,Linecode=BT513_BT513_7_3_1_3,Length=0.000501000,Units=km
new line.SBT_17572227 bus1=BBT74379965.1.2.3.0,bus2=BBT74382744.1.2.3.0,Phases=3,Linecode=BT513_BT513_5_3_1_3,Length=0.004244000,Units=km
new line.SBT_17572234 bus1=BBT74382744.1.2.3.0,bus2=BBT74382751.1.2.3.0,Phases=3,Linecode=BT513_BT513_5_3_1_3,Length=0.016648000,Units=km
new line.SBT_17572241 bus1=BBT74382751.1.2.3.0,bus2=BBT74382975.1.2.3.0,Phases=3,Linecode=BT513_BT513_5_3_1_3,Length=0.010003000,Units=km
new line.SBT_17769886 bus1=BBT2174908.1.2.3.0,bus2=BBT83892678.1.2.3.0,Phases=3,Linecode=BT803_BT803_4_3_4_3,Length=0.033115000,Units=km
new line.SBT_17769893 bus1=BBT83892944.1.2.3.0,bus2=BBT2174908.1.2.3.0,Phases=3,Linecode=BT513_BT513_7_3_1_3,Length=0.000501000,Units=km
new line.SBT_17769928 bus1=BBT2174908.1.2.3.0,bus2=BBT83896017.1.2.3.0,Phases=3,Linecode=BT514_BT514_5_3_1_3,Length=0.003164000,Units=km
new line.SBT_17769935 bus1=BBT83896017.1.2.3.0,bus2=BBT83896066.1.2.3.0,Phases=3,Linecode=BT514_BT514_5_3_1_3,Length=0.008065000,Units=km
new line.SBT_17776963 bus1=BBT84487986.1.2.3.0,bus2=BBT84487993.1.2.3.0,Phases=3,Linecode=BT514_BT514_7_3_1_3,Length=0.000501000,Units=km
new line.SBT_17982784 bus1=BBT95981608.1.2.0,bus2=BBT95978052.1.2.0,Phases=2,Linecode=BT503_BT503_5_2_1_2,Length=0.014322000,Units=km
new line.SBT_17982791 bus1=BBT95978052.1.2.0,bus2=BBT95978059.1.2.0,Phases=2,Linecode=BT503_BT503_5_2_1_2,Length=0.009437000,Units=km
new line.SBT_17982798 bus1=BBT95978059.1.2.0,bus2=BBT95978066.1.2.0,Phases=2,Linecode=BT503_BT503_5_2_1_2,Length=0.013896000,Units=km
new line.SBT_17982812 bus1=BBT95978066.1.2.0,bus2=BBT95978073.1.2.0,Phases=2,Linecode=BT503_BT503_5_2_1_2,Length=0.004474000,Units=km
new line.SBT_17982819 bus1=BBT95978059.1.2.0,bus2=BBT95978255.1.2.0,Phases=2,Linecode=BT503_BT503_5_2_1_2,Length=0.015004000,Units=km
new line.SBT_17982826 bus1=BBT95978255.1.2.0,bus2=BBT95978276.1.2.0,Phases=2,Linecode=BT503_BT503_5_2_1_2,Length=0.005387000,Units=km
new line.SBT_17982833 bus1=BBT95978052.1.2.0,bus2=BBT95978290.1.2.0,Phases=2,Linecode=BT503_BT503_5_2_1_2,Length=0.011184000,Units=km
new line.SBT_17982840 bus1=BBT95978290.1.2.0,bus2=BBT95978297.1.2.0,Phases=2,Linecode=BT503_BT503_5_2_1_2,Length=0.004125000,Units=km
new line.SBT_17982847 bus1=BBT95978297.1.2.0,bus2=BBT95978304.1.2.0,Phases=2,Linecode=BT503_BT503_5_2_1_2,Length=0.010774000,Units=km
new line.SBT_17982854 bus1=BBT95978304.1.2.0,bus2=BBT95978311.1.2.0,Phases=2,Linecode=BT503_BT503_5_2_1_2,Length=0.004125000,Units=km
new line.SBT_11112676 bus1=BBT3317077.1.2.3.0,bus2=BBT3317084.1.2.3.0,Phases=3,Linecode=BT803_BT803_4_3_4_3,Length=0.029555000,Units=km
new line.SBT_11112697 bus1=BBT3317070.1.2.3.0,bus2=BBT3317077.1.2.3.0,Phases=3,Linecode=BT803_BT803_4_3_4_3,Length=0.029555000,Units=km
new line.SBT_11112718 bus1=BBT3317105.1.2.3.0,bus2=BBT3317112.1.2.3.0,Phases=3,Linecode=BT803_BT803_4_3_4_3,Length=0.030091000,Units=km
new line.SBT_11112739 bus1=BBT3317140.1.2.3.0,bus2=BBT3317147.1.2.3.0,Phases=3,Linecode=BT803_BT803_4_3_4_3,Length=0.029555000,Units=km
new line.SBT_11112753 bus1=BBT3317119.1.2.3.0,bus2=BBT3317140.1.2.3.0,Phases=3,Linecode=BT803_BT803_4_3_4_3,Length=0.033145000,Units=km
new line.SBT_11112760 bus1=BBT3317119.1.2.3.0,bus2=BBT3317154.1.2.3.0,Phases=3,Linecode=BT803_BT803_4_3_4_3,Length=0.016558000,Units=km
new line.SBT_11112767 bus1=BBT3317119.1.2.3.0,bus2=BBT3317133.1.2.3.0,Phases=3,Linecode=BT803_BT803_4_3_4_3,Length=0.040322000,Units=km
new line.SBT_11112788 bus1=BBT3317154.1.2.3.0,bus2=BBT3317161.1.2.3.0,Phases=3,Linecode=BT803_BT803_4_3_4_3,Length=0.025087000,Units=km
new line.SBT_11112816 bus1=BBT3317175.1.2.3.0,bus2=BBT3317182.1.2.3.0,Phases=3,Linecode=BT803_BT803_4_3_4_3,Length=0.035351000,Units=km
new line.SBT_11113117 bus1=BBT3317168.1.2.3.0,bus2=BBT3317175.1.2.3.0,Phases=3,Linecode=BT805_BT805_4_3_4_3,Length=0.027521000,Units=km
new line.SBT_11553865 bus1=BBT3464147.1.2.3.0,bus2=BBT3527994.1.2.3.0,Phases=3,Linecode=BT810_BT810_4_3_4_3,Length=0.037373000,Units=km
new line.SBT_11553893 bus1=BBT3464154.1.2.3.0,bus2=BBT3464147.1.2.3.0,Phases=3,Linecode=BT810_BT810_4_3_4_3,Length=0.030422000,Units=km
new line.SBT_14253849 bus1=BBT5277777.1.2.3.0,bus2=BBT5277784.1.2.3.0,Phases=3,Linecode=BT513_BT513_7_3_1_3,Length=0.010820000,Units=km
new line.SBT_1713328IP bus1=BBT2155889.1.2.0,bus2=BBT5001713328.1.2.0,Phases=2,Linecode=IP_2,Length=0.002960000,Units=km
new line.SBT_1713391IP bus1=BBT2155910.2.3.0,bus2=BBT5001713391.2.3.0,Phases=2,Linecode=IP_2,Length=0.002960000,Units=km
new line.SBT_17145017 bus1=BBT2418935.1.2.3.0,bus2=BBT50013742.1.2.3.0,Phases=3,Linecode=BT112_BT111_7_3_1_3,Length=0.009852000,Units=km
new line.SBT_17372160 bus1=BBT62919068.1.2.3.0,bus2=BBT2171079.1.2.3.0,Phases=3,Linecode=BT805_BT805_4_3_4_3,Length=0.017469000,Units=km
new line.SBT_17372216 bus1=BBT62919068.1.2.3.0,bus2=BBT62919915.1.2.3.0,Phases=3,Linecode=BT513_BT513_5_3_1_3,Length=0.004474000,Units=km
new line.SBT_17372307 bus1=BBT62919915.1.2.3.0,bus2=BBT62922421.1.2.3.0,Phases=3,Linecode=BT513_BT513_5_3_1_3,Length=0.013420000,Units=km
new line.SBT_1753928IP bus1=BBT2185506.1.2.0,bus2=BBT5001753928.1.2.0,Phases=2,Linecode=IP_2,Length=0.005530000,Units=km
new line.SBT_1753949IP bus1=BBT2185513.3.1.0,bus2=BBT5001753949.3.1.0,Phases=2,Linecode=IP_2,Length=0.005530000,Units=km
new line.SBT_1753970IP bus1=BBT2185520.1.2.0,bus2=BBT5001753970.1.2.0,Phases=2,Linecode=IP_2,Length=0.005530000,Units=km
new line.SBT_17542064 bus1=BBT2200549.1.2.3.0,bus2=BBT73199674.1.2.3.0,Phases=3,Linecode=BT810_BT810_4_3_4_3,Length=0.042201000,Units=km
new line.SBT_1771589IP bus1=BBT2199226.1.2.0,bus2=BBT5001771589.1.2.0,Phases=2,Linecode=IP_2,Length=0.002840000,Units=km
new line.SBT_1771652IP bus1=BBT2199247.1.2.0,bus2=BBT5001771652.1.2.0,Phases=2,Linecode=IP_2,Length=0.002960000,Units=km
new line.SBT_17924383 bus1=BBT93383334.1.2.3.0,bus2=BBT93383341.1.2.3.0,Phases=3,Linecode=BT514_BT514_7_3_1_3,Length=0.000501000,Units=km
new line.SBT_18263827 bus1=BBT115485113.1.2.3.0,bus2=BBT2400315.1.2.3.0,Phases=3,Linecode=BT803_BT803_4_3_4_3,Length=0.017498000,Units=km
new line.SBT_18264100 bus1=BBT115502585.1.2.3.0,bus2=BBT3844996.1.2.3.0,Phases=3,Linecode=BT803_BT803_4_3_4_3,Length=0.009222000,Units=km
new line.SBT_18264296 bus1=BBT115510831.1.2.3.0,bus2=BBT115510838.1.2.3.0,Phases=3,Linecode=BT514_BT514_7_3_1_3,Length=0.000501000,Units=km
new line.SBT_18751357 bus1=BBT2452206.1.2.3.0,bus2=BBT149972067.1.2.3.0,Phases=3,Linecode=BT514_BT514_5_3_1_3,Length=0.005002000,Units=km
new line.SBT_18797043 bus1=BBT2158563.1.2.3.0,bus2=BBT151389384.1.2.3.0,Phases=3,Linecode=BT108_BT107_7_3_1_3,Length=0.016975000,Units=km
new line.SBT_18797084 bus1=BBT2158549.1.2.3.0,bus2=BBT151390021.1.2.3.0,Phases=3,Linecode=BT514_BT514_5_3_1_3,Length=0.005659000,Units=km
new line.SBT_18797085 bus1=BBT151390021.1.2.3.0,bus2=BBT151390022.1.2.3.0,Phases=3,Linecode=BT514_BT514_5_3_1_3,Length=0.008488000,Units=km
new line.SBT_18797086 bus1=BBT151390022.1.2.3.0,bus2=BBT151390023.1.2.3.0,Phases=3,Linecode=BT514_BT514_5_3_1_3,Length=0.007073000,Units=km
new line.SBT_19160902 bus1=BBT2156036.1.2.3.0,bus2=BBT163103124.1.2.3.0,Phases=3,Linecode=BT514_BT514_5_3_1_3,Length=0.006710000,Units=km
new line.SBT_19160904 bus1=BBT163103124.1.2.3.0,bus2=BBT163103159.1.2.3.0,Phases=3,Linecode=BT514_BT514_5_3_1_3,Length=0.032903000,Units=km
new line.SBT_19635534 bus1=BBT2452192.1.2.3.0,bus2=BBT177526429.1.2.3.0,Phases=3,Linecode=BT514_BT514_5_3_1_3,Length=0.005659000,Units=km
new line.SBT_19635535 bus1=BBT177526429.1.2.3.0,bus2=BBT177526430.1.2.3.0,Phases=3,Linecode=BT514_BT514_5_3_1_3,Length=0.011184000,Units=km
new line.SBT_19635536 bus1=BBT177526430.1.2.3.0,bus2=BBT177526431.1.2.3.0,Phases=3,Linecode=BT514_BT514_5_3_1_3,Length=0.006710000,Units=km
new line.SBT_19636318 bus1=BBT2210300.1.2.3.0,bus2=BBT177546756.1.2.3.0,Phases=3,Linecode=BT803_BT803_4_3_4_3,Length=0.026408000,Units=km
new line.SBT_19636319 bus1=BBT177546787.1.2.3.0,bus2=BBT177546788.1.2.3.0,Phases=3,Linecode=BT514_BT514_7_3_1_3,Length=0.000501000,Units=km
new line.SBT_19728325 bus1=BBT2095213.1.2.3.0,bus2=BBT179986691.1.2.3.0,Phases=3,Linecode=BT514_BT514_5_3_1_3,Length=0.005387000,Units=km
new line.SBT_2002260IP bus1=BBT2407868.2.3.0,bus2=BBT5002002260.2.3.0,Phases=2,Linecode=IP_2,Length=0.002180000,Units=km
new line.SBT_2003870IP bus1=BBT2409478.1.2.0,bus2=BBT5002003870.1.2.0,Phases=2,Linecode=IP_2,Length=0.002960000,Units=km
new line.SBT_2003912IP bus1=BBT2409499.1.2.0,bus2=BBT5002003912.1.2.0,Phases=2,Linecode=IP_2,Length=0.002840000,Units=km
new line.SBT_2003933IP bus1=BBT2409506.1.2.0,bus2=BBT5002003933.1.2.0,Phases=2,Linecode=IP_2,Length=0.002840000,Units=km
new line.SBT_2003954IP bus1=BBT2409513.1.2.0,bus2=BBT5002003954.1.2.0,Phases=2,Linecode=IP_2,Length=0.002840000,Units=km
new line.SBT_2003975IP bus1=BBT2409520.1.2.0,bus2=BBT5002003975.1.2.0,Phases=2,Linecode=IP_2,Length=0.002840000,Units=km
new line.SBT_2046689IP bus1=BBT2443939.1.2.0,bus2=BBT5002046689.1.2.0,Phases=2,Linecode=IP_2,Length=0.003300000,Units=km
new line.SBT_3882208IP bus1=BBT2183511.2.3.0,bus2=BBT5003882208.2.3.0,Phases=2,Linecode=IP_2,Length=0.005530000,Units=km
new line.SBT_3882229IP bus1=BBT2183518.1.2.0,bus2=BBT5003882229.1.2.0,Phases=2,Linecode=IP_2,Length=0.005530000,Units=km
new line.SBT_3882250IP bus1=BBT2161496.3.1.0,bus2=BBT5003882250.3.1.0,Phases=2,Linecode=IP_2,Length=0.005530000,Units=km
new line.SBT_3882292IP bus1=BBT2183616.3.1.0,bus2=BBT5003882292.3.1.0,Phases=2,Linecode=IP_2,Length=0.005530000,Units=km
new line.SBT_3882334IP bus1=BBT2183630.2.3.0,bus2=BBT5003882334.2.3.0,Phases=2,Linecode=IP_2,Length=0.005530000,Units=km
new line.SBT_3882376IP bus1=BBT2183637.1.2.0,bus2=BBT5003882376.1.2.0,Phases=2,Linecode=IP_2,Length=0.005530000,Units=km
new line.SBT_3883132IP bus1=BBT2174873.3.1.0,bus2=BBT5003883132.3.1.0,Phases=2,Linecode=IP_2,Length=0.002960000,Units=km
new line.SBT_3883153IP bus1=BBT2174852.3.1.0,bus2=BBT5003883153.3.1.0,Phases=2,Linecode=IP_2,Length=0.002960000,Units=km
new line.SBT_3883174IP bus1=BBT2175636.1.2.0,bus2=BBT5003883174.1.2.0,Phases=2,Linecode=IP_2,Length=0.002840000,Units=km
new line.SBT_6232808IP bus1=BBT2160341.1.2.0,bus2=BBT5006232808.1.2.0,Phases=2,Linecode=IP_2,Length=0.002840000,Units=km
new line.SBT_6233711IP bus1=BBT2403731.1.2.0,bus2=BBT5006233711.1.2.0,Phases=2,Linecode=IP_2,Length=0.005530000,Units=km
new line.SBT_6233879IP bus1=BBT2412901.1.2.0,bus2=BBT5006233879.1.2.0,Phases=2,Linecode=IP_2,Length=0.005530000,Units=km
new line.SBT_6234390IP bus1=BBT2157730.1.2.0,bus2=BBT5006234390.1.2.0,Phases=2,Linecode=IP_2,Length=0.002960000,Units=km
new line.SBT_14206326 bus1=BBT5143573.1.2.3.0,bus2=BBT5143580.1.2.3.0,Phases=3,Linecode=BT514_BT509_7_3_1_3,Length=0.000501000,Units=km
new line.SBT_14211814 bus1=BBT5155795.1.2.3.0,bus2=BBT2095178.1.2.3.0,Phases=3,Linecode=BT810_BT810_4_3_4_3,Length=0.021407000,Units=km
new line.SBT_14211821 bus1=BBT5155795.1.2.3.0,bus2=BBT2097943.1.2.3.0,Phases=3,Linecode=BT803_BT803_4_3_4_3,Length=0.012045000,Units=km
new line.SBT_16139033 bus1=BBT9618310.1.2.3.0,bus2=BBT9618317.1.2.3.0,Phases=3,Linecode=BT513_BT513_5_3_1_3,Length=0.011708000,Units=km
new line.SBT_1717185IP bus1=BBT2158577.2.3.0,bus2=BBT5001717185.2.3.0,Phases=2,Linecode=IP_2,Length=0.002960000,Units=km
new line.SBT_1717206IP bus1=BBT2158584.3.1.0,bus2=BBT5001717206.3.1.0,Phases=2,Linecode=IP_2,Length=0.002960000,Units=km
new line.SBT_1717248IP bus1=BBT2158605.3.1.0,bus2=BBT5001717248.3.1.0,Phases=2,Linecode=IP_2,Length=0.002960000,Units=km
new line.SBT_1717269IP bus1=BBT2158612.1.2.0,bus2=BBT5001717269.1.2.0,Phases=2,Linecode=IP_2,Length=0.002960000,Units=km
new line.SBT_1717311IP bus1=BBT2158633.3.1.0,bus2=BBT5001717311.3.1.0,Phases=2,Linecode=IP_2,Length=0.002960000,Units=km
new line.SBT_1717458IP bus1=BBT2158787.1.2.0,bus2=BBT5001717458.1.2.0,Phases=2,Linecode=IP_2,Length=0.002960000,Units=km
new line.SBT_17376220 bus1=BBT2202866.1.2.0,bus2=BBT63161933.1.2.0,Phases=2,Linecode=BT808_BT808_4_2_3_2,Length=0.032582000,Units=km
new line.SBT_1738829IP bus1=BBT2174831.2.3.0,bus2=BBT5001738829.2.3.0,Phases=2,Linecode=IP_2,Length=0.002960000,Units=km
new line.SBT_1738955IP bus1=BBT2174901.2.3.0,bus2=BBT5001738955.2.3.0,Phases=2,Linecode=IP_2,Length=0.002960000,Units=km
new line.SBT_1738997IP bus1=BBT2174915.2.3.0,bus2=BBT5001738997.2.3.0,Phases=2,Linecode=IP_2,Length=0.002960000,Units=km
new line.SBT_17749481 bus1=BBT3317182.1.2.3.0,bus2=BBT82504445.1.2.3.0,Phases=3,Linecode=BT514_BT514_5_3_1_3,Length=0.007213000,Units=km
new line.SBT_17753667 bus1=BBT4099684.1.2.3.0,bus2=BBT82793629.1.2.3.0,Phases=3,Linecode=BT803_BT803_4_3_4_3,Length=0.026084000,Units=km
new line.SBT_17754304 bus1=BBT82818752.1.2.0,bus2=BBT2934359.1.2.0,Phases=2,Linecode=BT503_BT503_5_2_1_2,Length=0.005101000,Units=km
new line.SBT_17754318 bus1=BBT82816827.1.2.0,bus2=BBT82818752.1.2.0,Phases=2,Linecode=BT503_BT503_5_2_1_2,Length=0.025305000,Units=km
new line.SBT_17754346 bus1=BBT82818752.1.2.0,bus2=BBT82818759.1.2.0,Phases=2,Linecode=BT503_BT503_5_2_1_2,Length=0.029008000,Units=km
new line.SBT_17754360 bus1=BBT82818759.1.2.0,bus2=BBT82819081.1.2.0,Phases=2,Linecode=BT503_BT503_5_2_1_2,Length=0.022210000,Units=km
new line.SBT_17755809 bus1=BBT2469447.1.2.3.0,bus2=BBT82885091.1.2.3.0,Phases=3,Linecode=BT514_BT514_5_3_1_3,Length=0.006085000,Units=km
new line.SBT_18048843 bus1=BBT103910249.1.2.3.0,bus2=BBT103910256.1.2.3.0,Phases=3,Linecode=BT514_BT514_7_3_1_3,Length=0.000501000,Units=km
new line.SBT_18048850 bus1=BBT103910928.1.2.3.0,bus2=BBT103910935.1.2.3.0,Phases=3,Linecode=BT514_BT514_7_3_1_3,Length=0.000501000,Units=km
new line.SBT_18049732 bus1=BBT103950681.1.2.3.0,bus2=BBT103950688.1.2.3.0,Phases=3,Linecode=BT514_BT514_7_3_1_3,Length=0.000501000,Units=km
new line.SBT_18393418 bus1=BBT124496514.1.2.3.0,bus2=BBT2400301.1.2.3.0,Phases=3,Linecode=BT803_BT803_4_3_4_3,Length=0.013157000,Units=km
new line.SBT_18393719 bus1=BBT124508008.1.2.3.0,bus2=BBT2403766.1.2.3.0,Phases=3,Linecode=BT518_BT518_7_3_1_3,Length=0.000501000,Units=km
new line.SBT_18594829 bus1=BBT136817942.1.2.3.0,bus2=BBT136817949.1.2.3.0,Phases=3,Linecode=BT514_BT514_7_3_1_3,Length=0.000501000,Units=km
new line.SBT_19722342 bus1=BBT83892678.1.2.3.0,bus2=BBT179812709.1.2.3.0,Phases=3,Linecode=BT803_BT803_4_3_4_3,Length=0.010299000,Units=km
new line.SBT_19722343 bus1=BBT179812709.1.2.0,bus2=BBT179812711.1.2.0,Phases=2,Linecode=BT514_BT514_5_2_1_2,Length=0.005002000,Units=km
new line.SBT_2006894IP bus1=BBT2412404.3.1.0,bus2=BBT5002006894.3.1.0,Phases=2,Linecode=IP_2,Length=0.002960000,Units=km
new line.SBT_2006915IP bus1=BBT2412411.2.3.0,bus2=BBT5002006915.2.3.0,Phases=2,Linecode=IP_2,Length=0.002960000,Units=km
new line.SBT_2006936IP bus1=BBT2412425.3.1.0,bus2=BBT5002006936.3.1.0,Phases=2,Linecode=IP_2,Length=0.002840000,Units=km
new line.SBT_2007440IP bus1=BBT2412908.1.2.0,bus2=BBT5002007440.1.2.0,Phases=2,Linecode=IP_2,Length=0.003300000,Units=km
new line.SBT_4921015IP bus1=BBT2168615.2.3.0,bus2=BBT5004921015.2.3.0,Phases=2,Linecode=IP_2,Length=0.002840000,Units=km
new line.SBT_5372375IP bus1=BBT3586822.1.2.0,bus2=BBT5005372375.1.2.0,Phases=2,Linecode=IP_2,Length=0.005530000,Units=km
new line.SBT_6546975 bus1=BBT2212162.1.2.3.0,bus2=BBT2212148.1.2.3.0,Phases=3,Linecode=BT805_BT805_4_3_4_3,Length=0.050491000,Units=km
new line.SBT_6547003 bus1=BBT2095115.1.2.3.0,bus2=BBT2095108.1.2.3.0,Phases=3,Linecode=BT107_BT107_7_3_1_3,Length=0.027081000,Units=km
new line.SBT_6547024 bus1=BBT2095122.1.2.3.0,bus2=BBT2095115.1.2.3.0,Phases=3,Linecode=BT107_BT107_7_3_1_3,Length=0.028451000,Units=km
new line.SBT_6547031 bus1=BBT2095129.1.2.3.0,bus2=BBT2095122.1.2.3.0,Phases=3,Linecode=BT107_BT107_7_3_1_3,Length=0.026690000,Units=km
new line.SBT_6547066 bus1=BBT2095136.1.2.3.0,bus2=BBT2095129.1.2.3.0,Phases=3,Linecode=BT108_BT107_7_3_1_3,Length=0.034534000,Units=km
new line.SBT_6547094 bus1=BBT2095143.1.2.3.0,bus2=BBT2095136.1.2.3.0,Phases=3,Linecode=BT108_BT107_7_3_1_3,Length=0.029282000,Units=km
new line.SBT_6547101 bus1=BBT2095101.1.2.3.0,bus2=BBT2095143.1.2.3.0,Phases=3,Linecode=BT309_BT309_7_3_1_3,Length=0.000501000,Units=km
new line.SBT_6547108 bus1=BBT2095143.1.2.3.0,bus2=BBT2095150.1.2.3.0,Phases=3,Linecode=BT108_BT107_7_3_1_3,Length=0.037493000,Units=km
new line.SBT_6547136 bus1=BBT2095150.1.2.3.0,bus2=BBT2095157.1.2.3.0,Phases=3,Linecode=BT805_BT805_4_3_4_3,Length=0.031409000,Units=km
new line.SBT_6547143 bus1=BBT2095150.1.2.3.0,bus2=BBT2097894.1.2.3.0,Phases=3,Linecode=BT803_BT803_4_3_4_3,Length=0.026408000,Units=km
new line.SBT_6547185 bus1=BBT2095157.1.2.3.0,bus2=BBT2095164.1.2.3.0,Phases=3,Linecode=BT107_BT111_7_3_1_3,Length=0.029419000,Units=km
new line.SBT_6547220 bus1=BBT2095164.1.2.3.0,bus2=BBT2095171.1.2.3.0,Phases=3,Linecode=BT107_BT111_7_3_1_3,Length=0.032704000,Units=km
new line.SBT_6547241 bus1=BBT2095171.1.2.3.0,bus2=BBT2095185.1.2.3.0,Phases=3,Linecode=BT107_BT111_7_3_1_3,Length=0.026634000,Units=km