new load.3009002974M1 bus1=BMT99096083.1.2.3.0,Phases=3,kv=13.800000000,kW=0.00152,pf=0.92,Vminpu=0.93,Vmaxpu=1.5,model=8,zipv=[0.5,0,0.5,1,0,0,0],daily=MT1_1,status=variable
new load.3009002997M1 bus1=BMT152084232.1.2.3.0,Phases=3,kv=13.800000000,kW=4.53378,pf=0.92,Vminpu=0.93,Vmaxpu=1.5,model=8,zipv=[0.5,0,0.5,1,0,0,0],daily=MT1_1,status=variable
new load.3009003001M1 bus1=BMT152084066.1.2.3.0,Phases=3,kv=13.800000000,kW=9.43026,pf=0.92,Vminpu=0.93,Vmaxpu=1.5,model=8,zipv=[0.5,0,0.5,1,0,0,0],daily=MT1_1,status=variable
new load.3009003003M1 bus1=BMT99097147.1.2.3.0,Phases=3,kv=13.800000000,kW=8.70486,pf=0.92,Vminpu=0.93,Vmaxpu=1.5,model=8,zipv=[0.5,0,0.5,1,0,0,0],daily=MT1_1,status=variable
new load.3009003005M1 bus1=BMT99097133.1.2.3.0,Phases=3,kv=13.800000000,kW=0.00152,pf=0.92,Vminpu=0.93,Vmaxpu=1.5,model=8,zipv=[0.5,0,0.5,1,0,0,0],daily=MT1_1,status=variable
new load.3009003006M1 bus1=BMT150339965.1.2.3.0,Phases=3,kv=13.800000000,kW=143.34306,pf=0.92,Vminpu=0.93,Vmaxpu=1.5,model=8,zipv=[0.5,0,0.5,1,0,0,0],daily=MT1_1,status=variable
new load.3009007873M1 bus1=BMT99096041.1.2.3.0,Phases=3,kv=13.800000000,kW=104.2014,pf=0.92,Vminpu=0.93,Vmaxpu=1.5,model=8,zipv=[0.5,0,0.5,1,0,0,0],daily=MT1_1,status=variable
new load.3009009042M1 bus1=BMT152084219.1.2.3.0,Phases=3,kv=13.800000000,kW=4.77558,pf=0.92,Vminpu=0.93,Vmaxpu=1.5,model=8,zipv=[0.5,0,0.5,1,0,0,0],daily=MT1_1,status=variable
new load.3009009043M1 bus1=BMT152084214.1.2.3.0,Phases=3,kv=13.800000000,kW=5.44054,pf=0.92,Vminpu=0.93,Vmaxpu=1.5,model=8,zipv=[0.5,0,0.5,1,0,0,0],daily=MT1_1,status=variable
new load.3009011296M1 bus1=BMT166835312.1.2.3.0,Phases=3,kv=13.800000000,kW=37.90242,pf=0.92,Vminpu=0.93,Vmaxpu=1.5,model=8,zipv=[0.5,0,0.5,1,0,0,0],daily=MT1_1,status=variable
new load.3009014919M1 bus1=BMT99096909.1.2.3.0,Phases=3,kv=13.800000000,kW=111.07764,pf=0.92,Vminpu=0.93,Vmaxpu=1.5,model=8,zipv=[0.5,0,0.5,1,0,0,0],daily=MT1_1,status=variable
new load.3009014920M1 bus1=BMT99097742.1.2.3.0,Phases=3,kv=13.800000000,kW=39.14164,pf=0.92,Vminpu=0.93,Vmaxpu=1.5,model=8,zipv=[0.5,0,0.5,1,0,0,0],daily=MT1_1,status=variable
new load.3009014956M1 bus1=BMT99097105.1.2.3.0,Phases=3,kv=13.800000000,kW=0.00152,pf=0.92,Vminpu=0.93,Vmaxpu=1.5,model=8,zipv=[0.5,0,0.5,1,0,0,0],daily=MT1_1,status=variable
new load.3009015438M1 bus1=BMT99097091.1.2.3.0,Phases=3,kv=13.800000000,kW=6.04504,pf=0.92,Vminpu=0.93,Vmaxpu=1.5,model=8,zipv=[0.5,0,0.5,1,0,0,0],daily=MT1_1,status=variable
new load.3009015439M1 bus1=BMT152084228.1.2.3.0,Phases=3,kv=13.800000000,kW=2.72026,pf=0.92,Vminpu=0.93,Vmaxpu=1.5,model=8,zipv=[0.5,0,0.5,1,0,0,0],daily=MT1_1,status=variable
new load.3009016730M1 bus1=BMT152084226.1.2.3.0,Phases=3,kv=13.800000000,kW=3.98972,pf=0.92,Vminpu=0.93,Vmaxpu=1.5,model=8,zipv=[0.5,0,0.5,1,0,0,0],daily=MT1_1,status=variable
new load.3009016798M1 bus1=BMT99097077.1.2.3.0,Phases=3,kv=13.800000000,kW=120.79202,pf=0.92,Vminpu=0.93,Vmaxpu=1.5,model=8,zipv=[0.5,0,0.5,1,0,0,0],daily=MT1_1,status=variable
new load.3009017594M1 bus1=BMT164867792.1.2.3.0,Phases=3,kv=13.800000000,kW=18.19558,pf=0.92,Vminpu=0.93,Vmaxpu=1.5,model=8,zipv=[0.5,0,0.5,1,0,0,0],daily=MT1_1,status=variable
new load.3009019895M1 bus1=BMT99097686.1.2.3.0,Phases=3,kv=13.800000000,kW=83.6649,pf=0.92,Vminpu=0.93,Vmaxpu=1.5,model=8,zipv=[0.5,0,0.5,1,0,0,0],daily=MT1_1,status=variable
new load.3009020228M1 bus1=BMT152084234.1.2.3.0,Phases=3,kv=13.800000000,kW=1.14856,pf=0.92,Vminpu=0.93,Vmaxpu=1.5,model=8,zipv=[0.5,0,0.5,1,0,0,0],daily=MT1_1,status=variable
new load.3009020516M1 bus1=BMT99097924.1.2.3.0,Phases=3,kv=13.800000000,kW=17.16792,pf=0.92,Vminpu=0.93,Vmaxpu=1.5,model=8,zipv=[0.5,0,0.5,1,0,0,0],daily=MT1_1,status=variable
new load.3009021642M1 bus1=BMT99098029.1.2.3.0,Phases=3,kv=13.800000000,kW=26.23548,pf=0.92,Vminpu=0.93,Vmaxpu=1.5,model=8,zipv=[0.5,0,0.5,1,0,0,0],daily=MT1_1,status=variable
new load.3010070758M1 bus1=BMT99096279.1.2.3.0,Phases=3,kv=13.800000000,kW=84.26336,pf=0.92,Vminpu=0.93,Vmaxpu=1.5,model=8,zipv=[0.5,0,0.5,1,0,0,0],daily=MT1_1,status=variable
new load.3010130305M1 bus1=BMT114365330.1.2.3.0,Phases=3,kv=13.800000000,kW=0.00152,pf=0.92,Vminpu=0.93,Vmaxpu=1.5,model=8,zipv=[0.5,0,0.5,1,0,0,0],daily=MT1_1,status=variable
new load.3010995756M1 bus1=BMT99097847.1.2.3.0,Phases=3,kv=13.800000000,kW=116.28848,pf=0.92,Vminpu=0.93,Vmaxpu=1.5,model=8,zipv=[0.5,0,0.5,1,0,0,0],daily=MT1_1,status=variable
new load.3011119296M1 bus1=BMT99096265.1.2.3.0,Phases=3,kv=13.800000000,kW=22.548,pf=0.92,Vminpu=0.93,Vmaxpu=1.5,model=8,zipv=[0.5,0,0.5,1,0,0,0],daily=MT1_1,status=variable
new load.3011132708M1 bus1=BMT163940088.1.2.3.0,Phases=3,kv=13.800000000,kW=37.44904,pf=0.92,Vminpu=0.93,Vmaxpu=1.5,model=8,zipv=[0.5,0,0.5,1,0,0,0],daily=MT1_1,status=variable
new load.3011355549M1 bus1=BMT99096097.1.2.3.0,Phases=3,kv=13.800000000,kW=4.05018,pf=0.92,Vminpu=0.93,Vmaxpu=1.5,model=8,zipv=[0.5,0,0.5,1,0,0,0],daily=MT1_1,status=variable
new load.3011451515M1 bus1=BMT150349384.1.2.3.0,Phases=3,kv=13.800000000,kW=0.00152,pf=0.92,Vminpu=0.93,Vmaxpu=1.5,model=8,zipv=[0.5,0,0.5,1,0,0,0],daily=MT1_1,status=variable
new load.3011662803M1 bus1=BMT114365330.1.2.3.0,Phases=3,kv=13.800000000,kW=40.80404,pf=0.92,Vminpu=0.93,Vmaxpu=1.5,model=8,zipv=[0.5,0,0.5,1,0,0,0],daily=MT1_1,status=variable
new load.3012055757M1 bus1=BMT150349384.1.2.3.0,Phases=3,kv=13.800000000,kW=70.34918,pf=0.92,Vminpu=0.93,Vmaxpu=1.5,model=8,zipv=[0.5,0,0.5,1,0,0,0],daily=MT1_1,status=variable
new load.3012056713M1 bus1=BMT150343265.1.2.3.0,Phases=3,kv=13.800000000,kW=109.49082,pf=0.92,Vminpu=0.93,Vmaxpu=1.5,model=8,zipv=[0.5,0,0.5,1,0,0,0],daily=MT1_1,status=variable
new load.3012351593M1 bus1=BMT162784143.1.2.3.0,Phases=3,kv=13.800000000,kW=13.22352,pf=0.92,Vminpu=0.93,Vmaxpu=1.5,model=8,zipv=[0.5,0,0.5,1,0,0,0],daily=MT1_1,status=variable
new load.3013351653M1 bus1=BMT166778419.1.2.3.0,Phases=3,kv=13.800000000,kW=45.38316,pf=0.92,Vminpu=0.93,Vmaxpu=1.5,model=8,zipv=[0.5,0,0.5,1,0,0,0],daily=MT1_1,status=variable
new load.3013568037M1 bus1=BMT99096279.1.2.3.0,Phases=3,kv=13.800000000,kW=0.00152,pf=0.92,Vminpu=0.93,Vmaxpu=1.5,model=8,zipv=[0.5,0,0.5,1,0,0,0],daily=MT1_1,status=variable
new load.3013591703M1 bus1=BMT99097847.1.2.3.0,Phases=3,kv=13.800000000,kW=0.00152,pf=0.92,Vminpu=0.93,Vmaxpu=1.5,model=8,zipv=[0.5,0,0.5,1,0,0,0],daily=MT1_1,status=variable
new load.3014363993M1 bus1=BMT177547151.1.2.3.0,Phases=3,kv=13.800000000,kW=0.00152,pf=0.92,Vminpu=0.93,Vmaxpu=1.5,model=8,zipv=[0.5,0,0.5,1,0,0,0],daily=MT1_1,status=variable
