new load.BT_3001365357_M1 bus1=RML1001234496.1.0,Phases=1,kv=0.12,kW=0.0105,pf=0.92,Vminpu=0.92,Vmaxpu=1.5,model=8,zipv=[0.5,0,0.5,1,0,0,0],daily=RES1_1,status=variable
new load.BT_3001365358_M1 bus1=RML1001234489.1.0,Phases=1,kv=0.12,kW=0.14564,pf=0.92,Vminpu=0.92,Vmaxpu=1.5,model=8,zipv=[0.5,0,0.5,1,0,0,0],daily=COM1_4,status=variable
new load.BT_3001365359_M1 bus1=RML1001234503.1.2.0,Phases=2,kv=0.24,kW=3.40282,pf=0.92,Vminpu=0.92,Vmaxpu=1.5,model=8,zipv=[0.5,0,0.5,1,0,0,0],daily=RES1_1,status=variable
new load.BT_3001365360_M1 bus1=RML1001234475.1.2.0,Phases=2,kv=0.24,kW=6.79844,pf=0.92,Vminpu=0.92,Vmaxpu=1.5,model=8,zipv=[0.5,0,0.5,1,0,0,0],daily=RES1_1,status=variable
new load.BT_3001365361_M1 bus1=RML1001234482.1.2.0,Phases=2,kv=0.24,kW=0.0105,pf=0.92,Vminpu=0.92,Vmaxpu=1.5,model=8,zipv=[0.5,0,0.5,1,0,0,0],daily=RES1_1,status=variable
new load.BT_3001365363_M1 bus1=RML1001234510.2.0,Phases=1,kv=0.127,kW=0.0105,pf=0.92,Vminpu=0.92,Vmaxpu=1.5,model=8,zipv=[0.5,0,0.5,1,0,0,0],daily=RES1_1,status=variable
new load.BT_3001365391_M1 bus1=RML1001221595.3.0,Phases=1,kv=0.127,kW=0.00194,pf=0.92,Vminpu=0.92,Vmaxpu=1.5,model=8,zipv=[0.5,0,0.5,1,0,0,0],daily=COM1_4,status=variable
new load.BT_3001365392_M1 bus1=RML1001221672.2.0,Phases=1,kv=0.127,kW=0.00194,pf=0.92,Vminpu=0.92,Vmaxpu=1.5,model=8,zipv=[0.5,0,0.5,1,0,0,0],daily=COM1_4,status=variable
new load.BT_3001365393_M1 bus1=RML1001221511.3.0,Phases=1,kv=0.127,kW=0.15378,pf=0.92,Vminpu=0.92,Vmaxpu=1.5,model=8,zipv=[0.5,0,0.5,1,0,0,0],daily=COM1_4,status=variable
new load.BT_3001365394_M1 bus1=RML1001221588.1.2.0,Phases=2,kv=0.22,kW=0.54438,pf=0.92,Vminpu=0.92,Vmaxpu=1.5,model=8,zipv=[0.5,0,0.5,1,0,0,0],daily=COM1_4,status=variable
new load.BT_3001365396_M1 bus1=RML1001221686.2.0,Phases=1,kv=0.127,kW=0.0105,pf=0.92,Vminpu=0.92,Vmaxpu=1.5,model=8,zipv=[0.5,0,0.5,1,0,0,0],daily=RES1_1,status=variable
new load.BT_3001365397_M1 bus1=RML1001221693.1.0,Phases=1,kv=0.127,kW=1.30214,pf=0.92,Vminpu=0.92,Vmaxpu=1.5,model=8,zipv=[0.5,0,0.5,1,0,0,0],daily=RES1_1,status=variable
new load.BT_3001365398_M1 bus1=RML1001221700.1.0,Phases=1,kv=0.127,kW=0.46796,pf=0.92,Vminpu=0.92,Vmaxpu=1.5,model=8,zipv=[0.5,0,0.5,1,0,0,0],daily=RES1_1,status=variable
new load.BT_3001365399_M1 bus1=RML1001221707.2.0,Phases=1,kv=0.127,kW=1.11492,pf=0.92,Vminpu=0.92,Vmaxpu=1.5,model=8,zipv=[0.5,0,0.5,1,0,0,0],daily=RES1_1,status=variable
new load.BT_3001365400_M1 bus1=RML1001221721.3.0,Phases=1,kv=0.127,kW=0.99918,pf=0.92,Vminpu=0.92,Vmaxpu=1.5,model=8,zipv=[0.5,0,0.5,1,0,0,0],daily=RES1_1,status=variable
new load.BT_3001365401_M1 bus1=RML1001221819.1.0,Phases=1,kv=0.127,kW=0.58932,pf=0.92,Vminpu=0.92,Vmaxpu=1.5,model=8,zipv=[0.5,0,0.5,1,0,0,0],daily=RES1_1,status=variable
new load.BT_3001365402_M1 bus1=RML1001221728.3.0,Phases=1,kv=0.127,kW=1.02122,pf=0.92,Vminpu=0.92,Vmaxpu=1.5,model=8,zipv=[0.5,0,0.5,1,0,0,0],daily=RES1_1,status=variable
new load.BT_3001365403_M1 bus1=RML1001221840.2.0,Phases=1,kv=0.127,kW=1.48132,pf=0.92,Vminpu=0.92,Vmaxpu=1.5,model=8,zipv=[0.5,0,0.5,1,0,0,0],daily=RES1_1,status=variable
new load.BT_3001365404_M1 bus1=RML1001221826.1.0,Phases=1,kv=0.127,kW=1.19306,pf=0.92,Vminpu=0.92,Vmaxpu=1.5,model=8,zipv=[0.5,0,0.5,1,0,0,0],daily=RES1_1,status=variable
new load.BT_3001365405_M1 bus1=RML1001221812.1.2.0,Phases=2,kv=0.22,kW=1.4547,pf=0.92,Vminpu=0.92,Vmaxpu=1.5,model=8,zipv=[0.5,0,0.5,1,0,0,0],daily=RES1_1,status=variable
new load.BT_3001365406_M1 bus1=RML1001221833.1.0,Phases=1,kv=0.127,kW=0.27624,pf=0.92,Vminpu=0.92,Vmaxpu=1.5,model=8,zipv=[0.5,0,0.5,1,0,0,0],daily=RES1_1,status=variable
new load.BT_3001365407_M1 bus1=RML1001221735.1.0,Phases=1,kv=0.127,kW=1.39538,pf=0.92,Vminpu=0.92,Vmaxpu=1.5,model=8,zipv=[0.5,0,0.5,1,0,0,0],daily=RES1_1,status=variable
new load.BT_3001365408_M1 bus1=RML1001221742.2.0,Phases=1,kv=0.127,kW=0.72398,pf=0.92,Vminpu=0.92,Vmaxpu=1.5,model=8,zipv=[0.5,0,0.5,1,0,0,0],daily=RES1_1,status=variable
new load.BT_3001365409_M1 bus1=RML1001221749.2.0,Phases=1,kv=0.127,kW=1.80422,pf=0.92,Vminpu=0.92,Vmaxpu=1.5,model=8,zipv=[0.5,0,0.5,1,0,0,0],daily=RES1_1,status=variable
new load.BT_3001365410_M1 bus1=RML1001221714.1.0,Phases=1,kv=0.127,kW=0.0105,pf=0.92,Vminpu=0.92,Vmaxpu=1.5,model=8,zipv=[0.5,0,0.5,1,0,0,0],daily=RES1_1,status=variable
new load.BT_3001365411_M1 bus1=RML1010187812.1.0,Phases=1,kv=0.127,kW=0.0105,pf=0.92,Vminpu=0.92,Vmaxpu=1.5,model=8,zipv=[0.5,0,0.5,1,0,0,0],daily=RES1_1,status=variable
new load.BT_3001365414_M1 bus1=RML1001222169.2.0,Phases=1,kv=0.12,kW=0.0105,pf=0.92,Vminpu=0.92,Vmaxpu=1.5,model=8,zipv=[0.5,0,0.5,1,0,0,0],daily=RES1_1,status=variable
new load.BT_3001365415_M1 bus1=RML1001222162.1.0,Phases=1,kv=0.12,kW=0.91786,pf=0.92,Vminpu=0.92,Vmaxpu=1.5,model=8,zipv=[0.5,0,0.5,1,0,0,0],daily=RES1_1,status=variable
new load.BT_3001365416_M1 bus1=RML1001222141.1.0,Phases=1,kv=0.12,kW=1.52246,pf=0.92,Vminpu=0.92,Vmaxpu=1.5,model=8,zipv=[0.5,0,0.5,1,0,0,0],daily=RES1_1,status=variable
new load.BT_3001365417_M1 bus1=RML1001222120.1.0,Phases=1,kv=0.12,kW=0.0105,pf=0.92,Vminpu=0.92,Vmaxpu=1.5,model=8,zipv=[0.5,0,0.5,1,0,0,0],daily=RES1_1,status=variable
new load.BT_3001365418_M1 bus1=RML1001222085.1.0,Phases=1,kv=0.12,kW=0.77298,pf=0.92,Vminpu=0.92,Vmaxpu=1.5,model=8,zipv=[0.5,0,0.5,1,0,0,0],daily=RES1_1,status=variable
new load.BT_3001365419_M1 bus1=RML1001222155.2.0,Phases=1,kv=0.12,kW=0.68284,pf=0.92,Vminpu=0.92,Vmaxpu=1.5,model=8,zipv=[0.5,0,0.5,1,0,0,0],daily=RES1_1,status=variable
new load.BT_3001365420_M1 bus1=RML1001222099.1.0,Phases=1,kv=0.12,kW=0.71004,pf=0.92,Vminpu=0.92,Vmaxpu=1.5,model=8,zipv=[0.5,0,0.5,1,0,0,0],daily=RES1_1,status=variable
new load.BT_3001365421_M1 bus1=RML1001222071.1.0,Phases=1,kv=0.12,kW=4.15812,pf=0.92,Vminpu=0.92,Vmaxpu=1.5,model=8,zipv=[0.5,0,0.5,1,0,0,0],daily=RES1_1,status=variable
new load.BT_3001365422_M1 bus1=RML1004136199.1.2.0,Phases=2,kv=0.24,kW=2.80464,pf=0.92,Vminpu=0.92,Vmaxpu=1.5,model=8,zipv=[0.5,0,0.5,1,0,0,0],daily=RES1_1,status=variable
new load.BT_3001365423_M1 bus1=RML1001222183.2.0,Phases=1,kv=0.12,kW=0.7176,pf=0.92,Vminpu=0.92,Vmaxpu=1.5,model=8,zipv=[0.5,0,0.5,1,0,0,0],daily=RES1_1,status=variable
new load.BT_3001365424_M1 bus1=RML1001222176.1.0,Phases=1,kv=0.12,kW=0.77618,pf=0.92,Vminpu=0.92,Vmaxpu=1.5,model=8,zipv=[0.5,0,0.5,1,0,0,0],daily=RES1_1,status=variable
new load.BT_3001365425_M1 bus1=RML1004136199.1.2.0,Phases=2,kv=0.24,kW=1.93026,pf=0.92,Vminpu=0.92,Vmaxpu=1.5,model=8,zipv=[0.5,0,0.5,1,0,0,0],daily=RES1_1,status=variable
new load.BT_3001365426_M1 bus1=RML1001222078.2.0,Phases=1,kv=0.12,kW=0.7652,pf=0.92,Vminpu=0.92,Vmaxpu=1.5,model=8,zipv=[0.5,0,0.5,1,0,0,0],daily=RES1_1,status=variable
new load.BT_3001365427_M1 bus1=RML1001222106.1.2.0,Phases=2,kv=0.24,kW=0.86322,pf=0.92,Vminpu=0.92,Vmaxpu=1.5,model=8,zipv=[0.5,0,0.5,1,0,0,0],daily=RES1_1,status=variable
new load.BT_3001365428_M1 bus1=RML1001222113.1.0,Phases=1,kv=0.12,kW=0.15996,pf=0.92,Vminpu=0.92,Vmaxpu=1.5,model=8,zipv=[0.5,0,0.5,1,0,0,0],daily=COM1_4,status=variable
new load.BT_3001365429_M1 bus1=RML1001221798.3.0,Phases=1,kv=0.127,kW=1.9414,pf=0.92,Vminpu=0.92,Vmaxpu=1.5,model=8,zipv=[0.5,0,0.5,1,0,0,0],daily=RES1_1,status=variable
new load.BT_3001365430_M1 bus1=RML1001221791.3.0,Phases=1,kv=0.127,kW=0.6627,pf=0.92,Vminpu=0.92,Vmaxpu=1.5,model=8,zipv=[0.5,0,0.5,1,0,0,0],daily=RES1_1,status=variable
new load.BT_3001365431_M1 bus1=RML1001221770.1.2.0,Phases=2,kv=0.22,kW=0.86548,pf=0.92,Vminpu=0.92,Vmaxpu=1.5,model=8,zipv=[0.5,0,0.5,1,0,0,0],daily=RES1_1,status=variable
new load.BT_3001365432_M1 bus1=RML1001221756.1.2.0,Phases=2,kv=0.22,kW=1.75954,pf=0.92,Vminpu=0.92,Vmaxpu=1.5,model=8,zipv=[0.5,0,0.5,1,0,0,0],daily=RES1_1,status=variable
new load.BT_3001365433_M1 bus1=RML1001221875.3.0,Phases=1,kv=0.127,kW=0.45672,pf=0.92,Vminpu=0.92,Vmaxpu=1.5,model=8,zipv=[0.5,0,0.5,1,0,0,0],daily=RES1_1,status=variable
new load.BT_3001365434_M1 bus1=RML1001222015.3.0,Phases=1,kv=0.127,kW=0.45222,pf=0.92,Vminpu=0.92,Vmaxpu=1.5,model=8,zipv=[0.5,0,0.5,1,0,0,0],daily=RES1_1,status=variable
new load.BT_3001365435_M1 bus1=RML1001221868.2.3.0,Phases=2,kv=0.22,kW=0.27624,pf=0.92,Vminpu=0.92,Vmaxpu=1.5,model=8,zipv=[0.5,0,0.5,1,0,0,0],daily=RES1_1,status=variable
new load.BT_3001365437_M1 bus1=RML1001222022.2.0,Phases=1,kv=0.127,kW=1.8433,pf=0.92,Vminpu=0.92,Vmaxpu=1.5,model=8,zipv=[0.5,0,0.5,1,0,0,0],daily=RES1_1,status=variable
new load.BT_3001365438_M1 bus1=RML1001222029.2.0,Phases=1,kv=0.127,kW=1.86128,pf=0.92,Vminpu=0.92,Vmaxpu=1.5,model=8,zipv=[0.5,0,0.5,1,0,0,0],daily=RES1_1,status=variable
new load.BT_3001365439_M1 bus1=RML1001222036.2.3.0,Phases=2,kv=0.22,kW=0.65518,pf=0.92,Vminpu=0.92,Vmaxpu=1.5,model=8,zipv=[0.5,0,0.5,1,0,0,0],daily=RES1_1,status=variable
new load.BT_3001365441_M1 bus1=RML1001221763.2.0,Phases=1,kv=0.127,kW=3.15808,pf=0.92,Vminpu=0.92,Vmaxpu=1.5,model=8,zipv=[0.5,0,0.5,1,0,0,0],daily=RES1_1,status=variable
new load.BT_3001365442_M1 bus1=RML1004163114.3.0,Phases=1,kv=0.127,kW=0.09556,pf=0.92,Vminpu=0.92,Vmaxpu=1.5,model=8,zipv=[0.5,0,0.5,1,0,0,0],daily=RES1_1,status=variable
new load.BT_3001365443_M1 bus1=RML1001221777.1.0,Phases=1,kv=0.127,kW=0.0105,pf=0.92,Vminpu=0.92,Vmaxpu=1.5,model=8,zipv=[0.5,0,0.5,1,0,0,0],daily=RES1_1,status=variable
new load.BT_3001365444_M1 bus1=RML1001221784.1.0,Phases=1,kv=0.127,kW=0.83354,pf=0.92,Vminpu=0.92,Vmaxpu=1.5,model=8,zipv=[0.5,0,0.5,1,0,0,0],daily=RES1_1,status=variable
new load.BT_3001365446_M1 bus1=RML1001221987.1.2.0,Phases=2,kv=0.22,kW=5.53526,pf=0.92,Vminpu=0.92,Vmaxpu=1.5,model=8,zipv=[0.5,0,0.5,1,0,0,0],daily=RES1_1,status=variable
new load.BT_3001365447_M1 bus1=RML1001221973.1.0,Phases=1,kv=0.127,kW=0.88684,pf=0.92,Vminpu=0.92,Vmaxpu=1.5,model=8,zipv=[0.5,0,0.5,1,0,0,0],daily=RES1_1,status=variable
new load.BT_3001365448_M1 bus1=RML1001222330.1.2.0,Phases=2,kv=0.22,kW=1.04708,pf=0.92,Vminpu=0.92,Vmaxpu=1.5,model=8,zipv=[0.5,0,0.5,1,0,0,0],daily=RES1_1,status=variable
new load.BT_3001365449_M1 bus1=RML1001221854.3.0,Phases=1,kv=0.127,kW=0.93116,pf=0.92,Vminpu=0.92,Vmaxpu=1.5,model=8,zipv=[0.5,0,0.5,1,0,0,0],daily=RES1_1,status=variable
new load.BT_3001365450_M1 bus1=RML1001221882.2.0,Phases=1,kv=0.127,kW=1.26868,pf=0.92,Vminpu=0.92,Vmaxpu=1.5,model=8,zipv=[0.5,0,0.5,1,0,0,0],daily=RES1_1,status=variable
new load.BT_3001365451_M1 bus1=RML1001221931.2.0,Phases=1,kv=0.127,kW=1.2744,pf=0.92,Vminpu=0.92,Vmaxpu=1.5,model=8,zipv=[0.5,0,0.5,1,0,0,0],daily=RES1_1,status=variable
new load.BT_3001365452_M1 bus1=RML1001221889.1.0,Phases=1,kv=0.127,kW=0.43856,pf=0.92,Vminpu=0.92,Vmaxpu=1.5,model=8,zipv=[0.5,0,0.5,1,0,0,0],daily=RES1_1,status=variable
new load.BT_3001365453_M1 bus1=RML1001221924.1.2.0,Phases=2,kv=0.22,kW=1.55168,pf=0.92,Vminpu=0.92,Vmaxpu=1.5,model=8,zipv=[0.5,0,0.5,1,0,0,0],daily=RES1_1,status=variable
new load.BT_3001365454_M1 bus1=RML1001285309.1.0,Phases=1,kv=0.127,kW=0.0105,pf=0.92,Vminpu=0.92,Vmaxpu=1.5,model=8,zipv=[0.5,0,0.5,1,0,0,0],daily=RES1_1,status=variable
new load.BT_3001365456_M1 bus1=RML1001221945.2.0,Phases=1,kv=0.127,kW=1.89914,pf=0.92,Vminpu=0.92,Vmaxpu=1.5,model=8,zipv=[0.5,0,0.5,1,0,0,0],daily=RES1_1,status=variable
new load.BT_3001365457_M1 bus1=RML1001221959.1.0,Phases=1,kv=0.127,kW=0.0105,pf=0.92,Vminpu=0.92,Vmaxpu=1.5,model=8,zipv=[0.5,0,0.5,1,0,0,0],daily=RES1_1,status=variable
new load.BT_3001365458_M1 bus1=RML1001221980.2.0,Phases=1,kv=0.127,kW=1.07396,pf=0.92,Vminpu=0.92,Vmaxpu=1.5,model=8,zipv=[0.5,0,0.5,1,0,0,0],daily=RES1_1,status=variable
new load.BT_3001365459_M1 bus1=RML1001222281.3.0,Phases=1,kv=0.127,kW=0.91224,pf=0.92,Vminpu=0.92,Vmaxpu=1.5,model=8,zipv=[0.5,0,0.5,1,0,0,0],daily=RES1_1,status=variable
new load.BT_3001365461_M1 bus1=RML1001222274.2.0,Phases=1,kv=0.127,kW=1.3624,pf=0.92,Vminpu=0.92,Vmaxpu=1.5,model=8,zipv=[0.5,0,0.5,1,0,0,0],daily=RES1_1,status=variable
new load.BT_3001365462_M1 bus1=RML1001222267.2.0,Phases=1,kv=0.127,kW=1.11848,pf=0.92,Vminpu=0.92,Vmaxpu=1.5,model=8,zipv=[0.5,0,0.5,1,0,0,0],daily=RES1_1,status=variable
new load.BT_3001365463_M1 bus1=RML1001222260.1.0,Phases=1,kv=0.127,kW=1.23488,pf=0.92,Vminpu=0.92,Vmaxpu=1.5,model=8,zipv=[0.5,0,0.5,1,0,0,0],daily=RES1_1,status=variable
new load.BT_3001365464_M1 bus1=RML1001222337.3.0,Phases=1,kv=0.127,kW=0.0105,pf=0.92,Vminpu=0.92,Vmaxpu=1.5,model=8,zipv=[0.5,0,0.5,1,0,0,0],daily=RES1_1,status=variable
new load.BT_3001365465_M1 bus1=RML1001285260.1.0,Phases=1,kv=0.127,kW=0.7252,pf=0.92,Vminpu=0.92,Vmaxpu=1.5,model=8,zipv=[0.5,0,0.5,1,0,0,0],daily=RES1_1,status=variable
new load.BT_3001365466_M1 bus1=RML1001285281.3.0,Phases=1,kv=0.127,kW=0.0105,pf=0.92,Vminpu=0.92,Vmaxpu=1.5,model=8,zipv=[0.5,0,0.5,1,0,0,0],daily=RES1_1,status=variable
new load.BT_3001365468_M1 bus1=RML1001285288.2.0,Phases=1,kv=0.127,kW=1.36108,pf=0.92,Vminpu=0.92,Vmaxpu=1.5,model=8,zipv=[0.5,0,0.5,1,0,0,0],daily=RES1_1,status=variable
new load.BT_3001365469_M1 bus1=RML1001285295.3.0,Phases=1,kv=0.127,kW=0.46422,pf=0.92,Vminpu=0.92,Vmaxpu=1.5,model=8,zipv=[0.5,0,0.5,1,0,0,0],daily=RES1_1,status=variable
new load.BT_3001365470_M1 bus1=RML1001285302.2.0,Phases=1,kv=0.127,kW=0.0178,pf=0.92,Vminpu=0.92,Vmaxpu=1.5,model=8,zipv=[0.5,0,0.5,1,0,0,0],daily=RES1_1,status=variable
new load.BT_3001365471_M1 bus1=RML1001285316.1.0,Phases=1,kv=0.127,kW=0.0105,pf=0.92,Vminpu=0.92,Vmaxpu=1.5,model=8,zipv=[0.5,0,0.5,1,0,0,0],daily=RES1_1,status=variable
new load.BT_3001365472_M1 bus1=RML1001221497.2.3.0,Phases=2,kv=0.22,kW=1.16788,pf=0.92,Vminpu=0.92,Vmaxpu=1.5,model=8,zipv=[0.5,0,0.5,1,0,0,0],daily=RES1_1,status=variable
new load.BT_3001365473_M1 bus1=RML1001314394.1.0,Phases=1,kv=0.127,kW=0.00194,pf=0.92,Vminpu=0.92,Vmaxpu=1.5,model=8,zipv=[0.5,0,0.5,1,0,0,0],daily=COM1_4,status=variable
new load.BT_3001365474_M1 bus1=RML1001314408.2.0,Phases=1,kv=0.127,kW=0.91102,pf=0.92,Vminpu=0.92,Vmaxpu=1.5,model=8,zipv=[0.5,0,0.5,1,0,0,0],daily=RES1_1,status=variable
new load.BT_3001365475_M1 bus1=RML1001221581.3.1.0,Phases=2,kv=0.22,kW=0.20684,pf=0.92,Vminpu=0.92,Vmaxpu=1.5,model=8,zipv=[0.5,0,0.5,1,0,0,0],daily=COM1_4,status=variable
new load.BT_3001365476_M1 bus1=RML1001221574.1.0,Phases=1,kv=0.127,kW=0.00194,pf=0.92,Vminpu=0.92,Vmaxpu=1.5,model=8,zipv=[0.5,0,0.5,1,0,0,0],daily=COM1_4,status=variable
new load.BT_3001365477_M1 bus1=RML1001221567.1.0,Phases=1,kv=0.127,kW=0.0105,pf=0.92,Vminpu=0.92,Vmaxpu=1.5,model=8,zipv=[0.5,0,0.5,1,0,0,0],daily=RES1_1,status=variable
new load.BT_3001365478_M1 bus1=RML1001221553.2.0,Phases=1,kv=0.127,kW=1.9161,pf=0.92,Vminpu=0.92,Vmaxpu=1.5,model=8,zipv=[0.5,0,0.5,1,0,0,0],daily=RES1_1,status=variable
new load.BT_3001365480_M1 bus1=RML1001221560.3.0,Phases=1,kv=0.127,kW=1.0348,pf=0.92,Vminpu=0.92,Vmaxpu=1.5,model=8,zipv=[0.5,0,0.5,1,0,0,0],daily=RES1_1,status=variable
new load.BT_3001365481_M1 bus1=RML1001221539.2.0,Phases=1,kv=0.127,kW=1.70414,pf=0.92,Vminpu=0.92,Vmaxpu=1.5,model=8,zipv=[0.5,0,0.5,1,0,0,0],daily=RES1_1,status=variable
new load.BT_3001365483_M1 bus1=RML1001221546.1.0,Phases=1,kv=0.127,kW=3.12998,pf=0.92,Vminpu=0.92,Vmaxpu=1.5,model=8,zipv=[0.5,0,0.5,1,0,0,0],daily=RES1_1,status=variable
new load.BT_3001365484_M1 bus1=RML1001221518.3.0,Phases=1,kv=0.127,kW=0.67634,pf=0.92,Vminpu=0.92,Vmaxpu=1.5,model=8,zipv=[0.5,0,0.5,1,0,0,0],daily=COM1_4,status=variable
new load.BT_3001365486_M1 bus1=RML1001221392.2.0,Phases=1,kv=0.127,kW=1.4141,pf=0.92,Vminpu=0.92,Vmaxpu=1.5,model=8,zipv=[0.5,0,0.5,1,0,0,0],daily=RES1_1,status=variable
new load.BT_3001365487_M1 bus1=RML1001221434.3.0,Phases=1,kv=0.127,kW=0.94896,pf=0.92,Vminpu=0.92,Vmaxpu=1.5,model=8,zipv=[0.5,0,0.5,1,0,0,0],daily=RES1_1,status=variable
new load.BT_3001365488_M1 bus1=RML1001221448.1.0,Phases=1,kv=0.127,kW=0.94794,pf=0.92,Vminpu=0.92,Vmaxpu=1.5,model=8,zipv=[0.5,0,0.5,1,0,0,0],daily=RES1_1,status=variable
new load.BT_3001365489_M1 bus1=RML1001221455.2.0,Phases=1,kv=0.127,kW=0.0105,pf=0.92,Vminpu=0.92,Vmaxpu=1.5,model=8,zipv=[0.5,0,0.5,1,0,0,0],daily=RES1_1,status=variable
new load.BT_3001365490_M1 bus1=RML1001221469.3.0,Phases=1,kv=0.127,kW=2.06146,pf=0.92,Vminpu=0.92,Vmaxpu=1.5,model=8,zipv=[0.5,0,0.5,1,0,0,0],daily=RES1_1,status=variable
new load.BT_3001365491_M1 bus1=RML1010892580.1.2.0,Phases=2,kv=0.22,kW=0.73626,pf=0.92,Vminpu=0.92,Vmaxpu=1.5,model=8,zipv=[0.5,0,0.5,1,0,0,0],daily=RES1_1,status=variable
new load.BT_3001365492_M1 bus1=RML1001221490.3.0,Phases=1,kv=0.127,kW=1.7763,pf=0.92,Vminpu=0.92,Vmaxpu=1.5,model=8,zipv=[0.5,0,0.5,1,0,0,0],daily=RES1_1,status=variable
new load.BT_3001365493_M1 bus1=RML1001221483.2.0,Phases=1,kv=0.127,kW=1.68512,pf=0.92,Vminpu=0.92,Vmaxpu=1.5,model=8,zipv=[0.5,0,0.5,1,0,0,0],daily=RES1_1,status=variable
new load.BT_3001365494_M1 bus1=RML1001221476.1.0,Phases=1,kv=0.127,kW=0.81534,pf=0.92,Vminpu=0.92,Vmaxpu=1.5,model=8,zipv=[0.5,0,0.5,1,0,0,0],daily=RES1_1,status=variable
new load.BT_3001365495_M1 bus1=RML1001221462.1.0,Phases=1,kv=0.127,kW=0.0105,pf=0.92,Vminpu=0.92,Vmaxpu=1.5,model=8,zipv=[0.5,0,0.5,1,0,0,0],daily=RES1_1,status=variable
new load.BT_3001365496_M1 bus1=RML1001221427.3.0,Phases=1,kv=0.127,kW=3.8129,pf=0.92,Vminpu=0.92,Vmaxpu=1.5,model=8,zipv=[0.5,0,0.5,1,0,0,0],daily=RES1_1,status=variable
new load.BT_3001365497_M1 bus1=RML1010987799.2.0,Phases=1,kv=0.127,kW=0.53796,pf=0.92,Vminpu=0.92,Vmaxpu=1.5,model=8,zipv=[0.5,0,0.5,1,0,0,0],daily=RES1_1,status=variable
new load.BT_3001365498_M1 bus1=RML1010892578.1.2.0,Phases=2,kv=0.22,kW=0.3542,pf=0.92,Vminpu=0.92,Vmaxpu=1.5,model=8,zipv=[0.5,0,0.5,1,0,0,0],daily=RES1_1,status=variable
new load.BT_3001365499_M1 bus1=RML1001221371.1.0,Phases=1,kv=0.127,kW=0.45354,pf=0.92,Vminpu=0.92,Vmaxpu=1.5,model=8,zipv=[0.5,0,0.5,1,0,0,0],daily=RES1_1,status=variable
new load.BT_3001365501_M1 bus1=RML1001221378.1.2.0,Phases=2,kv=0.22,kW=0.0105,pf=0.92,Vminpu=0.92,Vmaxpu=1.5,model=8,zipv=[0.5,0,0.5,1,0,0,0],daily=RES1_1,status=variable
new load.BT_3001365502_M1 bus1=RML1004147154.1.2.0,Phases=2,kv=0.22,kW=2.9446,pf=0.92,Vminpu=0.92,Vmaxpu=1.5,model=8,zipv=[0.5,0,0.5,1,0,0,0],daily=RES1_1,status=variable
new load.BT_3001365503_M1 bus1=RML1010292779.3.0,Phases=1,kv=0.127,kW=0.0105,pf=0.92,Vminpu=0.92,Vmaxpu=1.5,model=8,zipv=[0.5,0,0.5,1,0,0,0],daily=RES1_1,status=variable
new load.BT_3001365504_M1 bus1=RML1001221609.2.0,Phases=1,kv=0.127,kW=0.9334,pf=0.92,Vminpu=0.92,Vmaxpu=1.5,model=8,zipv=[0.5,0,0.5,1,0,0,0],daily=RES1_1,status=variable
new load.BT_3001365505_M1 bus1=RML1001221623.3.0,Phases=1,kv=0.127,kW=0.51352,pf=0.92,Vminpu=0.92,Vmaxpu=1.5,model=8,zipv=[0.5,0,0.5,1,0,0,0],daily=RES1_1,status=variable
new load.BT_3001365506_M1 bus1=RML1005211637.1.2.3.0,Phases=3,kv=0.22,kW=1.52282,pf=0.92,Vminpu=0.92,Vmaxpu=1.5,model=8,zipv=[0.5,0,0.5,1,0,0,0],daily=RES1_1,status=variable
new load.BT_3001365507_M1 bus1=RML1001221665.2.0,Phases=1,kv=0.127,kW=0.0105,pf=0.92,Vminpu=0.92,Vmaxpu=1.5,model=8,zipv=[0.5,0,0.5,1,0,0,0],daily=RES1_1,status=variable
new load.BT_3001365508_M1 bus1=RML1001221651.2.0,Phases=1,kv=0.127,kW=0.08462,pf=0.92,Vminpu=0.92,Vmaxpu=1.5,model=8,zipv=[0.5,0,0.5,1,0,0,0],daily=RES1_1,status=variable
new load.BT_3001365509_M1 bus1=RML1001221630.1.0,Phases=1,kv=0.127,kW=0.31636,pf=0.92,Vminpu=0.92,Vmaxpu=1.5,model=8,zipv=[0.5,0,0.5,1,0,0,0],daily=RES1_1,status=variable
new load.BT_3001365510_M1 bus1=RML1001221637.3.0,Phases=1,kv=0.127,kW=0.5448,pf=0.92,Vminpu=0.92,Vmaxpu=1.5,model=8,zipv=[0.5,0,0.5,1,0,0,0],daily=RES1_1,status=variable
new load.BT_3001365511_M1 bus1=RML1001221616.3.0,Phases=1,kv=0.127,kW=0.33386,pf=0.92,Vminpu=0.92,Vmaxpu=1.5,model=8,zipv=[0.5,0,0.5,1,0,0,0],daily=RES1_1,status=variable
new load.BT_3001365512_M1 bus1=RML1001221385.1.0,Phases=1,kv=0.127,kW=1.76044,pf=0.92,Vminpu=0.92,Vmaxpu=1.5,model=8,zipv=[0.5,0,0.5,1,0,0,0],daily=RES1_1,status=variable
new load.BT_3001365513_M1 bus1=RML1001221350.2.0,Phases=1,kv=0.127,kW=0.0105,pf=0.92,Vminpu=0.92,Vmaxpu=1.5,model=8,zipv=[0.5,0,0.5,1,0,0,0],daily=RES1_1,status=variable
new load.BT_3000828113_M1 bus1=RML1001002187.1.2.0,Phases=2,kv=0.22,kW=1.4643,pf=0.92,Vminpu=0.92,Vmaxpu=1.5,model=8,zipv=[0.5,0,0.5,1,0,0,0],daily=RES1_3,status=variable
new load.BT_3000828132_M1 bus1=RML1001002488.1.0,Phases=1,kv=0.127,kW=0.11002,pf=0.92,Vminpu=0.92,Vmaxpu=1.5,model=8,zipv=[0.5,0,0.5,1,0,0,0],daily=RES1_3,status=variable
new load.BT_3002082320_M1 bus1=RML1000977827.1.2.0,Phases=2,kv=0.22,kW=1.07036,pf=0.92,Vminpu=0.92,Vmaxpu=1.5,model=8,zipv=[0.5,0,0.5,1,0,0,0],daily=RES1_2,status=variable
new load.BT_3002082322_M1 bus1=RML1000984064.1.2.0,Phases=2,kv=0.22,kW=1.69226,pf=0.92,Vminpu=0.92,Vmaxpu=1.5,model=8,zipv=[0.5,0,0.5,1,0,0,0],daily=RES1_2,status=variable
new load.BT_3002082323_M1 bus1=RML1000984057.1.2.3.0,Phases=3,kv=0.22,kW=0.58986,pf=0.92,Vminpu=0.92,Vmaxpu=1.5,model=8,zipv=[0.5,0,0.5,1,0,0,0],daily=RES1_2,status=variable
new load.BT_3002082324_M1 bus1=RML1000984078.2.3.0,Phases=2,kv=0.22,kW=1.55878,pf=0.92,Vminpu=0.92,Vmaxpu=1.5,model=8,zipv=[0.5,0,0.5,1,0,0,0],daily=RES1_2,status=variable
new load.BT_3002082325_M1 bus1=RML1000984071.3.0,Phases=1,kv=0.127,kW=0.2999,pf=0.92,Vminpu=0.92,Vmaxpu=1.5,model=8,zipv=[0.5,0,0.5,1,0,0,0],daily=RES1_2,status=variable
new load.BT_3002082326_M1 bus1=RML1000986227.1.2.3.0,Phases=3,kv=0.22,kW=1.55746,pf=0.92,Vminpu=0.92,Vmaxpu=1.5,model=8,zipv=[0.5,0,0.5,1,0,0,0],daily=RES1_2,status=variable
new load.BT_3002082327_M1 bus1=RML1000986206.1.2.3.0,Phases=3,kv=0.22,kW=1.6142,pf=0.92,Vminpu=0.92,Vmaxpu=1.5,model=8,zipv=[0.5,0,0.5,1,0,0,0],daily=RES1_2,status=variable
new load.BT_3002082328_M1 bus1=RML1000986206.1.2.3.0,Phases=3,kv=0.22,kW=0.0026,pf=0.92,Vminpu=0.92,Vmaxpu=1.5,model=8,zipv=[0.5,0,0.5,1,0,0,0],daily=COM1_5,status=variable
new load.BT_3002082329_M1 bus1=RML1000986220.2.3.0,Phases=2,kv=0.22,kW=0.0098,pf=0.92,Vminpu=0.92,Vmaxpu=1.5,model=8,zipv=[0.5,0,0.5,1,0,0,0],daily=RES1_2,status=variable
new load.BT_3002082330_M1 bus1=RML1000986213.2.3.0,Phases=2,kv=0.22,kW=0.84024,pf=0.92,Vminpu=0.92,Vmaxpu=1.5,model=8,zipv=[0.5,0,0.5,1,0,0,0],daily=RES1_2,status=variable
new load.BT_3002082331_M1 bus1=RML1000986234.2.3.0,Phases=2,kv=0.22,kW=1.05826,pf=0.92,Vminpu=0.92,Vmaxpu=1.5,model=8,zipv=[0.5,0,0.5,1,0,0,0],daily=RES1_2,status=variable
new load.BT_3002082332_M1 bus1=RML1000986241.2.3.0,Phases=2,kv=0.22,kW=2.65846,pf=0.92,Vminpu=0.92,Vmaxpu=1.5,model=8,zipv=[0.5,0,0.5,1,0,0,0],daily=RES1_2,status=variable
new load.BT_3002082334_M1 bus1=RML1000991554.2.3.0,Phases=2,kv=0.22,kW=1.998,pf=0.92,Vminpu=0.92,Vmaxpu=1.5,model=8,zipv=[0.5,0,0.5,1,0,0,0],daily=RES1_2,status=variable
new load.BT_3002082335_M1 bus1=RML1000991540.2.3.0,Phases=2,kv=0.22,kW=2.64538,pf=0.92,Vminpu=0.92,Vmaxpu=1.5,model=8,zipv=[0.5,0,0.5,1,0,0,0],daily=RES1_2,status=variable
new load.BT_3002082336_M1 bus1=RML1000991477.2.3.0,Phases=2,kv=0.22,kW=1.05294,pf=0.92,Vminpu=0.92,Vmaxpu=1.5,model=8,zipv=[0.5,0,0.5,1,0,0,0],daily=RES1_2,status=variable
new load.BT_3002082337_M1 bus1=RML1000991491.2.3.0,Phases=2,kv=0.22,kW=1.46606,pf=0.92,Vminpu=0.92,Vmaxpu=1.5,model=8,zipv=[0.5,0,0.5,1,0,0,0],daily=RES1_2,status=variable
new load.BT_3002082338_M1 bus1=RML1000991505.1.2.3.0,Phases=3,kv=0.22,kW=1.26662,pf=0.92,Vminpu=0.92,Vmaxpu=1.5,model=8,zipv=[0.5,0,0.5,1,0,0,0],daily=RES1_2,status=variable
new load.BT_3002082339_M1 bus1=RML1000991519.1.2.3.0,Phases=3,kv=0.22,kW=1.5775,pf=0.92,Vminpu=0.92,Vmaxpu=1.5,model=8,zipv=[0.5,0,0.5,1,0,0,0],daily=RES1_2,status=variable
new load.BT_3002082340_M1 bus1=RML1000987053.1.2.0,Phases=2,kv=0.22,kW=1.18086,pf=0.92,Vminpu=0.92,Vmaxpu=1.5,model=8,zipv=[0.5,0,0.5,1,0,0,0],daily=RES1_2,status=variable
new load.BT_3002082341_M1 bus1=RML1000987053.1.2.0,Phases=2,kv=0.22,kW=1.16308,pf=0.92,Vminpu=0.92,Vmaxpu=1.5,model=8,zipv=[0.5,0,0.5,1,0,0,0],daily=RES1_2,status=variable
new load.BT_3002082342_M1 bus1=RML1000987025.3.1.0,Phases=2,kv=0.22,kW=0.9114,pf=0.92,Vminpu=0.92,Vmaxpu=1.5,model=8,zipv=[0.5,0,0.5,1,0,0,0],daily=RES1_2,status=variable
new load.BT_3002082343_M1 bus1=RML1000987025.3.1.0,Phases=2,kv=0.22,kW=0.70304,pf=0.92,Vminpu=0.92,Vmaxpu=1.5,model=8,zipv=[0.5,0,0.5,1,0,0,0],daily=RES1_2,status=variable
new load.BT_3002082344_M1 bus1=RML1000987032.1.0,Phases=1,kv=0.127,kW=0.76736,pf=0.92,Vminpu=0.92,Vmaxpu=1.5,model=8,zipv=[0.5,0,0.5,1,0,0,0],daily=RES1_2,status=variable
new load.BT_3002082345_M1 bus1=RML1000987018.3.1.0,Phases=2,kv=0.22,kW=0.30448,pf=0.92,Vminpu=0.92,Vmaxpu=1.5,model=8,zipv=[0.5,0,0.5,1,0,0,0],daily=RES1_2,status=variable
new load.BT_3002082346_M1 bus1=RML1000987060.1.2.3.0,Phases=3,kv=0.22,kW=1.71112,pf=0.92,Vminpu=0.92,Vmaxpu=1.5,model=8,zipv=[0.5,0,0.5,1,0,0,0],daily=RES1_2,status=variable
new load.BT_3002082347_M1 bus1=RML1000987060.1.2.3.0,Phases=3,kv=0.22,kW=0.94356,pf=0.92,Vminpu=0.92,Vmaxpu=1.5,model=8,zipv=[0.5,0,0.5,1,0,0,0],daily=RES1_2,status=variable
new load.BT_3002082348_M1 bus1=RML1000991526.2.3.0,Phases=2,kv=0.22,kW=1.34626,pf=0.92,Vminpu=0.92,Vmaxpu=1.5,model=8,zipv=[0.5,0,0.5,1,0,0,0],daily=RES1_2,status=variable
new load.BT_3002082349_M1 bus1=RML1000991512.2.3.0,Phases=2,kv=0.22,kW=2.01204,pf=0.92,Vminpu=0.92,Vmaxpu=1.5,model=8,zipv=[0.5,0,0.5,1,0,0,0],daily=RES1_2,status=variable
new load.BT_3002082350_M1 bus1=RML1000991498.1.2.3.0,Phases=3,kv=0.22,kW=5.49426,pf=0.92,Vminpu=0.92,Vmaxpu=1.5,model=8,zipv=[0.5,0,0.5,1,0,0,0],daily=RES1_2,status=variable
new load.BT_3002082351_M1 bus1=RML1000991484.1.0,Phases=1,kv=0.127,kW=1.00696,pf=0.92,Vminpu=0.92,Vmaxpu=1.5,model=8,zipv=[0.5,0,0.5,1,0,0,0],daily=RES1_2,status=variable
new load.BT_3002082353_M1 bus1=RML1000991547.1.2.3.0,Phases=3,kv=0.22,kW=1.01848,pf=0.92,Vminpu=0.92,Vmaxpu=1.5,model=8,zipv=[0.5,0,0.5,1,0,0,0],daily=RES1_2,status=variable
new load.BT_3002082355_M1 bus1=RML1000991638.2.3.0,Phases=2,kv=0.22,kW=1.08492,pf=0.92,Vminpu=0.92,Vmaxpu=1.5,model=8,zipv=[0.5,0,0.5,1,0,0,0],daily=RES1_2,status=variable
new load.BT_3002082356_M1 bus1=RML1000991624.2.3.0,Phases=2,kv=0.22,kW=2.92456,pf=0.92,Vminpu=0.92,Vmaxpu=1.5,model=8,zipv=[0.5,0,0.5,1,0,0,0],daily=RES1_2,status=variable
new load.BT_3002082357_M1 bus1=RML1000991561.3.1.0,Phases=2,kv=0.22,kW=2.06708,pf=0.92,Vminpu=0.92,Vmaxpu=1.5,model=8,zipv=[0.5,0,0.5,1,0,0,0],daily=RES1_2,status=variable
new load.BT_3002082358_M1 bus1=RML1000991575.3.1.0,Phases=2,kv=0.22,kW=1.63432,pf=0.92,Vminpu=0.92,Vmaxpu=1.5,model=8,zipv=[0.5,0,0.5,1,0,0,0],daily=RES1_2,status=variable
new load.BT_3002082359_M1 bus1=RML1000991589.3.1.0,Phases=2,kv=0.22,kW=0.78818,pf=0.92,Vminpu=0.92,Vmaxpu=1.5,model=8,zipv=[0.5,0,0.5,1,0,0,0],daily=RES1_2,status=variable
new load.BT_3002082360_M1 bus1=RML1000991603.3.1.0,Phases=2,kv=0.22,kW=1.4034,pf=0.92,Vminpu=0.92,Vmaxpu=1.5,model=8,zipv=[0.5,0,0.5,1,0,0,0],daily=RES1_2,status=variable
new load.BT_3002082361_M1 bus1=RML1000989475.3.1.0,Phases=2,kv=0.22,kW=0.71778,pf=0.92,Vminpu=0.92,Vmaxpu=1.5,model=8,zipv=[0.5,0,0.5,1,0,0,0],daily=RES1_2,status=variable
new load.BT_3002082362_M1 bus1=RML1000989489.1.2.3.0,Phases=3,kv=0.22,kW=0.70266,pf=0.92,Vminpu=0.92,Vmaxpu=1.5,model=8,zipv=[0.5,0,0.5,1,0,0,0],daily=RES1_2,status=variable
new load.BT_3002082363_M1 bus1=RML1000989447.1.2.0,Phases=2,kv=0.22,kW=1.90486,pf=0.92,Vminpu=0.92,Vmaxpu=1.5,model=8,zipv=[0.5,0,0.5,1,0,0,0],daily=RES1_2,status=variable
new load.BT_3002082364_M1 bus1=RML1000989461.1.2.0,Phases=2,kv=0.22,kW=1.65868,pf=0.92,Vminpu=0.92,Vmaxpu=1.5,model=8,zipv=[0.5,0,0.5,1,0,0,0],daily=RES1_2,status=variable
new load.BT_3002082365_M1 bus1=RML1000989468.1.2.0,Phases=2,kv=0.22,kW=1.52662,pf=0.92,Vminpu=0.92,Vmaxpu=1.5,model=8,zipv=[0.5,0,0.5,1,0,0,0],daily=RES1_2,status=variable
new load.BT_3002082366_M1 bus1=RML1000989454.1.2.0,Phases=2,kv=0.22,kW=1.30938,pf=0.92,Vminpu=0.92,Vmaxpu=1.5,model=8,zipv=[0.5,0,0.5,1,0,0,0],daily=RES1_2,status=variable
new load.BT_3002082367_M1 bus1=RML1000989496.3.1.0,Phases=2,kv=0.22,kW=1.37862,pf=0.92,Vminpu=0.92,Vmaxpu=1.5,model=8,zipv=[0.5,0,0.5,1,0,0,0],daily=RES1_2,status=variable
new load.BT_3002082368_M1 bus1=RML1000989482.3.1.0,Phases=2,kv=0.22,kW=0.06358,pf=0.92,Vminpu=0.92,Vmaxpu=1.5,model=8,zipv=[0.5,0,0.5,1,0,0,0],daily=RES1_2,status=variable
new load.BT_3002082369_M1 bus1=RML1000991610.1.2.0,Phases=2,kv=0.22,kW=0.8162,pf=0.92,Vminpu=0.92,Vmaxpu=1.5,model=8,zipv=[0.5,0,0.5,1,0,0,0],daily=RES1_2,status=variable
new load.BT_3002082370_M1 bus1=RML1000991596.1.0,Phases=1,kv=0.127,kW=1.03212,pf=0.92,Vminpu=0.92,Vmaxpu=1.5,model=8,zipv=[0.5,0,0.5,1,0,0,0],daily=RES1_2,status=variable
new load.BT_3002082371_M1 bus1=RML1000991582.1.2.0,Phases=2,kv=0.22,kW=0.78818,pf=0.92,Vminpu=0.92,Vmaxpu=1.5,model=8,zipv=[0.5,0,0.5,1,0,0,0],daily=RES1_2,status=variable
new load.BT_3002082372_M1 bus1=RML1000991568.1.2.0,Phases=2,kv=0.22,kW=0.87904,pf=0.92,Vminpu=0.92,Vmaxpu=1.5,model=8,zipv=[0.5,0,0.5,1,0,0,0],daily=RES1_2,status=variable
new load.BT_3002082373_M1 bus1=RML1000991617.2.3.0,Phases=2,kv=0.22,kW=1.02134,pf=0.92,Vminpu=0.92,Vmaxpu=1.5,model=8,zipv=[0.5,0,0.5,1,0,0,0],daily=RES1_2,status=variable
new load.BT_3002082374_M1 bus1=RML1000991631.1.0,Phases=1,kv=0.127,kW=1.05976,pf=0.92,Vminpu=0.92,Vmaxpu=1.5,model=8,zipv=[0.5,0,0.5,1,0,0,0],daily=RES1_2,status=variable
new load.BT_3002082375_M1 bus1=RML1000991708.2.0,Phases=1,kv=0.127,kW=0.9197,pf=0.92,Vminpu=0.92,Vmaxpu=1.5,model=8,zipv=[0.5,0,0.5,1,0,0,0],daily=RES1_2,status=variable
new load.BT_3002082376_M1 bus1=RML1000991722.1.2.0,Phases=2,kv=0.22,kW=1.3436,pf=0.92,Vminpu=0.92,Vmaxpu=1.5,model=8,zipv=[0.5,0,0.5,1,0,0,0],daily=RES1_2,status=variable
new load.BT_3002082377_M1 bus1=RML1000991701.2.3.0,Phases=2,kv=0.22,kW=4.87942,pf=0.92,Vminpu=0.92,Vmaxpu=1.5,model=8,zipv=[0.5,0,0.5,1,0,0,0],daily=RES1_2,status=variable
new load.BT_3002082378_M1 bus1=RML1000991687.1.2.0,Phases=2,kv=0.22,kW=0.66406,pf=0.92,Vminpu=0.92,Vmaxpu=1.5,model=8,zipv=[0.5,0,0.5,1,0,0,0],daily=RES1_2,status=variable
new load.BT_3002082379_M1 bus1=RML1000991673.1.2.0,Phases=2,kv=0.22,kW=2.07788,pf=0.92,Vminpu=0.92,Vmaxpu=1.5,model=8,zipv=[0.5,0,0.5,1,0,0,0],daily=RES1_2,status=variable
new load.BT_3002082380_M1 bus1=RML1000991666.1.2.0,Phases=2,kv=0.22,kW=2.5436,pf=0.92,Vminpu=0.92,Vmaxpu=1.5,model=8,zipv=[0.5,0,0.5,1,0,0,0],daily=RES1_2,status=variable