new line.SBT_10043697 bus1=BBT146316993.1.2.0,bus2=BBT146317000.1.2.0,Phases=2,Linecode=BT521_BT521_7_2_1_2,Length=0.000500000,Units=km
new line.SBT_10044145 bus1=BBT146334164.1.2.3.0,bus2=BBT146334171.1.2.3.0,Phases=3,Linecode=BT518_BT518_7_3_1_3,Length=0.000500000,Units=km
new line.SBT_10044719 bus1=BBT146349844.1.2.3.0,bus2=BBT140793930.1.2.3.0,Phases=3,Linecode=BT518_BT518_7_3_1_3,Length=0.000500000,Units=km
new line.SBT_10044775 bus1=BBT146351944.1.2.3.0,bus2=BBT146351951.1.2.3.0,Phases=3,Linecode=BT518_BT518_7_3_1_3,Length=0.000500000,Units=km
new line.SBT_10044782 bus1=BBT146351951.1.2.3.0,bus2=BBT146352105.1.2.3.0,Phases=3,Linecode=BT803_BT803_4_3_4_3,Length=0.031886000,Units=km
new line.SBT_10044789 bus1=BBT146352105.1.2.3.0,bus2=BBT146352119.1.2.3.0,Phases=3,Linecode=BT803_BT803_4_3_4_3,Length=0.031237000,Units=km
new line.SBT_10044803 bus1=BBT146352119.1.2.3.0,bus2=BBT146352133.1.2.3.0,Phases=3,Linecode=BT803_BT803_4_3_4_3,Length=0.031886000,Units=km
new line.SBT_10044824 bus1=BBT146351951.1.2.3.0,bus2=BBT146352238.1.2.3.0,Phases=3,Linecode=BT803_BT803_4_3_4_3,Length=0.032011000,Units=km
new line.SBT_10044831 bus1=BBT146352238.1.2.3.0,bus2=BBT146352252.1.2.3.0,Phases=3,Linecode=BT803_BT803_4_3_4_3,Length=0.007071000,Units=km
new line.SBT_10044838 bus1=BBT146352238.1.2.3.0,bus2=BBT146352266.1.2.3.0,Phases=3,Linecode=BT803_BT803_4_3_4_3,Length=0.034709000,Units=km
new line.SBT_10044845 bus1=BBT146352266.1.2.3.0,bus2=BBT146352294.1.2.3.0,Phases=3,Linecode=BT803_BT803_4_3_4_3,Length=0.021258000,Units=km
new line.SBT_10044852 bus1=BBT146352294.1.2.3.0,bus2=BBT146352301.1.2.3.0,Phases=3,Linecode=BT803_BT803_4_3_4_3,Length=0.037638000,Units=km
new line.SBT_10044859 bus1=BBT146352252.1.2.3.0,bus2=BBT146352385.1.2.3.0,Phases=3,Linecode=BT803_BT803_4_3_4_3,Length=0.031301000,Units=km
new line.SBT_10044866 bus1=BBT146352385.1.2.3.0,bus2=BBT146352392.1.2.3.0,Phases=3,Linecode=BT803_BT803_4_3_4_3,Length=0.028649000,Units=km
new line.SBT_10044873 bus1=BBT146352266.1.2.3.0,bus2=BBT146352399.1.2.3.0,Phases=3,Linecode=BT803_BT803_4_3_4_3,Length=0.008062000,Units=km
new line.SBT_10044880 bus1=BBT146352399.1.2.3.0,bus2=BBT146352406.1.2.3.0,Phases=3,Linecode=BT803_BT803_4_3_4_3,Length=0.043411000,Units=km
new line.SBT_10044887 bus1=BBT140804871.1.2.3.0,bus2=BBT146352413.1.2.3.0,Phases=3,Linecode=BT803_BT803_4_3_4_3,Length=0.035351000,Units=km
new line.SBT_10044894 bus1=BBT146352413.1.2.3.0,bus2=BBT146352462.1.2.3.0,Phases=3,Linecode=BT803_BT803_4_3_4_3,Length=0.006000000,Units=km
new line.SBT_10044901 bus1=BBT146352462.1.2.3.0,bus2=BBT146352469.1.2.3.0,Phases=3,Linecode=BT803_BT803_4_3_4_3,Length=0.036231000,Units=km
new line.SBT_10044908 bus1=BBT146352462.1.2.3.0,bus2=BBT146352476.1.2.3.0,Phases=3,Linecode=BT803_BT803_4_3_4_3,Length=0.024594000,Units=km
new line.SBT_10044915 bus1=BBT146352476.1.2.3.0,bus2=BBT146352483.1.2.3.0,Phases=3,Linecode=BT803_BT803_4_3_4_3,Length=0.011661000,Units=km
new line.SBT_10044922 bus1=BBT140804122.1.2.3.0,bus2=BBT146352511.1.2.3.0,Phases=3,Linecode=BT803_BT803_4_3_4_3,Length=0.034477000,Units=km
new line.SBT_10044929 bus1=BBT146352511.1.2.3.0,bus2=BBT146352518.1.2.3.0,Phases=3,Linecode=BT803_BT803_4_3_4_3,Length=0.006708000,Units=km
new line.SBT_10044936 bus1=BBT142618879.1.2.3.0,bus2=BBT146352532.1.2.3.0,Phases=3,Linecode=BT803_BT803_4_3_4_3,Length=0.025939000,Units=km
new line.SBT_10044957 bus1=BBT140802554.1.2.3.0,bus2=BBT146352546.1.2.3.0,Phases=3,Linecode=BT803_BT803_4_3_4_3,Length=0.035351000,Units=km
new line.SBT_10044964 bus1=BBT146352546.1.2.3.0,bus2=BBT146352574.1.2.3.0,Phases=3,Linecode=BT803_BT803_4_3_4_3,Length=0.007280000,Units=km
new line.SBT_10044971 bus1=BBT146352574.1.2.3.0,bus2=BBT146352581.1.2.3.0,Phases=3,Linecode=BT803_BT803_4_3_4_3,Length=0.023704000,Units=km
new line.SBT_10044978 bus1=BBT146352574.1.2.3.0,bus2=BBT146352588.1.2.3.0,Phases=3,Linecode=BT803_BT803_4_3_4_3,Length=0.026073000,Units=km
new line.SBT_10044985 bus1=BBT146352588.1.2.3.0,bus2=BBT146352616.1.2.3.0,Phases=3,Linecode=BT803_BT803_4_3_4_3,Length=0.023321000,Units=km
new line.SBT_10044992 bus1=BBT140794154.1.2.3.0,bus2=BBT146352756.1.2.3.0,Phases=3,Linecode=BT803_BT803_4_3_4_3,Length=0.013340000,Units=km
new line.SBT_10044999 bus1=BBT146352756.1.2.3.0,bus2=BBT146352763.1.2.3.0,Phases=3,Linecode=BT803_BT803_4_3_4_3,Length=0.012040000,Units=km
new line.SBT_10045006 bus1=BBT146352763.1.2.3.0,bus2=BBT146352777.1.2.3.0,Phases=3,Linecode=BT803_BT803_4_3_4_3,Length=0.009899000,Units=km
new line.SBT_10045013 bus1=BBT146352777.1.2.3.0,bus2=BBT146352784.1.2.3.0,Phases=3,Linecode=BT803_BT803_4_3_4_3,Length=0.015295000,Units=km
new line.SBT_10045020 bus1=BBT146352784.1.2.3.0,bus2=BBT146352791.1.2.3.0,Phases=3,Linecode=BT803_BT803_4_3_4_3,Length=0.041177000,Units=km
new line.SBT_10045027 bus1=BBT146352133.1.2.3.0,bus2=BBT146352798.1.2.3.0,Phases=3,Linecode=BT803_BT803_4_3_4_3,Length=0.009219000,Units=km
new line.SBT_10045041 bus1=BBT146352133.1.2.3.0,bus2=BBT146352826.1.2.3.0,Phases=3,Linecode=BT803_BT803_4_3_4_3,Length=0.022020000,Units=km
new line.SBT_10045048 bus1=BBT146352826.1.2.3.0,bus2=BBT146352889.1.2.3.0,Phases=3,Linecode=BT803_BT803_4_3_4_3,Length=0.031141000,Units=km
new line.SBT_10045055 bus1=BBT146352889.1.2.3.0,bus2=BBT146352896.1.2.3.0,Phases=3,Linecode=BT803_BT803_4_3_4_3,Length=0.006999000,Units=km
new line.SBT_10045062 bus1=BBT140791487.1.2.3.0,bus2=BBT146353673.1.2.3.0,Phases=3,Linecode=BT803_BT803_4_3_4_3,Length=0.046834000,Units=km
new line.SBT_10045069 bus1=BBT140790640.1.2.3.0,bus2=BBT146353680.1.2.3.0,Phases=3,Linecode=BT803_BT803_4_3_4_3,Length=0.024039000,Units=km
new line.SBT_10045076 bus1=BBT146353680.1.2.3.0,bus2=BBT146353792.1.2.3.0,Phases=3,Linecode=BT803_BT803_4_3_4_3,Length=0.026922000,Units=km
new line.SBT_10045083 bus1=BBT146353792.1.2.3.0,bus2=BBT146353799.1.2.3.0,Phases=3,Linecode=BT803_BT803_4_3_4_3,Length=0.029117000,Units=km
new line.SBT_10045090 bus1=BBT146353799.1.2.3.0,bus2=BBT146353806.1.2.3.0,Phases=3,Linecode=BT803_BT803_4_3_4_3,Length=0.021838000,Units=km
new line.SBT_10045097 bus1=BBT140792817.1.2.3.0,bus2=BBT146353813.1.2.3.0,Phases=3,Linecode=BT803_BT803_4_3_4_3,Length=0.031044000,Units=km
new line.SBT_10045104 bus1=BBT146353813.1.2.3.0,bus2=BBT146353862.1.2.3.0,Phases=3,Linecode=BT803_BT803_4_3_4_3,Length=0.018679000,Units=km
new line.SBT_10045111 bus1=BBT146353862.1.2.3.0,bus2=BBT146353869.1.2.3.0,Phases=3,Linecode=BT803_BT803_4_3_4_3,Length=0.011401000,Units=km
new line.SBT_10045118 bus1=BBT146353862.1.2.3.0,bus2=BBT146353876.1.2.3.0,Phases=3,Linecode=BT803_BT803_4_3_4_3,Length=0.013600000,Units=km
new line.SBT_10045125 bus1=BBT146353862.1.2.3.0,bus2=BBT146353883.1.2.3.0,Phases=3,Linecode=BT803_BT803_4_3_4_3,Length=0.024997000,Units=km
new line.SBT_10045132 bus1=BBT146354149.1.2.3.0,bus2=BBT146354156.1.2.3.0,Phases=3,Linecode=BT518_BT518_7_3_1_3,Length=0.000500000,Units=km
new line.SBT_10045139 bus1=BBT146354156.1.2.3.0,bus2=BBT146354212.1.2.3.0,Phases=3,Linecode=BT803_BT803_4_3_4_3,Length=0.037358000,Units=km
new line.SBT_10045146 bus1=BBT146354156.1.2.3.0,bus2=BBT146354254.1.2.3.0,Phases=3,Linecode=BT803_BT803_4_3_4_3,Length=0.028157000,Units=km
new line.SBT_10045153 bus1=BBT146354212.1.2.3.0,bus2=BBT146354268.1.2.3.0,Phases=3,Linecode=BT803_BT803_4_3_4_3,Length=0.045601000,Units=km
new line.SBT_10045160 bus1=BBT146354268.1.2.3.0,bus2=BBT146354275.1.2.3.0,Phases=3,Linecode=BT803_BT803_4_3_4_3,Length=0.045601000,Units=km
new line.SBT_10045167 bus1=BBT146354275.1.2.3.0,bus2=BBT146354282.1.2.3.0,Phases=3,Linecode=BT803_BT803_4_3_4_3,Length=0.028157000,Units=km
new line.SBT_10045174 bus1=BBT146354254.1.2.3.0,bus2=BBT146354289.1.2.3.0,Phases=3,Linecode=BT803_BT803_4_3_4_3,Length=0.008246000,Units=km
new line.SBT_10045181 bus1=BBT146354289.1.2.3.0,bus2=BBT146354296.1.2.3.0,Phases=3,Linecode=BT803_BT803_4_3_4_3,Length=0.029829000,Units=km
new line.SBT_10045188 bus1=BBT146354296.1.2.3.0,bus2=BBT146354303.1.2.3.0,Phases=3,Linecode=BT803_BT803_4_3_4_3,Length=0.026246000,Units=km
new line.SBT_10045195 bus1=BBT146354303.1.2.3.0,bus2=BBT146354310.1.2.3.0,Phases=3,Linecode=BT803_BT803_4_3_4_3,Length=0.007071000,Units=km
new line.SBT_10045202 bus1=BBT146354310.1.2.3.0,bus2=BBT146354317.1.2.3.0,Phases=3,Linecode=BT803_BT803_4_3_4_3,Length=0.035435000,Units=km
new line.SBT_10045209 bus1=BBT146354303.1.2.3.0,bus2=BBT146354394.1.2.3.0,Phases=3,Linecode=BT803_BT803_4_3_4_3,Length=0.027655000,Units=km
new line.SBT_10045216 bus1=BBT146354394.1.2.3.0,bus2=BBT146354401.1.2.3.0,Phases=3,Linecode=BT803_BT803_4_3_4_3,Length=0.029065000,Units=km
new line.SBT_10045223 bus1=BBT140793930.1.2.3.0,bus2=BBT146354478.1.2.3.0,Phases=3,Linecode=BT803_BT803_4_3_4_3,Length=0.043006000,Units=km
new line.SBT_10045230 bus1=BBT146354478.1.2.3.0,bus2=BBT146354485.1.2.3.0,Phases=3,Linecode=BT803_BT803_4_3_4_3,Length=0.006324000,Units=km
new line.SBT_10045237 bus1=BBT146354485.1.2.3.0,bus2=BBT146354492.1.2.3.0,Phases=3,Linecode=BT803_BT803_4_3_4_3,Length=0.026246000,Units=km
new line.SBT_10045244 bus1=BBT146354492.1.2.3.0,bus2=BBT146354499.1.2.3.0,Phases=3,Linecode=BT803_BT803_4_3_4_3,Length=0.031237000,Units=km
new line.SBT_10045251 bus1=BBT146354499.1.2.3.0,bus2=BBT146354506.1.2.3.0,Phases=3,Linecode=BT803_BT803_4_3_4_3,Length=0.024836000,Units=km
new line.SBT_10045258 bus1=BBT146354506.1.2.3.0,bus2=BBT146354513.1.2.3.0,Phases=3,Linecode=BT803_BT803_4_3_4_3,Length=0.026904000,Units=km
new line.SBT_10045265 bus1=BBT146354513.1.2.3.0,bus2=BBT146354520.1.2.3.0,Phases=3,Linecode=BT803_BT803_4_3_4_3,Length=0.006999000,Units=km
new line.SBT_10045272 bus1=BBT146354499.1.2.3.0,bus2=BBT146354527.1.2.3.0,Phases=3,Linecode=BT803_BT803_4_3_4_3,Length=0.008543000,Units=km
new line.SBT_10045279 bus1=BBT146354527.1.2.3.0,bus2=BBT146354534.1.2.3.0,Phases=3,Linecode=BT803_BT803_4_3_4_3,Length=0.034201000,Units=km
new line.SBT_10045286 bus1=BBT146354485.1.2.3.0,bus2=BBT146354541.1.2.3.0,Phases=3,Linecode=BT803_BT803_4_3_4_3,Length=0.027655000,Units=km
new line.SBT_10045293 bus1=BBT146354541.1.2.3.0,bus2=BBT146354548.1.2.3.0,Phases=3,Linecode=BT803_BT803_4_3_4_3,Length=0.025609000,Units=km
new line.SBT_10045300 bus1=BBT146354548.1.2.3.0,bus2=BBT146354576.1.2.3.0,Phases=3,Linecode=BT803_BT803_4_3_4_3,Length=0.008246000,Units=km
new line.SBT_10045307 bus1=BBT146354548.1.2.3.0,bus2=BBT146354639.1.2.3.0,Phases=3,Linecode=BT803_BT803_4_3_4_3,Length=0.031886000,Units=km
new line.SBT_10045314 bus1=BBT146354639.1.2.3.0,bus2=BBT146354646.1.2.3.0,Phases=3,Linecode=BT803_BT803_4_3_4_3,Length=0.024204000,Units=km
new line.SBT_10045321 bus1=BBT146354674.1.2.3.0,bus2=BBT174787453.1.2.3.0,Phases=3,Linecode=BT803_BT803_4_3_4_3,Length=0.004472000,Units=km
new line.SBT_10045328 bus1=BBT146354674.1.2.3.0,bus2=BBT146354681.1.2.3.0,Phases=3,Linecode=BT803_BT803_4_3_4_3,Length=0.028858000,Units=km
new line.SBT_10045335 bus1=BBT146354681.1.2.3.0,bus2=BBT146354688.1.2.3.0,Phases=3,Linecode=BT803_BT803_4_3_4_3,Length=0.028996000,Units=km
new line.SBT_10045342 bus1=BBT140789912.1.2.3.0,bus2=BBT146354695.1.2.3.0,Phases=3,Linecode=BT803_BT803_4_3_4_3,Length=0.019645000,Units=km
new line.SBT_10045349 bus1=BBT146354695.1.2.3.0,bus2=BBT146354702.1.2.3.0,Phases=3,Linecode=BT803_BT803_4_3_4_3,Length=0.013037000,Units=km
new line.SBT_10045356 bus1=BBT146354702.1.2.3.0,bus2=BBT146354709.1.2.3.0,Phases=3,Linecode=BT803_BT803_4_3_4_3,Length=0.047795000,Units=km
new line.SBT_10045363 bus1=BBT146354702.1.2.3.0,bus2=BBT146354716.1.2.3.0,Phases=3,Linecode=BT803_BT803_4_3_4_3,Length=0.024997000,Units=km
new line.SBT_10045370 bus1=BBT146354716.1.2.3.0,bus2=BBT146354730.1.2.3.0,Phases=3,Linecode=BT803_BT803_4_3_4_3,Length=0.032011000,Units=km
new line.SBT_10045377 bus1=BBT140789821.1.2.3.0,bus2=BBT146354737.1.2.3.0,Phases=3,Linecode=BT803_BT803_4_3_4_3,Length=0.021584000,Units=km
new line.SBT_10045384 bus1=BBT146354737.1.2.3.0,bus2=BBT146354744.1.2.3.0,Phases=3,Linecode=BT803_BT803_4_3_4_3,Length=0.015555000,Units=km
new line.SBT_10045391 bus1=BBT146354744.1.2.3.0,bus2=BBT146354751.1.2.3.0,Phases=3,Linecode=BT803_BT803_4_3_4_3,Length=0.032276000,Units=km
new line.SBT_10045398 bus1=BBT146354744.1.2.3.0,bus2=BBT146354758.1.2.3.0,Phases=3,Linecode=BT803_BT803_4_3_4_3,Length=0.023084000,Units=km
new line.SBT_10045405 bus1=BBT146354758.1.2.3.0,bus2=BBT146354765.1.2.3.0,Phases=3,Linecode=BT803_BT803_4_3_4_3,Length=0.023534000,Units=km
new line.SBT_10046420 bus1=BBT146334171.1.2.3.0,bus2=BBT146382051.1.2.3.0,Phases=3,Linecode=BT803_BT803_4_3_4_3,Length=0.046855000,Units=km
new line.SBT_10046427 bus1=BBT146382051.1.2.3.0,bus2=BBT146382058.1.2.3.0,Phases=3,Linecode=BT803_BT803_4_3_4_3,Length=0.031886000,Units=km
new line.SBT_10046434 bus1=BBT146382058.1.2.3.0,bus2=BBT146382065.1.2.3.0,Phases=3,Linecode=BT803_BT803_4_3_4_3,Length=0.032645000,Units=km
new line.SBT_10046441 bus1=BBT146382065.1.2.3.0,bus2=BBT146382072.1.2.3.0,Phases=3,Linecode=BT803_BT803_4_3_4_3,Length=0.008543000,Units=km
new line.SBT_10046448 bus1=BBT146382072.1.2.3.0,bus2=BBT146382107.1.2.3.0,Phases=3,Linecode=BT803_BT803_4_3_4_3,Length=0.021952000,Units=km
new line.SBT_10046609 bus1=BBT146382107.1.2.3.0,bus2=BBT146382961.1.2.3.0,Phases=3,Linecode=BT803_BT803_4_3_4_3,Length=0.020613000,Units=km
new line.SBT_10046616 bus1=BBT146382961.1.2.3.0,bus2=BBT146383269.1.2.3.0,Phases=3,Linecode=BT803_BT803_4_3_4_3,Length=0.008062000,Units=km
new line.SBT_10046630 bus1=BBT140805165.1.2.3.0,bus2=BBT146383332.1.2.3.0,Phases=3,Linecode=BT803_BT803_4_3_4_3,Length=0.036230000,Units=km
new line.SBT_10046644 bus1=BBT146383332.1.2.3.0,bus2=BBT146383388.1.2.3.0,Phases=3,Linecode=BT803_BT803_4_3_4_3,Length=0.005831000,Units=km
new line.SBT_10046651 bus1=BBT146383388.1.2.3.0,bus2=BBT146383395.1.2.3.0,Phases=3,Linecode=BT803_BT803_4_3_4_3,Length=0.037585000,Units=km
new line.SBT_10046658 bus1=BBT146383388.1.2.3.0,bus2=BBT146383402.1.2.3.0,Phases=3,Linecode=BT803_BT803_4_3_4_3,Length=0.024184000,Units=km
new line.SBT_10046672 bus1=BBT146383402.1.2.3.0,bus2=BBT146383598.1.2.3.0,Phases=3,Linecode=BT803_BT803_4_3_4_3,Length=0.024695000,Units=km
new line.SBT_10046686 bus1=BBT142657253.1.2.3.0,bus2=BBT146383878.1.2.3.0,Phases=3,Linecode=BT803_BT803_4_3_4_3,Length=0.035842000,Units=km
new line.SBT_10046742 bus1=BBT146334171.1.2.3.0,bus2=BBT146384319.1.2.3.0,Phases=3,Linecode=BT803_BT803_4_3_4_3,Length=0.039694000,Units=km
new line.SBT_10046749 bus1=BBT146384319.1.2.3.0,bus2=BBT146384326.1.2.3.0,Phases=3,Linecode=BT803_BT803_4_3_4_3,Length=0.031237000,Units=km
new line.SBT_10046756 bus1=BBT146384326.1.2.3.0,bus2=BBT146384333.1.2.3.0,Phases=3,Linecode=BT803_BT803_4_3_4_3,Length=0.024080000,Units=km
new line.SBT_10046777 bus1=BBT146384333.1.2.3.0,bus2=BBT146384340.1.2.3.0,Phases=3,Linecode=BT803_BT803_4_3_4_3,Length=0.007071000,Units=km
new line.SBT_10046791 bus1=BBT146384333.1.2.3.0,bus2=BBT146384347.1.2.3.0,Phases=3,Linecode=BT803_BT803_4_3_4_3,Length=0.038283000,Units=km
new line.SBT_10046798 bus1=BBT146384347.1.2.3.0,bus2=BBT146384354.1.2.3.0,Phases=3,Linecode=BT803_BT803_4_3_4_3,Length=0.038283000,Units=km
new line.SBT_10046805 bus1=BBT140805004.1.2.3.0,bus2=BBT146384361.1.2.3.0,Phases=3,Linecode=BT803_BT803_4_3_4_3,Length=0.038943000,Units=km
new line.SBT_10007934 bus1=BBT145273069.1.2.3.0,bus2=BBT145273076.1.2.3.0,Phases=3,Linecode=BT518_BT518_7_3_1_3,Length=0.000500000,Units=km
new line.SBT_10013044 bus1=BBT145444520.1.2.0,bus2=BBT145444527.1.2.0,Phases=2,Linecode=BT521_BT521_7_2_1_2,Length=0.000500000,Units=km
new line.SBT_1562698IP bus1=BBT724154.1.2.0,bus2=BBT5001562698.1.2.0,Phases=2,Linecode=IP_2,Length=0.002840000,Units=km
new line.SBT_1585553IP bus1=BBT3080221.1.2.0,bus2=BBT5001585553.1.2.0,Phases=2,Linecode=IP_2,Length=0.005530000,Units=km
new line.SBT_1585560IP bus1=BBT3080214.2.3.0,bus2=BBT5001585560.2.3.0,Phases=2,Linecode=IP_2,Length=0.005530000,Units=km
new line.SBT_1585567IP bus1=BBT3079892.3.1.0,bus2=BBT5001585567.3.1.0,Phases=2,Linecode=IP_2,Length=0.005530000,Units=km
new line.SBT_1585588IP bus1=BBT3080242.2.3.0,bus2=BBT5001585588.2.3.0,Phases=2,Linecode=IP_2,Length=0.005530000,Units=km
new line.SBT_1585595IP bus1=BBT3080249.3.1.0,bus2=BBT5001585595.3.1.0,Phases=2,Linecode=IP_2,Length=0.005530000,Units=km
new line.SBT_1585602IP bus1=BBT3080291.1.2.0,bus2=BBT5001585602.1.2.0,Phases=2,Linecode=IP_2,Length=0.005530000,Units=km
new line.SBT_1585609IP bus1=BBT3080284.2.3.0,bus2=BBT5001585609.2.3.0,Phases=2,Linecode=IP_2,Length=0.005530000,Units=km
new line.SBT_1585616IP bus1=BBT3080277.3.1.0,bus2=BBT5001585616.3.1.0,Phases=2,Linecode=IP_2,Length=0.005530000,Units=km
new line.SBT_1585623IP bus1=BBT3080298.2.3.0,bus2=BBT5001585623.2.3.0,Phases=2,Linecode=IP_2,Length=0.005530000,Units=km
new line.SBT_1585630IP bus1=BBT3080305.3.1.0,bus2=BBT5001585630.3.1.0,Phases=2,Linecode=IP_2,Length=0.005530000,Units=km
new line.SBT_1585637IP bus1=BBT3080312.2.3.0,bus2=BBT5001585637.2.3.0,Phases=2,Linecode=IP_2,Length=0.005530000,Units=km
new line.SBT_1585644IP bus1=BBT3080319.2.3.0,bus2=BBT5001585644.2.3.0,Phases=2,Linecode=IP_2,Length=0.005530000,Units=km
new line.SBT_1585651IP bus1=BBT3080326.3.1.0,bus2=BBT5001585651.3.1.0,Phases=2,Linecode=IP_2,Length=0.005530000,Units=km
new line.SBT_1585658IP bus1=BBT3080333.1.2.0,bus2=BBT5001585658.1.2.0,Phases=2,Linecode=IP_2,Length=0.005530000,Units=km
new line.SBT_1585665IP bus1=BBT3080256.1.2.0,bus2=BBT5001585665.1.2.0,Phases=2,Linecode=IP_2,Length=0.005530000,Units=km
new line.SBT_1585672IP bus1=BBT3079906.2.3.0,bus2=BBT5001585672.2.3.0,Phases=2,Linecode=IP_2,Length=0.005530000,Units=km
new line.SBT_1585679IP bus1=BBT3080410.2.3.0,bus2=BBT5001585679.2.3.0,Phases=2,Linecode=IP_2,Length=0.005530000,Units=km
new line.SBT_1585686IP bus1=BBT3080403.3.1.0,bus2=BBT5001585686.3.1.0,Phases=2,Linecode=IP_2,Length=0.005530000,Units=km
new line.SBT_1585693IP bus1=BBT3080396.2.3.0,bus2=BBT5001585693.2.3.0,Phases=2,Linecode=IP_2,Length=0.005530000,Units=km
new line.SBT_1585700IP bus1=BBT3080389.3.1.0,bus2=BBT5001585700.3.1.0,Phases=2,Linecode=IP_2,Length=0.005530000,Units=km
new line.SBT_1585707IP bus1=BBT3080382.2.3.0,bus2=BBT5001585707.2.3.0,Phases=2,Linecode=IP_2,Length=0.005530000,Units=km
new line.SBT_1585714IP bus1=BBT3080361.3.1.0,bus2=BBT5001585714.3.1.0,Phases=2,Linecode=IP_2,Length=0.005530000,Units=km
new line.SBT_1585721IP bus1=BBT3080368.3.1.0,bus2=BBT5001585721.3.1.0,Phases=2,Linecode=IP_2,Length=0.005530000,Units=km
new line.SBT_1585728IP bus1=BBT3080375.2.3.0,bus2=BBT5001585728.2.3.0,Phases=2,Linecode=IP_2,Length=0.005530000,Units=km
new line.SBT_1585735IP bus1=BBT3080347.1.2.0,bus2=BBT5001585735.1.2.0,Phases=2,Linecode=IP_2,Length=0.005530000,Units=km
new line.SBT_1585749IP bus1=BBT3080529.1.2.0,bus2=BBT5001585749.1.2.0,Phases=2,Linecode=IP_2,Length=0.005530000,Units=km
new line.SBT_1585756IP bus1=BBT3080522.2.3.0,bus2=BBT5001585756.2.3.0,Phases=2,Linecode=IP_2,Length=0.005530000,Units=km
new line.SBT_1585763IP bus1=BBT3080452.2.3.0,bus2=BBT5001585763.2.3.0,Phases=2,Linecode=IP_2,Length=0.005530000,Units=km
new line.SBT_1585770IP bus1=BBT3080536.3.1.0,bus2=BBT5001585770.3.1.0,Phases=2,Linecode=IP_2,Length=0.005530000,Units=km
new line.SBT_1585777IP bus1=BBT3080550.1.2.0,bus2=BBT5001585777.1.2.0,Phases=2,Linecode=IP_2,Length=0.005530000,Units=km
new line.SBT_1585784IP bus1=BBT3080557.2.3.0,bus2=BBT5001585784.2.3.0,Phases=2,Linecode=IP_2,Length=0.005530000,Units=km
new line.SBT_1585791IP bus1=BBT3080564.3.1.0,bus2=BBT5001585791.3.1.0,Phases=2,Linecode=IP_2,Length=0.005530000,Units=km
new line.SBT_1585798IP bus1=BBT3080571.1.2.0,bus2=BBT5001585798.1.2.0,Phases=2,Linecode=IP_2,Length=0.005530000,Units=km
new line.SBT_1585805IP bus1=BBT3080578.2.3.0,bus2=BBT5001585805.2.3.0,Phases=2,Linecode=IP_2,Length=0.005530000,Units=km
new line.SBT_1585812IP bus1=BBT3080585.3.1.0,bus2=BBT5001585812.3.1.0,Phases=2,Linecode=IP_2,Length=0.005530000,Units=km
new line.SBT_1585819IP bus1=BBT3080592.1.2.0,bus2=BBT5001585819.1.2.0,Phases=2,Linecode=IP_2,Length=0.005530000,Units=km
new line.SBT_1585826IP bus1=BBT3080599.2.3.0,bus2=BBT5001585826.2.3.0,Phases=2,Linecode=IP_2,Length=0.005530000,Units=km
new line.SBT_1585840IP bus1=BBT3080515.1.2.0,bus2=BBT5001585840.1.2.0,Phases=2,Linecode=IP_2,Length=0.005530000,Units=km
new line.SBT_1585847IP bus1=BBT3080473.1.2.0,bus2=BBT5001585847.1.2.0,Phases=2,Linecode=IP_2,Length=0.005530000,Units=km
new line.SBT_1585875IP bus1=BBT3080494.1.2.0,bus2=BBT5001585875.1.2.0,Phases=2,Linecode=IP_2,Length=0.005530000,Units=km
new line.SBT_1585882IP bus1=BBT3080487.2.3.0,bus2=BBT5001585882.2.3.0,Phases=2,Linecode=IP_2,Length=0.005530000,Units=km
new line.SBT_1585889IP bus1=BBT3080480.3.1.0,bus2=BBT5001585889.3.1.0,Phases=2,Linecode=IP_2,Length=0.005530000,Units=km
new line.SBT_1585896IP bus1=BBT3080501.1.2.0,bus2=BBT5001585896.1.2.0,Phases=2,Linecode=IP_2,Length=0.005530000,Units=km
new line.SBT_1585903IP bus1=BBT3080508.2.3.0,bus2=BBT5001585903.2.3.0,Phases=2,Linecode=IP_2,Length=0.005530000,Units=km
new line.SBT_1585910IP bus1=BBT3080606.3.1.0,bus2=BBT5001585910.3.1.0,Phases=2,Linecode=IP_2,Length=0.005530000,Units=km
new line.SBT_1585959IP bus1=BBT3080683.3.1.0,bus2=BBT5001585959.3.1.0,Phases=2,Linecode=IP_2,Length=0.005530000,Units=km
new line.SBT_1585966IP bus1=BBT3080697.1.2.0,bus2=BBT5001585966.1.2.0,Phases=2,Linecode=IP_2,Length=0.005530000,Units=km
new line.SBT_1585973IP bus1=BBT3080704.2.3.0,bus2=BBT5001585973.2.3.0,Phases=2,Linecode=IP_2,Length=0.005530000,Units=km
new line.SBT_1585980IP bus1=BBT3080711.2.3.0,bus2=BBT5001585980.2.3.0,Phases=2,Linecode=IP_2,Length=0.005530000,Units=km
new line.SBT_1585987IP bus1=BBT3080669.1.2.0,bus2=BBT5001585987.1.2.0,Phases=2,Linecode=IP_2,Length=0.005530000,Units=km
new line.SBT_1585994IP bus1=BBT3080655.2.3.0,bus2=BBT5001585994.2.3.0,Phases=2,Linecode=IP_2,Length=0.005530000,Units=km
new line.SBT_1586001IP bus1=BBT3079878.1.2.0,bus2=BBT5001586001.1.2.0,Phases=2,Linecode=IP_2,Length=0.005530000,Units=km
new line.SBT_1586008IP bus1=BBT3080662.3.1.0,bus2=BBT5001586008.3.1.0,Phases=2,Linecode=IP_2,Length=0.005530000,Units=km
new line.SBT_1586015IP bus1=BBT3080718.2.3.0,bus2=BBT5001586015.2.3.0,Phases=2,Linecode=IP_2,Length=0.005530000,Units=km
new line.SBT_1586022IP bus1=BBT3080739.3.1.0,bus2=BBT5001586022.3.1.0,Phases=2,Linecode=IP_2,Length=0.005530000,Units=km
new line.SBT_1586029IP bus1=BBT3080746.2.3.0,bus2=BBT5001586029.2.3.0,Phases=2,Linecode=IP_2,Length=0.005530000,Units=km
new line.SBT_1586036IP bus1=BBT3080732.2.3.0,bus2=BBT5001586036.2.3.0,Phases=2,Linecode=IP_2,Length=0.005530000,Units=km
new line.SBT_1586043IP bus1=BBT3080760.1.2.0,bus2=BBT5001586043.1.2.0,Phases=2,Linecode=IP_2,Length=0.005530000,Units=km
new line.SBT_1586092IP bus1=BBT3080921.3.1.0,bus2=BBT5001586092.3.1.0,Phases=2,Linecode=IP_2,Length=0.005530000,Units=km
new line.SBT_1586106IP bus1=BBT3079864.1.2.0,bus2=BBT5001586106.1.2.0,Phases=2,Linecode=IP_2,Length=0.005530000,Units=km
new line.SBT_1586113IP bus1=BBT3080774.3.1.0,bus2=BBT5001586113.3.1.0,Phases=2,Linecode=IP_2,Length=0.005530000,Units=km
new line.SBT_1586120IP bus1=BBT3080788.2.3.0,bus2=BBT5001586120.2.3.0,Phases=2,Linecode=IP_2,Length=0.005530000,Units=km
new line.SBT_1586127IP bus1=BBT3080809.2.3.0,bus2=BBT5001586127.2.3.0,Phases=2,Linecode=IP_2,Length=0.005530000,Units=km
new line.SBT_1586134IP bus1=BBT3080816.3.1.0,bus2=BBT5001586134.3.1.0,Phases=2,Linecode=IP_2,Length=0.005530000,Units=km
new line.SBT_1586141IP bus1=BBT3080823.3.1.0,bus2=BBT5001586141.3.1.0,Phases=2,Linecode=IP_2,Length=0.005530000,Units=km
new line.SBT_1586148IP bus1=BBT3080844.3.1.0,bus2=BBT5001586148.3.1.0,Phases=2,Linecode=IP_2,Length=0.005530000,Units=km
new line.SBT_1586155IP bus1=BBT3080851.2.3.0,bus2=BBT5001586155.2.3.0,Phases=2,Linecode=IP_2,Length=0.005530000,Units=km
new line.SBT_1571196IP bus1=BBT3063393.1.2.0,bus2=BBT5001571196.1.2.0,Phases=2,Linecode=IP_2,Length=0.005530000,Units=km
new line.SBT_1571203IP bus1=BBT3063386.2.3.0,bus2=BBT5001571203.2.3.0,Phases=2,Linecode=IP_2,Length=0.005530000,Units=km
new line.SBT_1571210IP bus1=BBT3063379.3.1.0,bus2=BBT5001571210.3.1.0,Phases=2,Linecode=IP_2,Length=0.005530000,Units=km
new line.SBT_1571217IP bus1=BBT3063372.1.2.0,bus2=BBT5001571217.1.2.0,Phases=2,Linecode=IP_2,Length=0.005530000,Units=km
new line.SBT_1571224IP bus1=BBT3063211.3.1.0,bus2=BBT5001571224.3.1.0,Phases=2,Linecode=IP_2,Length=0.005530000,Units=km
new line.SBT_1571231IP bus1=BBT3063218.1.2.0,bus2=BBT5001571231.1.2.0,Phases=2,Linecode=IP_2,Length=0.005530000,Units=km
new line.SBT_1571238IP bus1=BBT3063225.1.2.0,bus2=BBT5001571238.1.2.0,Phases=2,Linecode=IP_2,Length=0.005530000,Units=km
new line.SBT_1571245IP bus1=BBT3063197.2.3.0,bus2=BBT5001571245.2.3.0,Phases=2,Linecode=IP_2,Length=0.005530000,Units=km
new line.SBT_1571252IP bus1=BBT3063183.2.3.0,bus2=BBT5001571252.2.3.0,Phases=2,Linecode=IP_2,Length=0.005530000,Units=km
new line.SBT_1571266IP bus1=BBT3063470.1.2.0,bus2=BBT5001571266.1.2.0,Phases=2,Linecode=IP_2,Length=0.005530000,Units=km
new line.SBT_1571273IP bus1=BBT3063463.2.3.0,bus2=BBT5001571273.2.3.0,Phases=2,Linecode=IP_2,Length=0.005530000,Units=km
new line.SBT_1571280IP bus1=BBT3063456.3.1.0,bus2=BBT5001571280.3.1.0,Phases=2,Linecode=IP_2,Length=0.005530000,Units=km
new line.SBT_1571287IP bus1=BBT3063449.1.2.0,bus2=BBT5001571287.1.2.0,Phases=2,Linecode=IP_2,Length=0.005530000,Units=km
new line.SBT_1571294IP bus1=BBT3063435.2.3.0,bus2=BBT5001571294.2.3.0,Phases=2,Linecode=IP_2,Length=0.005530000,Units=km
new line.SBT_1571301IP bus1=BBT3063421.3.1.0,bus2=BBT5001571301.3.1.0,Phases=2,Linecode=IP_2,Length=0.005530000,Units=km
new line.SBT_1571308IP bus1=BBT3063414.1.2.0,bus2=BBT5001571308.1.2.0,Phases=2,Linecode=IP_2,Length=0.005530000,Units=km
new line.SBT_1571315IP bus1=BBT3063407.2.3.0,bus2=BBT5001571315.2.3.0,Phases=2,Linecode=IP_2,Length=0.005530000,Units=km
new line.SBT_1571322IP bus1=BBT3063575.1.2.0,bus2=BBT5001571322.1.2.0,Phases=2,Linecode=IP_2,Length=0.005530000,Units=km
new line.SBT_1571329IP bus1=BBT3063568.2.3.0,bus2=BBT5001571329.2.3.0,Phases=2,Linecode=IP_2,Length=0.005530000,Units=km
new line.SBT_1571336IP bus1=BBT3063561.3.1.0,bus2=BBT5001571336.3.1.0,Phases=2,Linecode=IP_2,Length=0.005530000,Units=km
new line.SBT_1571343IP bus1=BBT3063554.1.2.0,bus2=BBT5001571343.1.2.0,Phases=2,Linecode=IP_2,Length=0.005530000,Units=km
new line.SBT_1571350IP bus1=BBT3063547.2.3.0,bus2=BBT5001571350.2.3.0,Phases=2,Linecode=IP_2,Length=0.005530000,Units=km
new line.SBT_1571357IP bus1=BBT3063533.3.1.0,bus2=BBT5001571357.3.1.0,Phases=2,Linecode=IP_2,Length=0.005530000,Units=km
new line.SBT_1571364IP bus1=BBT3063526.1.2.0,bus2=BBT5001571364.1.2.0,Phases=2,Linecode=IP_2,Length=0.005530000,Units=km
new line.SBT_1571371IP bus1=BBT3063519.2.3.0,bus2=BBT5001571371.2.3.0,Phases=2,Linecode=IP_2,Length=0.005530000,Units=km
new line.SBT_1571378IP bus1=BBT3063603.3.1.0,bus2=BBT5001571378.3.1.0,Phases=2,Linecode=IP_2,Length=0.005530000,Units=km
new line.SBT_1571385IP bus1=BBT3063631.1.2.0,bus2=BBT5001571385.1.2.0,Phases=2,Linecode=IP_2,Length=0.005530000,Units=km
new line.SBT_1571392IP bus1=BBT3063736.3.1.0,bus2=BBT5001571392.3.1.0,Phases=2,Linecode=IP_2,Length=0.005530000,Units=km
new line.SBT_1571399IP bus1=BBT3063757.1.2.0,bus2=BBT5001571399.1.2.0,Phases=2,Linecode=IP_2,Length=0.005530000,Units=km
new line.SBT_1571406IP bus1=BBT3063750.2.3.0,bus2=BBT5001571406.2.3.0,Phases=2,Linecode=IP_2,Length=0.005530000,Units=km
new line.SBT_1571413IP bus1=BBT3063771.3.1.0,bus2=BBT5001571413.3.1.0,Phases=2,Linecode=IP_2,Length=0.005530000,Units=km
new line.SBT_1571420IP bus1=BBT3063778.1.2.0,bus2=BBT5001571420.1.2.0,Phases=2,Linecode=IP_2,Length=0.005530000,Units=km
new line.SBT_1571434IP bus1=BBT3063799.2.3.0,bus2=BBT5001571434.2.3.0,Phases=2,Linecode=IP_2,Length=0.005530000,Units=km
new line.SBT_1571441IP bus1=BBT3063806.2.3.0,bus2=BBT5001571441.2.3.0,Phases=2,Linecode=IP_2,Length=0.005530000,Units=km
new line.SBT_1571448IP bus1=BBT3063827.3.1.0,bus2=BBT5001571448.3.1.0,Phases=2,Linecode=IP_2,Length=0.005530000,Units=km
new line.SBT_1571455IP bus1=BBT3063841.1.2.0,bus2=BBT5001571455.1.2.0,Phases=2,Linecode=IP_2,Length=0.005530000,Units=km
new line.SBT_1571462IP bus1=BBT3063855.3.1.0,bus2=BBT5001571462.3.1.0,Phases=2,Linecode=IP_2,Length=0.005530000,Units=km
new line.SBT_1571469IP bus1=BBT3063911.1.2.0,bus2=BBT5001571469.1.2.0,Phases=2,Linecode=IP_2,Length=0.005530000,Units=km
new line.SBT_1571483IP bus1=BBT3063883.3.1.0,bus2=BBT5001571483.3.1.0,Phases=2,Linecode=IP_2,Length=0.005530000,Units=km
new line.SBT_1571490IP bus1=BBT3063876.2.3.0,bus2=BBT5001571490.2.3.0,Phases=2,Linecode=IP_2,Length=0.005530000,Units=km
new line.SBT_1571497IP bus1=BBT3063918.1.2.0,bus2=BBT5001571497.1.2.0,Phases=2,Linecode=IP_2,Length=0.005530000,Units=km
new line.SBT_1571504IP bus1=BBT3063925.2.3.0,bus2=BBT5001571504.2.3.0,Phases=2,Linecode=IP_2,Length=0.005530000,Units=km
new line.SBT_1571511IP bus1=BBT3063932.3.1.0,bus2=BBT5001571511.3.1.0,Phases=2,Linecode=IP_2,Length=0.005530000,Units=km
new line.SBT_1571518IP bus1=BBT3063939.3.1.0,bus2=BBT5001571518.3.1.0,Phases=2,Linecode=IP_2,Length=0.005530000,Units=km
new line.SBT_1571525IP bus1=BBT3063946.1.2.0,bus2=BBT5001571525.1.2.0,Phases=2,Linecode=IP_2,Length=0.005530000,Units=km
new line.SBT_1571532IP bus1=BBT3063953.2.3.0,bus2=BBT5001571532.2.3.0,Phases=2,Linecode=IP_2,Length=0.005530000,Units=km
new line.SBT_1571546IP bus1=BBT3064016.1.2.0,bus2=BBT5001571546.1.2.0,Phases=2,Linecode=IP_2,Length=0.005530000,Units=km
new line.SBT_1571574IP bus1=BBT3063589.3.1.0,bus2=BBT5001571574.3.1.0,Phases=2,Linecode=IP_2,Length=0.005530000,Units=km
new line.SBT_1571581IP bus1=BBT3063190.1.2.0,bus2=BBT5001571581.1.2.0,Phases=2,Linecode=IP_2,Length=0.005530000,Units=km
new line.SBT_1571588IP bus1=BBT3063477.2.3.0,bus2=BBT5001571588.2.3.0,Phases=2,Linecode=IP_2,Length=0.005530000,Units=km
new line.SBT_1571595IP bus1=BBT3038529.3.1.0,bus2=BBT5001571595.3.1.0,Phases=2,Linecode=IP_2,Length=0.005530000,Units=km
new line.SBT_1571602IP bus1=BBT3038536.3.1.0,bus2=BBT5001571602.3.1.0,Phases=2,Linecode=IP_2,Length=0.002840000,Units=km