new line.SMT_12109243 bus1=BMT161257827.1,bus2=BMT8701664B.1,Phases=1,Linecode=CAB202_3_1_1,Length=0.096597000,Units=km
new line.SMT_12109244 bus1=BMT8701664B.1,bus2=BMT8701665B.1,Phases=1,Linecode=CAB202_3_1_1,Length=0.119841000,Units=km
new line.SMT_12109245 bus1=BMT8701665B.1,bus2=BMT8701666B.1,Phases=1,Linecode=CAB202_3_1_1,Length=0.110410000,Units=km
new line.SMT_12109246 bus1=BMT8701666B.1,bus2=BMT161257829.1,Phases=1,Linecode=CAB202_3_1_1,Length=0.121382000,Units=km
new line.SMT_12109247 bus1=BMT161257829.1,bus2=BMT161257830.1,Phases=1,Linecode=CAB103_3_1_1,Length=0.072359000,Units=km
new line.SMT_12130074 bus1=BMT162038496.1.2.3,bus2=BMT162038497.1.2.3,Phases=3,Linecode=CAB103_3_3_3,Length=0.041624000,Units=km
new line.SMT_12130385 bus1=BMT162263664.2,bus2=BMT8724116B.2,Phases=1,Linecode=CAB202_3_1_1,Length=0.021998000,Units=km
new line.SMT_12130386 bus1=BMT8724116B.2,bus2=BMT162263667.2,Phases=1,Linecode=CAB202_3_1_1,Length=0.116486000,Units=km
new line.SMT_12165276 bus1=BMT178090114.1.2.3,bus2=BMT178090116.1.2.3,Phases=3,Linecode=CAB103_3_3_3,Length=0.025300000,Units=km
new line.SMT_12165281 bus1=BMT178090116.1.2.3,bus2=BMT154396932.1.2.3,Phases=3,Linecode=CAB202_3_3_3,Length=0.150093000,Units=km
new line.SMT_12165282 bus1=BMT154396932.1.2.3,bus2=BMT8762564B.1.2.3,Phases=3,Linecode=CAB202_3_3_3,Length=0.131709000,Units=km
new line.SMT_12165290 bus1=BMT8762564B.1.2.3,bus2=BMT8762566B.1.2.3,Phases=3,Linecode=CAB202_3_3_3,Length=0.169271000,Units=km
new line.SMT_12165291 bus1=BMT8762566B.1.2.3,bus2=BMT8762567B.1.2.3,Phases=3,Linecode=CAB202_3_3_3,Length=0.149703000,Units=km
new line.SMT_12165292 bus1=BMT8762567B.1.2.3,bus2=BMT8762568B.1.2.3,Phases=3,Linecode=CAB202_3_3_3,Length=0.151014000,Units=km
new line.SMT_12165293 bus1=BMT8762568B.1.2.3,bus2=BMT178090117.1.2.3,Phases=3,Linecode=CAB202_3_3_3,Length=0.138013000,Units=km
new line.SMT_12165312 bus1=BMT178090117.1.2.3,bus2=BMT150034273.1.2.3,Phases=3,Linecode=CAB103_3_3_3,Length=0.059553000,Units=km
new line.SMT_12165313 bus1=BMT160894706.1.2.3,bus2=BMT160894707.1.2.3,Phases=3,Linecode=CAB103_3_3_3,Length=0.031244000,Units=km
new line.SMT_12165799 bus1=BMT178090117.1.2.3,bus2=BMT8763286B.1.2.3,Phases=3,Linecode=CAB202_3_3_3,Length=0.081572000,Units=km
new line.SMT_12165801 bus1=BMT8763286B.1.2.3,bus2=BMT8763288B.1.2.3,Phases=3,Linecode=CAB202_3_3_3,Length=0.156599000,Units=km
new line.SMT_12165803 bus1=BMT8763288B.1.2.3,bus2=BMT150049683.1.2.3,Phases=3,Linecode=CAB202_3_3_3,Length=0.165541000,Units=km
new line.SMT_12165806 bus1=BMT163786879.1.2.3,bus2=BMT8763294B.1.2.3,Phases=3,Linecode=CAB202_3_3_3,Length=0.133340000,Units=km
new line.SMT_12165807 bus1=BMT8763294B.1.2.3,bus2=BMT163786880.1.2.3,Phases=3,Linecode=CAB202_3_3_3,Length=0.116370000,Units=km
new line.SMT_12165811 bus1=BMT163786880.1.2.3,bus2=BMT8763299B.1.2.3,Phases=3,Linecode=CAB202_3_3_3,Length=0.108234000,Units=km
new line.SMT_12165812 bus1=BMT8763299B.1.2.3,bus2=BMT8763300B.1.2.3,Phases=3,Linecode=CAB202_3_3_3,Length=0.129721000,Units=km
new line.SMT_12165813 bus1=BMT8763300B.1.2.3,bus2=BMT8763303B.1.2.3,Phases=3,Linecode=CAB202_3_3_3,Length=0.155966000,Units=km
new line.SMT_12165814 bus1=BMT8763303B.1.2.3,bus2=BMT8763305B.1.2.3,Phases=3,Linecode=CAB202_3_3_3,Length=0.143108000,Units=km
new line.SMT_12165815 bus1=BMT8763305B.1.2.3,bus2=BMT8763307B.1.2.3,Phases=3,Linecode=CAB202_3_3_3,Length=0.138985000,Units=km
new line.SMT_12165816 bus1=BMT8763307B.1.2.3,bus2=BMT8763309B.1.2.3,Phases=3,Linecode=CAB202_3_3_3,Length=0.145052000,Units=km
new line.SMT_12165817 bus1=BMT8763309B.1.2.3,bus2=BMT163786881.1.2.3,Phases=3,Linecode=CAB202_3_3_3,Length=0.147970000,Units=km
new line.SMT_12165818 bus1=BMT163786881.1.2.3,bus2=BMT8763313B.1.2.3,Phases=3,Linecode=CAB202_3_3_3,Length=0.110063000,Units=km
new line.SMT_12165819 bus1=BMT8763313B.1.2.3,bus2=BMT8763314B.1.2.3,Phases=3,Linecode=CAB202_3_3_3,Length=0.108793000,Units=km
new line.SMT_12165820 bus1=BMT8763314B.1.2.3,bus2=BMT150050275.1.2.3,Phases=3,Linecode=CAB202_3_3_3,Length=0.105003000,Units=km
new line.SMT_12165837 bus1=BMT150050281.1.2.3,bus2=BMT150050282.1.2.3,Phases=3,Linecode=CAB103_3_3_3,Length=0.030367000,Units=km
new line.SMT_12166096 bus1=BMT172174499.1.2.3,bus2=BMT557820B.1.2.3,Phases=3,Linecode=CABA06_3_3_3,Length=0.041226000,Units=km
new line.SMT_12166099 bus1=BMT557820B.1.2.3,bus2=BMT150062186.1.2.3,Phases=3,Linecode=CABA06_3_3_3,Length=0.035166000,Units=km
new line.SMT_12166100 bus1=BMT154320450.1.2.3,bus2=BMT154320451.1.2.3,Phases=3,Linecode=CABA06_3_3_3,Length=0.032012000,Units=km
new line.SMT_12166546 bus1=BMT154320451.1.2.3,bus2=BMT8763665B.1.2.3,Phases=3,Linecode=CABA06_3_3_3,Length=0.006708000,Units=km
new line.SMT_12166547 bus1=BMT8763665B.1.2.3,bus2=BMT8763674B.1.2.3,Phases=3,Linecode=CABA06_3_3_3,Length=0.030079000,Units=km
new line.SMT_12166548 bus1=BMT8763674B.1.2.3,bus2=BMT154320452.1.2.3,Phases=3,Linecode=CABA06_3_3_3,Length=0.032753000,Units=km
new line.SMT_12166551 bus1=BMT154320451.1.2.3,bus2=BMT8764114B.1.2.3,Phases=3,Linecode=CABA06_3_3_3,Length=0.029117000,Units=km
new line.SMT_12166552 bus1=BMT8764114B.1.2.3,bus2=BMT154320453.1.2.3,Phases=3,Linecode=CABA06_3_3_3,Length=0.034201000,Units=km
new line.SMT_12166553 bus1=BMT154320453.1.2.3,bus2=BMT8764123B.1.2.3,Phases=3,Linecode=CABA06_3_3_3,Length=0.006708000,Units=km
new line.SMT_12166554 bus1=BMT8764123B.1.2.3,bus2=BMT8764130B.1.2.3,Phases=3,Linecode=CABA06_3_3_3,Length=0.027889000,Units=km
new line.SMT_12114914 bus1=BMT148344079.1.2.3,bus2=BMT148344080.1.2.3,Phases=3,Linecode=CAB103_3_3_3,Length=0.019696000,Units=km
new line.SMT_12115219 bus1=BMT148344046.1.2.3,bus2=BMT148343788.1.2.3,Phases=3,Linecode=CAB202_3_3_3,Length=0.099809000,Units=km
new line.SMT_12115222 bus1=BMT148343798.1.2.3,bus2=BMT148343799.1.2.3,Phases=3,Linecode=CAB103_3_3_3,Length=0.026401000,Units=km
new line.SMT_12115241 bus1=BMT145272278.1.2.3,bus2=BMT148344914.1.2.3,Phases=3,Linecode=CAB204_3_3_3,Length=0.051087000,Units=km
new line.SMT_12115242 bus1=BMT176971644.1.2.3,bus2=BMT176971645.1.2.3,Phases=3,Linecode=CAB204_3_3_3,Length=0.030016000,Units=km
new line.SMT_12146089 bus1=BMT4000021B.3,bus2=BMT161122818.3,Phases=1,Linecode=CAB202_3_1_1,Length=0.045891000,Units=km
new line.SMT_12146090 bus1=BMT161122818.3,bus2=BMT161122819.3,Phases=1,Linecode=CAB202_3_1_1,Length=0.037855000,Units=km
new line.SMT_12146099 bus1=BMT161122818.3,bus2=BMT161122820.3,Phases=1,Linecode=CAB202_3_1_1,Length=0.187777000,Units=km
new line.SMT_12146910 bus1=BMT161249888.2,bus2=BMT8742905B.2,Phases=1,Linecode=CAB202_3_1_1,Length=0.209729000,Units=km
new line.SMT_12146911 bus1=BMT8742905B.2,bus2=BMT8742906B.2,Phases=1,Linecode=CAB202_3_1_1,Length=0.118503000,Units=km
new line.SMT_12146912 bus1=BMT8742906B.2,bus2=BMT8742907B.2,Phases=1,Linecode=CAB202_3_1_1,Length=0.102389000,Units=km
new line.SMT_12146913 bus1=BMT8742907B.2,bus2=BMT8742908B.2,Phases=1,Linecode=CAB202_3_1_1,Length=0.151637000,Units=km
new line.SMT_12146914 bus1=BMT8742908B.2,bus2=BMT161249889.2,Phases=1,Linecode=CAB202_3_1_1,Length=0.157612000,Units=km
new line.SMT_12146993 bus1=BMT175674722.1.2.3,bus2=BMT175674724.1.2.3,Phases=3,Linecode=CAB202_3_3_3,Length=0.085745000,Units=km
new line.SMT_12147714 bus1=BMT124604309.1.2.3,bus2=BMT8743574B.1.2.3,Phases=3,Linecode=CAB202_3_3_3,Length=0.044100000,Units=km
new line.SMT_12147715 bus1=BMT8743574B.1.2.3,bus2=BMT8743575B.1.2.3,Phases=3,Linecode=CAB202_3_3_3,Length=0.074326000,Units=km
new line.SMT_12147716 bus1=BMT8743575B.1.2.3,bus2=BMT8743576B.1.2.3,Phases=3,Linecode=CAB202_3_3_3,Length=0.110934000,Units=km
new line.SMT_12147717 bus1=BMT8743576B.1.2.3,bus2=BMT8743577B.1.2.3,Phases=3,Linecode=CAB202_3_3_3,Length=0.107831000,Units=km
new line.SMT_12147719 bus1=BMT8743578B.1.2.3,bus2=BMT8743579B.1.2.3,Phases=3,Linecode=CAB202_3_3_3,Length=0.309989000,Units=km
new line.SMT_12180988 bus1=BMT150642801.3,bus2=BMT150642803.3,Phases=1,Linecode=CAB103_3_1_1,Length=0.022201000,Units=km
new line.SMT_12180989 bus1=BMT3522495B.3,bus2=BMT150642803.3,Phases=1,Linecode=CAB202_3_1_1,Length=0.103296000,Units=km
new line.SMT_12180993 bus1=BMT4593404B.1.2.3,bus2=BMT8780088B.1.2.3,Phases=3,Linecode=CAB202_3_3_3,Length=0.102845000,Units=km
new line.SMT_12180994 bus1=BMT8780088B.1.2.3,bus2=BMT150642801.1.2.3,Phases=3,Linecode=CAB202_3_3_3,Length=0.096138000,Units=km
new line.SMT_12210658 bus1=BMT161464635.3,bus2=BMT8811659B.3,Phases=1,Linecode=CAB202_3_1_1,Length=0.064006000,Units=km
new line.SMT_12210663 bus1=BMT8811659B.3,bus2=BMT161464637.3,Phases=1,Linecode=CAB202_3_1_1,Length=0.055361000,Units=km
new line.SMT_12242051 bus1=BMT161015048.1,bus2=BMT8843856B.1,Phases=1,Linecode=CAB202_3_1_1,Length=0.089042000,Units=km
new line.SMT_12242052 bus1=BMT8843856B.1,bus2=BMT8843857B.1,Phases=1,Linecode=CAB202_3_1_1,Length=0.116350000,Units=km
new line.SMT_12242053 bus1=BMT8843857B.1,bus2=BMT8843858B.1,Phases=1,Linecode=CAB202_3_1_1,Length=0.189751000,Units=km
new line.SMT_12242054 bus1=BMT8843858B.1,bus2=BMT8843859B.1,Phases=1,Linecode=CAB202_3_1_1,Length=0.101626000,Units=km
new line.SMT_12242055 bus1=BMT8843859B.1,bus2=BMT161015049.1,Phases=1,Linecode=CAB202_3_1_1,Length=0.070086000,Units=km
new line.SMT_12242486 bus1=BMT177749512.1,bus2=BMT177749514.1,Phases=1,Linecode=CAB103_3_1_1,Length=0.060101000,Units=km
new line.SMT_12279170 bus1=BMT8881906B.2,bus2=BMT160342480.2,Phases=1,Linecode=CAB202_3_1_1,Length=0.115975000,Units=km
new line.SMT_12281943 bus1=BMT163140736.2,bus2=BMT8884483B.2,Phases=1,Linecode=CAB202_3_1_1,Length=0.180996000,Units=km
new line.SMT_12281944 bus1=BMT8884483B.2,bus2=BMT8884484B.2,Phases=1,Linecode=CAB202_3_1_1,Length=0.146593000,Units=km
new line.SMT_12281945 bus1=BMT8884484B.2,bus2=BMT8884485B.2,Phases=1,Linecode=CAB202_3_1_1,Length=0.111355000,Units=km
new line.SMT_12281946 bus1=BMT8884485B.2,bus2=BMT8884490B.2,Phases=1,Linecode=CAB202_3_1_1,Length=0.197553000,Units=km
new line.SMT_12281947 bus1=BMT8884490B.2,bus2=BMT8884492B.2,Phases=1,Linecode=CAB202_3_1_1,Length=0.171997000,Units=km
new line.SMT_12283847 bus1=BMT4987035B.1,bus2=BMT160357063.1,Phases=1,Linecode=CAB202_3_1_1,Length=0.207390000,Units=km
new line.SMT_12283848 bus1=BMT160357063.1,bus2=BMT160357064.1,Phases=1,Linecode=CAB202_3_1_1,Length=0.073254000,Units=km
new line.SMT_12283857 bus1=BMT160357063.1,bus2=BMT8886495B.1,Phases=1,Linecode=CAB202_3_1_1,Length=0.103238000,Units=km
new line.SMT_12283858 bus1=BMT8886495B.1,bus2=BMT8886499B.1,Phases=1,Linecode=CAB202_3_1_1,Length=0.131657000,Units=km
new line.SMT_12283859 bus1=BMT8886499B.1,bus2=BMT8886500B.1,Phases=1,Linecode=CAB202_3_1_1,Length=0.216031000,Units=km
new line.SMT_12283860 bus1=BMT8886500B.1,bus2=BMT8886501B.1,Phases=1,Linecode=CAB202_3_1_1,Length=0.105015000,Units=km
new line.SMT_12283861 bus1=BMT8886501B.1,bus2=BMT8886502B.1,Phases=1,Linecode=CAB202_3_1_1,Length=0.266203000,Units=km
new line.SMT_12137321 bus1=BMT164541503.1,bus2=BMT164541505.1,Phases=1,Linecode=CAB202_3_1_1,Length=0.182470000,Units=km
new line.SMT_12182413 bus1=BMT161043481.1.2.3,bus2=BMT8781660B.1.2.3,Phases=3,Linecode=CAB202_3_3_3,Length=0.134621000,Units=km
new line.SMT_12182414 bus1=BMT8781660B.1.2.3,bus2=BMT8781661B.1.2.3,Phases=3,Linecode=CAB202_3_3_3,Length=0.129525000,Units=km
new line.SMT_12182415 bus1=BMT8781661B.1.2.3,bus2=BMT8781662B.1.2.3,Phases=3,Linecode=CAB202_3_3_3,Length=0.109884000,Units=km
new line.SMT_12182416 bus1=BMT8781662B.1.2.3,bus2=BMT8781663B.1.2.3,Phases=3,Linecode=CAB202_3_3_3,Length=0.127478000,Units=km
new line.SMT_12182417 bus1=BMT8781663B.1.2.3,bus2=BMT8781664B.1.2.3,Phases=3,Linecode=CAB202_3_3_3,Length=0.126908000,Units=km
new line.SMT_12182418 bus1=BMT8781664B.1.2.3,bus2=BMT8781665B.1.2.3,Phases=3,Linecode=CAB202_3_3_3,Length=0.138082000,Units=km
new line.SMT_12182419 bus1=BMT8781665B.1.2.3,bus2=BMT150693854.1.2.3,Phases=3,Linecode=CAB202_3_3_3,Length=0.118665000,Units=km
new line.SMT_12182420 bus1=BMT150693855.1.2.3,bus2=BMT150693856.1.2.3,Phases=3,Linecode=CAB103_3_3_3,Length=0.024739000,Units=km
new line.SMT_12183656 bus1=BMT124605373.1.2.3,bus2=BMT170446759.1.2.3,Phases=3,Linecode=CAB202_3_3_3,Length=0.044817000,Units=km
new line.SMT_12183657 bus1=BMT170446759.1.2.3,bus2=BMT170446760.1.2.3,Phases=3,Linecode=CAB202_3_3_3,Length=0.062619000,Units=km
new line.SMT_12185413 bus1=BMT169705760.1.2.3,bus2=BMT150809408.1.2.3,Phases=3,Linecode=CAB103_3_3_3,Length=0.014212000,Units=km
new line.SMT_12185414 bus1=BMT150809646.1.2.3,bus2=BMT150809647.1.2.3,Phases=3,Linecode=CAB103_3_3_3,Length=0.012206000,Units=km
new line.SMT_12186168 bus1=BMT150852310.1.2.3,bus2=BMT8785697B.1.2.3,Phases=3,Linecode=CAB202_3_3_3,Length=0.106666000,Units=km
new line.SMT_12186169 bus1=BMT8785697B.1.2.3,bus2=BMT150852311.1.2.3,Phases=3,Linecode=CAB202_3_3_3,Length=0.232242000,Units=km
new line.SMT_12262453 bus1=BMT2387830B.1,bus2=BMT153496087.1,Phases=1,Linecode=CAB202_3_1_1,Length=0.046232000,Units=km
new line.SMT_12262454 bus1=BMT153496087.1,bus2=BMT8865065B.1,Phases=1,Linecode=CAB202_3_1_1,Length=0.107922000,Units=km
new line.SMT_12262455 bus1=BMT8865065B.1,bus2=BMT8865066B.1,Phases=1,Linecode=CAB202_3_1_1,Length=0.175401000,Units=km
new line.SMT_12262456 bus1=BMT8865066B.1,bus2=BMT8865067B.1,Phases=1,Linecode=CAB202_3_1_1,Length=0.489982000,Units=km
new line.SMT_12262497 bus1=BMT153496087.1,bus2=BMT153496089.1,Phases=1,Linecode=CAB202_3_1_1,Length=0.029617000,Units=km
new line.SMT_12262510 bus1=BMT8865067B.1,bus2=BMT8865094B.1,Phases=1,Linecode=CAB202_3_1_1,Length=0.391116000,Units=km
new line.SMT_12262511 bus1=BMT8865094B.1,bus2=BMT8865095B.1,Phases=1,Linecode=CAB202_3_1_1,Length=0.082615000,Units=km
new line.SMT_12262512 bus1=BMT8865095B.1,bus2=BMT8865096B.1,Phases=1,Linecode=CAB202_3_1_1,Length=0.365580000,Units=km
new line.SMT_12262513 bus1=BMT8865096B.1,bus2=BMT153496088.1,Phases=1,Linecode=CAB202_3_1_1,Length=0.050224000,Units=km
new line.SMT_12298765 bus1=BMT8743579B.1.2.3,bus2=BMT154772644.1.2.3,Phases=3,Linecode=CAB202_3_3_3,Length=0.127090000,Units=km
new line.SMT_12298780 bus1=BMT154772646.1.2.3,bus2=BMT8900419B.1.2.3,Phases=3,Linecode=CAB202_3_3_3,Length=0.128542000,Units=km
new line.SMT_12298781 bus1=BMT8900419B.1.2.3,bus2=BMT8900420B.1.2.3,Phases=3,Linecode=CAB202_3_3_3,Length=0.127134000,Units=km
new line.SMT_12298782 bus1=BMT8900420B.1.2.3,bus2=BMT8900421B.1.2.3,Phases=3,Linecode=CAB202_3_3_3,Length=0.088086000,Units=km
new line.SMT_12298783 bus1=BMT8900421B.1.2.3,bus2=BMT154772647.1.2.3,Phases=3,Linecode=CAB202_3_3_3,Length=0.245050000,Units=km
new line.SMT_12298784 bus1=BMT154772647.1.2.3,bus2=BMT154772648.1.2.3,Phases=3,Linecode=CAB202_3_3_3,Length=0.081684000,Units=km
new line.SMT_12298813 bus1=BMT154772647.1.2.3,bus2=BMT154772649.1.2.3,Phases=3,Linecode=CAB202_3_3_3,Length=0.147656000,Units=km
new line.SMT_12300294 bus1=BMT4014343B.3,bus2=BMT154812370.3,Phases=1,Linecode=CAB202_3_1_1,Length=0.067802000,Units=km
new line.SMT_12300295 bus1=BMT154812370.3,bus2=BMT154812670.3,Phases=1,Linecode=CAB202_3_1_1,Length=0.060001000,Units=km
new line.SMT_12300324 bus1=BMT161195981.3,bus2=BMT8902015B.3,Phases=1,Linecode=CAB202_3_1_1,Length=0.060408000,Units=km
new line.SMT_12300325 bus1=BMT8902015B.3,bus2=BMT8902016B.3,Phases=1,Linecode=CAB202_3_1_1,Length=0.155207000,Units=km
new line.SMT_12300326 bus1=BMT8902016B.3,bus2=BMT8902017B.3,Phases=1,Linecode=CAB202_3_1_1,Length=0.142696000,Units=km
new line.SMT_12300327 bus1=BMT8902017B.3,bus2=BMT8902018B.3,Phases=1,Linecode=CAB202_3_1_1,Length=0.156985000,Units=km
new line.SMT_12300328 bus1=BMT8902018B.3,bus2=BMT8902019B.3,Phases=1,Linecode=CAB202_3_1_1,Length=0.077467000,Units=km
new line.SMT_12300329 bus1=BMT8902019B.3,bus2=BMT161195982.3,Phases=1,Linecode=CAB202_3_1_1,Length=0.064008000,Units=km
new line.SMT_12300330 bus1=BMT161195982.3,bus2=BMT161195983.3,Phases=1,Linecode=CAB103_3_1_1,Length=0.046011000,Units=km
new line.SMT_12301950 bus1=BMT2391568B.3,bus2=BMT164413476.3,Phases=1,Linecode=CAB202_3_1_1,Length=0.426407000,Units=km
new line.SMT_12301951 bus1=BMT164413476.3,bus2=BMT3186488B.3,Phases=1,Linecode=CAB202_3_1_1,Length=0.168162000,Units=km
new line.SMT_12301954 bus1=BMT164413476.3,bus2=BMT164413478.3,Phases=1,Linecode=CAB103_3_1_1,Length=0.039996000,Units=km
new line.SMT_12143235 bus1=BMT149282497.2,bus2=BMT8737905B.2,Phases=1,Linecode=CAB202_3_1_1,Length=0.098187000,Units=km
new line.SMT_12143238 bus1=BMT8737905B.2,bus2=BMT8737906B.2,Phases=1,Linecode=CAB202_3_1_1,Length=0.155044000,Units=km
new line.SMT_12143241 bus1=BMT8737906B.2,bus2=BMT149282499.2,Phases=1,Linecode=CAB202_3_1_1,Length=0.157006000,Units=km
new line.SMT_12143885 bus1=BMT162042403.1.2.3,bus2=BMT162042404.1.2.3,Phases=3,Linecode=CAB202_3_3_3,Length=0.086757000,Units=km
new line.SMT_12143891 bus1=BMT162042404.1.2.3,bus2=BMT8738676B.1.2.3,Phases=3,Linecode=CAB202_3_3_3,Length=0.092907000,Units=km
new line.SMT_12143892 bus1=BMT8738676B.1.2.3,bus2=BMT162042405.1.2.3,Phases=3,Linecode=CAB202_3_3_3,Length=0.094861000,Units=km
new line.SMT_12143896 bus1=BMT162042404.1,bus2=BMT162042406.1,Phases=1,Linecode=CAB202_3_1_1,Length=0.044042000,Units=km
new line.SMT_12175040 bus1=BMT150852318.1.2.3,bus2=BMT150852319.1.2.3,Phases=3,Linecode=CAB103_3_3_3,Length=0.012166000,Units=km
new line.SMT_12175125 bus1=BMT150444490.1.2.3,bus2=BMT150444491.1.2.3,Phases=3,Linecode=CAB103_3_3_3,Length=0.009900000,Units=km
new line.SMT_12175175 bus1=BMT3299503B.1.2.3,bus2=BMT8773942B.1.2.3,Phases=3,Linecode=CAB202_3_3_3,Length=0.112292000,Units=km
new line.SMT_12175178 bus1=BMT8773942B.1.2.3,bus2=BMT8773945B.1.2.3,Phases=3,Linecode=CAB202_3_3_3,Length=0.111569000,Units=km
new line.SMT_12175182 bus1=BMT8773945B.1.2.3,bus2=BMT8773947B.1.2.3,Phases=3,Linecode=CAB202_3_3_3,Length=0.103810000,Units=km
new line.SMT_12175183 bus1=BMT8773947B.1.2.3,bus2=BMT8773948B.1.2.3,Phases=3,Linecode=CAB202_3_3_3,Length=0.095340000,Units=km
new line.SMT_12175188 bus1=BMT8773948B.1.2.3,bus2=BMT8773952B.1.2.3,Phases=3,Linecode=CAB202_3_3_3,Length=0.096004000,Units=km
new line.SMT_12175189 bus1=BMT8773952B.1.2.3,bus2=BMT8773954B.1.2.3,Phases=3,Linecode=CAB202_3_3_3,Length=0.104922000,Units=km
new line.SMT_12175190 bus1=BMT8773954B.1.2.3,bus2=BMT8773958B.1.2.3,Phases=3,Linecode=CAB202_3_3_3,Length=0.111891000,Units=km
new line.SMT_12175192 bus1=BMT8773958B.1.2.3,bus2=BMT124601831.1.2.3,Phases=3,Linecode=CAB202_3_3_3,Length=0.099808000,Units=km
new line.SMT_12175194 bus1=BMT124601831.1.2.3,bus2=BMT8774016B.1.2.3,Phases=3,Linecode=CAB202_3_3_3,Length=0.055542000,Units=km
new line.SMT_12175195 bus1=BMT3299629B.1.2.3,bus2=BMT8774016B.1.2.3,Phases=3,Linecode=CAB202_3_3_3,Length=0.047423000,Units=km
new line.SMT_12214955 bus1=BMT177749513.1,bus2=BMT8815348B.1,Phases=1,Linecode=CAB202_3_1_1,Length=0.084138000,Units=km
new line.SMT_12214959 bus1=BMT8815348B.1,bus2=BMT177749516.1,Phases=1,Linecode=CAB202_3_1_1,Length=0.273214000,Units=km
new line.SMT_12215126 bus1=BMT151874654.1,bus2=BMT151874656.1,Phases=1,Linecode=CAB202_3_1_1,Length=0.102812000,Units=km
new line.SMT_12215127 bus1=BMT164541822.1,bus2=BMT8815512B.1,Phases=1,Linecode=CAB202_3_1_1,Length=0.137168000,Units=km
new line.SMT_12215128 bus1=BMT8815512B.1,bus2=BMT8815513B.1,Phases=1,Linecode=CAB202_3_1_1,Length=0.122572000,Units=km
new line.SMT_12215129 bus1=BMT8815513B.1,bus2=BMT164541823.1,Phases=1,Linecode=CAB202_3_1_1,Length=0.105915000,Units=km
new line.SMT_12215131 bus1=BMT8815517B.1,bus2=BMT8815518B.1,Phases=1,Linecode=CAB202_3_1_1,Length=0.108328000,Units=km
new line.SMT_12215135 bus1=BMT8815518B.1,bus2=BMT8815520B.1,Phases=1,Linecode=CAB202_3_1_1,Length=0.098465000,Units=km
new line.SMT_12215136 bus1=BMT8815520B.1,bus2=BMT8815519B.1,Phases=1,Linecode=CAB202_3_1_1,Length=0.061652000,Units=km
new line.SMT_12215137 bus1=BMT8815519B.1,bus2=BMT164541824.1,Phases=1,Linecode=CAB202_3_1_1,Length=0.103355000,Units=km
new line.SMT_12215149 bus1=BMT164541823.1,bus2=BMT8815545B.1,Phases=1,Linecode=CAB202_3_1_1,Length=0.102246000,Units=km
new line.SMT_12215150 bus1=BMT8815517B.1,bus2=BMT8815545B.1,Phases=1,Linecode=CAB202_3_1_1,Length=0.114410000,Units=km
new line.SMT_12350259 bus1=BMT156622631.1,bus2=BMT8953953B.1,Phases=1,Linecode=CAB202_3_1_1,Length=0.090145000,Units=km
new line.SMT_12350260 bus1=BMT8953953B.1,bus2=BMT156622633.1,Phases=1,Linecode=CAB202_3_1_1,Length=0.099188000,Units=km
new line.SMT_12350762 bus1=BMT4427511B.1.2.3,bus2=BMT8954570B.1.2.3,Phases=3,Linecode=CAB202_3_3_3,Length=0.101397000,Units=km
new line.SMT_12350778 bus1=BMT8954570B.1.2.3,bus2=BMT8954573B.1.2.3,Phases=3,Linecode=CAB202_3_3_3,Length=0.123325000,Units=km
new line.SMT_12350780 bus1=BMT8954573B.1.2.3,bus2=BMT8954575B.1.2.3,Phases=3,Linecode=CAB202_3_3_3,Length=0.112291000,Units=km
new line.SMT_12350782 bus1=BMT8954575B.1.2.3,bus2=BMT8954579B.1.2.3,Phases=3,Linecode=CAB202_3_3_3,Length=0.110884000,Units=km
new line.SMT_12350801 bus1=BMT8954579B.1.2.3,bus2=BMT8954583B.1.2.3,Phases=3,Linecode=CAB202_3_3_3,Length=0.099244000,Units=km
new line.SMT_12350805 bus1=BMT8954583B.1.2.3,bus2=BMT8954587B.1.2.3,Phases=3,Linecode=CAB202_3_3_3,Length=0.074998000,Units=km
new line.SMT_12350808 bus1=BMT8954587B.1.2.3,bus2=BMT8954607B.1.2.3,Phases=3,Linecode=CAB202_3_3_3,Length=0.061007000,Units=km
new line.SMT_12350809 bus1=BMT8954607B.1.2.3,bus2=BMT8954608B.1.2.3,Phases=3,Linecode=CAB202_3_3_3,Length=0.054999000,Units=km
new line.SMT_12350811 bus1=BMT8954608B.1.2.3,bus2=BMT8954611B.1.2.3,Phases=3,Linecode=CAB202_3_3_3,Length=0.090474000,Units=km
new line.SMT_12350812 bus1=BMT8954611B.1.2.3,bus2=BMT8954615B.1.2.3,Phases=3,Linecode=CAB202_3_3_3,Length=0.080453000,Units=km
new line.SMT_12350817 bus1=BMT8954615B.1.2.3,bus2=BMT8954618B.1.2.3,Phases=3,Linecode=CAB202_3_3_3,Length=0.079609000,Units=km
new line.SMT_12149447 bus1=BMT164541494.1,bus2=BMT8745440B.1,Phases=1,Linecode=CAB202_3_1_1,Length=0.095134000,Units=km
new line.SMT_12149448 bus1=BMT8745440B.1,bus2=BMT164541496.1,Phases=1,Linecode=CAB202_3_1_1,Length=0.109557000,Units=km
new line.SMT_12151158 bus1=BMT4623567B.1.2.3,bus2=BMT153481278.1.2.3,Phases=3,Linecode=CABA06_3_3_3,Length=0.027800000,Units=km
new line.SMT_12151166 bus1=BMT153480523.1.2.3,bus2=BMT153480522.1.2.3,Phases=3,Linecode=CABA06_3_3_3,Length=0.029829000,Units=km
new line.SMT_12191995 bus1=BMT151087393.1.2.3,bus2=BMT151087394.1.2.3,Phases=3,Linecode=CAB202_3_3_3,Length=0.052039000,Units=km
new line.SMT_12192167 bus1=BMT151087394.1.2.3,bus2=BMT151082245.1.2.3,Phases=3,Linecode=CAB202_3_3_3,Length=0.025080000,Units=km
new line.SMT_12192168 bus1=BMT4905597B.1.2.3,bus2=BMT173987279.1.2.3,Phases=3,Linecode=CAB202_3_3_3,Length=0.050040000,Units=km
new line.SMT_12192834 bus1=BMT151308204.1.2.3,bus2=BMT151308205.1.2.3,Phases=3,Linecode=CAB103_3_3_3,Length=0.010296000,Units=km
new line.SMT_12193178 bus1=BMT165079482.1.2.3,bus2=BMT8793543B.1.2.3,Phases=3,Linecode=CAB202_3_3_3,Length=0.125157000,Units=km
new line.SMT_12193179 bus1=BMT8793543B.1.2.3,bus2=BMT8793547B.1.2.3,Phases=3,Linecode=CAB202_3_3_3,Length=0.131526000,Units=km
new line.SMT_12193181 bus1=BMT8793547B.1.2.3,bus2=BMT165079484.1.2.3,Phases=3,Linecode=CAB202_3_3_3,Length=0.112429000,Units=km
new line.SMT_12279162 bus1=BMT160342478.2,bus2=BMT8881899B.2,Phases=1,Linecode=CAB202_3_1_1,Length=0.113283000,Units=km
new line.SMT_12279163 bus1=BMT8881899B.2,bus2=BMT8881903B.2,Phases=1,Linecode=CAB202_3_1_1,Length=0.065124000,Units=km
new line.SMT_12279167 bus1=BMT8881903B.2,bus2=BMT8881906B.2,Phases=1,Linecode=CAB202_3_1_1,Length=0.104174000,Units=km
new line.SMT_12326477 bus1=BMT174633475.2,bus2=BMT8927440B.2,Phases=1,Linecode=CAB202_3_1_1,Length=0.091240000,Units=km
new line.SMT_12326497 bus1=BMT8927440B.2,bus2=BMT8927443B.2,Phases=1,Linecode=CAB202_3_1_1,Length=0.110166000,Units=km
new line.SMT_12326499 bus1=BMT8927443B.2,bus2=BMT8927444B.2,Phases=1,Linecode=CAB202_3_1_1,Length=0.125158000,Units=km
new line.SMT_12326504 bus1=BMT8927444B.2,bus2=BMT174633477.2,Phases=1,Linecode=CAB202_3_1_1,Length=0.095884000,Units=km
new line.SMT_12371143 bus1=BMT179927043.2,bus2=BMT8975902B.2,Phases=1,Linecode=CAB202_3_1_1,Length=0.111402000,Units=km
new line.SMT_12371144 bus1=BMT8975902B.2,bus2=BMT179927051.2,Phases=1,Linecode=CAB202_3_1_1,Length=0.124039000,Units=km
new line.SMT_12371198 bus1=BMT157465742.1,bus2=BMT157465744.1,Phases=1,Linecode=CAB103_3_1_1,Length=0.027854000,Units=km
new line.SMT_12371212 bus1=BMT157465740.1,bus2=BMT3995044B.1,Phases=1,Linecode=CAB202_3_1_1,Length=0.122077000,Units=km
new line.SMT_12371428 bus1=BMT163786880.1.2.3,bus2=BMT157276358.1.2.3,Phases=3,Linecode=CAB103_3_3_3,Length=0.050094000,Units=km
new line.SMT_12371432 bus1=BMT157276458.1.2.3,bus2=BMT157276459.1.2.3,Phases=3,Linecode=CAB103_3_3_3,Length=0.029969000,Units=km
new line.SMT_12371453 bus1=BMT150963519.1.2.3,bus2=BMT8976246B.1.2.3,Phases=3,Linecode=CAB202_3_3_3,Length=0.180838000,Units=km
new line.SMT_12371456 bus1=BMT8976246B.1.2.3,bus2=BMT157277157.1.2.3,Phases=3,Linecode=CAB202_3_3_3,Length=0.048597000,Units=km
new line.SMT_12371591 bus1=BMT4877226B.3,bus2=BMT8976418B.3,Phases=1,Linecode=CAB202_3_1_1,Length=0.342905000,Units=km
new line.SMT_12371592 bus1=BMT8976418B.3,bus2=BMT4891058B.3,Phases=1,Linecode=CAB202_3_1_1,Length=0.084379000,Units=km
new line.SMT_12371855 bus1=BMT4877226B.3,bus2=BMT8976426B.3,Phases=1,Linecode=CAB202_3_1_1,Length=0.077664000,Units=km
new line.SMT_12371856 bus1=BMT8976426B.3,bus2=BMT8976427B.3,Phases=1,Linecode=CAB202_3_1_1,Length=0.074059000,Units=km
new line.SMT_12371857 bus1=BMT8976427B.3,bus2=BMT8976424B.3,Phases=1,Linecode=CAB202_3_1_1,Length=0.089049000,Units=km
new line.SMT_12371858 bus1=BMT8976424B.3,bus2=BMT8976430B.3,Phases=1,Linecode=CAB202_3_1_1,Length=0.078005000,Units=km
new line.SMT_12371859 bus1=BMT8976430B.3,bus2=BMT8976431B.3,Phases=1,Linecode=CAB202_3_1_1,Length=0.095045000,Units=km
new line.SMT_12371860 bus1=BMT8976431B.3,bus2=BMT8976429B.3,Phases=1,Linecode=CAB202_3_1_1,Length=0.108039000,Units=km
new line.SMT_12371861 bus1=BMT8976429B.3,bus2=BMT8976433B.3,Phases=1,Linecode=CAB202_3_1_1,Length=0.077825000,Units=km
new line.SMT_12371862 bus1=BMT8976433B.3,bus2=BMT8976432B.3,Phases=1,Linecode=CAB202_3_1_1,Length=0.062176000,Units=km
new line.SMT_12371863 bus1=BMT8976432B.3,bus2=BMT8976438B.3,Phases=1,Linecode=CAB202_3_1_1,Length=0.072110000,Units=km
new line.SMT_12371864 bus1=BMT8976438B.3,bus2=BMT8976439B.3,Phases=1,Linecode=CAB202_3_1_1,Length=0.073497000,Units=km
new line.SMT_12371865 bus1=BMT8976439B.3,bus2=BMT8976440B.3,Phases=1,Linecode=CAB202_3_1_1,Length=0.131306000,Units=km
new line.SMT_12371866 bus1=BMT8976440B.3,bus2=BMT8976437B.3,Phases=1,Linecode=CAB202_3_1_1,Length=0.067230000,Units=km
new line.SMT_12371867 bus1=BMT8976437B.3,bus2=BMT8976442B.3,Phases=1,Linecode=CAB202_3_1_1,Length=0.125013000,Units=km
new line.SMT_12371868 bus1=BMT8976442B.3,bus2=BMT8976441B.3,Phases=1,Linecode=CAB202_3_1_1,Length=0.103998000,Units=km
new line.SMT_12371869 bus1=BMT8976441B.3,bus2=BMT8976444B.3,Phases=1,Linecode=CAB202_3_1_1,Length=0.081214000,Units=km
new line.SMT_12371870 bus1=BMT8976444B.3,bus2=BMT8976445B.3,Phases=1,Linecode=CAB202_3_1_1,Length=0.072621000,Units=km
new line.SMT_12166556 bus1=BMT8764130B.1.2.3,bus2=BMT154320454.1.2.3,Phases=3,Linecode=CABA06_3_3_3,Length=0.034924000,Units=km
new line.SMT_12166557 bus1=BMT154320453.1.2.3,bus2=BMT8764144B.1.2.3,Phases=3,Linecode=CABA06_3_3_3,Length=0.026922000,Units=km
new line.SMT_12166558 bus1=BMT8764144B.1.2.3,bus2=BMT154320455.1.2.3,Phases=3,Linecode=CABA06_3_3_3,Length=0.034201000,Units=km
new line.SMT_12166559 bus1=BMT154320455.1.2.3,bus2=BMT8764142B.1.2.3,Phases=3,Linecode=CABA06_3_3_3,Length=0.006708000,Units=km
new line.SMT_12166560 bus1=BMT8764142B.1.2.3,bus2=BMT8764141B.1.2.3,Phases=3,Linecode=CABA06_3_3_3,Length=0.029829000,Units=km
new line.SMT_12166561 bus1=BMT8764141B.1.2.3,bus2=BMT154320456.1.2.3,Phases=3,Linecode=CABA06_3_3_3,Length=0.034201000,Units=km
new line.SMT_12166562 bus1=BMT154320455.1.2.3,bus2=BMT8764157B.1.2.3,Phases=3,Linecode=CABA06_3_3_3,Length=0.034201000,Units=km
new line.SMT_12166563 bus1=BMT8764157B.1.2.3,bus2=BMT154320457.1.2.3,Phases=3,Linecode=CABA06_3_3_3,Length=0.027889000,Units=km
new line.SMT_12166564 bus1=BMT154320457.1.2.3,bus2=BMT8764156B.1.2.3,Phases=3,Linecode=CABA06_3_3_3,Length=0.006403000,Units=km
new line.SMT_12166565 bus1=BMT8764156B.1.2.3,bus2=BMT8764155B.1.2.3,Phases=3,Linecode=CABA06_3_3_3,Length=0.025958000,Units=km
new line.SMT_12166566 bus1=BMT8764155B.1.2.3,bus2=BMT154320458.1.2.3,Phases=3,Linecode=CABA06_3_3_3,Length=0.036134000,Units=km
new line.SMT_12166567 bus1=BMT154320457.1.2.3,bus2=BMT8764169B.1.2.3,Phases=3,Linecode=CABA06_3_3_3,Length=0.028157000,Units=km
new line.SMT_12166568 bus1=BMT8764169B.1.2.3,bus2=BMT154320459.1.2.3,Phases=3,Linecode=CABA06_3_3_3,Length=0.034201000,Units=km
new line.SMT_12166569 bus1=BMT154320459.1.2.3,bus2=BMT8764167B.1.2.3,Phases=3,Linecode=CABA06_3_3_3,Length=0.006708000,Units=km
new line.SMT_12166570 bus1=BMT8764167B.1.2.3,bus2=BMT8764166B.1.2.3,Phases=3,Linecode=CABA06_3_3_3,Length=0.028858000,Units=km
new line.SMT_12166571 bus1=BMT8764166B.1.2.3,bus2=BMT154320460.1.2.3,Phases=3,Linecode=CABA06_3_3_3,Length=0.036134000,Units=km
new line.SMT_12166678 bus1=BMT150081678.1.2.3,bus2=BMT8764322B.1.2.3,Phases=3,Linecode=CABA06_3_3_3,Length=0.027655000,Units=km
new line.SMT_12166680 bus1=BMT8764322B.1.2.3,bus2=BMT8764324B.1.2.3,Phases=3,Linecode=CABA06_3_3_3,Length=0.027800000,Units=km
new line.SMT_12166792 bus1=BMT153480730.1.2.3,bus2=BMT153480731.1.2.3,Phases=3,Linecode=CAB108_3_3_3,Length=0.041226000,Units=km
new line.SMT_12166793 bus1=BMT153480731.1.2.3,bus2=BMT150087083.1.2.3,Phases=3,Linecode=CABA08_3_3_3,Length=0.005385000,Units=km
new line.SMT_12166817 bus1=BMT153480523.1.2.3,bus2=BMT8764382B.1.2.3,Phases=3,Linecode=CABA06_3_3_3,Length=0.026923000,Units=km
new line.SMT_12166819 bus1=BMT8764382B.1.2.3,bus2=BMT8764385B.1.2.3,Phases=3,Linecode=CABA06_3_3_3,Length=0.033237000,Units=km
new line.SMT_12166827 bus1=BMT8764385B.1.2.3,bus2=BMT8764373B.1.2.3,Phases=3,Linecode=CABA06_3_3_3,Length=0.034201000,Units=km