! manter este comentario para compatibilidade do C#
new circuit.alimPTC12 bus1=BMT124586137,basekv=13.800000000,pu=1.040000000,r1=0,x1=0.0001

