new line.RBT_1000605 bus1=BBT720780.1.2.3.0,bus2=RML1001000605.1.2.3.0,Phases=3,Linecode=CABBTG11_4_3_3,Length=0.029000000,Units=km
new line.RBT_1000612 bus1=BBT720780.1.2.3.0,bus2=RML1001000612.1.2.3.0,Phases=3,Linecode=CABBTG07_4_3_3,Length=0.029000000,Units=km
new line.RBT_1000619 bus1=BBT720787.2.3.0,bus2=RML1001000619.2.3.0,Phases=2,Linecode=CABBTG05_4_2_2,Length=0.029000000,Units=km
new line.RBT_1000626 bus1=BBT720787.2.3.0,bus2=RML1001000626.2.3.0,Phases=2,Linecode=CABBTG05_4_2_2,Length=0.029000000,Units=km
new line.RBT_1000633 bus1=BBT720787.2.3.0,bus2=RML1001000633.2.3.0,Phases=2,Linecode=CABBTG05_4_2_2,Length=0.029000000,Units=km
new line.RBT_1000640 bus1=BBT720787.2.3.0,bus2=RML1001000640.2.3.0,Phases=2,Linecode=CABBTG05_4_2_2,Length=0.029000000,Units=km
new line.RBT_1000647 bus1=BBT720787.1.0,bus2=RML1001000647.1.0,Phases=1,Linecode=CABBTG01_4_1_1,Length=0.029000000,Units=km
new line.RBT_1000654 bus1=BBT720787.1.0,bus2=RML1001000654.1.0,Phases=1,Linecode=CABBTG01_4_1_1,Length=0.029000000,Units=km
new line.RBT_1000661 bus1=BBT720794.3.1.0,bus2=RML1001000661.3.1.0,Phases=2,Linecode=CABBTG05_4_2_2,Length=0.029000000,Units=km
new line.RBT_1000668 bus1=BBT720794.3.1.0,bus2=RML1001000668.3.1.0,Phases=2,Linecode=CABBTG05_4_2_2,Length=0.029000000,Units=km
new line.RBT_1000675 bus1=BBT720794.3.1.0,bus2=RML1001000675.3.1.0,Phases=2,Linecode=CABBTG05_4_2_2,Length=0.029000000,Units=km
new line.RBT_1000682 bus1=BBT720794.3.1.0,bus2=RML1001000682.3.1.0,Phases=2,Linecode=CABBTG05_4_2_2,Length=0.029000000,Units=km
new line.RBT_1000689 bus1=BBT720801.1.2.0,bus2=RML1001000689.1.2.0,Phases=2,Linecode=CABBTG05_4_2_2,Length=0.029000000,Units=km
new line.RBT_1000696 bus1=BBT720801.2.3.0,bus2=RML1001000696.2.3.0,Phases=2,Linecode=CABBTG05_4_2_2,Length=0.029000000,Units=km
new line.RBT_1000703 bus1=BBT720801.2.3.0,bus2=RML1001000703.2.3.0,Phases=2,Linecode=CABBTG05_4_2_2,Length=0.029000000,Units=km
new line.RBT_1000710 bus1=BBT720801.2.3.0,bus2=RML1001000710.2.3.0,Phases=2,Linecode=CABBTG05_4_2_2,Length=0.029000000,Units=km
new line.RBT_1000717 bus1=BBT720801.3.1.0,bus2=RML1001000717.3.1.0,Phases=2,Linecode=CABBTG05_4_2_2,Length=0.029000000,Units=km
new line.RBT_1000724 bus1=BBT720801.3.1.0,bus2=RML1001000724.3.1.0,Phases=2,Linecode=CABBTG05_4_2_2,Length=0.029000000,Units=km
new line.RBT_1000731 bus1=BBT720801.3.1.0,bus2=RML1001000731.3.1.0,Phases=2,Linecode=CABBTG05_4_2_2,Length=0.029000000,Units=km
new line.RBT_1000738 bus1=BBT720801.3.1.0,bus2=RML1001000738.3.1.0,Phases=2,Linecode=CABBTG05_4_2_2,Length=0.029000000,Units=km
new line.RBT_1000745 bus1=BBT720829.2.3.0,bus2=RML1001000745.2.3.0,Phases=2,Linecode=CABBTG05_4_2_2,Length=0.029000000,Units=km
new line.RBT_1000752 bus1=BBT720829.1.2.3.0,bus2=RML1001000752.1.2.3.0,Phases=3,Linecode=CABBTG06_4_3_3,Length=0.029000000,Units=km
new line.RBT_1000759 bus1=BBT720829.2.3.0,bus2=RML1001000759.2.3.0,Phases=2,Linecode=CABBTG05_4_2_2,Length=0.029000000,Units=km
new line.RBT_1000766 bus1=BBT720829.2.3.0,bus2=RML1001000766.2.3.0,Phases=2,Linecode=CABBTG05_4_2_2,Length=0.029000000,Units=km
new line.RBT_1000773 bus1=BBT720836.1.2.0,bus2=RML1001000773.1.2.0,Phases=2,Linecode=CABBTG05_4_2_2,Length=0.029000000,Units=km
new line.RBT_1000780 bus1=BBT720836.1.2.0,bus2=RML1001000780.1.2.0,Phases=2,Linecode=CABBTG05_4_2_2,Length=0.029000000,Units=km
new line.RBT_1000787 bus1=BBT720836.1.2.0,bus2=RML1001000787.1.2.0,Phases=2,Linecode=CABBTG05_4_2_2,Length=0.029000000,Units=km
new line.RBT_1000794 bus1=BBT720836.1.2.0,bus2=RML1001000794.1.2.0,Phases=2,Linecode=CABBTG05_4_2_2,Length=0.029000000,Units=km
new line.RBT_1000801 bus1=BBT720836.2.0,bus2=RML1001000801.2.0,Phases=1,Linecode=CABBTG01_4_1_1,Length=0.029000000,Units=km
new line.RBT_1000808 bus1=BBT720836.1.2.0,bus2=RML1001000808.1.2.0,Phases=2,Linecode=CABBTG05_4_2_2,Length=0.029000000,Units=km
new line.RBT_1000815 bus1=BBT720836.1.2.0,bus2=RML1001000815.1.2.0,Phases=2,Linecode=CABBTG05_4_2_2,Length=0.029000000,Units=km
new line.RBT_1000822 bus1=BBT720836.2.3.0,bus2=RML1001000822.2.3.0,Phases=2,Linecode=CABBTG05_4_2_2,Length=0.029000000,Units=km
new line.RBT_1000829 bus1=BBT720843.2.3.0,bus2=RML1001000829.2.3.0,Phases=2,Linecode=CABBTG05_4_2_2,Length=0.029000000,Units=km
new line.RBT_1000836 bus1=BBT720843.2.3.0,bus2=RML1001000836.2.3.0,Phases=2,Linecode=CABBTG05_4_2_2,Length=0.029000000,Units=km
new line.RBT_1000843 bus1=BBT720850.2.3.0,bus2=RML1001000843.2.3.0,Phases=2,Linecode=CABBTG05_4_2_2,Length=0.029000000,Units=km
new line.RBT_1000850 bus1=BBT720850.1.0,bus2=RML1001000850.1.0,Phases=1,Linecode=CABBTG02_4_1_1,Length=0.029000000,Units=km
new line.RBT_1000857 bus1=BBT720850.2.3.0,bus2=RML1001000857.2.3.0,Phases=2,Linecode=CABBTG05_4_2_2,Length=0.029000000,Units=km
new line.RBT_1000864 bus1=BBT720850.1.2.0,bus2=RML1001000864.1.2.0,Phases=2,Linecode=CABBTG05_4_2_2,Length=0.029000000,Units=km
new line.RBT_1002145 bus1=BBT3595400.1.2.3.0,bus2=RML1001002145.1.2.3.0,Phases=3,Linecode=CABBTG06_4_3_3,Length=0.029000000,Units=km
new line.RBT_1002152 bus1=BBT3595400.1.2.0,bus2=RML1001002152.1.2.0,Phases=2,Linecode=CABBTG05_4_2_2,Length=0.029000000,Units=km
new line.RBT_1002187 bus1=BBT976399.1.2.0,bus2=RML1001002187.1.2.0,Phases=2,Linecode=CABBTG05_4_2_2,Length=0.029000000,Units=km
new line.RBT_1002194 bus1=BBT976399.3.0,bus2=RML1001002194.3.0,Phases=1,Linecode=CABBTG01_4_1_1,Length=0.029000000,Units=km
new line.RBT_1002201 bus1=BBT976399.1.2.0,bus2=RML1001002201.1.2.0,Phases=2,Linecode=CABBTG05_4_2_2,Length=0.029000000,Units=km
new line.RBT_1002208 bus1=BBT976399.3.0,bus2=RML1001002208.3.0,Phases=1,Linecode=CABBTG01_4_1_1,Length=0.029000000,Units=km
new line.RBT_1002215 bus1=BBT976399.1.2.0,bus2=RML1001002215.1.2.0,Phases=2,Linecode=CABBTG05_4_2_2,Length=0.029000000,Units=km
new line.RBT_1002488 bus1=BBT976518.1.0,bus2=RML1001002488.1.0,Phases=1,Linecode=CABBTG01_4_1_1,Length=0.029000000,Units=km
new line.RBT_1005813 bus1=BBT724042.1.2.0,bus2=RML1001005813.1.2.0,Phases=2,Linecode=CABBTG05_4_2_2,Length=0.029000000,Units=km
new line.RBT_1005820 bus1=BBT724112.1.2.0,bus2=RML1001005820.1.2.0,Phases=2,Linecode=CABBTG05_4_2_2,Length=0.029000000,Units=km
new line.RBT_1005827 bus1=BBT724063.1.2.0,bus2=RML1001005827.1.2.0,Phases=2,Linecode=CABBTG05_4_2_2,Length=0.029000000,Units=km
new line.RBT_1005834 bus1=BBT724063.1.2.0,bus2=RML1001005834.1.2.0,Phases=2,Linecode=CABBTG05_4_2_2,Length=0.029000000,Units=km
new line.RBT_1005841 bus1=BBT724056.1.0,bus2=RML1001005841.1.0,Phases=1,Linecode=CABBTG01_4_1_1,Length=0.029000000,Units=km
new line.RBT_1005848 bus1=BBT724063.1.0,bus2=RML1001005848.1.0,Phases=1,Linecode=CABBTG02_4_1_1,Length=0.029000000,Units=km
new line.RBT_1005855 bus1=BBT724063.1.2.0,bus2=RML1001005855.1.2.0,Phases=2,Linecode=CABBTG05_4_2_2,Length=0.029000000,Units=km
new line.RBT_1005862 bus1=BBT724077.3.0,bus2=RML1001005862.3.0,Phases=1,Linecode=CABBTG01_4_1_1,Length=0.029000000,Units=km
new line.RBT_1005869 bus1=BBT724077.3.0,bus2=RML1001005869.3.0,Phases=1,Linecode=CABBTG01_4_1_1,Length=0.029000000,Units=km
new line.RBT_1005876 bus1=BBT724077.1.2.0,bus2=RML1001005876.1.2.0,Phases=2,Linecode=CABBTG04_4_2_2,Length=0.029000000,Units=km
new line.RBT_1005883 bus1=BBT724077.2.3.0,bus2=RML1001005883.2.3.0,Phases=2,Linecode=CABBTG05_4_2_2,Length=0.029000000,Units=km
new line.RBT_1005890 bus1=BBT724084.1.2.0,bus2=RML1001005890.1.2.0,Phases=2,Linecode=CABBTG05_4_2_2,Length=0.029000000,Units=km
new line.RBT_1005897 bus1=BBT724119.1.2.0,bus2=RML1001005897.1.2.0,Phases=2,Linecode=CABBTG05_4_2_2,Length=0.029000000,Units=km
new line.RBT_1005904 bus1=BBT724119.2.0,bus2=RML1001005904.2.0,Phases=1,Linecode=CABBTG01_4_1_1,Length=0.029000000,Units=km
new line.RBT_1005911 bus1=BBT724119.2.0,bus2=RML1001005911.2.0,Phases=1,Linecode=CABBTG01_4_1_1,Length=0.029000000,Units=km
new line.RBT_1005918 bus1=BBT724126.1.0,bus2=RML1001005918.1.0,Phases=1,Linecode=CABBTG01_4_1_1,Length=0.029000000,Units=km
new line.RBT_1005932 bus1=BBT724133.2.3.0,bus2=RML1001005932.2.3.0,Phases=2,Linecode=CABBTG05_4_2_2,Length=0.029000000,Units=km
new line.RBT_1005939 bus1=BBT4009891.1.0,bus2=RML1001005939.1.0,Phases=1,Linecode=CABBTG01_4_1_1,Length=0.029000000,Units=km
new line.RBT_1005946 bus1=BBT724021.1.2.0,bus2=RML1001005946.1.2.0,Phases=2,Linecode=CABBTG05_4_2_2,Length=0.029000000,Units=km
new line.RBT_1005953 bus1=BBT724021.2.0,bus2=RML1001005953.2.0,Phases=1,Linecode=CABBTG01_4_1_1,Length=0.029000000,Units=km
new line.RBT_1005960 bus1=BBT4009891.1.2.0,bus2=RML1001005960.1.2.0,Phases=2,Linecode=CABBTG05_4_2_2,Length=0.029000000,Units=km
new line.RBT_1005967 bus1=BBT4009891.1.2.0,bus2=RML1001005967.1.2.0,Phases=2,Linecode=CABBTG05_4_2_2,Length=0.029000000,Units=km
new line.RBT_1005974 bus1=BBT724147.1.0,bus2=RML1001005974.1.0,Phases=1,Linecode=CABBTG01_4_1_1,Length=0.029000000,Units=km
new line.RBT_1005981 bus1=BBT724154.1.0,bus2=RML1001005981.1.0,Phases=1,Linecode=CABBTG01_4_1_1,Length=0.029000000,Units=km
new line.RBT_1005988 bus1=BBT724161.2.0,bus2=RML1001005988.2.0,Phases=1,Linecode=CABBTG01_4_1_1,Length=0.029000000,Units=km
new line.RBT_1005995 bus1=BBT724161.3.1.0,bus2=RML1001005995.3.1.0,Phases=2,Linecode=CABBTG05_4_2_2,Length=0.029000000,Units=km
new line.RBT_1006002 bus1=BBT724161.1.2.0,bus2=RML1001006002.1.2.0,Phases=2,Linecode=CABBTG05_4_2_2,Length=0.029000000,Units=km
new line.RBT_1006009 bus1=BBT4009884.2.0,bus2=RML1001006009.2.0,Phases=1,Linecode=CABBTG01_4_1_1,Length=0.029000000,Units=km
new line.RBT_1006016 bus1=BBT4009884.1.0,bus2=RML1001006016.1.0,Phases=1,Linecode=CABBTG01_4_1_1,Length=0.029000000,Units=km
new line.RBT_1006023 bus1=BBT724168.2.3.0,bus2=RML1001006023.2.3.0,Phases=2,Linecode=CABBTG05_4_2_2,Length=0.029000000,Units=km
new line.RBT_1000871 bus1=BBT720850.3.1.0,bus2=RML1001000871.3.1.0,Phases=2,Linecode=CABBTG05_4_2_2,Length=0.029000000,Units=km
new line.RBT_1000878 bus1=BBT720850.1.2.0,bus2=RML1001000878.1.2.0,Phases=2,Linecode=CABBTG05_4_2_2,Length=0.029000000,Units=km
new line.RBT_1000885 bus1=BBT720850.3.1.0,bus2=RML1001000885.3.1.0,Phases=2,Linecode=CABBTG05_4_2_2,Length=0.029000000,Units=km
new line.RBT_1000892 bus1=BBT720850.1.2.0,bus2=RML1001000892.1.2.0,Phases=2,Linecode=CABBTG05_4_2_2,Length=0.029000000,Units=km
new line.RBT_1000899 bus1=BBT720857.3.1.0,bus2=RML1001000899.3.1.0,Phases=2,Linecode=CABBTG05_4_2_2,Length=0.029000000,Units=km
new line.RBT_1000906 bus1=BBT720857.1.2.0,bus2=RML1001000906.1.2.0,Phases=2,Linecode=CABBTG05_4_2_2,Length=0.029000000,Units=km
new line.RBT_1000913 bus1=BBT720857.1.2.0,bus2=RML1001000913.1.2.0,Phases=2,Linecode=CABBTG05_4_2_2,Length=0.029000000,Units=km
new line.RBT_1000920 bus1=BBT720864.2.3.0,bus2=RML1001000920.2.3.0,Phases=2,Linecode=CABBTG05_4_2_2,Length=0.029000000,Units=km
new line.RBT_1000927 bus1=BBT720864.1.2.0,bus2=RML1001000927.1.2.0,Phases=2,Linecode=CABBTG05_4_2_2,Length=0.029000000,Units=km
new line.RBT_1000934 bus1=BBT720864.2.3.0,bus2=RML1001000934.2.3.0,Phases=2,Linecode=CABBTG05_4_2_2,Length=0.029000000,Units=km
new line.RBT_1000941 bus1=BBT720864.1.2.0,bus2=RML1001000941.1.2.0,Phases=2,Linecode=CABBTG05_4_2_2,Length=0.029000000,Units=km
new line.RBT_1000948 bus1=BBT720871.3.1.0,bus2=RML1001000948.3.1.0,Phases=2,Linecode=CABBTG05_4_2_2,Length=0.029000000,Units=km
new line.RBT_1000955 bus1=BBT720878.2.3.0,bus2=RML1001000955.2.3.0,Phases=2,Linecode=CABBTG05_4_2_2,Length=0.029000000,Units=km
new line.RBT_1000962 bus1=BBT720878.1.2.0,bus2=RML1001000962.1.2.0,Phases=2,Linecode=CABBTG05_4_2_2,Length=0.029000000,Units=km
new line.RBT_1000969 bus1=BBT720878.2.3.0,bus2=RML1001000969.2.3.0,Phases=2,Linecode=CABBTG05_4_2_2,Length=0.029000000,Units=km
new line.RBT_1000976 bus1=BBT720878.1.2.0,bus2=RML1001000976.1.2.0,Phases=2,Linecode=CABBTG05_4_2_2,Length=0.029000000,Units=km
new line.RBT_1000983 bus1=BBT720885.1.2.0,bus2=RML1001000983.1.2.0,Phases=2,Linecode=CABBTG05_4_2_2,Length=0.029000000,Units=km
new line.RBT_1000990 bus1=BBT3446090.2.3.0,bus2=RML1001000990.2.3.0,Phases=2,Linecode=CABBTG05_4_2_2,Length=0.029000000,Units=km
new line.RBT_1000997 bus1=BBT3446090.2.3.0,bus2=RML1001000997.2.3.0,Phases=2,Linecode=CABBTG05_4_2_2,Length=0.029000000,Units=km
new line.RBT_1001004 bus1=BBT3446090.1.2.0,bus2=RML1001001004.1.2.0,Phases=2,Linecode=CABBTG05_4_2_2,Length=0.029000000,Units=km
new line.RBT_1001011 bus1=BBT3446090.2.3.0,bus2=RML1001001011.2.3.0,Phases=2,Linecode=CABBTG05_4_2_2,Length=0.029000000,Units=km
new line.RBT_1001018 bus1=BBT3446090.1.2.3.0,bus2=RML1001001018.1.2.3.0,Phases=3,Linecode=CABBTG07_4_3_3,Length=0.029000000,Units=km
new line.RBT_1001025 bus1=BBT720899.1.2.0,bus2=RML1001001025.1.2.0,Phases=2,Linecode=CABBTG05_4_2_2,Length=0.029000000,Units=km
new line.RBT_1001032 bus1=BBT720899.1.2.0,bus2=RML1001001032.1.2.0,Phases=2,Linecode=CABBTG05_4_2_2,Length=0.029000000,Units=km
new line.RBT_1001039 bus1=BBT720906.2.3.0,bus2=RML1001001039.2.3.0,Phases=2,Linecode=CABBTG05_4_2_2,Length=0.029000000,Units=km
new line.RBT_1001046 bus1=BBT720906.1.2.0,bus2=RML1001001046.1.2.0,Phases=2,Linecode=CABBTG13_4_2_2,Length=0.029000000,Units=km
new line.RBT_1001053 bus1=BBT720913.2.3.0,bus2=RML1001001053.2.3.0,Phases=2,Linecode=CABBTG05_4_2_2,Length=0.029000000,Units=km
new line.RBT_1001060 bus1=BBT720913.1.2.0,bus2=RML1001001060.1.2.0,Phases=2,Linecode=CABBTG05_4_2_2,Length=0.029000000,Units=km
new line.RBT_1001067 bus1=BBT720913.1.2.0,bus2=RML1001001067.1.2.0,Phases=2,Linecode=CABBTG05_4_2_2,Length=0.029000000,Units=km
new line.RBT_1001074 bus1=BBT720913.2.3.0,bus2=RML1001001074.2.3.0,Phases=2,Linecode=CABBTG05_4_2_2,Length=0.029000000,Units=km
new line.RBT_1001081 bus1=BBT720920.1.2.0,bus2=RML1001001081.1.2.0,Phases=2,Linecode=CABBTG05_4_2_2,Length=0.029000000,Units=km
new line.RBT_1001088 bus1=BBT720920.1.2.0,bus2=RML1001001088.1.2.0,Phases=2,Linecode=CABBTG05_4_2_2,Length=0.029000000,Units=km
new line.RBT_1001095 bus1=BBT720927.1.2.0,bus2=RML1001001095.1.2.0,Phases=2,Linecode=CABBTG05_4_2_2,Length=0.029000000,Units=km
new line.RBT_1001102 bus1=BBT720927.2.0,bus2=RML1001001102.2.0,Phases=1,Linecode=CABBTG01_4_1_1,Length=0.029000000,Units=km
new line.RBT_10071262 bus1=BBT140805032.2.0,bus2=RML1010071262.2.0,Phases=1,Linecode=CABBTG02_4_1_1,Length=0.029000000,Units=km
new line.RBT_10071264 bus1=BBT140805165.1.2.0,bus2=RML1010071264.1.2.0,Phases=2,Linecode=CABBTG13_4_2_2,Length=0.013000000,Units=km
new line.RBT_10071266 bus1=BBT140789912.1.2.0,bus2=RML1010071266.1.2.0,Phases=2,Linecode=CABBTG04_4_2_2,Length=0.010000000,Units=km
new line.RBT_10071268 bus1=BBT140800188.1.2.0,bus2=RML1010071268.1.2.0,Phases=2,Linecode=CABBTG04_4_2_2,Length=0.008000000,Units=km
new line.RBT_10071269 bus1=BBT140805256.2.0,bus2=RML1010071269.2.0,Phases=1,Linecode=CABBTG03_4_1_1,Length=0.029000000,Units=km
new line.RBT_10071274 bus1=BBT103537599.1.2.0,bus2=RML1010071274.1.2.0,Phases=2,Linecode=CABBTG05_4_2_2,Length=0.029000000,Units=km
new line.RBT_10071276 bus1=BBT140804122.1.0,bus2=RML1010071276.1.0,Phases=1,Linecode=CABBTG02_4_1_1,Length=0.029000000,Units=km
new line.RBT_10071279 bus1=BBT140799397.1.0,bus2=RML1010071279.1.0,Phases=1,Linecode=CABBTG03_4_1_1,Length=0.029000000,Units=km
new line.RBT_10071288 bus1=BBT140804171.1.0,bus2=RML1010071288.1.0,Phases=1,Linecode=CABBTG02_4_1_1,Length=0.014000000,Units=km
new line.RBT_10071291 bus1=BBT140805032.3.0,bus2=RML1010071291.3.0,Phases=1,Linecode=CABBTG02_4_1_1,Length=0.029000000,Units=km
new line.RBT_10071303 bus1=BBT140802743.3.0,bus2=RML1010071303.3.0,Phases=1,Linecode=CABBTG02_4_1_1,Length=0.029000000,Units=km
new line.RBT_10071306 bus1=BBT140805249.2.0,bus2=RML1010071306.2.0,Phases=1,Linecode=CABBTG02_4_1_1,Length=0.029000000,Units=km
new line.RBT_10071309 bus1=BBT140793909.1.2.0,bus2=RML1010071309.1.2.0,Phases=2,Linecode=CABBTG05_4_2_2,Length=0.029000000,Units=km
new line.RBT_10071313 bus1=BBT140805249.2.0,bus2=RML1010071313.2.0,Phases=1,Linecode=CABBTG02_4_1_1,Length=0.029000000,Units=km
new line.RBT_10071315 bus1=BBT140804297.1.0,bus2=RML1010071315.1.0,Phases=1,Linecode=CABBTG02_4_1_1,Length=0.010000000,Units=km
new line.RBT_10071318 bus1=BBT140804871.1.0,bus2=RML1010071318.1.0,Phases=1,Linecode=CABBTG02_4_1_1,Length=0.010000000,Units=km
new line.RBT_10071319 bus1=BBT140804871.1.0,bus2=RML1010071319.1.0,Phases=1,Linecode=CABBTG02_4_1_1,Length=0.029000000,Units=km
new line.RBT_10071321 bus1=BBT140802743.1.2.0,bus2=RML1010071321.1.2.0,Phases=2,Linecode=CABBTG05_4_2_2,Length=0.020000000,Units=km
new line.RBT_10071324 bus1=BBT103580803.1.2.0,bus2=RML1010071324.1.2.0,Phases=2,Linecode=CABBTG05_4_2_2,Length=0.020000000,Units=km
new line.RBT_10071326 bus1=BBT140793902.1.2.0,bus2=RML1010071326.1.2.0,Phases=2,Linecode=CABBTG05_4_2_2,Length=0.029000000,Units=km
new line.RBT_10071327 bus1=BBT140793132.1.2.0,bus2=RML1010071327.1.2.0,Phases=2,Linecode=CABBTG13_4_2_2,Length=0.008000000,Units=km
new line.RBT_10071328 bus1=BBT140804297.1.0,bus2=RML1010071328.1.0,Phases=1,Linecode=CABBTG03_4_1_1,Length=0.029000000,Units=km
new line.RBT_10071329 bus1=BBT140791438.1.0,bus2=RML1010071329.1.0,Phases=1,Linecode=CABBTG02_4_1_1,Length=0.029000000,Units=km
new line.RBT_10071330 bus1=BBT140801847.2.0,bus2=RML1010071330.2.0,Phases=1,Linecode=CABBTG03_4_1_1,Length=0.029000000,Units=km
new line.RBT_10071331 bus1=BBT103581559.2.3.0,bus2=RML1010071331.2.3.0,Phases=2,Linecode=CABBTG05_4_2_2,Length=0.009000000,Units=km
new line.RBT_10071332 bus1=BBT140794126.3.1.0,bus2=RML1010071332.3.1.0,Phases=2,Linecode=CABBTG05_4_2_2,Length=0.007000000,Units=km
new line.RBT_10071333 bus1=BBT103581524.1.2.0,bus2=RML1010071333.1.2.0,Phases=2,Linecode=CABBTG05_4_2_2,Length=0.009000000,Units=km
new line.RBT_10071335 bus1=BBT140794098.1.0,bus2=RML1010071335.1.0,Phases=1,Linecode=CABBTG03_4_1_1,Length=0.010000000,Units=km
new line.RBT_10071420 bus1=BBT140791949.1.0,bus2=RML1010071420.1.0,Phases=1,Linecode=CABBTG02_4_1_1,Length=0.029000000,Units=km
new line.RBT_10071423 bus1=BBT140793090.1.0,bus2=RML1010071423.1.0,Phases=1,Linecode=CABBTG02_4_1_1,Length=0.029000000,Units=km
new line.RBT_10071429 bus1=BBT140791417.1.2.3.0,bus2=RML1010071429.1.2.3.0,Phases=3,Linecode=CABBTG06_4_3_3,Length=0.012000000,Units=km
new line.RBT_10071434 bus1=BBT140802554.3.0,bus2=RML1010071434.3.0,Phases=1,Linecode=CABBTG03_4_1_1,Length=0.012000000,Units=km
new line.RBT_10071442 bus1=BBT140794189.1.2.0,bus2=RML1010071442.1.2.0,Phases=2,Linecode=CABBTG05_4_2_2,Length=0.012000000,Units=km
new line.RBT_10071448 bus1=BBT140793671.1.2.3.0,bus2=RML1010071448.1.2.3.0,Phases=3,Linecode=CABBTG06_4_3_3,Length=0.014000000,Units=km
new line.RBT_10071450 bus1=BBT140791417.1.2.3.0,bus2=RML1010071450.1.2.3.0,Phases=3,Linecode=CABBTG06_4_3_3,Length=0.013000000,Units=km
new line.RBT_10071453 bus1=BBT140805165.1.2.0,bus2=RML1010071453.1.2.0,Phases=2,Linecode=CABBTG05_4_2_2,Length=0.010000000,Units=km
new line.RBT_10071457 bus1=BBT140804115.1.2.0,bus2=RML1010071457.1.2.0,Phases=2,Linecode=CABBTG05_4_2_2,Length=0.029000000,Units=km
new line.RBT_10071462 bus1=BBT140805158.1.2.0,bus2=RML1010071462.1.2.0,Phases=2,Linecode=CABBTG05_4_2_2,Length=0.029000000,Units=km
new line.RBT_10071472 bus1=BBT140793076.1.2.3.0,bus2=RML1010071472.1.2.3.0,Phases=3,Linecode=CABBTG06_4_3_3,Length=0.020000000,Units=km
new line.RBT_10071474 bus1=BBT140790129.1.2.0,bus2=RML1010071474.1.2.0,Phases=2,Linecode=CABBTG05_4_2_2,Length=0.020000000,Units=km
new line.RBT_10071477 bus1=BBT140792817.1.2.0,bus2=RML1010071477.1.2.0,Phases=2,Linecode=CABBTG05_4_2_2,Length=0.020000000,Units=km
new line.RBT_10071479 bus1=BBT140790129.2.0,bus2=RML1010071479.2.0,Phases=1,Linecode=CABBTG02_4_1_1,Length=0.020000000,Units=km
new line.RBT_10071481 bus1=BBT140792817.1.2.0,bus2=RML1010071481.1.2.0,Phases=2,Linecode=CABBTG05_4_2_2,Length=0.029000000,Units=km
new line.RBT_10071485 bus1=BBT140793076.1.0,bus2=RML1010071485.1.0,Phases=1,Linecode=CABBTG02_4_1_1,Length=0.010000000,Units=km
new line.RBT_10071488 bus1=BBT140793076.1.0,bus2=RML1010071488.1.0,Phases=1,Linecode=CABBTG02_4_1_1,Length=0.010000000,Units=km
new line.RBT_10071491 bus1=BBT140792817.3.0,bus2=RML1010071491.3.0,Phases=1,Linecode=CABBTG02_4_1_1,Length=0.020000000,Units=km
new line.RBT_10071493 bus1=BBT140793076.2.0,bus2=RML1010071493.2.0,Phases=1,Linecode=CABBTG02_4_1_1,Length=0.020000000,Units=km
new line.RBT_10071494 bus1=BBT140793090.1.2.0,bus2=RML1010071494.1.2.0,Phases=2,Linecode=CABBTG05_4_2_2,Length=0.020000000,Units=km
new line.RBT_10071497 bus1=BBT140789912.1.0,bus2=RML1010071497.1.0,Phases=1,Linecode=CABBTG02_4_1_1,Length=0.008000000,Units=km
new line.RBT_10071500 bus1=BBT140802743.1.0,bus2=RML1010071500.1.0,Phases=1,Linecode=CABBTG02_4_1_1,Length=0.029000000,Units=km
new line.RBT_10071506 bus1=BBT140794098.1.0,bus2=RML1010071506.1.0,Phases=1,Linecode=CABBTG02_4_1_1,Length=0.029000000,Units=km
new line.RBT_10071509 bus1=BBT140789821.1.0,bus2=RML1010071509.1.0,Phases=1,Linecode=CABBTG02_4_1_1,Length=0.029000000,Units=km
new line.RBT_10071511 bus1=BBT140794119.1.2.0,bus2=RML1010071511.1.2.0,Phases=2,Linecode=CABBTG04_4_2_2,Length=0.010000000,Units=km
new line.RBT_10071517 bus1=BBT103539216.1.2.0,bus2=RML1010071517.1.2.0,Phases=2,Linecode=CABBTG05_4_2_2,Length=0.016000000,Units=km
new line.RBT_10071519 bus1=BBT103537599.1.2.0,bus2=RML1010071519.1.2.0,Phases=2,Linecode=CABBTG05_4_2_2,Length=0.013000000,Units=km
new line.RBT_10071521 bus1=BBT103539216.1.2.0,bus2=RML1010071521.1.2.0,Phases=2,Linecode=CABBTG05_4_2_2,Length=0.017000000,Units=km
new line.RBT_10071522 bus1=BBT140802743.1.2.0,bus2=RML1010071522.1.2.0,Phases=2,Linecode=CABBTG05_4_2_2,Length=0.010000000,Units=km
new line.RBT_10071523 bus1=BBT140790017.1.2.0,bus2=RML1010071523.1.2.0,Phases=2,Linecode=CABBTG05_4_2_2,Length=0.013000000,Units=km
new line.RBT_10071524 bus1=BBT140791949.3.1.0,bus2=RML1010071524.3.1.0,Phases=2,Linecode=CABBTG05_4_2_2,Length=0.015000000,Units=km
new line.RBT_10071529 bus1=BBT103581524.3.1.0,bus2=RML1010071529.3.1.0,Phases=2,Linecode=CABBTG05_4_2_2,Length=0.017000000,Units=km
new line.RBT_10071533 bus1=BBT140800188.1.2.0,bus2=RML1010071533.1.2.0,Phases=2,Linecode=CABBTG05_4_2_2,Length=0.029000000,Units=km
new line.RBT_10071536 bus1=BBT140802743.1.2.0,bus2=RML1010071536.1.2.0,Phases=2,Linecode=CABBTG13_4_2_2,Length=0.010000000,Units=km
new line.RBT_10071538 bus1=BBT140802743.1.2.0,bus2=RML1010071538.1.2.0,Phases=2,Linecode=CABBTG13_4_2_2,Length=0.029000000,Units=km
new line.RBT_10071540 bus1=BBT140804115.1.2.0,bus2=RML1010071540.1.2.0,Phases=2,Linecode=CABBTG13_4_2_2,Length=0.029000000,Units=km
new line.RBT_10071593 bus1=BBT103580859.1.2.0,bus2=RML1010071593.1.2.0,Phases=2,Linecode=CABBTG05_4_2_2,Length=0.011000000,Units=km
new line.RBT_10071594 bus1=BBT140800839.1.2.0,bus2=RML1010071594.1.2.0,Phases=2,Linecode=CABBTG05_4_2_2,Length=0.029000000,Units=km
new line.RBT_10071598 bus1=BBT103581559.1.2.0,bus2=RML1010071598.1.2.0,Phases=2,Linecode=CABBTG05_4_2_2,Length=0.029000000,Units=km
new line.RBT_10071602 bus1=BBT140794189.2.3.0,bus2=RML1010071602.2.3.0,Phases=2,Linecode=CABBTG05_4_2_2,Length=0.009000000,Units=km
new line.RBT_10071603 bus1=BBT140794098.1.0,bus2=RML1010071603.1.0,Phases=1,Linecode=CABBTG02_4_1_1,Length=0.029000000,Units=km
new line.RBT_10071605 bus1=BBT140794119.1.0,bus2=RML1010071605.1.0,Phases=1,Linecode=CABBTG02_4_1_1,Length=0.029000000,Units=km
new line.RBT_10071608 bus1=BBT140790017.1.0,bus2=RML1010071608.1.0,Phases=1,Linecode=CABBTG02_4_1_1,Length=0.029000000,Units=km
new line.RBT_10071610 bus1=BBT140791921.2.0,bus2=RML1010071610.2.0,Phases=1,Linecode=CABBTG02_4_1_1,Length=0.010000000,Units=km
new line.RBT_10071611 bus1=BBT140790017.2.0,bus2=RML1010071611.2.0,Phases=1,Linecode=CABBTG02_4_1_1,Length=0.029000000,Units=km
new line.RBT_10071613 bus1=BBT140794098.1.2.0,bus2=RML1010071613.1.2.0,Phases=2,Linecode=CABBTG05_4_2_2,Length=0.012000000,Units=km
new line.RBT_10071616 bus1=BBT140794119.2.3.0,bus2=RML1010071616.2.3.0,Phases=2,Linecode=CABBTG05_4_2_2,Length=0.017000000,Units=km
new line.RBT_10071620 bus1=BBT140793895.2.0,bus2=RML1010071620.2.0,Phases=1,Linecode=CABBTG02_4_1_1,Length=0.029000000,Units=km
new line.RBT_10071623 bus1=BBT140794189.1.2.0,bus2=RML1010071623.1.2.0,Phases=2,Linecode=CABBTG05_4_2_2,Length=0.030000000,Units=km
new line.RBT_10071624 bus1=BBT140794098.1.0,bus2=RML1010071624.1.0,Phases=1,Linecode=CABBTG02_4_1_1,Length=0.009000000,Units=km
new line.RBT_10071625 bus1=BBT103537599.1.0,bus2=RML1010071625.1.0,Phases=1,Linecode=CABBTG02_4_1_1,Length=0.029000000,Units=km
new line.RBT_10071628 bus1=BBT140791438.1.0,bus2=RML1010071628.1.0,Phases=1,Linecode=CABBTG02_4_1_1,Length=0.011000000,Units=km
new line.RBT_10071630 bus1=BBT140790129.1.2.3.0,bus2=RML1010071630.1.2.3.0,Phases=3,Linecode=CABBTG06_4_3_3,Length=0.008000000,Units=km
new line.RBT_10071634 bus1=BBT140791417.3.0,bus2=RML1010071634.3.0,Phases=1,Linecode=CABBTG02_4_1_1,Length=0.029000000,Units=km
new line.RBT_10071635 bus1=BBT103559180.1.0,bus2=RML1010071635.1.0,Phases=1,Linecode=CABBTG02_4_1_1,Length=0.006000000,Units=km
new line.RBT_10071637 bus1=BBT140794168.1.2.0,bus2=RML1010071637.1.2.0,Phases=2,Linecode=CABBTG05_4_2_2,Length=0.009000000,Units=km
new line.RBT_10071641 bus1=BBT103580838.3.0,bus2=RML1010071641.3.0,Phases=1,Linecode=CABBTG02_4_1_1,Length=0.029000000,Units=km
new line.RBT_10071646 bus1=BBT103581524.3.0,bus2=RML1010071646.3.0,Phases=1,Linecode=CABBTG02_4_1_1,Length=0.029000000,Units=km
new line.RBT_10071648 bus1=BBT103580838.1.2.0,bus2=RML1010071648.1.2.0,Phases=2,Linecode=CABBTG05_4_2_2,Length=0.029000000,Units=km
new line.RBT_10071658 bus1=BBT140804115.2.0,bus2=RML1010071658.2.0,Phases=1,Linecode=CABBTG02_4_1_1,Length=0.029000000,Units=km
new line.RBT_10071666 bus1=BBT140805151.2.0,bus2=RML1010071666.2.0,Phases=1,Linecode=CABBTG02_4_1_1,Length=0.009000000,Units=km
new line.RBT_10071672 bus1=BBT103580859.1.2.0,bus2=RML1010071672.1.2.0,Phases=2,Linecode=CABBTG05_4_2_2,Length=0.013000000,Units=km
new line.RBT_10071674 bus1=BBT140802519.1.2.0,bus2=RML1010071674.1.2.0,Phases=2,Linecode=CABBTG13_4_2_2,Length=0.012000000,Units=km
new line.RBT_10071792 bus1=BBT140802519.2.0,bus2=RML1010071792.2.0,Phases=1,Linecode=CABBTG02_4_1_1,Length=0.010000000,Units=km
new line.RBT_10071904 bus1=BBT149091488.1.2.0,bus2=RML1010071904.1.2.0,Phases=2,Linecode=CABBT808_4_2_2,Length=0.010000000,Units=km
new line.RBT_10072056 bus1=BBT146353673.3.1.0,bus2=RML1010072056.3.1.0,Phases=2,Linecode=CABBTG05_4_2_2,Length=0.012000000,Units=km
new line.RBT_10072058 bus1=BBT140805200.1.2.0,bus2=RML1010072058.1.2.0,Phases=2,Linecode=CABBTG13_4_2_2,Length=0.012000000,Units=km
new line.RBT_10072059 bus1=BBT140793076.3.1.0,bus2=RML1010072059.3.1.0,Phases=2,Linecode=CABBTG05_4_2_2,Length=0.016000000,Units=km
new line.RBT_10072077 bus1=BBT103539216.2.0,bus2=RML1010072077.2.0,Phases=1,Linecode=CABBTG02_4_1_1,Length=0.029000000,Units=km
new line.RBT_10072078 bus1=BBT140801847.2.0,bus2=RML1010072078.2.0,Phases=1,Linecode=CABBTG02_4_1_1,Length=0.029000000,Units=km
new line.RBT_10072079 bus1=BBT140794119.3.0,bus2=RML1010072079.3.0,Phases=1,Linecode=CABBTG02_4_1_1,Length=0.029000000,Units=km
new line.RBT_10072081 bus1=BBT140802519.3.0,bus2=RML1010072081.3.0,Phases=1,Linecode=CABBTG02_4_1_1,Length=0.015000000,Units=km
new line.RBT_10072086 bus1=BBT140804836.1.0,bus2=RML1010072086.1.0,Phases=1,Linecode=CABBTG02_4_1_1,Length=0.010000000,Units=km
new line.RBT_10072087 bus1=BBT140804836.2.0,bus2=RML1010072087.2.0,Phases=1,Linecode=CABBTG02_4_1_1,Length=0.015000000,Units=km
new line.RBT_10072090 bus1=BBT140804122.1.2.0,bus2=RML1010072090.1.2.0,Phases=2,Linecode=CABBTG13_4_2_2,Length=0.010000000,Units=km
new line.RBT_10072091 bus1=BBT140792817.1.2.0,bus2=RML1010072091.1.2.0,Phases=2,Linecode=CABBTG05_4_2_2,Length=0.015000000,Units=km
new line.RBT_10072095 bus1=BBT146354317.1.2.0,bus2=RML1010072095.1.2.0,Phases=2,Linecode=CABBTG04_4_2_2,Length=0.030000000,Units=km
new line.RBT_10072096 bus1=BBT140793041.2.0,bus2=RML1010072096.2.0,Phases=1,Linecode=CABBTG02_4_1_1,Length=0.029000000,Units=km
new line.RBT_10072098 bus1=BBT140793041.1.2.3.0,bus2=RML1010072098.1.2.3.0,Phases=3,Linecode=CABBTG06_4_3_3,Length=0.020000000,Units=km
new line.RBT_10072100 bus1=BBT140792250.2.0,bus2=RML1010072100.2.0,Phases=1,Linecode=CABBTG02_4_1_1,Length=0.020000000,Units=km
new line.RBT_10072103 bus1=BBT140792250.3.0,bus2=RML1010072103.3.0,Phases=1,Linecode=CABBTG02_4_1_1,Length=0.020000000,Units=km
new line.RBT_10072104 bus1=BBT140792306.3.0,bus2=RML1010072104.3.0,Phases=1,Linecode=CABBTG01_4_1_1,Length=0.010000000,Units=km
new line.RBT_10072105 bus1=BBT140792250.3.0,bus2=RML1010072105.3.0,Phases=1,Linecode=CABBTG02_4_1_1,Length=0.020000000,Units=km
new line.RBT_10072106 bus1=BBT140792201.1.0,bus2=RML1010072106.1.0,Phases=1,Linecode=CABBTG02_4_1_1,Length=0.020000000,Units=km
new line.RBT_10072108 bus1=BBT140792306.1.0,bus2=RML1010072108.1.0,Phases=1,Linecode=CABBTG02_4_1_1,Length=0.029000000,Units=km
new line.RBT_10072109 bus1=BBT140792348.1.0,bus2=RML1010072109.1.0,Phases=1,Linecode=CABBTG02_4_1_1,Length=0.029000000,Units=km
new line.RBT_10072110 bus1=BBT140793272.2.0,bus2=RML1010072110.2.0,Phases=1,Linecode=CABBTG02_4_1_1,Length=0.020000000,Units=km
new line.RBT_1006030 bus1=BBT724189.2.0,bus2=RML1001006030.2.0,Phases=1,Linecode=CABBTG01_4_1_1,Length=0.029000000,Units=km
new line.RBT_1006037 bus1=BBT724196.2.0,bus2=RML1001006037.2.0,Phases=1,Linecode=CABBTG01_4_1_1,Length=0.029000000,Units=km
new line.RBT_10061309 bus1=BBT29189143.2.3.0,bus2=RML1010061309.2.3.0,Phases=2,Linecode=CABBTG05_4_2_2,Length=0.012000000,Units=km
new line.RBT_10094491 bus1=BBT976518.1.2.3.0,bus2=RML1010094491.1.2.3.0,Phases=3,Linecode=CABBTG06_4_3_3,Length=0.029000000,Units=km
new line.RBT_10118094 bus1=BBT140805207.2.0,bus2=RML1010118094.2.0,Phases=1,Linecode=CABBTG02_4_1_1,Length=0.029000000,Units=km
new line.RBT_10118296 bus1=BBT3079850.2.3.0,bus2=RML1010118296.2.3.0,Phases=2,Linecode=CABBTG05_4_2_2,Length=0.023000000,Units=km
new line.RBT_10118628 bus1=BBT933440.1.2.3.0,bus2=RML1010118628.1.2.3.0,Phases=3,Linecode=CABBTG06_4_3_3,Length=0.025000000,Units=km