new line.CTR147214 bus1=BMT124598044.3,bus2=BMT176310552.3,Phases=1,LineCode=tieSwitch1,Length=0.001,Units=km,switch=T !numEQ NUMEQ:137273  - Data de conexão anterior06/2011.
new line.CTR16083 bus1=BMT124602776.2,bus2=BMT168406348.2,Phases=1,LineCode=tieSwitch1,Length=0.001,Units=km,switch=T !numEQ NUMEQ:117175  - Data de conexão anterior06/2011.
new line.CTR160955 bus1=BMT124596826.1.2.3,bus2=BMT124596840.1.2.3,Phases=3,LineCode=tieSwitch,Length=0.001,Units=km,switch=T !numEQ NUMEQ:118085  - Data de conexão anterior06/2011.
new line.CTR209080 bus1=BMT124591674.1.2.3,bus2=BMT124594334.1.2.3,Phases=3,LineCode=tieSwitch,Length=0.001,Units=km,switch=T !numEQ NUMEQ:188354  - Data de conexão anterior06/2011.
new line.CTR209542 bus1=BMT124596343.1,bus2=BMT124596392.1,Phases=1,LineCode=tieSwitch1,Length=0.001,Units=km,switch=T !numEQ NUMEQ:141294  - Data de conexão anterior06/2011.
new line.CTR209738 bus1=BMT124591765.1.2.3,bus2=BMT124591772.1.2.3,Phases=3,LineCode=tieSwitch,Length=0.001,Units=km,switch=T !numEQ NUMEQ:47931  - Data de conexão anterior06/2011.
new line.CTR209766 bus1=BMT124591758.1.2.3,bus2=BMT124591779.1.2.3,Phases=3,LineCode=tieSwitch,Length=0.001,Units=km,switch=T !numEQ NUMEQ:170383  - Data de conexão anterior06/2011.
new line.CTR209808 bus1=BMT124590218.1.2.3,bus2=BMT124590225.1.2.3,Phases=3,LineCode=tieSwitch,Length=0.001,Units=km,switch=T !numEQ NUMEQ:48502  - Data de conexão anterior06/2011.
new line.CTR209871 bus1=BMT124586172.1.2.3,bus2=BMT165199509.1.2.3,Phases=3,LineCode=tieSwitch,Length=0.001,Units=km,switch=T !numEQ NUMEQ:259126  - Data de conexão anterior06/2011.
new line.CTR209878 bus1=BMT124586284.1.2.3,bus2=BMT124589987.1.2.3,Phases=3,LineCode=tieSwitch,Length=0.001,Units=km,switch=T !numEQ NUMEQ:259129  - Data de conexão anterior06/2011.
new line.CTR209885 bus1=BMT175113380.3,bus2=BMT175113384.3,Phases=1,LineCode=tieSwitch1,Length=0.001,Units=km,switch=T !numEQ NUMEQ:269334  - Data de conexão anterior06/2011.
new line.CTR209892 bus1=BMT124604512.3,bus2=BMT124604862.3,Phases=1,LineCode=tieSwitch1,Length=0.001,Units=km,switch=T !numEQ NUMEQ:56746  - Data de conexão anterior06/2011.
new line.CTR209899 bus1=BMT124590288.1.2.3,bus2=BMT124604904.1.2.3,Phases=3,LineCode=tieSwitch,Length=0.001,Units=km,switch=T !numEQ NUMEQ:56745  - Data de conexão anterior06/2011.
new line.CTR209913 bus1=BMT124590407.1.2.3,bus2=BMT177086336.1.2.3,Phases=3,LineCode=tieSwitch,Length=0.001,Units=km,switch=T !numEQ NUMEQ:375695  - Data de conexão anterior06/2011.
new line.CTR209920 bus1=BMT124590484.2,bus2=BMT124604260.2,Phases=1,LineCode=tieSwitch1,Length=0.001,Units=km,switch=T !numEQ NUMEQ:56729  - Data de conexão anterior06/2011.
new line.CTR209934 bus1=BMT124591415.1.2.3,bus2=BMT165936279.1.2.3,Phases=3,LineCode=tieSwitch,Length=0.001,Units=km,switch=T !numEQ NUMEQ:140395  - Data de conexão anterior06/2011.
new line.CTR209941 bus1=BMT124592437.2,bus2=BMT137690620.2,Phases=1,LineCode=tieSwitch1,Length=0.001,Units=km,switch=T !numEQ NUMEQ:216709  - Data de conexão anterior06/2011.
new line.CTR209983 bus1=BMT124595188.1,bus2=BMT124595237.1,Phases=1,LineCode=tieSwitch1,Length=0.001,Units=km,switch=T !numEQ NUMEQ:48749  - Data de conexão anterior06/2011.
new line.CTR210018 bus1=BMT124598436.1,bus2=BMT124604176.1,Phases=1,LineCode=tieSwitch1,Length=0.001,Units=km,switch=T !numEQ NUMEQ:49435  - Data de conexão anterior06/2011.
new line.CTR210025 bus1=BMT124598632.2,bus2=BMT164451808.2,Phases=1,LineCode=tieSwitch1,Length=0.001,Units=km,switch=T !numEQ NUMEQ:248428  - Data de conexão anterior06/2011.
new line.CTR210032 bus1=BMT124598653.3,bus2=BMT124600865.3,Phases=1,LineCode=tieSwitch1,Length=0.001,Units=km,switch=T !numEQ NUMEQ:27478  - Data de conexão anterior06/2011.
new line.CTR210039 bus1=BMT124598506.1.2.3,bus2=BMT174649840.1.2.3,Phases=3,LineCode=tieSwitch,Length=0.001,Units=km,switch=T !numEQ NUMEQ:56726  - Data de conexão anterior06/2011.
new line.CTR210046 bus1=BMT124598520.3,bus2=BMT124603980.3,Phases=1,LineCode=tieSwitch1,Length=0.001,Units=km,switch=T !numEQ NUMEQ:47889  - Data de conexão anterior06/2011.
new line.CTR210053 bus1=BMT142638570.1.2.3,bus2=BMT177268879.1.2.3,Phases=3,LineCode=tieSwitch,Length=0.001,Units=km,switch=T !numEQ NUMEQ:286543  - Data de conexão anterior06/2011.
new line.CTR210060 bus1=BMT124600529.1,bus2=BMT124600543.1,Phases=1,LineCode=tieSwitch1,Length=0.001,Units=km,switch=T !numEQ NUMEQ:207539  - Data de conexão anterior06/2011.
new line.CTR210067 bus1=BMT124600711.1.2.3,bus2=BMT131284031.1.2.3,Phases=3,LineCode=tieSwitch,Length=0.001,Units=km,switch=T !numEQ NUMEQ:49401  - Data de conexão anterior06/2011.
new line.CTR210074 bus1=BMT124600802.3,bus2=BMT129965861.3,Phases=1,LineCode=tieSwitch1,Length=0.001,Units=km,switch=T !numEQ NUMEQ:170948  - Data de conexão anterior06/2011.
new line.CTR210081 bus1=BMT124598716.1.2.3,bus2=BMT157277156.1.2.3,Phases=3,LineCode=tieSwitch,Length=0.001,Units=km,switch=T !numEQ NUMEQ:144929  - Data de conexão anterior06/2011.
new line.CTR210123 bus1=BMT124599913.1,bus2=BMT177749508.1,Phases=1,LineCode=tieSwitch1,Length=0.001,Units=km,switch=T !numEQ NUMEQ:12772  - Data de conexão anterior06/2011.
new line.CTR210130 bus1=BMT124600382.1,bus2=BMT124600389.1,Phases=1,LineCode=tieSwitch1,Length=0.001,Units=km,switch=T !numEQ NUMEQ:47822  - Data de conexão anterior06/2011.
new line.CTR210144 bus1=BMT124603448.2,bus2=BMT174633635.2,Phases=1,LineCode=tieSwitch1,Length=0.001,Units=km,switch=T !numEQ NUMEQ:48226  - Data de conexão anterior06/2011.
new line.CTR210151 bus1=BMT124603875.3,bus2=BMT124603910.3,Phases=1,LineCode=tieSwitch1,Length=0.001,Units=km,switch=T !numEQ NUMEQ:49519  - Data de conexão anterior06/2011.
new line.CTR210158 bus1=BMT124605240.1,bus2=BMT124607186.1,Phases=1,LineCode=tieSwitch1,Length=0.001,Units=km,switch=T !numEQ NUMEQ:49061  - Data de conexão anterior06/2011.
new line.CTR210165 bus1=BMT124605296.1.2.3,bus2=BMT168386018.1.2.3,Phases=3,LineCode=tieSwitch,Length=0.001,Units=km,switch=T !numEQ NUMEQ:48489  - Data de conexão anterior06/2011.
new line.CTR210200 bus1=BMT124606150.3,bus2=BMT166992234.3,Phases=1,LineCode=tieSwitch1,Length=0.001,Units=km,switch=T !numEQ NUMEQ:193441  - Data de conexão anterior06/2011.
new line.CTR210207 bus1=BMT124606486.1.2.3,bus2=BMT158431460.1.2.3,Phases=3,LineCode=tieSwitch,Length=0.001,Units=km,switch=T !numEQ NUMEQ:170283  - Data de conexão anterior06/2011.
new line.CTR210263 bus1=BMT124586410.1.2.3,bus2=BMT153480729.1.2.3,Phases=3,LineCode=tieSwitch,Length=0.001,Units=km,switch=T !numEQ NUMEQ:193297  - Data de conexão anterior06/2011.
new line.CTR23356 bus1=BMT124590302.1.2.3,bus2=BMT178565322.1.2.3,Phases=3,LineCode=tieSwitch,Length=0.001,Units=km,switch=T !numEQ NUMEQ:373581  - Data de conexão anterior06/2011.
new line.CTR233965 bus1=BMT164456111.1.2.3,bus2=BMT176070198.1.2.3,Phases=3,LineCode=tieSwitch,Length=0.001,Units=km,switch=T !numEQ NUMEQ:205315  - Data de conexão anterior06/2011.
new line.CTR234553 bus1=BMT124601390.3,bus2=BMT150976541.3,Phases=1,LineCode=tieSwitch1,Length=0.001,Units=km,switch=T !numEQ NUMEQ:115921  - Data de conexão anterior06/2011.
new line.CTR234840 bus1=BMT124588944.1.2.3,bus2=BMT124589021.1.2.3,Phases=3,LineCode=tieSwitch,Length=0.001,Units=km,switch=T !numEQ NUMEQ:125641  - Data de conexão anterior06/2011.
new line.CTR234875 bus1=BMT124588993.2,bus2=BMT132645790.2,Phases=1,LineCode=tieSwitch1,Length=0.001,Units=km,switch=T !numEQ NUMEQ:193303  - Data de conexão anterior06/2011.
new line.CTR254895 bus1=BMT168485985.1,bus2=BMT168485986.1,Phases=1,LineCode=tieSwitch1,Length=0.001,Units=km,switch=T !numEQ NUMEQ:147552  - Data de conexão anterior06/2011.
new line.CTR254902 bus1=BMT124594404.1,bus2=BMT124594425.1,Phases=1,LineCode=tieSwitch1,Length=0.001,Units=km,switch=T !numEQ NUMEQ:147553  - Data de conexão anterior06/2011.
new line.CTR255140 bus1=BMT124597246.1,bus2=BMT124597274.1,Phases=1,LineCode=tieSwitch1,Length=0.001,Units=km,switch=T !numEQ NUMEQ:171022  - Data de conexão anterior06/2011.
new line.CTR256554 bus1=BMT124588909.1.2.3,bus2=BMT180008206.1.2.3,Phases=3,LineCode=tieSwitch,Length=0.001,Units=km,switch=T !numEQ NUMEQ:193299  - Data de conexão anterior06/2011.
new line.CTR257156 bus1=BMT124599885.1,bus2=BMT124600151.1,Phases=1,LineCode=tieSwitch1,Length=0.001,Units=km,switch=T !numEQ NUMEQ:200711  - Data de conexão anterior06/2011.
new line.CTR10910 bus1=BMT124591268.3,bus2=BMT124597638.3,Phases=1,LineCode=tieSwitch1,Length=0.001,Units=km,switch=T !numEQ NUMEQ:117507  - Data de conexão anterior06/2011.
new line.CTR14102 bus1=BMT124597176.3,bus2=BMT165937245.3,Phases=1,LineCode=tieSwitch1,Length=0.001,Units=km,switch=T !numEQ NUMEQ:117815  - Data de conexão anterior06/2011.
new line.CTR155516 bus1=BMT124599738.1,bus2=BMT124600179.1,Phases=1,LineCode=tieSwitch1,Length=0.001,Units=km,switch=T !numEQ NUMEQ:103511  - Data de conexão anterior06/2011.
new line.CTR167094 bus1=BMT124600704.1.2.3,bus2=BMT129964664.1.2.3,Phases=3,LineCode=tieSwitch,Length=0.001,Units=km,switch=T !numEQ NUMEQ:294608  - Data de conexão anterior06/2011.
new line.CTR16748 bus1=BMT124590645.2,bus2=BMT124590841.2,Phases=1,LineCode=tieSwitch1,Length=0.001,Units=km,switch=T !numEQ NUMEQ:39669  - Data de conexão anterior06/2011.
new line.CTR16755 bus1=BMT124589154.1,bus2=BMT158433804.1,Phases=1,LineCode=tieSwitch1,Length=0.001,Units=km,switch=T !numEQ NUMEQ:116615  - Data de conexão anterior06/2011.
new line.CTR199112 bus1=BMT124604309.1.2.3,bus2=BMT164463263.1.2.3,Phases=3,LineCode=tieSwitch,Length=0.001,Units=km,switch=T !numEQ NUMEQ:205316  - Data de conexão anterior06/2011.
new line.CTR199637 bus1=BMT124596182.1,bus2=BMT168940311.1,Phases=1,LineCode=tieSwitch1,Length=0.001,Units=km,switch=T !numEQ NUMEQ:133972  - Data de conexão anterior06/2011.
new line.CTR199742 bus1=BMT124606157.1.2.3,bus2=BMT168853365.1.2.3,Phases=3,LineCode=tieSwitch,Length=0.001,Units=km,switch=T !numEQ NUMEQ:193511  - Data de conexão anterior06/2011.
new line.CTR200372 bus1=BMT124591835.2,bus2=BMT124592297.2,Phases=1,LineCode=tieSwitch1,Length=0.001,Units=km,switch=T !numEQ NUMEQ:47405  - Data de conexão anterior06/2011.
new line.CTR200750 bus1=BMT124607494.2,bus2=BMT162263663.2,Phases=1,LineCode=tieSwitch1,Length=0.001,Units=km,switch=T !numEQ NUMEQ:188708  - Data de conexão anterior06/2011.
new line.CTR224571 bus1=BMT157095667.1.2.3,bus2=BMT4883834.1.2.3,Phases=3,LineCode=tieSwitch,Length=0.001,Units=km,switch=T !numEQ NUMEQ:188861  - Data de conexão anterior06/2011.
open line.CTR224571 term=1
new line.CTR225229 bus1=BMT124606353.3,bus2=BMT159946078.3,Phases=1,LineCode=tieSwitch1,Length=0.001,Units=km,switch=T !numEQ NUMEQ:167781  - Data de conexão anterior06/2011.
new line.CTR24637 bus1=BMT124605359.3,bus2=BMT161906763.3,Phases=1,LineCode=tieSwitch1,Length=0.001,Units=km,switch=T !numEQ NUMEQ:257210  - Data de conexão anterior06/2011.
new line.CTR246474 bus1=BMT124603378.3,bus2=BMT150976551.3,Phases=1,LineCode=tieSwitch1,Length=0.001,Units=km,switch=T !numEQ NUMEQ:207255  - Data de conexão anterior06/2011.
new line.CTR247027 bus1=BMT124602391.1,bus2=BMT164796593.1,Phases=1,LineCode=tieSwitch1,Length=0.001,Units=km,switch=T !numEQ NUMEQ:117174  - Data de conexão anterior06/2011.
new line.CTR247034 bus1=BMT124602727.1,bus2=BMT124602741.1,Phases=1,LineCode=tieSwitch1,Length=0.001,Units=km,switch=T !numEQ NUMEQ:207562  - Data de conexão anterior06/2011.
new line.CTR247363 bus1=BMT155180202.1.2.3,bus2=BMT124591877.1.2.3,Phases=3,LineCode=tieSwitch,Length=0.001,Units=km,switch=T !numEQ NUMEQ:107542  - Data de conexão anterior06/2011.
open line.CTR247363 term=1
new line.CTR248035 bus1=BMT124599556.1,bus2=BMT171889197.1,Phases=1,LineCode=tieSwitch1,Length=0.001,Units=km,switch=T !numEQ NUMEQ:107428  - Data de conexão anterior06/2011.
new line.CTR248098 bus1=BMT124593641.1.2.3,bus2=BMT124593676.1.2.3,Phases=3,LineCode=tieSwitch,Length=0.001,Units=km,switch=T !numEQ NUMEQ:107429  - Data de conexão anterior06/2011.
new line.CTR24812 bus1=BMT124606423.1,bus2=BMT158432197.1,Phases=1,LineCode=tieSwitch1,Length=0.001,Units=km,switch=T !numEQ NUMEQ:47225  - Data de conexão anterior06/2011.
new line.CTR248420 bus1=BMT124603098.3,bus2=BMT124603140.3,Phases=1,LineCode=tieSwitch1,Length=0.001,Units=km,switch=T !numEQ NUMEQ:13058  - Data de conexão anterior06/2011.
new line.CTR271758 bus1=BMT124594026.1,bus2=BMT124594075.1,Phases=1,LineCode=tieSwitch1,Length=0.001,Units=km,switch=T !numEQ NUMEQ:183456  - Data de conexão anterior06/2011.
new line.CTR271996 bus1=BMT156308799.2,bus2=BMT124590449.2,Phases=1,LineCode=tieSwitch1,Length=0.001,Units=km,switch=T !numEQ NUMEQ:184286  - Data de conexão anterior06/2011.
open line.CTR271996 term=1
new line.CTR272514 bus1=BMT124596434.1,bus2=BMT124596455.1,Phases=1,LineCode=tieSwitch1,Length=0.001,Units=km,switch=T !numEQ NUMEQ:169214  - Data de conexão anterior06/2011.
new line.CTR272962 bus1=BMT124593305.2,bus2=BMT163800523.2,Phases=1,LineCode=tieSwitch1,Length=0.001,Units=km,switch=T !numEQ NUMEQ:147555  - Data de conexão anterior06/2011.
new line.CTR273263 bus1=BMT124601936.1,bus2=BMT124601950.1,Phases=1,LineCode=tieSwitch1,Length=0.001,Units=km,switch=T !numEQ NUMEQ:183903  - Data de conexão anterior06/2011.
new line.CTR273620 bus1=BMT124592024.1,bus2=BMT164635146.1,Phases=1,LineCode=tieSwitch1,Length=0.001,Units=km,switch=T !numEQ NUMEQ:168275  - Data de conexão anterior06/2011.
new line.CTR30363 bus1=BMT124599220.3,bus2=BMT163408842.3,Phases=1,LineCode=tieSwitch1,Length=0.001,Units=km,switch=T !numEQ NUMEQ:169236  - Data de conexão anterior06/2011.
new line.CTR338694 bus1=BMT124590799.2,bus2=BMT124590813.2,Phases=1,LineCode=tieSwitch1,Length=0.001,Units=km,switch=T !numEQ NUMEQ:281913  - Data de conexão anterior06/2011.
new line.CTR341081 bus1=BMT124598695.3,bus2=BMT124600417.3,Phases=1,LineCode=tieSwitch1,Length=0.001,Units=km,switch=T !numEQ NUMEQ:281736  - Data de conexão anterior06/2011.
new line.CTR381191 bus1=BMT124600235.1.2.3,bus2=BMT124600242.1.2.3,Phases=3,LineCode=tieSwitch,Length=0.001,Units=km,switch=T !numEQ NUMEQ:287590  - Data de conexão anterior06/2011.
new line.CTR416716 bus1=BMT134344025.1.2.3,bus2=BMT153697271.1.2.3,Phases=3,LineCode=tieSwitch,Length=0.001,Units=km,switch=T !numEQ NUMEQ:298458  - Data de conexão anterior06/2011.
new line.CTR41682 bus1=BMT124595531.1,bus2=BMT124595650.1,Phases=1,LineCode=tieSwitch1,Length=0.001,Units=km,switch=T !numEQ NUMEQ:171439  - Data de conexão anterior06/2011.
new line.CTR419593 bus1=BMT135171999.1,bus2=BMT134962146.1,Phases=1,LineCode=tieSwitch1,Length=0.001,Units=km,switch=T !numEQ NUMEQ:193436  - Data de conexão anterior06/2011.
open line.CTR419593 term=1
new line.CTR419705 bus1=BMT175674733.1.2.3,bus2=BMT134974956.1.2.3,Phases=3,LineCode=tieSwitch,Length=0.001,Units=km,switch=T !numEQ NUMEQ:193440  - Data de conexão anterior06/2011.
new line.CTR419831 bus1=BMT134991546.1,bus2=BMT158433560.1,Phases=1,LineCode=tieSwitch1,Length=0.001,Units=km,switch=T !numEQ NUMEQ:193439  - Data de conexão anterior06/2011.
new line.CTR42004 bus1=BMT124602314.1.2.3,bus2=BMT124602321.1.2.3,Phases=3,LineCode=tieSwitch,Length=0.001,Units=km,switch=T !numEQ NUMEQ:193374  - Data de conexão anterior06/2011.
new line.CTR457785 bus1=BMT145272278.1.2.3,bus2=BMT163750816.1.2.3,Phases=3,LineCode=tieSwitch,Length=0.001,Units=km,switch=T !numEQ NUMEQ:311857  - Data de conexão anterior06/2011.
new line.CTR458527 bus1=BMT145442924.1,bus2=BMT160703981.1,Phases=1,LineCode=tieSwitch1,Length=0.001,Units=km,switch=T !numEQ NUMEQ:311953  - Data de conexão anterior06/2011.
new line.CTR458772 bus1=BMT145487780.1,bus2=BMT161165850.1,Phases=1,LineCode=tieSwitch1,Length=0.001,Units=km,switch=T !numEQ NUMEQ:315315  - Data de conexão anterior06/2011.
new line.CTR62360 bus1=BMT124593606.1.2.3,bus2=BMT155180196.1.2.3,Phases=3,LineCode=tieSwitch,Length=0.001,Units=km,switch=T !numEQ NUMEQ:107430  - Data de conexão anterior06/2011.
new line.CTR62717 bus1=BMT124586375.1.2.3,bus2=BMT124589931.1.2.3,Phases=3,LineCode=tieSwitch,Length=0.001,Units=km,switch=T !numEQ NUMEQ:107517  - Data de conexão anterior06/2011.
new line.CTR850745 bus1=BMT150034273.1.2.3,bus2=BMT160894706.1.2.3,Phases=3,LineCode=tieSwitch,Length=0.001,Units=km,switch=T !numEQ NUMEQ:376779  - Data de conexão anterior06/2011.
new line.CTR850779 bus1=BMT150049683.1.2.3,bus2=BMT163786879.1.2.3,Phases=3,LineCode=tieSwitch,Length=0.001,Units=km,switch=T !numEQ NUMEQ:376781  - Data de conexão anterior06/2011.
new line.CTR850780 bus1=BMT150050275.1.2.3,bus2=BMT150050281.1.2.3,Phases=3,LineCode=tieSwitch,Length=0.001,Units=km,switch=T !numEQ NUMEQ:376782  - Data de conexão anterior06/2011.
new line.CTR850815 bus1=BMT150062186.1.2.3,bus2=BMT154320450.1.2.3,Phases=3,LineCode=tieSwitch,Length=0.001,Units=km,switch=T !numEQ NUMEQ:378265  - Data de conexão anterior06/2011.
new line.CTR850949 bus1=BMT150086179.1.2.3,bus2=BMT152316095.1.2.3,Phases=3,LineCode=tieSwitch,Length=0.001,Units=km,switch=T !numEQ NUMEQ:378267  - Data de conexão anterior06/2011.
new line.CTR156342 bus1=BMT124594614.1.2.3,bus2=BMT163786416.1.2.3,Phases=3,LineCode=tieSwitch,Length=0.001,Units=km,switch=T !numEQ NUMEQ:376780  - Data de conexão anterior06/2011.
new line.CTR16937 bus1=BMT124598562.3,bus2=BMT124603826.3,Phases=1,LineCode=tieSwitch1,Length=0.001,Units=km,switch=T !numEQ NUMEQ:115843  - Data de conexão anterior06/2011.
new line.CTR205160 bus1=BMT124590043.1.2.3,bus2=BMT157095663.1.2.3,Phases=3,LineCode=tieSwitch,Length=0.001,Units=km,switch=T !numEQ NUMEQ:188862  - Data de conexão anterior06/2011.
new line.CTR208086 bus1=BMT124605478.1,bus2=BMT124605576.1,Phases=1,LineCode=tieSwitch1,Length=0.001,Units=km,switch=T !numEQ NUMEQ:169044  - Data de conexão anterior06/2011.
new line.CTR22908 bus1=BMT124590876.2,bus2=BMT124591044.2,Phases=1,LineCode=tieSwitch1,Length=0.001,Units=km,switch=T !numEQ NUMEQ:143168  - Data de conexão anterior06/2011.
new line.CTR229121 bus1=BMT124591814.1.2.3,bus2=BMT124593571.1.2.3,Phases=3,LineCode=tieSwitch,Length=0.001,Units=km,switch=T !numEQ NUMEQ:184255  - Data de conexão anterior06/2011.
new line.CTR22915 bus1=BMT124590897.2,bus2=BMT164419493.2,Phases=1,LineCode=tieSwitch1,Length=0.001,Units=km,switch=T !numEQ NUMEQ:143169  - Data de conexão anterior06/2011.
new line.CTR22936 bus1=BMT124600914.2,bus2=BMT179199011.2,Phases=1,LineCode=tieSwitch1,Length=0.001,Units=km,switch=T !numEQ NUMEQ:147094  - Data de conexão anterior06/2011.
new line.CTR22964 bus1=BMT124600186.1,bus2=BMT124600200.1,Phases=1,LineCode=tieSwitch1,Length=0.001,Units=km,switch=T !numEQ NUMEQ:147096  - Data de conexão anterior06/2011.
new line.CTR229674 bus1=BMT124596175.1,bus2=BMT176449318.1,Phases=1,LineCode=tieSwitch1,Length=0.001,Units=km,switch=T !numEQ NUMEQ:168843  - Data de conexão anterior06/2011.
new line.CTR24105 bus1=BMT124607326.3,bus2=BMT124607340.3,Phases=1,LineCode=tieSwitch1,Length=0.001,Units=km,switch=T !numEQ NUMEQ:27479  - Data de conexão anterior06/2011.
new line.CTR241070 bus1=BMT124601831.1.2.3,bus2=BMT150977160.1.2.3,Phases=3,LineCode=tieSwitch,Length=0.001,Units=km,switch=T !numEQ NUMEQ:169874  - Data de conexão anterior06/2011.
new line.CTR265199 bus1=BMT124605086.1,bus2=BMT124605114.1,Phases=1,LineCode=tieSwitch1,Length=0.001,Units=km,switch=T !numEQ NUMEQ:147076  - Data de conexão anterior06/2011.
new line.CTR265409 bus1=BMT124596245.1,bus2=BMT124596490.1,Phases=1,LineCode=tieSwitch1,Length=0.001,Units=km,switch=T !numEQ NUMEQ:168844  - Data de conexão anterior06/2011.
new line.CTR290924 bus1=BMT124599269.1.2.3,bus2=BMT124599276.1.2.3,Phases=3,LineCode=tieSwitch,Length=0.001,Units=km,switch=T !numEQ NUMEQ:226983  - Data de conexão anterior06/2011.
new line.CTR291722 bus1=BMT124588412.1.2.3,bus2=BMT150345144.1.2.3,Phases=3,LineCode=tieSwitch,Length=0.001,Units=km,switch=T !numEQ NUMEQ:226837  - Data de conexão anterior06/2011.
new line.CTR292261 bus1=BMT124602062.2,bus2=BMT160342475.2,Phases=1,LineCode=tieSwitch1,Length=0.001,Units=km,switch=T !numEQ NUMEQ:226745  - Data de conexão anterior06/2011.
new line.CTR292506 bus1=BMT124593340.2,bus2=BMT124593403.2,Phases=1,LineCode=tieSwitch1,Length=0.001,Units=km,switch=T !numEQ NUMEQ:216708  - Data de conexão anterior06/2011.
new line.CTR32890 bus1=BMT124597113.1.2.3,bus2=BMT152278293.1.2.3,Phases=3,LineCode=tieSwitch,Length=0.001,Units=km,switch=T !numEQ NUMEQ:56774  - Data de conexão anterior06/2011.
new line.CTR332996 bus1=BMT164483775.2,bus2=BMT165200925.2,Phases=1,LineCode=tieSwitch1,Length=0.001,Units=km,switch=T !numEQ NUMEQ:231341  - Data de conexão anterior06/2011.
new line.CTR368269 bus1=BMT124587250.1.2.3,bus2=BMT166024439.1.2.3,Phases=3,LineCode=tieSwitch,Length=0.001,Units=km,switch=T !numEQ NUMEQ:228839  - Data de conexão anterior06/2011.
new line.CTR368766 bus1=BMT166016382.1.2.3,bus2=BMT124587376.1.2.3,Phases=3,LineCode=tieSwitch,Length=0.001,Units=km,switch=T !numEQ NUMEQ:228837  - Data de conexão anterior06/2011.
new line.CTR368773 bus1=BMT124587334.1.2.3,bus2=BMT166019189.1.2.3,Phases=3,LineCode=tieSwitch,Length=0.001,Units=km,switch=T !numEQ NUMEQ:228836  - Data de conexão anterior06/2011.
new line.CTR368787 bus1=BMT124587313.1.2.3,bus2=BMT166016376.1.2.3,Phases=3,LineCode=tieSwitch,Length=0.001,Units=km,switch=T !numEQ NUMEQ:228838  - Data de conexão anterior06/2011.
new line.CTR369515 bus1=BMT124590750.2,bus2=BMT176470423.2,Phases=1,LineCode=tieSwitch1,Length=0.001,Units=km,switch=T !numEQ NUMEQ:228890  - Data de conexão anterior06/2011.
new line.CTR37097 bus1=BMT124606066.1,bus2=BMT157465739.1,Phases=1,LineCode=tieSwitch1,Length=0.001,Units=km,switch=T !numEQ NUMEQ:167780  - Data de conexão anterior06/2011.
new line.CTR37111 bus1=BMT124606325.3,bus2=BMT161038173.3,Phases=1,LineCode=tieSwitch1,Length=0.001,Units=km,switch=T !numEQ NUMEQ:139478  - Data de conexão anterior06/2011.
new line.CTR40779 bus1=BMT124591821.1.2.3,bus2=BMT124593529.1.2.3,Phases=3,LineCode=tieSwitch,Length=0.001,Units=km,switch=T !numEQ NUMEQ:188214  - Data de conexão anterior06/2011.
new line.CTR408505 bus1=BMT132655814.1.2.3,bus2=BMT175674717.1.2.3,Phases=3,LineCode=tieSwitch,Length=0.001,Units=km,switch=T !numEQ NUMEQ:193367  - Data de conexão anterior06/2011.
new line.CTR40856 bus1=BMT124593550.1.2.3,bus2=BMT124593557.1.2.3,Phases=3,LineCode=tieSwitch,Length=0.001,Units=km,switch=T !numEQ NUMEQ:188215  - Data de conexão anterior06/2011.
new line.CTR408561 bus1=BMT132671333.3,bus2=BMT158434117.3,Phases=1,LineCode=tieSwitch1,Length=0.001,Units=km,switch=T !numEQ NUMEQ:193369  - Data de conexão anterior06/2011.
new line.CTR409177 bus1=BMT137690676.2,bus2=BMT162327611.2,Phases=1,LineCode=tieSwitch1,Length=0.001,Units=km,switch=T !numEQ NUMEQ:292207  - Data de conexão anterior06/2011.
new line.CTR40968 bus1=BMT124601698.1.2.3,bus2=BMT124602902.1.2.3,Phases=3,LineCode=tieSwitch,Length=0.001,Units=km,switch=T !numEQ NUMEQ:116964  - Data de conexão anterior06/2011.
new line.CTR40996 bus1=BMT172824196.1.2.3,bus2=BMT124598989.1.2.3,Phases=3,LineCode=tieSwitch,Length=0.001,Units=km,switch=T !numEQ NUMEQ:117365  - Data de conexão anterior06/2011.
new line.CTR41031 bus1=BMT124598982.1.2.3,bus2=BMT165079477.1.2.3,Phases=3,LineCode=tieSwitch,Length=0.001,Units=km,switch=T !numEQ NUMEQ:117367  - Data de conexão anterior06/2011.
new line.CTR44538 bus1=BMT124598688.2,bus2=BMT146316937.2,Phases=1,LineCode=tieSwitch1,Length=0.001,Units=km,switch=T !numEQ NUMEQ:116717  - Data de conexão anterior06/2011.
new line.CTR44587 bus1=BMT124602027.1,bus2=BMT124602174.1,Phases=1,LineCode=tieSwitch1,Length=0.001,Units=km,switch=T !numEQ NUMEQ:101833  - Data de conexão anterior06/2011.
new line.CTR448027 bus1=BMT142637877.1.2.3,bus2=BMT142637905.1.2.3,Phases=3,LineCode=tieSwitch,Length=0.001,Units=km,switch=T !numEQ NUMEQ:314163  - Data de conexão anterior06/2011.
new line.CTR448132 bus1=BMT166019196.1.2.3,bus2=BMT142664792.1.2.3,Phases=3,LineCode=tieSwitch,Length=0.001,Units=km,switch=T !numEQ NUMEQ:310881  - Data de conexão anterior06/2011.
open line.CTR448132 term=1
new line.CTR448258 bus1=BMT142680640.1.2.3,bus2=BMT166016573.1.2.3,Phases=3,LineCode=tieSwitch,Length=0.001,Units=km,switch=T !numEQ NUMEQ:310880  - Data de conexão anterior06/2011.
new line.CTR448265 bus1=BMT142680794.2,bus2=BMT166014350.2,Phases=1,LineCode=tieSwitch1,Length=0.001,Units=km,switch=T !numEQ NUMEQ:310879  - Data de conexão anterior06/2011.
new line.CTR449861 bus1=BMT143072927.1.2.3,bus2=BMT143073067.1.2.3,Phases=3,LineCode=tieSwitch,Length=0.001,Units=km,switch=T !numEQ NUMEQ:314223  - Data de conexão anterior06/2011.
new line.CTR6136 bus1=BMT124588629.1.2.3,bus2=BMT124588818.1.2.3,Phases=3,LineCode=tieSwitch,Length=0.001,Units=km,switch=T !numEQ NUMEQ:48985  - Data de conexão anterior06/2011.
new line.CTR7424 bus1=BMT179338752.1.2.3,bus2=BMT124586886.1.2.3,Phases=3,LineCode=tieSwitch,Length=0.001,Units=km,switch=T !numEQ NUMEQ:112152  - Data de conexão anterior06/2011.
new line.CTR852670 bus1=BMT150642300.1.2.3,bus2=BMT150642799.1.2.3,Phases=3,LineCode=tieSwitch,Length=0.001,Units=km,switch=T !numEQ NUMEQ:378281  - Data de conexão anterior06/2011.
new line.CTR852858 bus1=BMT150693854.1.2.3,bus2=BMT150693855.1.2.3,Phases=3,LineCode=tieSwitch,Length=0.001,Units=km,switch=T !numEQ NUMEQ:379912  - Data de conexão anterior06/2011.
new line.CTR852859 bus1=BMT150694061.1.2.3,bus2=BMT161043481.1.2.3,Phases=3,LineCode=tieSwitch,Length=0.001,Units=km,switch=T !numEQ NUMEQ:379911  - Data de conexão anterior06/2011.
new line.CTR853694 bus1=BMT150963519.1.2.3,bus2=BMT157277074.1.2.3,Phases=3,LineCode=tieSwitch,Length=0.001,Units=km,switch=T !numEQ NUMEQ:381315  - Data de conexão anterior06/2011.
new line.CTR135818 bus1=BMT165199877.1.2.3,bus2=BMT3453811.1.2.3,Phases=3,LineCode=tieSwitch,Length=0.001,Units=km,switch=T !numEQ NUMEQ:259128  - Data de conexão anterior06/2011.
open line.CTR135818 term=1
new line.CTR13640 bus1=BMT124595027.1,bus2=BMT124596518.1,Phases=1,LineCode=tieSwitch1,Length=0.001,Units=km,switch=T !numEQ NUMEQ:133935  - Data de conexão anterior06/2011.
new line.CTR137736 bus1=BMT124588125.1.2.3,bus2=BMT167090638.1.2.3,Phases=3,LineCode=tieSwitch,Length=0.001,Units=km,switch=T !numEQ NUMEQ:104862  - Data de conexão anterior06/2011.
new line.CTR179344 bus1=BMT124604911.1.2.3,bus2=BMT124604932.1.2.3,Phases=3,LineCode=tieSwitch,Length=0.001,Units=km,switch=T !numEQ NUMEQ:140416  - Data de conexão anterior06/2011.
new line.CTR211355 bus1=BMT124589091.3,bus2=BMT158434257.3,Phases=1,LineCode=tieSwitch1,Length=0.001,Units=km,switch=T !numEQ NUMEQ:193368  - Data de conexão anterior06/2011.
new line.CTR211565 bus1=BMT124592430.2,bus2=BMT124593445.2,Phases=1,LineCode=tieSwitch1,Length=0.001,Units=km,switch=T !numEQ NUMEQ:168096  - Data de conexão anterior06/2011.
new line.CTR212167 bus1=BMT124598415.1,bus2=BMT124604218.1,Phases=1,LineCode=tieSwitch1,Length=0.001,Units=km,switch=T !numEQ NUMEQ:47390  - Data de conexão anterior06/2011.
new line.CTR213140 bus1=BMT124602076.1.2.3,bus2=BMT164867693.1.2.3,Phases=3,LineCode=tieSwitch,Length=0.001,Units=km,switch=T !numEQ NUMEQ:183462  - Data de conexão anterior06/2011.
new line.CTR237276 bus1=BMT164483121.1.2.3,bus2=BMT164483197.1.2.3,Phases=3,LineCode=tieSwitch,Length=0.001,Units=km,switch=T !numEQ NUMEQ:115920  - Data de conexão anterior06/2011.
new line.CTR237283 bus1=BMT124601299.2,bus2=BMT124601348.2,Phases=1,LineCode=tieSwitch1,Length=0.001,Units=km,switch=T !numEQ NUMEQ:115925  - Data de conexão anterior06/2011.
new line.CTR237290 bus1=BMT124601523.1.2.3,bus2=BMT178266489.1.2.3,Phases=3,LineCode=tieSwitch,Length=0.001,Units=km,switch=T !numEQ NUMEQ:115923  - Data de conexão anterior06/2011.
new line.CTR237955 bus1=BMT124602937.3,bus2=BMT124603245.3,Phases=1,LineCode=tieSwitch1,Length=0.001,Units=km,switch=T !numEQ NUMEQ:117975  - Data de conexão anterior06/2011.
new line.CTR238781 bus1=BMT124588188.1.2.3,bus2=BMT124588454.1.2.3,Phases=3,LineCode=tieSwitch,Length=0.001,Units=km,switch=T !numEQ NUMEQ:48659  - Data de conexão anterior06/2011.
new line.CTR23881 bus1=BMT124589616.2,bus2=BMT124589630.2,Phases=1,LineCode=tieSwitch1,Length=0.001,Units=km,switch=T !numEQ NUMEQ:209738  - Data de conexão anterior06/2011.
new line.CTR259914 bus1=BMT124606871.3,bus2=BMT135178068.3,Phases=1,LineCode=tieSwitch1,Length=0.001,Units=km,switch=T !numEQ NUMEQ:145095  - Data de conexão anterior06/2011.
new line.CTR259991 bus1=BMT124605429.1,bus2=BMT124605625.1,Phases=1,LineCode=tieSwitch1,Length=0.001,Units=km,switch=T !numEQ NUMEQ:168421  - Data de conexão anterior06/2011.
new line.CTR260012 bus1=BMT124605443.1,bus2=BMT135171950.1,Phases=1,LineCode=tieSwitch1,Length=0.001,Units=km,switch=T !numEQ NUMEQ:168420  - Data de conexão anterior06/2011.
new line.CTR284785 bus1=BMT124596525.1,bus2=BMT167653574.1,Phases=1,LineCode=tieSwitch1,Length=0.001,Units=km,switch=T !numEQ NUMEQ:205313  - Data de conexão anterior06/2011.
new line.CTR286416 bus1=BMT124594922.1,bus2=BMT124594943.1,Phases=1,LineCode=tieSwitch1,Length=0.001,Units=km,switch=T !numEQ NUMEQ:212105  - Data de conexão anterior06/2011.
new line.CTR35340 bus1=BMT124596315.1,bus2=BMT160259779.1,Phases=1,LineCode=tieSwitch1,Length=0.001,Units=km,switch=T !numEQ NUMEQ:141293  - Data de conexão anterior06/2011.
new line.CTR35347 bus1=BMT124596021.1,bus2=BMT160775956.1,Phases=1,LineCode=tieSwitch1,Length=0.001,Units=km,switch=T !numEQ NUMEQ:141295  - Data de conexão anterior06/2011.
new line.CTR35354 bus1=BMT176449329.1,bus2=BMT4544320.1,Phases=1,LineCode=tieSwitch1,Length=0.001,Units=km,switch=T !numEQ NUMEQ:141296  - Data de conexão anterior06/2011.
open line.CTR35354 term=1
new line.CTR35431 bus1=BMT124602349.2,bus2=BMT124602755.2,Phases=1,LineCode=tieSwitch1,Length=0.001,Units=km,switch=T !numEQ NUMEQ:116963  - Data de conexão anterior06/2011.
new line.CTR355830 bus1=BMT173986337.1.2.3,bus2=BMT173987705.1.2.3,Phases=3,LineCode=tieSwitch,Length=0.001,Units=km,switch=T !numEQ NUMEQ:283874  - Data de conexão anterior06/2011.