new load.3007629872M1 bus1=BMT124596847.1.2.3.0,Phases=3,kv=13.800000000,kW=2.83506,pf=0.92,Vminpu=0.93,Vmaxpu=1.5,model=8,zipv=[0.5,0,0.5,1,0,0,0],daily=MT1_1,status=variable
new load.3009008242M1 bus1=BMT124595419.1.2.3.0,Phases=3,kv=13.800000000,kW=31.87134,pf=0.92,Vminpu=0.93,Vmaxpu=1.5,model=8,zipv=[0.5,0,0.5,1,0,0,0],daily=MT2_1,status=variable
new load.3009010846M1 bus1=BMT124598898.1.2.3.0,Phases=3,kv=13.800000000,kW=0.65044,pf=0.92,Vminpu=0.93,Vmaxpu=1.5,model=8,zipv=[0.5,0,0.5,1,0,0,0],daily=MT2_1,status=variable
new load.3009016325M1 bus1=BMT159503648.1.2.3.0,Phases=3,kv=13.800000000,kW=0.00152,pf=0.92,Vminpu=0.93,Vmaxpu=1.5,model=8,zipv=[0.5,0,0.5,1,0,0,0],daily=MT1_1,status=variable
new load.3009016393M1 bus1=BMT178090115.1.2.3.0,Phases=3,kv=13.800000000,kW=0.00152,pf=0.92,Vminpu=0.93,Vmaxpu=1.5,model=8,zipv=[0.5,0,0.5,1,0,0,0],daily=MT1_1,status=variable
new load.3009016487M1 bus1=BMT124593683.1.2.3.0,Phases=3,kv=13.800000000,kW=0.09022,pf=0.92,Vminpu=0.93,Vmaxpu=1.5,model=8,zipv=[0.5,0,0.5,1,0,0,0],daily=MT1_1,status=variable
new load.3009016589M1 bus1=BMT167090639.1.2.3.0,Phases=3,kv=13.800000000,kW=0.00152,pf=0.92,Vminpu=0.93,Vmaxpu=1.5,model=8,zipv=[0.5,0,0.5,1,0,0,0],daily=MT1_1,status=variable
new load.3009017295M1 bus1=BMT124596847.1.2.3.0,Phases=3,kv=13.800000000,kW=0.00152,pf=0.92,Vminpu=0.93,Vmaxpu=1.5,model=8,zipv=[0.5,0,0.5,1,0,0,0],daily=MT1_1,status=variable
new load.3009018603M1 bus1=BMT124602335.1.2.3.0,Phases=3,kv=13.800000000,kW=0.00152,pf=0.92,Vminpu=0.93,Vmaxpu=1.5,model=8,zipv=[0.5,0,0.5,1,0,0,0],daily=MT1_1,status=variable
new load.3009018604M1 bus1=BMT124601663.1.2.3.0,Phases=3,kv=13.800000000,kW=0.00152,pf=0.92,Vminpu=0.93,Vmaxpu=1.5,model=8,zipv=[0.5,0,0.5,1,0,0,0],daily=MT1_1,status=variable
new load.3009018939M1 bus1=BMT124601691.1.2.3.0,Phases=3,kv=13.800000000,kW=1.20994,pf=0.92,Vminpu=0.93,Vmaxpu=1.5,model=8,zipv=[0.5,0,0.5,1,0,0,0],daily=MT1_1,status=variable
new load.3009018981M1 bus1=BMT124602839.1.2.3.0,Phases=3,kv=13.800000000,kW=2.72,pf=0.92,Vminpu=0.93,Vmaxpu=1.5,model=8,zipv=[0.5,0,0.5,1,0,0,0],daily=MT2_1,status=variable
new load.3009019256M1 bus1=BMT124602881.1.2.3.0,Phases=3,kv=13.800000000,kW=0.00152,pf=0.92,Vminpu=0.93,Vmaxpu=1.5,model=8,zipv=[0.5,0,0.5,1,0,0,0],daily=MT1_1,status=variable
new load.3009019593M1 bus1=BMT174544102.1.2.3.0,Phases=3,kv=13.800000000,kW=24.7028,pf=0.92,Vminpu=0.93,Vmaxpu=1.5,model=8,zipv=[0.5,0,0.5,1,0,0,0],daily=MT4_1,status=variable
new load.3009019759M1 bus1=BMT124599577.1.2.3.0,Phases=3,kv=13.800000000,kW=0.48398,pf=0.92,Vminpu=0.93,Vmaxpu=1.5,model=8,zipv=[0.5,0,0.5,1,0,0,0],daily=MT1_1,status=variable
new load.3009021285M1 bus1=BMT124603819.1.2.3.0,Phases=3,kv=13.800000000,kW=2.54262,pf=0.92,Vminpu=0.93,Vmaxpu=1.5,model=8,zipv=[0.5,0,0.5,1,0,0,0],daily=MT2_1,status=variable
new load.3009021313M1 bus1=BMT150977165.1.2.3.0,Phases=3,kv=13.800000000,kW=2.22046,pf=0.92,Vminpu=0.93,Vmaxpu=1.5,model=8,zipv=[0.5,0,0.5,1,0,0,0],daily=MT3_1,status=variable
new load.3010001882M1 bus1=BMT124593564.1.2.3.0,Phases=3,kv=13.800000000,kW=21.9826,pf=0.92,Vminpu=0.93,Vmaxpu=1.5,model=8,zipv=[0.5,0,0.5,1,0,0,0],daily=MT3_1,status=variable
new load.3010001883M1 bus1=BMT124593578.1.2.3.0,Phases=3,kv=13.800000000,kW=11.47132,pf=0.92,Vminpu=0.93,Vmaxpu=1.5,model=8,zipv=[0.5,0,0.5,1,0,0,0],daily=MT2_1,status=variable
new load.3010589348M1 bus1=BMT124591800.1.2.3.0,Phases=3,kv=13.800000000,kW=0.94608,pf=0.92,Vminpu=0.93,Vmaxpu=1.5,model=8,zipv=[0.5,0,0.5,1,0,0,0],daily=MT2_1,status=variable
new load.3010713530M1 bus1=BMT164463264.1.2.3.0,Phases=3,kv=13.800000000,kW=8.63306,pf=0.92,Vminpu=0.93,Vmaxpu=1.5,model=8,zipv=[0.5,0,0.5,1,0,0,0],daily=MT2_1,status=variable
new load.3010848150M1 bus1=BMT166612352.1.2.3.0,Phases=3,kv=13.800000000,kW=114.90764,pf=0.92,Vminpu=0.93,Vmaxpu=1.5,model=8,zipv=[0.5,0,0.5,1,0,0,0],daily=MT3_1,status=variable
new load.3011208972M1 bus1=BMT164485014.1.2.3.0,Phases=3,kv=13.800000000,kW=15.15466,pf=0.92,Vminpu=0.93,Vmaxpu=1.5,model=8,zipv=[0.5,0,0.5,1,0,0,0],daily=MT3_1,status=variable
new load.3011306105M1 bus1=BMT173987706.1.2.3.0,Phases=3,kv=13.800000000,kW=11.33422,pf=0.92,Vminpu=0.93,Vmaxpu=1.5,model=8,zipv=[0.5,0,0.5,1,0,0,0],daily=MT4_1,status=variable
new load.3011419457M1 bus1=BMT124600249.1.2.3.0,Phases=3,kv=13.800000000,kW=2.32862,pf=0.92,Vminpu=0.93,Vmaxpu=1.5,model=8,zipv=[0.5,0,0.5,1,0,0,0],daily=MT1_1,status=variable
new load.3011493049M1 bus1=BMT124594285.1.2.3.0,Phases=3,kv=13.800000000,kW=0.7687,pf=0.92,Vminpu=0.93,Vmaxpu=1.5,model=8,zipv=[0.5,0,0.5,1,0,0,0],daily=MT2_1,status=variable
new load.3011841568M1 bus1=BMT143073074.1.2.3.0,Phases=3,kv=13.800000000,kW=7.01764,pf=0.92,Vminpu=0.93,Vmaxpu=1.5,model=8,zipv=[0.5,0,0.5,1,0,0,0],daily=MT1_1,status=variable
new load.3011980764M1 bus1=BMT150345147.1.2.3.0,Phases=3,kv=13.800000000,kW=30.52612,pf=0.92,Vminpu=0.93,Vmaxpu=1.5,model=8,zipv=[0.5,0,0.5,1,0,0,0],daily=MT2_1,status=variable
new load.3012103923M1 bus1=BMT148622016.1.2.3.0,Phases=3,kv=13.800000000,kW=6.56348,pf=0.92,Vminpu=0.93,Vmaxpu=1.5,model=8,zipv=[0.5,0,0.5,1,0,0,0],daily=MT2_1,status=variable
new load.3012148752M1 bus1=BMT148343799.1.2.3.0,Phases=3,kv=13.800000000,kW=9.77004,pf=0.92,Vminpu=0.93,Vmaxpu=1.5,model=8,zipv=[0.5,0,0.5,1,0,0,0],daily=MT3_1,status=variable
new load.3012239902M1 bus1=BMT150050282.1.2.3.0,Phases=3,kv=13.800000000,kW=21.05412,pf=0.92,Vminpu=0.93,Vmaxpu=1.5,model=8,zipv=[0.5,0,0.5,1,0,0,0],daily=MT1_1,status=variable
new load.3012239968M1 bus1=BMT160894707.1.2.3.0,Phases=3,kv=13.800000000,kW=11.94172,pf=0.92,Vminpu=0.93,Vmaxpu=1.5,model=8,zipv=[0.5,0,0.5,1,0,0,0],daily=MT1_1,status=variable
new load.3012270293M1 bus1=BMT150444491.1.2.3.0,Phases=3,kv=13.800000000,kW=4.05234,pf=0.92,Vminpu=0.93,Vmaxpu=1.5,model=8,zipv=[0.5,0,0.5,1,0,0,0],daily=MT3_1,status=variable
new load.3012310949M1 bus1=BMT150693856.1.2.3.0,Phases=3,kv=13.800000000,kW=12.35828,pf=0.92,Vminpu=0.93,Vmaxpu=1.5,model=8,zipv=[0.5,0,0.5,1,0,0,0],daily=MT2_1,status=variable
new load.3012346253M1 bus1=BMT151308205.1.2.3.0,Phases=3,kv=13.800000000,kW=5.71404,pf=0.92,Vminpu=0.93,Vmaxpu=1.5,model=8,zipv=[0.5,0,0.5,1,0,0,0],daily=MT1_1,status=variable
new load.3012547746M1 bus1=BMT163629847.1.2.3.0,Phases=3,kv=13.800000000,kW=0.00152,pf=0.92,Vminpu=0.93,Vmaxpu=1.5,model=8,zipv=[0.5,0,0.5,1,0,0,0],daily=MT1_1,status=variable
new load.3012679471M1 bus1=BMT159546446.1.2.3.0,Phases=3,kv=13.800000000,kW=0.06036,pf=0.92,Vminpu=0.93,Vmaxpu=1.5,model=8,zipv=[0.5,0,0.5,1,0,0,0],daily=MT1_1,status=variable
new load.3012976648M1 bus1=BMT157276459.1.2.3.0,Phases=3,kv=13.800000000,kW=4.66256,pf=0.92,Vminpu=0.93,Vmaxpu=1.5,model=8,zipv=[0.5,0,0.5,1,0,0,0],daily=MT1_1,status=variable
new load.3012996132M1 bus1=BMT157441248.1.2.3.0,Phases=3,kv=13.800000000,kW=0.872,pf=0.92,Vminpu=0.93,Vmaxpu=1.5,model=8,zipv=[0.5,0,0.5,1,0,0,0],daily=MT1_1,status=variable
new load.3013021100M1 bus1=BMT159320568.1.2.3.0,Phases=3,kv=13.800000000,kW=0.97004,pf=0.92,Vminpu=0.93,Vmaxpu=1.5,model=8,zipv=[0.5,0,0.5,1,0,0,0],daily=MT1_1,status=variable
new load.3013028665M1 bus1=BMT159338439.1.2.3.0,Phases=3,kv=13.800000000,kW=1.77392,pf=0.92,Vminpu=0.93,Vmaxpu=1.5,model=8,zipv=[0.5,0,0.5,1,0,0,0],daily=MT2_1,status=variable
new load.3013116313M1 bus1=BMT158542065.1.2.3.0,Phases=3,kv=13.800000000,kW=0.72206,pf=0.92,Vminpu=0.93,Vmaxpu=1.5,model=8,zipv=[0.5,0,0.5,1,0,0,0],daily=MT1_1,status=variable
new load.3013144560M1 bus1=BMT167656824.1.2.3.0,Phases=3,kv=13.800000000,kW=37.75038,pf=0.92,Vminpu=0.93,Vmaxpu=1.5,model=8,zipv=[0.5,0,0.5,1,0,0,0],daily=MT2_1,status=variable
new load.3013503735M1 bus1=BMT164838980.1.2.3.0,Phases=3,kv=13.800000000,kW=6.42134,pf=0.92,Vminpu=0.93,Vmaxpu=1.5,model=8,zipv=[0.5,0,0.5,1,0,0,0],daily=MT4_1,status=variable
new load.3013904002M1 bus1=BMT175704568.1.2.3.0,Phases=3,kv=13.800000000,kW=6.00618,pf=0.92,Vminpu=0.93,Vmaxpu=1.5,model=8,zipv=[0.5,0,0.5,1,0,0,0],daily=MT4_1,status=variable
