new loadshape.c3009017024 npts=24,interval=1.0,mult=[0.0001,0.0001,0.0001,0.0001,0.0001,0.0001,0.17,0.47,0.7,0.9,1,1,0.93,0.8,0.53,0.33,0.2,0.13,0.0001,0.0001,0.0001,0.0001,0.0001,0.0001]
new generator.3009017024 bus1=BMT125583770.1.2.3,Phases=3,kv=13.800000000,kW=49.01784,pf=1,model=1,daily=c3009017024,status=Variable
new loadshape.c3009018006 npts=24,interval=1.0,mult=[0.0001,0.0001,0.0001,0.0001,0.0001,0.0001,0.17,0.47,0.7,0.9,1,1,0.93,0.8,0.53,0.33,0.2,0.13,0.0001,0.0001,0.0001,0.0001,0.0001,0.0001]
new generator.3009018006 bus1=BMT177960381.1.2.3,Phases=3,kv=13.800000000,kW=85.15048,pf=1,model=1,daily=c3009018006,status=Variable
new loadshape.c3009019643 npts=24,interval=1.0,mult=[0.0001,0.0001,0.0001,0.0001,0.0001,0.0001,0.17,0.47,0.7,0.9,1,1,0.93,0.8,0.53,0.33,0.2,0.13,0.0001,0.0001,0.0001,0.0001,0.0001,0.0001]
new generator.3009019643 bus1=BMT172835939.1.2.3,Phases=3,kv=13.800000000,kW=59.47017,pf=1,model=1,daily=c3009019643,status=Variable
new loadshape.c3009019823 npts=24,interval=1.0,mult=[0.0001,0.0001,0.0001,0.0001,0.0001,0.0001,0.17,0.47,0.7,0.9,1,1,0.93,0.8,0.53,0.33,0.2,0.13,0.0001,0.0001,0.0001,0.0001,0.0001,0.0001]
new generator.3009019823 bus1=BMT169893114.1.2.3,Phases=3,kv=13.800000000,kW=476.21193,pf=1,model=1,daily=c3009019823,status=Variable
new loadshape.c3009020757 npts=24,interval=1.0,mult=[0.0001,0.0001,0.0001,0.0001,0.0001,0.0001,0.17,0.47,0.7,0.9,1,1,0.93,0.8,0.53,0.33,0.2,0.13,0.0001,0.0001,0.0001,0.0001,0.0001,0.0001]
new generator.3009020757 bus1=BMT176156222.1.2.3,Phases=3,kv=13.800000000,kW=69.20166,pf=1,model=1,daily=c3009020757,status=Variable
new loadshape.c3009021903 npts=24,interval=1.0,mult=[0.0001,0.0001,0.0001,0.0001,0.0001,0.0001,0.17,0.47,0.7,0.9,1,1,0.93,0.8,0.53,0.33,0.2,0.13,0.0001,0.0001,0.0001,0.0001,0.0001,0.0001]
new generator.3009021903 bus1=BMT169893129.1.2.3,Phases=3,kv=13.800000000,kW=4.3251,pf=1,model=1,daily=c3009021903,status=Variable
new loadshape.c3011262106 npts=24,interval=1.0,mult=[0.0001,0.0001,0.0001,0.0001,0.0001,0.0001,0.17,0.47,0.7,0.9,1,1,0.93,0.8,0.53,0.33,0.2,0.13,0.0001,0.0001,0.0001,0.0001,0.0001,0.0001]
new generator.3011262106 bus1=BMT172674005.1.2.3,Phases=3,kv=13.800000000,kW=76.77059,pf=1,model=1,daily=c3011262106,status=Variable
new loadshape.c3012183110 npts=24,interval=1.0,mult=[0.0001,0.0001,0.0001,0.0001,0.0001,0.0001,0.17,0.47,0.7,0.9,1,1,0.93,0.8,0.53,0.33,0.2,0.13,0.0001,0.0001,0.0001,0.0001,0.0001,0.0001]
new generator.3012183110 bus1=BMT166721126.1.2.3,Phases=3,kv=13.800000000,kW=45.23338,pf=1,model=1,daily=c3012183110,status=Variable
