new line.CTR10129 bus1=BMT125568965.1,bus2=BMT139445436.1,Phases=1,LineCode=tieSwitch1,Length=0.001,Units=km,switch=T !numEQ NUMEQ:172500  - Data de conexão anterior06/2011.
new line.CTR10136 bus1=BMT125569721.1,bus2=BMT125571394.1,Phases=1,LineCode=tieSwitch1,Length=0.001,Units=km,switch=T !numEQ NUMEQ:172253  - Data de conexão anterior06/2011.
new line.CTR101493 bus1=BMT168100360.1.2.3,bus2=BMT166720167.1.2.3,Phases=3,LineCode=tieSwitch,Length=0.001,Units=km,switch=T !numEQ NUMEQ:239465  - Data de conexão anterior06/2011.
open line.CTR101493 term=1
new line.CTR111153 bus1=BMT125578289.1.2.3,bus2=BMT172566187.1.2.3,Phases=3,LineCode=tieSwitch,Length=0.001,Units=km,switch=T !numEQ NUMEQ:44348  - Data de conexão anterior06/2011.
new line.CTR112175 bus1=BMT125583315.1.2.3,bus2=BMT125583511.1.2.3,Phases=3,LineCode=tieSwitch,Length=0.001,Units=km,switch=T !numEQ NUMEQ:137125  - Data de conexão anterior06/2011.
new line.CTR112189 bus1=BMT125583518.1.2.3,bus2=BMT125583532.1.2.3,Phases=3,LineCode=tieSwitch,Length=0.001,Units=km,switch=T !numEQ NUMEQ:137126  - Data de conexão anterior06/2011.
new line.CTR132503 bus1=BMT166719772.1.2.3,bus2=BMT170700968.1.2.3,Phases=3,LineCode=tieSwitch,Length=0.001,Units=km,switch=T !numEQ NUMEQ:65018  - Data de conexão anterior06/2011.
new line.CTR132524 bus1=BMT170700972.1.2.3,bus2=BMT2563785.1.2.3,Phases=3,LineCode=tieSwitch,Length=0.001,Units=km,switch=T !numEQ NUMEQ:45730  - Data de conexão anterior06/2011.
open line.CTR132524 term=1
new line.CTR132545 bus1=BMT166719818.1.2.3,bus2=BMT181382111.1.2.3,Phases=3,LineCode=tieSwitch,Length=0.001,Units=km,switch=T !numEQ NUMEQ:239460  - Data de conexão anterior06/2011.
new line.CTR132552 bus1=BMT166720024.1,bus2=BMT166720621.1,Phases=1,LineCode=tieSwitch1,Length=0.001,Units=km,switch=T !numEQ NUMEQ:269111  - Data de conexão anterior06/2011.
new line.CTR132559 bus1=BMT166720028.2,bus2=BMT167171349.2,Phases=1,LineCode=tieSwitch1,Length=0.001,Units=km,switch=T !numEQ NUMEQ:301906  - Data de conexão anterior06/2011.
new line.CTR132566 bus1=BMT166720033.1,bus2=BMT172640557.1,Phases=1,LineCode=tieSwitch1,Length=0.001,Units=km,switch=T !numEQ NUMEQ:239429  - Data de conexão anterior06/2011.
new line.CTR132573 bus1=BMT166720045.2,bus2=BMT166720552.2,Phases=1,LineCode=tieSwitch1,Length=0.001,Units=km,switch=T !numEQ NUMEQ:239431  - Data de conexão anterior06/2011.
new line.CTR132587 bus1=BMT166720070.1.2.3,bus2=BMT168098901.1.2.3,Phases=3,LineCode=tieSwitch,Length=0.001,Units=km,switch=T !numEQ NUMEQ:239439  - Data de conexão anterior06/2011.
new line.CTR132594 bus1=BMT166720084.3,bus2=BMT166720247.3,Phases=1,LineCode=tieSwitch1,Length=0.001,Units=km,switch=T !numEQ NUMEQ:239441  - Data de conexão anterior06/2011.
new line.CTR132601 bus1=BMT166720140.1.2.3,bus2=BMT166720188.1.2.3,Phases=3,LineCode=tieSwitch,Length=0.001,Units=km,switch=T !numEQ NUMEQ:244250  - Data de conexão anterior06/2011.
new line.CTR132615 bus1=BMT166720324.1,bus2=BMT166720333.1,Phases=1,LineCode=tieSwitch1,Length=0.001,Units=km,switch=T !numEQ NUMEQ:63278
new line.CTR132643 bus1=BMT166721033.2,bus2=BMT173932713.2,Phases=1,LineCode=tieSwitch1,Length=0.001,Units=km,switch=T !numEQ NUMEQ:47460  - Data de conexão anterior06/2011.
new line.CTR132650 bus1=BMT166720438.2,bus2=BMT179282523.2,Phases=1,LineCode=tieSwitch1,Length=0.001,Units=km,switch=T !numEQ NUMEQ:64113  - Data de conexão anterior06/2011.
new line.CTR132671 bus1=BMT166720880.1.2.3,bus2=BMT183451007.1.2.3,Phases=3,LineCode=tieSwitch,Length=0.001,Units=km,switch=T !numEQ NUMEQ:63275  - Data de conexão anterior06/2011.
new line.CTR132685 bus1=BMT166720913.1.2.3,bus2=BMT182851699.1.2.3,Phases=3,LineCode=tieSwitch,Length=0.001,Units=km,switch=T !numEQ NUMEQ:221593
new line.CTR132699 bus1=BMT166720967.3,bus2=BMT166720971.3,Phases=1,LineCode=tieSwitch1,Length=0.001,Units=km,switch=T !numEQ NUMEQ:64161  - Data de conexão anterior06/2011.
new line.CTR132720 bus1=BMT166720919.1.2.3,bus2=BMT166721155.1.2.3,Phases=3,LineCode=tieSwitch,Length=0.001,Units=km,switch=T !numEQ NUMEQ:45711  - Data de conexão anterior06/2011.
new line.CTR132734 bus1=BMT166720214.2,bus2=BMT166720219.2,Phases=1,LineCode=tieSwitch1,Length=0.001,Units=km,switch=T !numEQ NUMEQ:63274  - Data de conexão anterior06/2011.
new line.CTR132741 bus1=BMT166720089.2,bus2=BMT167201293.2,Phases=1,LineCode=tieSwitch1,Length=0.001,Units=km,switch=T !numEQ NUMEQ:239444  - Data de conexão anterior06/2011.
new line.CTR132769 bus1=BMT166719840.2,bus2=BMT166720005.2,Phases=1,LineCode=tieSwitch1,Length=0.001,Units=km,switch=T !numEQ NUMEQ:63377  - Data de conexão anterior06/2011.
new line.CTR132790 bus1=BMT166720672.2,bus2=BMT166720682.2,Phases=1,LineCode=tieSwitch1,Length=0.001,Units=km,switch=T !numEQ NUMEQ:62654
new line.CTR132797 bus1=BMT166719918.2,bus2=BMT166719975.2,Phases=1,LineCode=tieSwitch1,Length=0.001,Units=km,switch=T !numEQ NUMEQ:62610  - Data de conexão anterior06/2011.
new line.CTR132804 bus1=BMT125591554.1.2.3,bus2=BMT125591561.1.2.3,Phases=3,LineCode=tieSwitch,Length=0.001,Units=km,switch=T !numEQ NUMEQ:63300  - Data de conexão anterior06/2011.
new line.CTR132839 bus1=BMT125590784.1.2.3,bus2=BMT125595509.1.2.3,Phases=3,LineCode=tieSwitch,Length=0.001,Units=km,switch=T !numEQ NUMEQ:45717  - Data de conexão anterior06/2011.
new line.CTR132846 bus1=BMT125590819.1.2.3,bus2=BMT180465728.1.2.3,Phases=3,LineCode=tieSwitch,Length=0.001,Units=km,switch=T !numEQ NUMEQ:44616  - Data de conexão anterior06/2011.
new line.CTR132853 bus1=BMT125591106.1,bus2=BMT125594522.1,Phases=1,LineCode=tieSwitch1,Length=0.001,Units=km,switch=T !numEQ NUMEQ:64469  - Data de conexão anterior06/2011.
new line.CTR132860 bus1=BMT125591596.1.2.3,bus2=BMT172572330.1.2.3,Phases=3,LineCode=tieSwitch,Length=0.001,Units=km,switch=T !numEQ NUMEQ:62955  - Data de conexão anterior06/2011.
new line.CTR132867 bus1=BMT125592842.2,bus2=BMT181794671.2,Phases=1,LineCode=tieSwitch1,Length=0.001,Units=km,switch=T !numEQ NUMEQ:79183  - Data de conexão anterior06/2011.
new line.CTR132881 bus1=BMT125592471.2,bus2=BMT168916801.2,Phases=1,LineCode=tieSwitch1,Length=0.001,Units=km,switch=T !numEQ NUMEQ:62959  - Data de conexão anterior06/2011.
new line.CTR132895 bus1=BMT125591988.1.2.3,bus2=BMT125592324.1.2.3,Phases=3,LineCode=tieSwitch,Length=0.001,Units=km,switch=T !numEQ NUMEQ:63313  - Data de conexão anterior06/2011.
new line.CTR132902 bus1=BMT171348563.1.2.3,bus2=BMT181010865.1.2.3,Phases=3,LineCode=tieSwitch,Length=0.001,Units=km,switch=T !numEQ NUMEQ:277417
new line.CTR132909 bus1=BMT125591120.1.2.3,bus2=BMT160122623.1.2.3,Phases=3,LineCode=tieSwitch,Length=0.001,Units=km,switch=T !numEQ NUMEQ:62973  - Data de conexão anterior06/2011.
new line.CTR132923 bus1=BMT125595040.3,bus2=BMT174701534.3,Phases=1,LineCode=tieSwitch1,Length=0.001,Units=km,switch=T !numEQ NUMEQ:79356  - Data de conexão anterior06/2011.
new line.CTR132930 bus1=BMT125593549.1.2.3,bus2=BMT182547668.1.2.3,Phases=3,LineCode=tieSwitch,Length=0.001,Units=km,switch=T !numEQ NUMEQ:62643  - Data de conexão anterior06/2011.
new line.CTR132937 bus1=BMT125593752.2,bus2=BMT145558816.2,Phases=1,LineCode=tieSwitch1,Length=0.001,Units=km,switch=T !numEQ NUMEQ:63825  - Data de conexão anterior06/2011.
new line.CTR132944 bus1=BMT166720791.1.2.3,bus2=BMT183111159.1.2.3,Phases=3,LineCode=tieSwitch,Length=0.001,Units=km,switch=T !numEQ NUMEQ:174544  - Data de conexão anterior06/2011.
new line.CTR132951 bus1=BMT125591813.1.2.3,bus2=BMT172095365.1.2.3,Phases=3,LineCode=tieSwitch,Length=0.001,Units=km,switch=T !numEQ NUMEQ:47665  - Data de conexão anterior06/2011.
new line.CTR132965 bus1=BMT125591827.3,bus2=BMT150653029.3,Phases=1,LineCode=tieSwitch1,Length=0.001,Units=km,switch=T !numEQ NUMEQ:63826  - Data de conexão anterior06/2011.
new line.CTR132979 bus1=BMT125593612.2,bus2=BMT145558137.2,Phases=1,LineCode=tieSwitch1,Length=0.001,Units=km,switch=T !numEQ NUMEQ:63821  - Data de conexão anterior06/2011.
new line.CTR132993 bus1=BMT125591267.2,bus2=BMT160800632.2,Phases=1,LineCode=tieSwitch1,Length=0.001,Units=km,switch=T !numEQ NUMEQ:63734  - Data de conexão anterior06/2011.
new line.CTR133000 bus1=BMT125595250.1.2.3,bus2=BMT125595411.1.2.3,Phases=3,LineCode=tieSwitch,Length=0.001,Units=km,switch=T !numEQ NUMEQ:64417  - Data de conexão anterior06/2011.
new line.CTR102802 bus1=BMT167113758.1.2.3,bus2=BMT166721214.1.2.3,Phases=3,LineCode=tieSwitch,Length=0.001,Units=km,switch=T !numEQ NUMEQ:62141  - Data de conexão anterior06/2011.
open line.CTR102802 term=1
new line.CTR11256 bus1=BMT180409412.3,bus2=BMT166720885.3,Phases=1,LineCode=tieSwitch1,Length=0.001,Units=km,switch=T !numEQ NUMEQ:15747  - Data de conexão anterior06/2011.
open line.CTR11256 term=1
new line.CTR112931 bus1=BMT125573249.3,bus2=BMT125573256.3,Phases=1,LineCode=tieSwitch1,Length=0.001,Units=km,switch=T !numEQ NUMEQ:64070  - Data de conexão anterior06/2011.
new line.CTR112945 bus1=BMT125573389.3,bus2=BMT181624644.3,Phases=1,LineCode=tieSwitch1,Length=0.001,Units=km,switch=T !numEQ NUMEQ:62604  - Data de conexão anterior06/2011.
new line.CTR113582 bus1=BMT169893419.1.2.3,bus2=BMT169893425.1.2.3,Phases=3,LineCode=tieSwitch,Length=0.001,Units=km,switch=T !numEQ NUMEQ:195340  - Data de conexão anterior06/2011.
new line.CTR131663 bus1=BMT169893027.1.2.3,bus2=BMT175966925.1.2.3,Phases=3,LineCode=tieSwitch,Length=0.001,Units=km,switch=T !numEQ NUMEQ:62105  - Data de conexão anterior06/2011.
new line.CTR131670 bus1=BMT169893045.1.2.3,bus2=BMT169893053.1.2.3,Phases=3,LineCode=tieSwitch,Length=0.001,Units=km,switch=T !numEQ NUMEQ:234589  - Data de conexão anterior06/2011.
new line.CTR131677 bus1=BMT169893071.1.2.3,bus2=BMT169893106.1.2.3,Phases=3,LineCode=tieSwitch,Length=0.001,Units=km,switch=T !numEQ NUMEQ:63341  - Data de conexão anterior06/2011.
new line.CTR131691 bus1=BMT173678122.1.2.3,bus2=BMT169893023.1.2.3,Phases=3,LineCode=tieSwitch,Length=0.001,Units=km,switch=T !numEQ NUMEQ:62104  - Data de conexão anterior06/2011.
open line.CTR131691 term=1
new line.CTR131698 bus1=BMT169893240.1.2.3,bus2=BMT170742487.1.2.3,Phases=3,LineCode=tieSwitch,Length=0.001,Units=km,switch=T !numEQ NUMEQ:79186  - Data de conexão anterior06/2011.
new line.CTR131705 bus1=BMT169893261.1.2.3,bus2=BMT169893262.1.2.3,Phases=3,LineCode=tieSwitch,Length=0.001,Units=km,switch=T !numEQ NUMEQ:44955
new line.CTR131712 bus1=BMT169893296.1.2.3,bus2=BMT177723859.1.2.3,Phases=3,LineCode=tieSwitch,Length=0.001,Units=km,switch=T !numEQ NUMEQ:44420  - Data de conexão anterior06/2011.
new line.CTR131733 bus1=BMT169893347.1.2.3,bus2=BMT169893349.1.2.3,Phases=3,LineCode=tieSwitch,Length=0.001,Units=km,switch=T !numEQ NUMEQ:45216  - Data de conexão anterior06/2011.
new line.CTR131740 bus1=BMT169893241.1.2.3,bus2=BMT169893366.1.2.3,Phases=3,LineCode=tieSwitch,Length=0.001,Units=km,switch=T !numEQ NUMEQ:62113  - Data de conexão anterior06/2011.
new line.CTR131747 bus1=BMT169893387.1.2.3,bus2=BMT169893079.1.2.3,Phases=3,LineCode=tieSwitch,Length=0.001,Units=km,switch=T !numEQ NUMEQ:63265  - Data de conexão anterior06/2011.
open line.CTR131747 term=1
new line.CTR131754 bus1=BMT177958192.1.2.3,bus2=BMT177960020.1.2.3,Phases=3,LineCode=tieSwitch,Length=0.001,Units=km,switch=T !numEQ NUMEQ:232028  - Data de conexão anterior06/2011.
new line.CTR131768 bus1=BMT169893135.1.2.3,bus2=BMT169893138.1.2.3,Phases=3,LineCode=tieSwitch,Length=0.001,Units=km,switch=T !numEQ NUMEQ:269100  - Data de conexão anterior06/2011.
new line.CTR131782 bus1=BMT169893171.1.2.3,bus2=BMT177915983.1.2.3,Phases=3,LineCode=tieSwitch,Length=0.001,Units=km,switch=T !numEQ NUMEQ:64066  - Data de conexão anterior06/2011.
new line.CTR131789 bus1=BMT169893181.1.2.3,bus2=BMT169893194.1.2.3,Phases=3,LineCode=tieSwitch,Length=0.001,Units=km,switch=T !numEQ NUMEQ:45218  - Data de conexão anterior06/2011.
new line.CTR131810 bus1=BMT174923415.1.2.3,bus2=BMT2562952.1.2.3,Phases=3,LineCode=tieSwitch,Length=0.001,Units=km,switch=T !numEQ NUMEQ:64455  - Data de conexão anterior06/2011.
open line.CTR131810 term=1
new line.CTR131838 bus1=BMT125577855.1.2.3,bus2=BMT175363516.1.2.3,Phases=3,LineCode=tieSwitch,Length=0.001,Units=km,switch=T !numEQ NUMEQ:62308  - Data de conexão anterior06/2011.
new line.CTR131845 bus1=BMT125578912.1.2.3,bus2=BMT183836540.1.2.3,Phases=3,LineCode=tieSwitch,Length=0.001,Units=km,switch=T !numEQ NUMEQ:62315  - Data de conexão anterior06/2011.
new line.CTR131852 bus1=BMT157285845.1.2.3,bus2=BMT162557053.1.2.3,Phases=3,LineCode=tieSwitch,Length=0.001,Units=km,switch=T !numEQ NUMEQ:236810
new line.CTR131880 bus1=BMT183510666.1.2.3,bus2=BMT183510667.1.2.3,Phases=3,LineCode=tieSwitch,Length=0.001,Units=km,switch=T !numEQ NUMEQ:236809
new line.CTR131894 bus1=BMT125579472.1.2.3,bus2=BMT183374814.1.2.3,Phases=3,LineCode=tieSwitch,Length=0.001,Units=km,switch=T !numEQ NUMEQ:63457  - Data de conexão anterior06/2011.
new line.CTR131901 bus1=BMT125579535.1.2.3,bus2=BMT125580557.1.2.3,Phases=3,LineCode=tieSwitch,Length=0.001,Units=km,switch=T !numEQ NUMEQ:63467  - Data de conexão anterior06/2011.
new line.CTR131908 bus1=BMT125580228.2,bus2=BMT125580536.2,Phases=1,LineCode=tieSwitch1,Length=0.001,Units=km,switch=T !numEQ NUMEQ:62969  - Data de conexão anterior06/2011.
new line.CTR131922 bus1=BMT125580277.1.2.3,bus2=BMT125580347.1.2.3,Phases=3,LineCode=tieSwitch,Length=0.001,Units=km,switch=T !numEQ NUMEQ:63948  - Data de conexão anterior06/2011.
new line.CTR131929 bus1=BMT125580564.1,bus2=BMT125580578.1,Phases=1,LineCode=tieSwitch1,Length=0.001,Units=km,switch=T !numEQ NUMEQ:47252  - Data de conexão anterior06/2011.
new line.CTR131936 bus1=BMT125579794.1,bus2=BMT177503964.1,Phases=1,LineCode=tieSwitch1,Length=0.001,Units=km,switch=T !numEQ NUMEQ:63347  - Data de conexão anterior06/2011.
new line.CTR131943 bus1=BMT125580816.3,bus2=BMT164676201.3,Phases=1,LineCode=tieSwitch1,Length=0.001,Units=km,switch=T !numEQ NUMEQ:62968
new line.CTR131964 bus1=BMT125579927.1,bus2=BMT177503991.1,Phases=1,LineCode=tieSwitch1,Length=0.001,Units=km,switch=T !numEQ NUMEQ:63675  - Data de conexão anterior06/2011.
new line.CTR131971 bus1=BMT125581145.3,bus2=BMT125582328.3,Phases=1,LineCode=tieSwitch1,Length=0.001,Units=km,switch=T !numEQ NUMEQ:63369  - Data de conexão anterior06/2011.
new line.CTR131978 bus1=BMT125581467.3,bus2=BMT182912663.3,Phases=1,LineCode=tieSwitch1,Length=0.001,Units=km,switch=T !numEQ NUMEQ:252712  - Data de conexão anterior06/2011.
new line.CTR132027 bus1=BMT125577820.1.2.3,bus2=BMT125578149.1.2.3,Phases=3,LineCode=tieSwitch,Length=0.001,Units=km,switch=T !numEQ NUMEQ:64170  - Data de conexão anterior06/2011.
new line.CTR132265 bus1=BMT125569770.1,bus2=BMT125571380.1,Phases=1,LineCode=tieSwitch1,Length=0.001,Units=km,switch=T !numEQ NUMEQ:133747  - Data de conexão anterior06/2011.
new line.CTR132356 bus1=BMT125569924.2,bus2=BMT125570897.2,Phases=1,LineCode=tieSwitch1,Length=0.001,Units=km,switch=T !numEQ NUMEQ:135094  - Data de conexão anterior06/2011.
new line.CTR143493 bus1=BMT125592443.2,bus2=BMT168916797.2,Phases=1,LineCode=tieSwitch1,Length=0.001,Units=km,switch=T !numEQ NUMEQ:63461  - Data de conexão anterior06/2011.
new line.CTR14350 bus1=BMT183451010.1.2.3,bus2=BMT166720892.1.2.3,Phases=3,LineCode=tieSwitch,Length=0.001,Units=km,switch=T !numEQ NUMEQ:63455  - Data de conexão anterior06/2011.
new line.CTR143710 bus1=BMT125561398.2,bus2=BMT158588049.2,Phases=1,LineCode=tieSwitch1,Length=0.001,Units=km,switch=T !numEQ NUMEQ:62338  - Data de conexão anterior06/2011.
new line.CTR161126 bus1=BMT125577918.1.2.3,bus2=BMT133048605.1.2.3,Phases=3,LineCode=tieSwitch,Length=0.001,Units=km,switch=T !numEQ NUMEQ:136521  - Data de conexão anterior06/2011.
new line.CTR161308 bus1=BMT173932489.1.2.3,bus2=BMT183829912.1.2.3,Phases=3,LineCode=tieSwitch,Length=0.001,Units=km,switch=T !numEQ NUMEQ:115777
new line.CTR16149 bus1=BMT169893269.1.2.3,bus2=BMT169893292.1.2.3,Phases=3,LineCode=tieSwitch,Length=0.001,Units=km,switch=T !numEQ NUMEQ:62118  - Data de conexão anterior06/2011.
new line.CTR16177 bus1=BMT125578380.1.2.3,bus2=BMT153550756.1.2.3,Phases=3,LineCode=tieSwitch,Length=0.001,Units=km,switch=T !numEQ NUMEQ:79353  - Data de conexão anterior06/2011.
new line.CTR182469 bus1=BMT125568349.3,bus2=BMT183206078.3,Phases=1,LineCode=tieSwitch1,Length=0.001,Units=km,switch=T !numEQ NUMEQ:316185  - Data de conexão anterior06/2011.
new line.CTR182560 bus1=BMT133288474.1,bus2=BMT179583941.1,Phases=1,LineCode=tieSwitch1,Length=0.001,Units=km,switch=T !numEQ NUMEQ:172703
new line.CTR182931 bus1=BMT125594431.2,bus2=BMT125594466.2,Phases=1,LineCode=tieSwitch1,Length=0.001,Units=km,switch=T !numEQ NUMEQ:46311  - Data de conexão anterior06/2011.
new line.CTR10472 bus1=BMT159313434.3,bus2=BMT159313618.3,Phases=1,LineCode=tieSwitch1,Length=0.001,Units=km,switch=T !numEQ NUMEQ:172780  - Data de conexão anterior06/2011.
new line.CTR105168 bus1=BMT125561195.2,bus2=BMT125561748.2,Phases=1,LineCode=tieSwitch1,Length=0.001,Units=km,switch=T !numEQ NUMEQ:63363  - Data de conexão anterior06/2011.
new line.CTR117222 bus1=BMT125555070.1.2.3,bus2=BMT159915806.1.2.3,Phases=3,LineCode=tieSwitch,Length=0.001,Units=km,switch=T !numEQ NUMEQ:62150  - Data de conexão anterior06/2011.
new line.CTR120743 bus1=BMT167178872.1.2.3,bus2=BMT125555910.1.2.3,Phases=3,LineCode=tieSwitch,Length=0.001,Units=km,switch=T !numEQ NUMEQ:305022  - Data de conexão anterior06/2011.
open line.CTR120743 term=1
new line.CTR120750 bus1=BMT125558038.2,bus2=BMT179310827.2,Phases=1,LineCode=tieSwitch1,Length=0.001,Units=km,switch=T !numEQ NUMEQ:62317  - Data de conexão anterior06/2011.
new line.CTR120757 bus1=BMT125557093.2,bus2=BMT125557100.2,Phases=1,LineCode=tieSwitch1,Length=0.001,Units=km,switch=T !numEQ NUMEQ:90995  - Data de conexão anterior06/2011.
new line.CTR120764 bus1=BMT125557114.2,bus2=BMT175039300.2,Phases=1,LineCode=tieSwitch1,Length=0.001,Units=km,switch=T !numEQ NUMEQ:90398
new line.CTR120771 bus1=BMT125556764.1,bus2=BMT125556771.1,Phases=1,LineCode=tieSwitch1,Length=0.001,Units=km,switch=T !numEQ NUMEQ:63093  - Data de conexão anterior06/2011.
new line.CTR120778 bus1=BMT125556064.1.2.3,bus2=BMT125556113.1.2.3,Phases=3,LineCode=tieSwitch,Length=0.001,Units=km,switch=T !numEQ NUMEQ:62195  - Data de conexão anterior06/2011.
new line.CTR120792 bus1=BMT125555840.1.2.3,bus2=BMT125558493.1.2.3,Phases=3,LineCode=tieSwitch,Length=0.001,Units=km,switch=T !numEQ NUMEQ:62259  - Data de conexão anterior06/2011.
new line.CTR120799 bus1=BMT125560348.3,bus2=BMT125560516.3,Phases=1,LineCode=tieSwitch1,Length=0.001,Units=km,switch=T !numEQ NUMEQ:63579  - Data de conexão anterior06/2011.
new line.CTR120806 bus1=BMT125558724.2,bus2=BMT158653083.2,Phases=1,LineCode=tieSwitch1,Length=0.001,Units=km,switch=T !numEQ NUMEQ:63585  - Data de conexão anterior06/2011.
new line.CTR120813 bus1=BMT173414129.1.2.3,bus2=BMT125555882.1.2.3,Phases=3,LineCode=tieSwitch,Length=0.001,Units=km,switch=T !numEQ NUMEQ:64406  - Data de conexão anterior06/2011.
new line.CTR120820 bus1=BMT171157090.2,bus2=BMT171632014.2,Phases=1,LineCode=tieSwitch1,Length=0.001,Units=km,switch=T !numEQ NUMEQ:63584  - Data de conexão anterior06/2011.
new line.CTR120827 bus1=BMT125555588.1,bus2=BMT173678048.1,Phases=1,LineCode=tieSwitch1,Length=0.001,Units=km,switch=T !numEQ NUMEQ:90978
new line.CTR120855 bus1=BMT125555413.2,bus2=BMT148735574.2,Phases=1,LineCode=tieSwitch1,Length=0.001,Units=km,switch=T !numEQ NUMEQ:63965  - Data de conexão anterior06/2011.
new line.CTR120862 bus1=BMT125555301.1.2.3,bus2=BMT133090899.1.2.3,Phases=3,LineCode=tieSwitch,Length=0.001,Units=km,switch=T !numEQ NUMEQ:228550  - Data de conexão anterior06/2011.
new line.CTR120869 bus1=BMT125559676.2,bus2=BMT125559760.2,Phases=1,LineCode=tieSwitch1,Length=0.001,Units=km,switch=T !numEQ NUMEQ:62494  - Data de conexão anterior06/2011.
new line.CTR120876 bus1=BMT125559732.2,bus2=BMT180595239.2,Phases=1,LineCode=tieSwitch1,Length=0.001,Units=km,switch=T !numEQ NUMEQ:63007  - Data de conexão anterior06/2011.
new line.CTR120883 bus1=BMT125560222.1.2.3,bus2=BMT176411641.1.2.3,Phases=3,LineCode=tieSwitch,Length=0.001,Units=km,switch=T !numEQ NUMEQ:299459  - Data de conexão anterior06/2011.
new line.CTR120897 bus1=BMT125555196.1.2.3,bus2=BMT155649679.1.2.3,Phases=3,LineCode=tieSwitch,Length=0.001,Units=km,switch=T !numEQ NUMEQ:228549  - Data de conexão anterior06/2011.
new line.CTR120904 bus1=BMT125555294.1.2.3,bus2=BMT125560187.1.2.3,Phases=3,LineCode=tieSwitch,Length=0.001,Units=km,switch=T !numEQ NUMEQ:106764  - Data de conexão anterior06/2011.
new line.CTR121212 bus1=BMT125563407.1.2.3,bus2=BMT174411474.1.2.3,Phases=3,LineCode=tieSwitch,Length=0.001,Units=km,switch=T !numEQ NUMEQ:63094  - Data de conexão anterior06/2011.
new line.CTR121219 bus1=BMT125564072.3,bus2=BMT178921312.3,Phases=1,LineCode=tieSwitch1,Length=0.001,Units=km,switch=T !numEQ NUMEQ:63871  - Data de conexão anterior06/2011.
new line.CTR121226 bus1=BMT182116678.1.2.3,bus2=BMT169190417.1.2.3,Phases=3,LineCode=tieSwitch,Length=0.001,Units=km,switch=T !numEQ NUMEQ:63432  - Data de conexão anterior06/2011.
open line.CTR121226 term=1
new line.CTR122045 bus1=BMT177104653.3,bus2=BMT125580879.3,Phases=1,LineCode=tieSwitch1,Length=0.001,Units=km,switch=T !numEQ NUMEQ:173105  - Data de conexão anterior06/2011.
new line.CTR13538 bus1=BMT166720474.3,bus2=BMT166720513.3,Phases=1,LineCode=tieSwitch1,Length=0.001,Units=km,switch=T !numEQ NUMEQ:63456  - Data de conexão anterior06/2011.
new line.CTR135401 bus1=BMT183093778.2,bus2=BMT183134117.2,Phases=1,LineCode=tieSwitch1,Length=0.001,Units=km,switch=T !numEQ NUMEQ:174530  - Data de conexão anterior06/2011.
new line.CTR135408 bus1=BMT166720858.1,bus2=BMT166721404.1,Phases=1,LineCode=tieSwitch1,Length=0.001,Units=km,switch=T !numEQ NUMEQ:174531  - Data de conexão anterior06/2011.
new line.CTR135415 bus1=BMT166720870.1.2.3,bus2=BMT180894911.1.2.3,Phases=3,LineCode=tieSwitch,Length=0.001,Units=km,switch=T !numEQ NUMEQ:174017  - Data de conexão anterior06/2011.
new line.CTR135611 bus1=BMT166719758.1.2.3,bus2=BMT166719759.1.2.3,Phases=3,LineCode=tieSwitch,Length=0.001,Units=km,switch=T !numEQ NUMEQ:79782  - Data de conexão anterior06/2011.
new line.CTR13566 bus1=BMT125563099.1.2.3,bus2=BMT182116669.1.2.3,Phases=3,LineCode=tieSwitch,Length=0.001,Units=km,switch=T !numEQ NUMEQ:100739  - Data de conexão anterior06/2011.
new line.CTR146314 bus1=BMT125578338.1.2.3,bus2=BMT167907773.1.2.3,Phases=3,LineCode=tieSwitch,Length=0.001,Units=km,switch=T !numEQ NUMEQ:238946  - Data de conexão anterior06/2011.
new line.CTR147371 bus1=BMT179583906.1,bus2=BMT125567390.1,Phases=1,LineCode=tieSwitch1,Length=0.001,Units=km,switch=T !numEQ NUMEQ:63261
new line.CTR155638 bus1=BMT125569896.1,bus2=BMT179661556.1,Phases=1,LineCode=tieSwitch1,Length=0.001,Units=km,switch=T !numEQ NUMEQ:63273
new line.CTR155911 bus1=BMT125591169.1.2.3,bus2=BMT155515269.1.2.3,Phases=3,LineCode=tieSwitch,Length=0.001,Units=km,switch=T !numEQ NUMEQ:63380  - Data de conexão anterior06/2011.
new line.CTR162645 bus1=BMT166720061.3,bus2=BMT166720418.3,Phases=1,LineCode=tieSwitch1,Length=0.001,Units=km,switch=T !numEQ NUMEQ:239436  - Data de conexão anterior06/2011.
new line.CTR16338 bus1=BMT125578583.1.2.3,bus2=BMT177664239.1.2.3,Phases=3,LineCode=tieSwitch,Length=0.001,Units=km,switch=T !numEQ NUMEQ:238949  - Data de conexão anterior06/2011.
new line.CTR163401 bus1=BMT125573984.3,bus2=BMT125573998.3,Phases=1,LineCode=tieSwitch1,Length=0.001,Units=km,switch=T !numEQ NUMEQ:173089  - Data de conexão anterior06/2011.
new line.CTR163485 bus1=BMT166720060.1,bus2=BMT166720422.1,Phases=1,LineCode=tieSwitch1,Length=0.001,Units=km,switch=T !numEQ NUMEQ:239435  - Data de conexão anterior06/2011.
new line.CTR172214 bus1=BMT125555798.2,bus2=BMT125558535.2,Phases=1,LineCode=tieSwitch1,Length=0.001,Units=km,switch=T !numEQ NUMEQ:110130  - Data de conexão anterior06/2011.
new line.CTR172263 bus1=BMT125578107.1.2.3,bus2=BMT150346793.1.2.3,Phases=3,LineCode=tieSwitch,Length=0.001,Units=km,switch=T !numEQ NUMEQ:209799  - Data de conexão anterior06/2011.
new line.CTR172536 bus1=BMT125584183.1.2.3,bus2=BMT167930428.1.2.3,Phases=3,LineCode=tieSwitch,Length=0.001,Units=km,switch=T !numEQ NUMEQ:207193  - Data de conexão anterior06/2011.
new line.CTR173439 bus1=BMT125579500.1.2.3,bus2=BMT125580606.1.2.3,Phases=3,LineCode=tieSwitch,Length=0.001,Units=km,switch=T !numEQ NUMEQ:172704  - Data de conexão anterior06/2011.
new line.CTR185360 bus1=BMT166719928.2,bus2=BMT166719932.2,Phases=1,LineCode=tieSwitch1,Length=0.001,Units=km,switch=T !numEQ NUMEQ:201340  - Data de conexão anterior06/2011.
new line.CTR185367 bus1=BMT166720096.1.2.3,bus2=BMT169056875.1.2.3,Phases=3,LineCode=tieSwitch,Length=0.001,Units=km,switch=T !numEQ NUMEQ:201341
new line.CTR185374 bus1=BMT125579451.2,bus2=BMT178703388.2,Phases=1,LineCode=tieSwitch1,Length=0.001,Units=km,switch=T !numEQ NUMEQ:63949  - Data de conexão anterior06/2011.
new line.CTR133028 bus1=BMT125554881.1.2.3,bus2=BMT163067259.1.2.3,Phases=3,LineCode=tieSwitch,Length=0.001,Units=km,switch=T !numEQ NUMEQ:63940  - Data de conexão anterior06/2011.
new line.CTR133049 bus1=BMT125562392.1.2.3,bus2=BMT125567173.1.2.3,Phases=3,LineCode=tieSwitch,Length=0.001,Units=km,switch=T !numEQ NUMEQ:64427  - Data de conexão anterior06/2011.
new line.CTR133056 bus1=BMT125562161.3,bus2=BMT149330290.3,Phases=1,LineCode=tieSwitch1,Length=0.001,Units=km,switch=T !numEQ NUMEQ:145170  - Data de conexão anterior06/2011.
new line.CTR133063 bus1=BMT157445781.1.2.3,bus2=BMT125562322.1.2.3,Phases=3,LineCode=tieSwitch,Length=0.001,Units=km,switch=T !numEQ NUMEQ:145257  - Data de conexão anterior06/2011.
new line.CTR133077 bus1=BMT125565591.2,bus2=BMT165238487.2,Phases=1,LineCode=tieSwitch1,Length=0.001,Units=km,switch=T !numEQ NUMEQ:63251
new line.CTR133084 bus1=BMT125566081.1,bus2=BMT168199130.1,Phases=1,LineCode=tieSwitch1,Length=0.001,Units=km,switch=T !numEQ NUMEQ:64026  - Data de conexão anterior06/2011.
new line.CTR133098 bus1=BMT125567537.1,bus2=BMT179583973.1,Phases=1,LineCode=tieSwitch1,Length=0.001,Units=km,switch=T !numEQ NUMEQ:63283  - Data de conexão anterior06/2011.
new line.CTR133119 bus1=BMT125562455.3,bus2=BMT125565948.3,Phases=1,LineCode=tieSwitch1,Length=0.001,Units=km,switch=T !numEQ NUMEQ:64429  - Data de conexão anterior06/2011.
new line.CTR133133 bus1=BMT125562539.1.2.3,bus2=BMT178680920.1.2.3,Phases=3,LineCode=tieSwitch,Length=0.001,Units=km,switch=T !numEQ NUMEQ:143316  - Data de conexão anterior06/2011.
new line.CTR133140 bus1=BMT125562525.3,bus2=BMT125565871.3,Phases=1,LineCode=tieSwitch1,Length=0.001,Units=km,switch=T !numEQ NUMEQ:64452  - Data de conexão anterior06/2011.
new line.CTR133154 bus1=BMT125567180.1.2.3,bus2=BMT161766150.1.2.3,Phases=3,LineCode=tieSwitch,Length=0.001,Units=km,switch=T !numEQ NUMEQ:62888  - Data de conexão anterior06/2011.
new line.CTR133168 bus1=BMT125555014.1.2.3,bus2=BMT181642178.1.2.3,Phases=3,LineCode=tieSwitch,Length=0.001,Units=km,switch=T !numEQ NUMEQ:62149  - Data de conexão anterior06/2011.
new line.CTR133210 bus1=BMT125568636.1.2.3,bus2=BMT163376126.1.2.3,Phases=3,LineCode=tieSwitch,Length=0.001,Units=km,switch=T !numEQ NUMEQ:47394
new line.CTR133238 bus1=BMT125568846.1,bus2=BMT171653138.1,Phases=1,LineCode=tieSwitch1,Length=0.001,Units=km,switch=T !numEQ NUMEQ:63946  - Data de conexão anterior06/2011.
new line.CTR133245 bus1=BMT125569679.3,bus2=BMT179774125.3,Phases=1,LineCode=tieSwitch1,Length=0.001,Units=km,switch=T !numEQ NUMEQ:64106  - Data de conexão anterior06/2011.
new line.CTR133252 bus1=BMT125574502.3,bus2=BMT176541601.3,Phases=1,LineCode=tieSwitch1,Length=0.001,Units=km,switch=T !numEQ NUMEQ:62146  - Data de conexão anterior06/2011.
new line.CTR133287 bus1=BMT125569224.3,bus2=BMT125574278.3,Phases=1,LineCode=tieSwitch1,Length=0.001,Units=km,switch=T !numEQ NUMEQ:63660
new line.CTR133301 bus1=BMT125569560.1,bus2=BMT125571709.1,Phases=1,LineCode=tieSwitch1,Length=0.001,Units=km,switch=T !numEQ NUMEQ:47381  - Data de conexão anterior06/2011.
new line.CTR133364 bus1=BMT125572073.3,bus2=BMT182116762.3,Phases=1,LineCode=tieSwitch1,Length=0.001,Units=km,switch=T !numEQ NUMEQ:62602  - Data de conexão anterior06/2011.
new line.CTR133399 bus1=BMT125569504.1.2.3,bus2=BMT171706641.1.2.3,Phases=3,LineCode=tieSwitch,Length=0.001,Units=km,switch=T !numEQ NUMEQ:47463  - Data de conexão anterior06/2011.
new line.CTR133469 bus1=BMT125572339.3,bus2=BMT125573193.3,Phases=1,LineCode=tieSwitch1,Length=0.001,Units=km,switch=T !numEQ NUMEQ:64153  - Data de conexão anterior06/2011.
new line.CTR133476 bus1=BMT125572465.3,bus2=BMT156247426.3,Phases=1,LineCode=tieSwitch1,Length=0.001,Units=km,switch=T !numEQ NUMEQ:64022  - Data de conexão anterior06/2011.
new line.CTR156555 bus1=BMT139583763.2,bus2=BMT179923240.2,Phases=1,LineCode=tieSwitch1,Length=0.001,Units=km,switch=T !numEQ NUMEQ:172159  - Data de conexão anterior06/2011.
new line.CTR156569 bus1=BMT125557716.2,bus2=BMT125557786.2,Phases=1,LineCode=tieSwitch1,Length=0.001,Units=km,switch=T !numEQ NUMEQ:64475  - Data de conexão anterior06/2011.
new line.CTR156590 bus1=BMT125583455.1.2.3,bus2=BMT161702494.1.2.3,Phases=3,LineCode=tieSwitch,Length=0.001,Units=km,switch=T !numEQ NUMEQ:173574  - Data de conexão anterior06/2011.
new line.CTR156632 bus1=BMT175121618.1.2.3,bus2=BMT5181092.1.2.3,Phases=3,LineCode=tieSwitch,Length=0.001,Units=km,switch=T !numEQ NUMEQ:174363
open line.CTR156632 term=1
new line.CTR156821 bus1=BMT166721284.1.2.3,bus2=BMT174027074.1.2.3,Phases=3,LineCode=tieSwitch,Length=0.001,Units=km,switch=T !numEQ NUMEQ:63310  - Data de conexão anterior06/2011.
new line.CTR157192 bus1=BMT125569567.2,bus2=BMT125571681.2,Phases=1,LineCode=tieSwitch1,Length=0.001,Units=km,switch=T !numEQ NUMEQ:214010  - Data de conexão anterior06/2011.
new line.CTR157703 bus1=BMT166720816.1,bus2=BMT183114553.1,Phases=1,LineCode=tieSwitch1,Length=0.001,Units=km,switch=T !numEQ NUMEQ:63951  - Data de conexão anterior06/2011.
new line.CTR167881 bus1=BMT164916198.2,bus2=BMT178198489.2,Phases=1,LineCode=tieSwitch1,Length=0.001,Units=km,switch=T !numEQ NUMEQ:103603