new loadshape.ccurvaUGBT npts=24,interval=1.0,mult=[0.0001,0.0001,0.0001,0.0001,0.0001,0.0001,0.17,0.47,0.7,0.9,1,1,0.93,0.8,0.53,0.33,0.2,0.13,0.0001,0.0001,0.0001,0.0001,0.0001,0.0001]
new generator.3000313874 bus1=1001003723062.1.2.0,Phases=2,kv=0.22,kW=2.0958,pf=1,model=1,daily=ccurvaUGBT,status=Variable
new generator.3000313936 bus1=1001002334199.3.1.0,Phases=2,kv=0.22,kW=1.64341,pf=1,model=1,daily=ccurvaUGBT,status=Variable
new generator.3000314048 bus1=1001002320437.2.3.0,Phases=2,kv=0.22,kW=2.6331,pf=1,model=1,daily=ccurvaUGBT,status=Variable
new generator.3000314050 bus1=1001002322145.3.1.0,Phases=2,kv=0.22,kW=2.95588,pf=1,model=1,daily=ccurvaUGBT,status=Variable
new generator.3000314200 bus1=1001002306689.1.2.0,Phases=2,kv=0.22,kW=14.40688,pf=1,model=1,daily=ccurvaUGBT,status=Variable
new generator.3000314215 bus1=1001002306451.1.2.0,Phases=2,kv=0.22,kW=8.05738,pf=1,model=1,daily=ccurvaUGBT,status=Variable
new generator.3000314218 bus1=1001002306430.1.2.0,Phases=2,kv=0.22,kW=4.7497,pf=1,model=1,daily=ccurvaUGBT,status=Variable
new generator.3000314220 bus1=1001002306255.1.2.0,Phases=2,kv=0.22,kW=8.87927,pf=1,model=1,daily=ccurvaUGBT,status=Variable
new generator.3000314224 bus1=1001002306395.1.2.0,Phases=2,kv=0.22,kW=14.94714,pf=1,model=1,daily=ccurvaUGBT,status=Variable
new generator.3000314257 bus1=1001002306619.1.2.0,Phases=2,kv=0.22,kW=9.45779,pf=1,model=1,daily=ccurvaUGBT,status=Variable
new generator.3000314291 bus1=1001004211907.1.2.0,Phases=2,kv=0.22,kW=4.64273,pf=1,model=1,daily=ccurvaUGBT,status=Variable
new generator.3000314297 bus1=1001002306696.1.2.0,Phases=2,kv=0.22,kW=15.47576,pf=1,model=1,daily=ccurvaUGBT,status=Variable
new generator.3000314320 bus1=1001002306500.1.2.0,Phases=2,kv=0.22,kW=4.34467,pf=1,model=1,daily=ccurvaUGBT,status=Variable
new generator.3000314333 bus1=1001002306766.1.2.3.0,Phases=3,kv=0.22,kW=3.06454,pf=1,model=1,daily=ccurvaUGBT,status=Variable
new generator.3000314336 bus1=1001002306997.1.2.0,Phases=2,kv=0.22,kW=1.61023,pf=1,model=1,daily=ccurvaUGBT,status=Variable
new generator.3000671720 bus1=1001002339897.1.2.3.0,Phases=3,kv=0.22,kW=0.87417,pf=1,model=1,daily=ccurvaUGBT,status=Variable
new generator.3000671926 bus1=1001002333310.2.3.0,Phases=2,kv=0.22,kW=0.68394,pf=1,model=1,daily=ccurvaUGBT,status=Variable
new generator.3000672001 bus1=1001004374545.1.2.0,Phases=2,kv=0.22,kW=1.89046,pf=1,model=1,daily=ccurvaUGBT,status=Variable
new generator.3000672002 bus1=1001004011476.1.2.0,Phases=2,kv=0.22,kW=1.20667,pf=1,model=1,daily=ccurvaUGBT,status=Variable
new generator.3000672005 bus1=1001002354625.1.2.0,Phases=2,kv=0.22,kW=3.17647,pf=1,model=1,daily=ccurvaUGBT,status=Variable
new generator.3000672019 bus1=1001002354926.1.2.3.0,Phases=3,kv=0.22,kW=24.40183,pf=1,model=1,daily=ccurvaUGBT,status=Variable
new generator.3000672024 bus1=1001002355150.1.2.0,Phases=2,kv=0.22,kW=11.29173,pf=1,model=1,daily=ccurvaUGBT,status=Variable
new generator.3000672032 bus1=1001002422371.1.2.0,Phases=2,kv=0.22,kW=2.11606,pf=1,model=1,daily=ccurvaUGBT,status=Variable
new generator.3000672054 bus1=1001002355332.1.2.0,Phases=2,kv=0.22,kW=1.80967,pf=1,model=1,daily=ccurvaUGBT,status=Variable
new generator.3000672071 bus1=1001002355836.1.2.0,Phases=2,kv=0.22,kW=2.36552,pf=1,model=1,daily=ccurvaUGBT,status=Variable
new generator.3000672092 bus1=1001002355864.1.2.0,Phases=2,kv=0.22,kW=1.83592,pf=1,model=1,daily=ccurvaUGBT,status=Variable
new generator.3000672099 bus1=1001002354835.1.2.0,Phases=2,kv=0.22,kW=3.14744,pf=1,model=1,daily=ccurvaUGBT,status=Variable
new generator.3000672103 bus1=1001003992653.1.2.0,Phases=2,kv=0.22,kW=5.85412,pf=1,model=1,daily=ccurvaUGBT,status=Variable
new generator.3000144911 bus1=1001002340443.2.3.0,Phases=2,kv=0.22,kW=1.47192,pf=1,model=1,daily=ccurvaUGBT,status=Variable
new generator.3000144914 bus1=1001002340387.1.2.3.0,Phases=3,kv=0.22,kW=1.61609,pf=1,model=1,daily=ccurvaUGBT,status=Variable
new generator.3000144923 bus1=1001002339505.1.0,Phases=1,kv=0.127,kW=0.70208,pf=1,model=1,daily=ccurvaUGBT,status=Variable
new generator.3000144954 bus1=1001002340100.2.3.0,Phases=2,kv=0.22,kW=6.89379,pf=1,model=1,daily=ccurvaUGBT,status=Variable
new generator.3000144994 bus1=1001002336019.1.2.3.0,Phases=3,kv=0.22,kW=0.9922,pf=1,model=1,daily=ccurvaUGBT,status=Variable
new generator.3000145106 bus1=1001002354457.1.2.0,Phases=2,kv=0.22,kW=0.44263,pf=1,model=1,daily=ccurvaUGBT,status=Variable
new generator.3000145108 bus1=1001011311833.1.2.3.0,Phases=3,kv=0.22,kW=7.13729,pf=1,model=1,daily=ccurvaUGBT,status=Variable
new generator.3000145110 bus1=1001002354548.1.2.3.0,Phases=3,kv=0.22,kW=12.57219,pf=1,model=1,daily=ccurvaUGBT,status=Variable
new generator.3000145131 bus1=1001002355003.1.2.0,Phases=2,kv=0.22,kW=1.89855,pf=1,model=1,daily=ccurvaUGBT,status=Variable
new generator.3000145157 bus1=1001003719758.1.2.0,Phases=2,kv=0.22,kW=4.5729,pf=1,model=1,daily=ccurvaUGBT,status=Variable
new generator.3000145171 bus1=1001004010587.1.2.0,Phases=2,kv=0.22,kW=1.55107,pf=1,model=1,daily=ccurvaUGBT,status=Variable
new generator.3000145180 bus1=1001010466538.1.2.0,Phases=2,kv=0.22,kW=6.7409,pf=1,model=1,daily=ccurvaUGBT,status=Variable
new generator.3000145199 bus1=1001002355591.1.2.0,Phases=2,kv=0.22,kW=2.50735,pf=1,model=1,daily=ccurvaUGBT,status=Variable
new generator.3000145204 bus1=1001002323342.1.2.0,Phases=2,kv=0.22,kW=0.76891,pf=1,model=1,daily=ccurvaUGBT,status=Variable
new generator.3000145220 bus1=1001002307046.1.2.0,Phases=2,kv=0.22,kW=3.06649,pf=1,model=1,daily=ccurvaUGBT,status=Variable
new generator.3000145224 bus1=1001002307088.1.2.0,Phases=2,kv=0.22,kW=2.56732,pf=1,model=1,daily=ccurvaUGBT,status=Variable
new generator.3000145227 bus1=1001002306934.1.2.3.0,Phases=3,kv=0.22,kW=49.79839,pf=1,model=1,daily=ccurvaUGBT,status=Variable
new generator.3000145228 bus1=1001010509336.1.2.0,Phases=2,kv=0.22,kW=2.01838,pf=1,model=1,daily=ccurvaUGBT,status=Variable
new generator.3000145239 bus1=1001002323349.1.2.0,Phases=2,kv=0.22,kW=1.88108,pf=1,model=1,daily=ccurvaUGBT,status=Variable
new generator.3001209945 bus1=1001001128512.3.1.0,Phases=2,kv=0.22,kW=0.60132,pf=1,model=1,daily=ccurvaUGBT,status=Variable
new generator.3001209997 bus1=1001001128050.1.2.3.0,Phases=3,kv=0.22,kW=2.49321,pf=1,model=1,daily=ccurvaUGBT,status=Variable
new generator.3001210001 bus1=1001001127056.3.1.0,Phases=2,kv=0.22,kW=1.10634,pf=1,model=1,daily=ccurvaUGBT,status=Variable
new generator.3001210008 bus1=1001001127028.1.2.0,Phases=2,kv=0.22,kW=8.41399,pf=1,model=1,daily=ccurvaUGBT,status=Variable
new generator.3001210101 bus1=1001001124634.1.2.0,Phases=2,kv=0.22,kW=6.78501,pf=1,model=1,daily=ccurvaUGBT,status=Variable
new generator.3001210171 bus1=1001001124662.1.2.0,Phases=2,kv=0.22,kW=1.84857,pf=1,model=1,daily=ccurvaUGBT,status=Variable
new generator.3001210404 bus1=1001003740121.2.0,Phases=1,kv=0.127,kW=1.14558,pf=1,model=1,daily=ccurvaUGBT,status=Variable
new generator.3001210405 bus1=1001004169214.2.0,Phases=1,kv=0.127,kW=4.58439,pf=1,model=1,daily=ccurvaUGBT,status=Variable
new generator.3001211174 bus1=1001002325743.1.2.3.0,Phases=3,kv=0.22,kW=4.43537,pf=1,model=1,daily=ccurvaUGBT,status=Variable
new generator.3000491612 bus1=1001002333912.1.0,Phases=1,kv=0.127,kW=3.74392,pf=1,model=1,daily=ccurvaUGBT,status=Variable
new generator.3000491631 bus1=1001002332652.2.3.0,Phases=2,kv=0.22,kW=3.68967,pf=1,model=1,daily=ccurvaUGBT,status=Variable
new generator.3000491751 bus1=1001002425136.1.2.0,Phases=2,kv=0.22,kW=26.84793,pf=1,model=1,daily=ccurvaUGBT,status=Variable
new generator.3000491811 bus1=1001003727003.1.2.0,Phases=2,kv=0.22,kW=0.63159,pf=1,model=1,daily=ccurvaUGBT,status=Variable
new generator.3000491833 bus1=1001003994844.1.2.3.0,Phases=3,kv=0.22,kW=4.64554,pf=1,model=1,daily=ccurvaUGBT,status=Variable
new generator.3000491836 bus1=1001004249861.1.2.0,Phases=2,kv=0.22,kW=5.30773,pf=1,model=1,daily=ccurvaUGBT,status=Variable
new generator.3000491850 bus1=1001003916640.1.2.0,Phases=2,kv=0.22,kW=1.82174,pf=1,model=1,daily=ccurvaUGBT,status=Variable
new generator.3000491853 bus1=1001003917032.1.2.0,Phases=2,kv=0.22,kW=5.69087,pf=1,model=1,daily=ccurvaUGBT,status=Variable
new generator.3000491863 bus1=1001003917305.1.2.0,Phases=2,kv=0.22,kW=4.93332,pf=1,model=1,daily=ccurvaUGBT,status=Variable
new generator.3000491869 bus1=1001003916318.1.2.0,Phases=2,kv=0.22,kW=1.19419,pf=1,model=1,daily=ccurvaUGBT,status=Variable
new generator.3000491871 bus1=1001003916353.1.2.0,Phases=2,kv=0.22,kW=2.66367,pf=1,model=1,daily=ccurvaUGBT,status=Variable
new generator.3000491932 bus1=1001002381057.2.0,Phases=1,kv=0.127,kW=2.2977,pf=1,model=1,daily=ccurvaUGBT,status=Variable
new generator.3001392471 bus1=1001003627064.1.2.0,Phases=2,kv=0.22,kW=2.31072,pf=1,model=1,daily=ccurvaUGBT,status=Variable
new generator.3001392475 bus1=1001002355458.1.2.0,Phases=2,kv=0.22,kW=2.25184,pf=1,model=1,daily=ccurvaUGBT,status=Variable
new generator.3001571830 bus1=1001002322271.3.1.0,Phases=2,kv=0.22,kW=0.8735,pf=1,model=1,daily=ccurvaUGBT,status=Variable
new generator.3001571848 bus1=1001002322355.2.3.0,Phases=2,kv=0.22,kW=0.50167,pf=1,model=1,daily=ccurvaUGBT,status=Variable
new generator.3001571972 bus1=1001002320822.2.3.0,Phases=2,kv=0.22,kW=4.4321,pf=1,model=1,daily=ccurvaUGBT,status=Variable
new generator.3001571998 bus1=1001002322670.2.0,Phases=1,kv=0.127,kW=0.65704,pf=1,model=1,daily=ccurvaUGBT,status=Variable
new generator.3001572046 bus1=1001010738897.3.1.0,Phases=2,kv=0.22,kW=0.95815,pf=1,model=1,daily=ccurvaUGBT,status=Variable
new generator.3001572342 bus1=1001002357180.1.0,Phases=1,kv=0.127,kW=1.77701,pf=1,model=1,daily=ccurvaUGBT,status=Variable
new generator.3002108640 bus1=1001003763354.1.2.0,Phases=2,kv=0.22,kW=4.08922,pf=1,model=1,daily=ccurvaUGBT,status=Variable
new generator.3002108656 bus1=1001003763452.1.2.0,Phases=2,kv=0.22,kW=6.76586,pf=1,model=1,daily=ccurvaUGBT,status=Variable
new generator.3002108657 bus1=1001001219995.1.2.3.0,Phases=3,kv=0.22,kW=3.14471,pf=1,model=1,daily=ccurvaUGBT,status=Variable
new generator.3002108662 bus1=1001003763473.1.2.0,Phases=2,kv=0.22,kW=0.35429,pf=1,model=1,daily=ccurvaUGBT,status=Variable
new generator.3002108677 bus1=1001003763557.1.2.0,Phases=2,kv=0.22,kW=1.9321,pf=1,model=1,daily=ccurvaUGBT,status=Variable
new generator.3002108678 bus1=1001001229592.1.2.0,Phases=2,kv=0.22,kW=4.19045,pf=1,model=1,daily=ccurvaUGBT,status=Variable
new generator.3002108690 bus1=1001001220247.1.2.0,Phases=2,kv=0.22,kW=9.02573,pf=1,model=1,daily=ccurvaUGBT,status=Variable
new generator.3002108691 bus1=1001003763613.1.2.0,Phases=2,kv=0.22,kW=7.62077,pf=1,model=1,daily=ccurvaUGBT,status=Variable
new generator.3000672109 bus1=1001002355353.1.2.0,Phases=2,kv=0.22,kW=1.79258,pf=1,model=1,daily=ccurvaUGBT,status=Variable
new generator.3000672132 bus1=1001002355689.1.2.0,Phases=2,kv=0.22,kW=9.68679,pf=1,model=1,daily=ccurvaUGBT,status=Variable
new generator.3001033728 bus1=1001002332911.1.0,Phases=1,kv=0.127,kW=0.97668,pf=1,model=1,daily=ccurvaUGBT,status=Variable
new generator.3001033768 bus1=1001002327430.1.2.0,Phases=2,kv=0.22,kW=0.91384,pf=1,model=1,daily=ccurvaUGBT,status=Variable
new generator.3001751374 bus1=1001002447928.2.0,Phases=1,kv=0.127,kW=1.07212,pf=1,model=1,daily=ccurvaUGBT,status=Variable
new generator.3001751453 bus1=1001002321648.1.0,Phases=1,kv=0.127,kW=0.71649,pf=1,model=1,daily=ccurvaUGBT,status=Variable
new generator.3001751530 bus1=1001002317210.1.2.0,Phases=2,kv=0.22,kW=1.8466,pf=1,model=1,daily=ccurvaUGBT,status=Variable
new generator.3001751567 bus1=1001002317231.1.2.3.0,Phases=3,kv=0.22,kW=17.37315,pf=1,model=1,daily=ccurvaUGBT,status=Variable
new generator.3002290993 bus1=1001002340079.2.3.0,Phases=2,kv=0.22,kW=5.05171,pf=1,model=1,daily=ccurvaUGBT,status=Variable
new generator.3002290997 bus1=1001002345532.1.2.3.0,Phases=3,kv=0.22,kW=0.93706,pf=1,model=1,daily=ccurvaUGBT,status=Variable
new generator.3002291156 bus1=1001002349200.1.2.3.0,Phases=3,kv=0.22,kW=3.87999,pf=1,model=1,daily=ccurvaUGBT,status=Variable
new generator.3002291162 bus1=1001002350096.1.2.3.0,Phases=3,kv=0.22,kW=1.85066,pf=1,model=1,daily=ccurvaUGBT,status=Variable
new generator.3002291163 bus1=1001002350145.2.3.0,Phases=2,kv=0.22,kW=3.20918,pf=1,model=1,daily=ccurvaUGBT,status=Variable
new generator.3002291164 bus1=1001002350152.1.2.3.0,Phases=3,kv=0.22,kW=1.20795,pf=1,model=1,daily=ccurvaUGBT,status=Variable
new generator.3002291170 bus1=1001002350166.1.2.3.0,Phases=3,kv=0.22,kW=3.69502,pf=1,model=1,daily=ccurvaUGBT,status=Variable
new generator.3002291222 bus1=1001002340555.2.3.0,Phases=2,kv=0.22,kW=1.10357,pf=1,model=1,daily=ccurvaUGBT,status=Variable
new generator.3002291504 bus1=1001002360106.1.0,Phases=1,kv=0.127,kW=0.09236,pf=1,model=1,daily=ccurvaUGBT,status=Variable
new generator.3002478065 bus1=1001003781561.1.2.0,Phases=2,kv=0.22,kW=2.25435,pf=1,model=1,daily=ccurvaUGBT,status=Variable
new generator.3002478066 bus1=1001003781568.1.2.0,Phases=2,kv=0.22,kW=1.40012,pf=1,model=1,daily=ccurvaUGBT,status=Variable
new generator.3002478109 bus1=1001003781813.1.2.0,Phases=2,kv=0.22,kW=1.3132,pf=1,model=1,daily=ccurvaUGBT,status=Variable
new generator.3002478960 bus1=1001003785236.1.2.0,Phases=2,kv=0.22,kW=23.14231,pf=1,model=1,daily=ccurvaUGBT,status=Variable
new generator.3002478969 bus1=1001003785271.1.2.0,Phases=2,kv=0.22,kW=7.78669,pf=1,model=1,daily=ccurvaUGBT,status=Variable
new generator.3002478972 bus1=1001001241163.1.2.0,Phases=2,kv=0.22,kW=1.17448,pf=1,model=1,daily=ccurvaUGBT,status=Variable
new generator.3002479411 bus1=1001002368870.1.2.0,Phases=2,kv=0.22,kW=9.99599,pf=1,model=1,daily=ccurvaUGBT,status=Variable
new generator.3002479435 bus1=1001002369164.1.2.0,Phases=2,kv=0.22,kW=21.04128,pf=1,model=1,daily=ccurvaUGBT,status=Variable
new generator.3002479440 bus1=1001002369024.1.2.3.0,Phases=3,kv=0.22,kW=4.56011,pf=1,model=1,daily=ccurvaUGBT,status=Variable
new generator.3002479471 bus1=1001004258968.1.2.0,Phases=2,kv=0.22,kW=7.06027,pf=1,model=1,daily=ccurvaUGBT,status=Variable
new generator.3002479477 bus1=1001002367757.1.2.0,Phases=2,kv=0.22,kW=1.26403,pf=1,model=1,daily=ccurvaUGBT,status=Variable
new generator.3003214437 bus1=1001002350628.1.2.3.0,Phases=3,kv=0.22,kW=0.89831,pf=1,model=1,daily=ccurvaUGBT,status=Variable
new generator.3003214442 bus1=1001002350642.1.2.3.0,Phases=3,kv=0.22,kW=1.1739,pf=1,model=1,daily=ccurvaUGBT,status=Variable
new generator.3003214513 bus1=1001002352315.1.2.0,Phases=2,kv=0.22,kW=0.80715,pf=1,model=1,daily=ccurvaUGBT,status=Variable
new generator.3003214514 bus1=1001002352308.2.0,Phases=1,kv=0.127,kW=0.60861,pf=1,model=1,daily=ccurvaUGBT,status=Variable
new generator.3003214559 bus1=1001002351342.3.1.0,Phases=2,kv=0.22,kW=0.91997,pf=1,model=1,daily=ccurvaUGBT,status=Variable
new generator.3003214657 bus1=1001002349025.1.2.3.0,Phases=3,kv=0.22,kW=2.54731,pf=1,model=1,daily=ccurvaUGBT,status=Variable
new generator.3003214733 bus1=1001002350222.1.2.3.0,Phases=3,kv=0.22,kW=2.55166,pf=1,model=1,daily=ccurvaUGBT,status=Variable
new generator.3003214736 bus1=1001002350453.1.2.0,Phases=2,kv=0.22,kW=0.64625,pf=1,model=1,daily=ccurvaUGBT,status=Variable
new generator.3003214742 bus1=1001002351167.3.1.0,Phases=2,kv=0.22,kW=0.92336,pf=1,model=1,daily=ccurvaUGBT,status=Variable
new generator.3003214841 bus1=1001002351412.2.3.0,Phases=2,kv=0.22,kW=10.13068,pf=1,model=1,daily=ccurvaUGBT,status=Variable
new generator.3003214858 bus1=1001002350943.3.1.0,Phases=2,kv=0.22,kW=1.24497,pf=1,model=1,daily=ccurvaUGBT,status=Variable
new generator.3003214869 bus1=1001002351552.1.2.0,Phases=2,kv=0.22,kW=1.90766,pf=1,model=1,daily=ccurvaUGBT,status=Variable
new generator.3003214907 bus1=1001002350726.1.2.0,Phases=2,kv=0.22,kW=3.25639,pf=1,model=1,daily=ccurvaUGBT,status=Variable
new generator.3003214934 bus1=1001002351818.1.2.0,Phases=2,kv=0.22,kW=9.24491,pf=1,model=1,daily=ccurvaUGBT,status=Variable
new generator.3003214938 bus1=1001002351006.1.2.3.0,Phases=3,kv=0.22,kW=1.29382,pf=1,model=1,daily=ccurvaUGBT,status=Variable
new generator.3003214940 bus1=1001002352959.1.2.0,Phases=2,kv=0.22,kW=6.84172,pf=1,model=1,daily=ccurvaUGBT,status=Variable
new generator.3003214950 bus1=1001002353106.2.3.0,Phases=2,kv=0.22,kW=1.99179,pf=1,model=1,daily=ccurvaUGBT,status=Variable
new generator.3003214951 bus1=1001002353092.1.2.0,Phases=2,kv=0.22,kW=0.75987,pf=1,model=1,daily=ccurvaUGBT,status=Variable
new generator.3003214969 bus1=1001002353008.3.1.0,Phases=2,kv=0.22,kW=0.94633,pf=1,model=1,daily=ccurvaUGBT,status=Variable
new generator.3003214972 bus1=1001002353652.1.2.3.0,Phases=3,kv=0.22,kW=1.12824,pf=1,model=1,daily=ccurvaUGBT,status=Variable
new generator.3003216820 bus1=1001002042873.1.2.0,Phases=2,kv=0.22,kW=2.07808,pf=1,model=1,daily=ccurvaUGBT,status=Variable
new generator.3003216828 bus1=1001002045939.1.2.0,Phases=2,kv=0.22,kW=28.99734,pf=1,model=1,daily=ccurvaUGBT,status=Variable
new generator.3003216845 bus1=1001002045883.1.2.0,Phases=2,kv=0.22,kW=4.39362,pf=1,model=1,daily=ccurvaUGBT,status=Variable
new generator.3003216899 bus1=1001002040528.1.2.0,Phases=2,kv=0.22,kW=4.61314,pf=1,model=1,daily=ccurvaUGBT,status=Variable
new generator.3003216902 bus1=1001002046121.1.2.0,Phases=2,kv=0.22,kW=21.57483,pf=1,model=1,daily=ccurvaUGBT,status=Variable
new generator.3003216999 bus1=1001002040206.1.2.0,Phases=2,kv=0.22,kW=2.2087,pf=1,model=1,daily=ccurvaUGBT,status=Variable
new generator.3003470522 bus1=1001002345595.1.2.3.0,Phases=3,kv=0.22,kW=8.88815,pf=1,model=1,daily=ccurvaUGBT,status=Variable
new generator.3003476704 bus1=1001010581137.1.2.3.0,Phases=3,kv=0.22,kW=7.96622,pf=1,model=1,daily=ccurvaUGBT,status=Variable
new generator.3002479509 bus1=1001002357026.1.2.0,Phases=2,kv=0.22,kW=1.71398,pf=1,model=1,daily=ccurvaUGBT,status=Variable
new generator.3002479524 bus1=1001002390290.1.2.0,Phases=2,kv=0.22,kW=1.87895,pf=1,model=1,daily=ccurvaUGBT,status=Variable
new generator.3002479527 bus1=1001003785460.1.2.0,Phases=2,kv=0.22,kW=2.41912,pf=1,model=1,daily=ccurvaUGBT,status=Variable
new generator.3002479532 bus1=1001003785467.1.2.0,Phases=2,kv=0.22,kW=6.95672,pf=1,model=1,daily=ccurvaUGBT,status=Variable
new generator.3002479583 bus1=1001002362416.1.2.0,Phases=2,kv=0.22,kW=1.0167,pf=1,model=1,daily=ccurvaUGBT,status=Variable
new generator.3002846781 bus1=1001002340996.1.2.0,Phases=2,kv=0.22,kW=3.04122,pf=1,model=1,daily=ccurvaUGBT,status=Variable
new generator.3002846782 bus1=1001002340989.1.2.3.0,Phases=3,kv=0.22,kW=0.79724,pf=1,model=1,daily=ccurvaUGBT,status=Variable
new generator.3002846842 bus1=1001002342018.1.2.3.0,Phases=3,kv=0.22,kW=0.60204,pf=1,model=1,daily=ccurvaUGBT,status=Variable
new generator.3002846914 bus1=1001003797843.1.2.0,Phases=2,kv=0.22,kW=0.85118,pf=1,model=1,daily=ccurvaUGBT,status=Variable
new generator.3002846917 bus1=1001002347800.1.2.3.0,Phases=3,kv=0.22,kW=1.11104,pf=1,model=1,daily=ccurvaUGBT,status=Variable
new generator.3002846926 bus1=1001002344615.1.2.3.0,Phases=3,kv=0.22,kW=1.64731,pf=1,model=1,daily=ccurvaUGBT,status=Variable
new generator.3002846928 bus1=1001003797850.1.2.0,Phases=2,kv=0.22,kW=4.52484,pf=1,model=1,daily=ccurvaUGBT,status=Variable
new generator.3002846933 bus1=1001002344216.2.3.0,Phases=2,kv=0.22,kW=0.78816,pf=1,model=1,daily=ccurvaUGBT,status=Variable
new generator.3002846934 bus1=1001002343656.1.2.3.0,Phases=3,kv=0.22,kW=1.17718,pf=1,model=1,daily=ccurvaUGBT,status=Variable
new generator.3002846946 bus1=1001002344104.1.2.3.0,Phases=3,kv=0.22,kW=0.4663,pf=1,model=1,daily=ccurvaUGBT,status=Variable
new generator.3002846950 bus1=1001002344083.3.1.0,Phases=2,kv=0.22,kW=5.56325,pf=1,model=1,daily=ccurvaUGBT,status=Variable
new generator.3002847198 bus1=1001011438089.1.2.0,Phases=2,kv=0.22,kW=5.54997,pf=1,model=1,daily=ccurvaUGBT,status=Variable
new generator.3002847199 bus1=1001003797948.1.2.0,Phases=2,kv=0.22,kW=0.53188,pf=1,model=1,daily=ccurvaUGBT,status=Variable
new generator.3002847223 bus1=1001003797962.1.2.3.0,Phases=3,kv=0.22,kW=16.06218,pf=1,model=1,daily=ccurvaUGBT,status=Variable
new generator.3003453768 bus1=1001002348479.1.2.0,Phases=2,kv=0.22,kW=1.51092,pf=1,model=1,daily=ccurvaUGBT,status=Variable
new generator.3003974097 bus1=1001002349291.1.2.3.0,Phases=3,kv=0.22,kW=0.85606,pf=1,model=1,daily=ccurvaUGBT,status=Variable
new generator.3004007860 bus1=1001002327591.3.1.0,Phases=2,kv=0.22,kW=0.41411,pf=1,model=1,daily=ccurvaUGBT,status=Variable
new generator.3004347693 bus1=1001002353337.2.3.0,Phases=2,kv=0.22,kW=1.28224,pf=1,model=1,daily=ccurvaUGBT,status=Variable
new generator.3004368935 bus1=1001002350677.1.2.3.0,Phases=3,kv=0.22,kW=1.62355,pf=1,model=1,daily=ccurvaUGBT,status=Variable
new generator.3004676519 bus1=1001002351790.1.2.3.0,Phases=3,kv=0.22,kW=0.8745,pf=1,model=1,daily=ccurvaUGBT,status=Variable
new generator.3004702534 bus1=1001002352903.1.2.3.0,Phases=3,kv=0.22,kW=1.29873,pf=1,model=1,daily=ccurvaUGBT,status=Variable
new generator.3004993894 bus1=1001001126902.1.2.0,Phases=2,kv=0.22,kW=6.52656,pf=1,model=1,daily=ccurvaUGBT,status=Variable
new generator.3005330347 bus1=1001002390619.1.2.3.0,Phases=3,kv=0.22,kW=1.15273,pf=1,model=1,daily=ccurvaUGBT,status=Variable
new generator.3000858025 bus1=1001002335403.1.2.3.0,Phases=3,kv=0.22,kW=5.2625,pf=1,model=1,daily=ccurvaUGBT,status=Variable
new generator.3000858042 bus1=1001002337132.2.3.0,Phases=2,kv=0.22,kW=1.20049,pf=1,model=1,daily=ccurvaUGBT,status=Variable
new generator.3000858102 bus1=1001002330965.1.2.0,Phases=2,kv=0.22,kW=2.44384,pf=1,model=1,daily=ccurvaUGBT,status=Variable
new generator.3000858275 bus1=1001004038279.1.2.0,Phases=2,kv=0.22,kW=3.59793,pf=1,model=1,daily=ccurvaUGBT,status=Variable
new generator.3000860441 bus1=1001003681062.1.2.0,Phases=2,kv=0.22,kW=6.21606,pf=1,model=1,daily=ccurvaUGBT,status=Variable
new generator.3001925428 bus1=1001002339232.1.2.0,Phases=2,kv=0.22,kW=1.74021,pf=1,model=1,daily=ccurvaUGBT,status=Variable
new generator.3001925444 bus1=1001010657860.1.2.3.0,Phases=3,kv=0.22,kW=1.58497,pf=1,model=1,daily=ccurvaUGBT,status=Variable
new generator.3001925680 bus1=1001002334850.2.3.0,Phases=2,kv=0.22,kW=1.18712,pf=1,model=1,daily=ccurvaUGBT,status=Variable
new generator.3001925696 bus1=1001002338966.1.2.0,Phases=2,kv=0.22,kW=0.3604,pf=1,model=1,daily=ccurvaUGBT,status=Variable
new generator.3001925745 bus1=1001002367043.3.0,Phases=1,kv=0.127,kW=0.78051,pf=1,model=1,daily=ccurvaUGBT,status=Variable
new generator.3001925850 bus1=1001002365615.2.3.0,Phases=2,kv=0.22,kW=2.32115,pf=1,model=1,daily=ccurvaUGBT,status=Variable
new generator.3003416905 bus1=1001002350278.2.3.0,Phases=2,kv=0.22,kW=3.57053,pf=1,model=1,daily=ccurvaUGBT,status=Variable
new generator.3003690548 bus1=1001002313682.1.2.3.0,Phases=3,kv=0.22,kW=48.0365,pf=1,model=1,daily=ccurvaUGBT,status=Variable
new generator.3003708725 bus1=1001002343992.1.0,Phases=1,kv=0.127,kW=1.16665,pf=1,model=1,daily=ccurvaUGBT,status=Variable
new generator.3003730864 bus1=1001002336068.1.2.3.0,Phases=3,kv=0.22,kW=3.51659,pf=1,model=1,daily=ccurvaUGBT,status=Variable
new generator.3004049736 bus1=1001002348199.2.3.0,Phases=2,kv=0.22,kW=0.81756,pf=1,model=1,daily=ccurvaUGBT,status=Variable
new generator.3004073039 bus1=1001002306416.1.2.0,Phases=2,kv=0.22,kW=3.00479,pf=1,model=1,daily=ccurvaUGBT,status=Variable
new generator.3004428471 bus1=1001002354037.3.1.0,Phases=2,kv=0.22,kW=0.58436,pf=1,model=1,daily=ccurvaUGBT,status=Variable
new generator.3004768715 bus1=1001002350824.1.2.3.0,Phases=3,kv=0.22,kW=1.41265,pf=1,model=1,daily=ccurvaUGBT,status=Variable
new generator.3004768716 bus1=1001002353722.1.2.3.0,Phases=3,kv=0.22,kW=2.32169,pf=1,model=1,daily=ccurvaUGBT,status=Variable
new generator.3004792631 bus1=1001002349207.1.2.3.0,Phases=3,kv=0.22,kW=0.85803,pf=1,model=1,daily=ccurvaUGBT,status=Variable
new generator.3005066491 bus1=1001001126874.2.3.0,Phases=2,kv=0.22,kW=1.06809,pf=1,model=1,daily=ccurvaUGBT,status=Variable
new generator.3005086141 bus1=1001011094996.1.2.0,Phases=2,kv=0.22,kW=2.33768,pf=1,model=1,daily=ccurvaUGBT,status=Variable
new generator.3005090385 bus1=1001002344643.3.1.0,Phases=2,kv=0.22,kW=1.57474,pf=1,model=1,daily=ccurvaUGBT,status=Variable
new generator.3005647324 bus1=1001002349221.1.2.3.0,Phases=3,kv=0.22,kW=0.90616,pf=1,model=1,daily=ccurvaUGBT,status=Variable
new generator.3005672542 bus1=1001002424933.1.0,Phases=1,kv=0.127,kW=0.73211,pf=1,model=1,daily=ccurvaUGBT,status=Variable
new generator.3005937226 bus1=1001003903473.1.2.3.0,Phases=3,kv=0.22,kW=7.19397,pf=1,model=1,daily=ccurvaUGBT,status=Variable
new generator.3003480224 bus1=1001002309727.2.3.0,Phases=2,kv=0.22,kW=2.56661,pf=1,model=1,daily=ccurvaUGBT,status=Variable
new generator.3003480242 bus1=1001002309069.2.0,Phases=1,kv=0.127,kW=1.19383,pf=1,model=1,daily=ccurvaUGBT,status=Variable
new generator.3003480292 bus1=1001002309314.2.0,Phases=1,kv=0.127,kW=2.20894,pf=1,model=1,daily=ccurvaUGBT,status=Variable
new generator.3003486889 bus1=1001002340779.3.0,Phases=1,kv=0.127,kW=1.26647,pf=1,model=1,daily=ccurvaUGBT,status=Variable
new generator.3003490000 bus1=1001002355766.1.2.0,Phases=2,kv=0.22,kW=1.46187,pf=1,model=1,daily=ccurvaUGBT,status=Variable
new generator.3003499496 bus1=1001002339036.1.2.3.0,Phases=3,kv=0.22,kW=1.78557,pf=1,model=1,daily=ccurvaUGBT,status=Variable
new generator.3003735630 bus1=1001002360785.1.2.0,Phases=2,kv=0.22,kW=1.87404,pf=1,model=1,daily=ccurvaUGBT,status=Variable
new generator.3003767993 bus1=1001003827439.1.2.0,Phases=2,kv=0.22,kW=0.47821,pf=1,model=1,daily=ccurvaUGBT,status=Variable
new generator.3004018830 bus1=1001002343796.2.3.0,Phases=2,kv=0.22,kW=0.74504,pf=1,model=1,daily=ccurvaUGBT,status=Variable
new generator.3004025366 bus1=1001002321837.2.0,Phases=1,kv=0.127,kW=3.37364,pf=1,model=1,daily=ccurvaUGBT,status=Variable
new generator.3004045830 bus1=1001004065453.1.2.0,Phases=2,kv=0.22,kW=1.25982,pf=1,model=1,daily=ccurvaUGBT,status=Variable
new generator.3004622888 bus1=1001002328823.1.2.3.0,Phases=3,kv=0.22,kW=1.63625,pf=1,model=1,daily=ccurvaUGBT,status=Variable
new generator.3004636170 bus1=1001004055737.1.2.0,Phases=2,kv=0.22,kW=1.09476,pf=1,model=1,daily=ccurvaUGBT,status=Variable
new generator.3004637940 bus1=1001002343579.2.3.0,Phases=2,kv=0.22,kW=0.96829,pf=1,model=1,daily=ccurvaUGBT,status=Variable
new generator.3004662504 bus1=1001002042740.1.2.0,Phases=2,kv=0.22,kW=0.83292,pf=1,model=1,daily=ccurvaUGBT,status=Variable
new generator.3004950246 bus1=1001002343614.1.2.3.0,Phases=3,kv=0.22,kW=1.10967,pf=1,model=1,daily=ccurvaUGBT,status=Variable
new generator.3004953459 bus1=1001002408336.3.1.0,Phases=2,kv=0.22,kW=1.37174,pf=1,model=1,daily=ccurvaUGBT,status=Variable
new generator.3004965351 bus1=1001002315432.1.2.0,Phases=2,kv=0.22,kW=0.74745,pf=1,model=1,daily=ccurvaUGBT,status=Variable
new generator.3004966665 bus1=1001002353386.1.2.3.0,Phases=3,kv=0.22,kW=6.67166,pf=1,model=1,daily=ccurvaUGBT,status=Variable
new generator.3005382530 bus1=1001002326436.1.2.3.0,Phases=3,kv=0.22,kW=4.19863,pf=1,model=1,daily=ccurvaUGBT,status=Variable
new generator.3005384675 bus1=1001003926461.1.2.0,Phases=2,kv=0.22,kW=1.12525,pf=1,model=1,daily=ccurvaUGBT,status=Variable
new generator.3005396912 bus1=1001004017503.1.2.0,Phases=2,kv=0.22,kW=1.59049,pf=1,model=1,daily=ccurvaUGBT,status=Variable
new generator.3005553466 bus1=1001002423218.3.1.0,Phases=2,kv=0.22,kW=0.87302,pf=1,model=1,daily=ccurvaUGBT,status=Variable
new generator.3005564331 bus1=1001002422154.1.2.3.0,Phases=3,kv=0.22,kW=11.58617,pf=1,model=1,daily=ccurvaUGBT,status=Variable
new generator.3005580453 bus1=1001006174347.1.0,Phases=1,kv=0.127,kW=19.58198,pf=1,model=1,daily=ccurvaUGBT,status=Variable
new generator.3005590115 bus1=1001002367274.3.1.0,Phases=2,kv=0.22,kW=1.26956,pf=1,model=1,daily=ccurvaUGBT,status=Variable
new generator.3005855423 bus1=1001002448705.2.0,Phases=1,kv=0.127,kW=1.18983,pf=1,model=1,daily=ccurvaUGBT,status=Variable
new generator.3005873973 bus1=1001002423953.1.2.3.0,Phases=3,kv=0.22,kW=29.76379,pf=1,model=1,daily=ccurvaUGBT,status=Variable
new generator.3006197108 bus1=1001002335256.1.2.3.0,Phases=3,kv=0.22,kW=0.86891,pf=1,model=1,daily=ccurvaUGBT,status=Variable
new generator.3001211184 bus1=1001002326716.1.2.3.0,Phases=3,kv=0.22,kW=0.68019,pf=1,model=1,daily=ccurvaUGBT,status=Variable
new generator.3001211340 bus1=1001002318575.1.2.3.0,Phases=3,kv=0.22,kW=4.57903,pf=1,model=1,daily=ccurvaUGBT,status=Variable
new generator.3001211422 bus1=1001002325659.1.2.0,Phases=2,kv=0.22,kW=1.32344,pf=1,model=1,daily=ccurvaUGBT,status=Variable
new generator.3001211429 bus1=1001002323685.3.1.0,Phases=2,kv=0.22,kW=0.66319,pf=1,model=1,daily=ccurvaUGBT,status=Variable
new generator.3001211430 bus1=1001002323692.2.3.0,Phases=2,kv=0.22,kW=3.32529,pf=1,model=1,daily=ccurvaUGBT,status=Variable
new generator.3001211435 bus1=1001002323720.2.3.0,Phases=2,kv=0.22,kW=1.0101,pf=1,model=1,daily=ccurvaUGBT,status=Variable
new generator.3001211437 bus1=1001002323699.1.2.3.0,Phases=3,kv=0.22,kW=47.09509,pf=1,model=1,daily=ccurvaUGBT,status=Variable
new generator.3003555162 bus1=1001002351727.1.2.3.0,Phases=3,kv=0.22,kW=1.56119,pf=1,model=1,daily=ccurvaUGBT,status=Variable
new generator.3004255039 bus1=1001002316181.1.2.0,Phases=2,kv=0.22,kW=1.3967,pf=1,model=1,daily=ccurvaUGBT,status=Variable
new generator.3004518246 bus1=1001002353708.1.2.3.0,Phases=3,kv=0.22,kW=2.82344,pf=1,model=1,daily=ccurvaUGBT,status=Variable
new generator.3004555677 bus1=1001002322215.3.1.0,Phases=2,kv=0.22,kW=1.08901,pf=1,model=1,daily=ccurvaUGBT,status=Variable
new generator.3005019687 bus1=1001004016061.1.2.0,Phases=2,kv=0.22,kW=14.12867,pf=1,model=1,daily=ccurvaUGBT,status=Variable
new generator.3005030783 bus1=1001003872841.1.2.3.0,Phases=3,kv=0.22,kW=2.95952,pf=1,model=1,daily=ccurvaUGBT,status=Variable
new generator.3005032909 bus1=1001002341059.1.2.3.0,Phases=3,kv=0.22,kW=15.3517,pf=1,model=1,daily=ccurvaUGBT,status=Variable
new generator.3005047216 bus1=1001002427670.1.2.0,Phases=2,kv=0.22,kW=1.28191,pf=1,model=1,daily=ccurvaUGBT,status=Variable