new line.SBT_1161342IP bus1=2804053.1.2.0,bus2=5001161342.1.2.0,Phases=2,Linecode=IP_2,Length=0.003300000,Units=km
new line.SBT_1161349IP bus1=2804046.1.2.0,bus2=5001161349.1.2.0,Phases=2,Linecode=IP_2,Length=0.003300000,Units=km
new line.SBT_1161356IP bus1=2804039.1.2.0,bus2=5001161356.1.2.0,Phases=2,Linecode=IP_2,Length=0.003300000,Units=km
new line.SBT_1161363IP bus1=2804032.1.2.0,bus2=5001161363.1.2.0,Phases=2,Linecode=IP_2,Length=0.003300000,Units=km
new line.SBT_1161370IP bus1=2804025.1.2.0,bus2=5001161370.1.2.0,Phases=2,Linecode=IP_2,Length=0.003300000,Units=km
new line.SBT_1161398IP bus1=2804130.1.2.0,bus2=5001161398.1.2.0,Phases=2,Linecode=IP_2,Length=0.003300000,Units=km
new line.SBT_1161405IP bus1=2804123.1.2.0,bus2=5001161405.1.2.0,Phases=2,Linecode=IP_2,Length=0.003300000,Units=km
new line.SBT_1161412IP bus1=2804116.1.2.0,bus2=5001161412.1.2.0,Phases=2,Linecode=IP_2,Length=0.003300000,Units=km
new line.SBT_1161419IP bus1=2804095.1.2.0,bus2=5001161419.1.2.0,Phases=2,Linecode=IP_2,Length=0.003300000,Units=km
new line.SBT_1161426IP bus1=2804088.1.2.0,bus2=5001161426.1.2.0,Phases=2,Linecode=IP_2,Length=0.003300000,Units=km
new line.SBT_1161433IP bus1=2804081.1.2.0,bus2=5001161433.1.2.0,Phases=2,Linecode=IP_2,Length=0.003300000,Units=km
new line.SBT_1161440IP bus1=2804060.1.2.0,bus2=5001161440.1.2.0,Phases=2,Linecode=IP_2,Length=0.003300000,Units=km
new line.SBT_1161545IP bus1=2804228.1.2.0,bus2=5001161545.1.2.0,Phases=2,Linecode=IP_2,Length=0.003300000,Units=km
new line.SBT_1161552IP bus1=2804221.1.2.0,bus2=5001161552.1.2.0,Phases=2,Linecode=IP_2,Length=0.003300000,Units=km
new line.SBT_1161559IP bus1=2804214.1.2.0,bus2=5001161559.1.2.0,Phases=2,Linecode=IP_2,Length=0.003300000,Units=km
new line.SBT_1161566IP bus1=2804207.1.2.0,bus2=5001161566.1.2.0,Phases=2,Linecode=IP_2,Length=0.003300000,Units=km
new line.SBT_1161573IP bus1=2804200.1.2.0,bus2=5001161573.1.2.0,Phases=2,Linecode=IP_2,Length=0.003300000,Units=km
new line.SBT_1161580IP bus1=2804193.1.2.0,bus2=5001161580.1.2.0,Phases=2,Linecode=IP_2,Length=0.003300000,Units=km
new line.SBT_1161587IP bus1=2804186.1.2.0,bus2=5001161587.1.2.0,Phases=2,Linecode=IP_2,Length=0.003300000,Units=km
new line.SBT_1161594IP bus1=2804277.1.2.0,bus2=5001161594.1.2.0,Phases=2,Linecode=IP_2,Length=0.003300000,Units=km
new line.SBT_1161601IP bus1=2804270.1.2.0,bus2=5001161601.1.2.0,Phases=2,Linecode=IP_2,Length=0.003300000,Units=km
new line.SBT_1161608IP bus1=2804263.1.2.0,bus2=5001161608.1.2.0,Phases=2,Linecode=IP_2,Length=0.003300000,Units=km
new line.SBT_1161615IP bus1=2804256.1.2.0,bus2=5001161615.1.2.0,Phases=2,Linecode=IP_2,Length=0.003300000,Units=km
new line.SBT_1161622IP bus1=2804249.1.2.0,bus2=5001161622.1.2.0,Phases=2,Linecode=IP_2,Length=0.003300000,Units=km
new line.SBT_1161629IP bus1=2804242.1.2.0,bus2=5001161629.1.2.0,Phases=2,Linecode=IP_2,Length=0.003300000,Units=km
new line.SBT_1161853IP bus1=2804431.1.2.0,bus2=5001161853.1.2.0,Phases=2,Linecode=IP_2,Length=0.003300000,Units=km
new line.SBT_1161860IP bus1=2804417.1.2.0,bus2=5001161860.1.2.0,Phases=2,Linecode=IP_2,Length=0.003300000,Units=km
new line.SBT_1161867IP bus1=2804410.1.2.0,bus2=5001161867.1.2.0,Phases=2,Linecode=IP_2,Length=0.003300000,Units=km
new line.SBT_1161874IP bus1=2804403.1.2.0,bus2=5001161874.1.2.0,Phases=2,Linecode=IP_2,Length=0.003300000,Units=km
new line.SBT_1161881IP bus1=1646267.1.2.0,bus2=5001161881.1.2.0,Phases=2,Linecode=IP_2,Length=0.003300000,Units=km
new line.SBT_1161972IP bus1=2804459.1.2.0,bus2=5001161972.1.2.0,Phases=2,Linecode=IP_2,Length=0.003300000,Units=km
new line.SBT_1162028IP bus1=2804501.1.2.0,bus2=5001162028.1.2.0,Phases=2,Linecode=IP_2,Length=0.001600000,Units=km
new line.SBT_1162035IP bus1=2804571.1.2.0,bus2=5001162035.1.2.0,Phases=2,Linecode=IP_2,Length=0.002840000,Units=km
new line.SBT_1162063IP bus1=2804578.1.2.0,bus2=5001162063.1.2.0,Phases=2,Linecode=IP_2,Length=0.002840000,Units=km
new line.SBT_1162091IP bus1=2804641.1.2.0,bus2=5001162091.1.2.0,Phases=2,Linecode=IP_2,Length=0.001600000,Units=km
new line.SBT_1162098IP bus1=2804634.1.2.0,bus2=5001162098.1.2.0,Phases=2,Linecode=IP_2,Length=0.001600000,Units=km
new line.SBT_1162105IP bus1=2804627.1.2.0,bus2=5001162105.1.2.0,Phases=2,Linecode=IP_2,Length=0.001600000,Units=km
new line.SBT_1162371IP bus1=2804788.1.2.0,bus2=5001162371.1.2.0,Phases=2,Linecode=IP_2,Length=0.003300000,Units=km
new line.SBT_1162378IP bus1=1723120.1.2.0,bus2=5001162378.1.2.0,Phases=2,Linecode=IP_2,Length=0.003300000,Units=km
new line.SBT_1162385IP bus1=2804767.1.2.0,bus2=5001162385.1.2.0,Phases=2,Linecode=IP_2,Length=0.003300000,Units=km
new line.SBT_1162392IP bus1=2804795.1.2.0,bus2=5001162392.1.2.0,Phases=2,Linecode=IP_2,Length=0.003300000,Units=km
new line.SBT_1177092IP bus1=1669612.1.2.0,bus2=5001177092.1.2.0,Phases=2,Linecode=IP_2,Length=0.002840000,Units=km
new line.SBT_1191988IP bus1=1661583.2.3.0,bus2=5001191988.2.3.0,Phases=2,Linecode=IP_2,Length=0.003300000,Units=km
new line.SBT_1192002IP bus1=1661576.2.3.0,bus2=5001192002.2.3.0,Phases=2,Linecode=IP_2,Length=0.007000000,Units=km
new line.SBT_1192079IP bus1=1662584.2.3.0,bus2=5001192079.2.3.0,Phases=2,Linecode=IP_2,Length=0.007000000,Units=km
new line.SBT_1192086IP bus1=1662598.2.3.0,bus2=5001192086.2.3.0,Phases=2,Linecode=IP_2,Length=0.003300000,Units=km
new line.SBT_1192093IP bus1=1662612.2.3.0,bus2=5001192093.2.3.0,Phases=2,Linecode=IP_2,Length=0.007000000,Units=km
new line.SBT_1192107IP bus1=1661401.2.3.0,bus2=5001192107.2.3.0,Phases=2,Linecode=IP_2,Length=0.007000000,Units=km
new line.SBT_1192114IP bus1=1661394.2.3.0,bus2=5001192114.2.3.0,Phases=2,Linecode=IP_2,Length=0.007000000,Units=km
new line.SBT_1192135IP bus1=1661380.2.3.0,bus2=5001192135.2.3.0,Phases=2,Linecode=IP_2,Length=0.003300000,Units=km
new line.SBT_1192142IP bus1=1659000.1.2.0,bus2=5001192142.1.2.0,Phases=2,Linecode=IP_2,Length=0.007000000,Units=km
new line.SBT_1192149IP bus1=1660638.2.3.0,bus2=5001192149.2.3.0,Phases=2,Linecode=IP_2,Length=0.007000000,Units=km
new line.SBT_1192163IP bus1=1660645.1.2.0,bus2=5001192163.1.2.0,Phases=2,Linecode=IP_2,Length=0.007000000,Units=km
new line.SBT_1192177IP bus1=1660652.2.3.0,bus2=5001192177.2.3.0,Phases=2,Linecode=IP_2,Length=0.007000000,Units=km
new line.SBT_1192184IP bus1=1660659.2.3.0,bus2=5001192184.2.3.0,Phases=2,Linecode=IP_2,Length=0.007000000,Units=km
new line.SBT_1192247IP bus1=1658965.1.2.0,bus2=5001192247.1.2.0,Phases=2,Linecode=IP_2,Length=0.007000000,Units=km
new line.SBT_1192254IP bus1=1658944.2.3.0,bus2=5001192254.2.3.0,Phases=2,Linecode=IP_2,Length=0.003300000,Units=km
new line.SBT_1192268IP bus1=1658930.2.3.0,bus2=5001192268.2.3.0,Phases=2,Linecode=IP_2,Length=0.007000000,Units=km
new line.SBT_1192275IP bus1=1658909.1.2.0,bus2=5001192275.1.2.0,Phases=2,Linecode=IP_2,Length=0.005530000,Units=km
new line.SBT_1192310IP bus1=1656354.1.2.0,bus2=5001192310.1.2.0,Phases=2,Linecode=IP_2,Length=0.007000000,Units=km
new line.SBT_1192317IP bus1=1656347.2.3.0,bus2=5001192317.2.3.0,Phases=2,Linecode=IP_2,Length=0.007000000,Units=km
new line.SBT_1192324IP bus1=1662633.2.3.0,bus2=5001192324.2.3.0,Phases=2,Linecode=IP_2,Length=0.007000000,Units=km
new line.SBT_1192331IP bus1=1662626.1.2.0,bus2=5001192331.1.2.0,Phases=2,Linecode=IP_2,Length=0.003300000,Units=km
new line.SBT_1192338IP bus1=1662640.1.2.0,bus2=5001192338.1.2.0,Phases=2,Linecode=IP_2,Length=0.007000000,Units=km
new line.SBT_1192359IP bus1=1663662.2.3.0,bus2=5001192359.2.3.0,Phases=2,Linecode=IP_2,Length=0.007000000,Units=km
new line.SBT_1192366IP bus1=1663669.2.3.0,bus2=5001192366.2.3.0,Phases=2,Linecode=IP_2,Length=0.007000000,Units=km
new line.SBT_1192380IP bus1=1663683.2.3.0,bus2=5001192380.2.3.0,Phases=2,Linecode=IP_2,Length=0.007000000,Units=km
new line.SBT_1192387IP bus1=1663697.2.3.0,bus2=5001192387.2.3.0,Phases=2,Linecode=IP_2,Length=0.007000000,Units=km
new line.SBT_1192394IP bus1=1662605.2.3.0,bus2=5001192394.2.3.0,Phases=2,Linecode=IP_2,Length=0.007000000,Units=km
new line.SBT_1192401IP bus1=1662591.2.3.0,bus2=5001192401.2.3.0,Phases=2,Linecode=IP_2,Length=0.003300000,Units=km
new line.SBT_1192408IP bus1=1662248.2.3.0,bus2=5001192408.2.3.0,Phases=2,Linecode=IP_2,Length=0.007000000,Units=km
new line.SBT_10021913 bus1=145754774.1.2.3.0,bus2=145754781.1.2.3.0,Phases=3,Linecode=BT514_BT514_7_3_1_3,Length=0.000501000,Units=km
new line.SBT_10022459 bus1=1677242.1.2.3.0,bus2=152233074.1.2.3.0,Phases=3,Linecode=BT803_BT803_4_3_4_3,Length=0.028241000,Units=km
new line.SBT_10022466 bus1=152233074.1.2.3.0,bus2=1749391.1.2.3.0,Phases=3,Linecode=BT803_BT803_4_3_4_3,Length=0.025970000,Units=km
new line.SBT_1163869IP bus1=2804697.1.2.0,bus2=5001163869.1.2.0,Phases=2,Linecode=IP_2,Length=0.003300000,Units=km
new line.SBT_1163876IP bus1=1646617.1.2.0,bus2=5001163876.1.2.0,Phases=2,Linecode=IP_2,Length=0.003300000,Units=km
new line.SBT_1163883IP bus1=2804704.1.2.0,bus2=5001163883.1.2.0,Phases=2,Linecode=IP_2,Length=0.003300000,Units=km
new line.SBT_1163890IP bus1=2804711.1.2.0,bus2=5001163890.1.2.0,Phases=2,Linecode=IP_2,Length=0.003300000,Units=km
new line.SBT_1163904IP bus1=2804718.1.2.0,bus2=5001163904.1.2.0,Phases=2,Linecode=IP_2,Length=0.003300000,Units=km
new line.SBT_1163911IP bus1=2804725.1.2.0,bus2=5001163911.1.2.0,Phases=2,Linecode=IP_2,Length=0.003300000,Units=km
new line.SBT_1163918IP bus1=2804732.1.2.0,bus2=5001163918.1.2.0,Phases=2,Linecode=IP_2,Length=0.003300000,Units=km
new line.SBT_1163925IP bus1=2804739.1.2.0,bus2=5001163925.1.2.0,Phases=2,Linecode=IP_2,Length=0.003300000,Units=km
new line.SBT_1163932IP bus1=2804760.1.2.0,bus2=5001163932.1.2.0,Phases=2,Linecode=IP_2,Length=0.003300000,Units=km
new line.SBT_1163946IP bus1=2805152.1.2.0,bus2=5001163946.1.2.0,Phases=2,Linecode=IP_2,Length=0.003300000,Units=km
new line.SBT_1163953IP bus1=2805145.1.2.0,bus2=5001163953.1.2.0,Phases=2,Linecode=IP_2,Length=0.003300000,Units=km
new line.SBT_1163960IP bus1=2805124.1.2.0,bus2=5001163960.1.2.0,Phases=2,Linecode=IP_2,Length=0.003300000,Units=km
new line.SBT_1163974IP bus1=1750308.1.2.0,bus2=5001163974.1.2.0,Phases=2,Linecode=IP_2,Length=0.003300000,Units=km
new line.SBT_1163981IP bus1=2805117.1.2.0,bus2=5001163981.1.2.0,Phases=2,Linecode=IP_2,Length=0.003300000,Units=km
new line.SBT_1163988IP bus1=2805159.1.2.0,bus2=5001163988.1.2.0,Phases=2,Linecode=IP_2,Length=0.003300000,Units=km
new line.SBT_1163995IP bus1=2805131.1.2.0,bus2=5001163995.1.2.0,Phases=2,Linecode=IP_2,Length=0.003300000,Units=km
new line.SBT_1164009IP bus1=2805138.1.2.0,bus2=5001164009.1.2.0,Phases=2,Linecode=IP_2,Length=0.003300000,Units=km
new line.SBT_1179269IP bus1=1691242.1.2.0,bus2=5001179269.1.2.0,Phases=2,Linecode=IP_2,Length=0.002180000,Units=km
new line.SBT_1179276IP bus1=1691263.1.2.0,bus2=5001179276.1.2.0,Phases=2,Linecode=IP_2,Length=0.002960000,Units=km
new line.SBT_1179283IP bus1=1691410.1.2.0,bus2=5001179283.1.2.0,Phases=2,Linecode=IP_2,Length=0.002960000,Units=km
new line.SBT_1179290IP bus1=1691417.1.2.0,bus2=5001179290.1.2.0,Phases=2,Linecode=IP_2,Length=0.002960000,Units=km
new line.SBT_1193416IP bus1=1668016.2.3.0,bus2=5001193416.2.3.0,Phases=2,Linecode=IP_2,Length=0.007000000,Units=km
new line.SBT_1193535IP bus1=1651202.1.2.0,bus2=5001193535.1.2.0,Phases=2,Linecode=IP_2,Length=0.007000000,Units=km
new line.SBT_1193542IP bus1=1651195.3.1.0,bus2=5001193542.3.1.0,Phases=2,Linecode=IP_2,Length=0.007000000,Units=km
new line.SBT_1193549IP bus1=1651209.2.3.0,bus2=5001193549.2.3.0,Phases=2,Linecode=IP_2,Length=0.007000000,Units=km
new line.SBT_1193556IP bus1=1651755.1.2.0,bus2=5001193556.1.2.0,Phases=2,Linecode=IP_2,Length=0.007000000,Units=km
new line.SBT_1193563IP bus1=1651762.2.3.0,bus2=5001193563.2.3.0,Phases=2,Linecode=IP_2,Length=0.007000000,Units=km
new line.SBT_1193570IP bus1=1651769.3.1.0,bus2=5001193570.3.1.0,Phases=2,Linecode=IP_2,Length=0.007000000,Units=km
new line.SBT_1193577IP bus1=1651776.2.3.0,bus2=5001193577.2.3.0,Phases=2,Linecode=IP_2,Length=0.007000000,Units=km
new line.SBT_1193584IP bus1=1651783.1.2.0,bus2=5001193584.1.2.0,Phases=2,Linecode=IP_2,Length=0.007000000,Units=km
new line.SBT_1193598IP bus1=1656340.3.1.0,bus2=5001193598.3.1.0,Phases=2,Linecode=IP_2,Length=0.007000000,Units=km
new line.SBT_1193605IP bus1=1656333.1.2.0,bus2=5001193605.1.2.0,Phases=2,Linecode=IP_2,Length=0.007000000,Units=km
new line.SBT_1193612IP bus1=1656326.2.3.0,bus2=5001193612.2.3.0,Phases=2,Linecode=IP_2,Length=0.007000000,Units=km
new line.SBT_1193619IP bus1=1656319.3.1.0,bus2=5001193619.3.1.0,Phases=2,Linecode=IP_2,Length=0.007000000,Units=km
new line.SBT_1193626IP bus1=1656305.1.2.0,bus2=5001193626.1.2.0,Phases=2,Linecode=IP_2,Length=0.007000000,Units=km
new line.SBT_1193703IP bus1=1656284.1.2.0,bus2=5001193703.1.2.0,Phases=2,Linecode=IP_2,Length=0.007000000,Units=km
new line.SBT_1193773IP bus1=1651790.3.1.0,bus2=5001193773.3.1.0,Phases=2,Linecode=IP_2,Length=0.007000000,Units=km
new line.SBT_1193780IP bus1=1652658.1.2.0,bus2=5001193780.1.2.0,Phases=2,Linecode=IP_2,Length=0.007000000,Units=km
new line.SBT_1193787IP bus1=1652651.2.3.0,bus2=5001193787.2.3.0,Phases=2,Linecode=IP_2,Length=0.007000000,Units=km
new line.SBT_1193794IP bus1=1652637.1.2.0,bus2=5001193794.1.2.0,Phases=2,Linecode=IP_2,Length=0.005530000,Units=km
new line.SBT_1193801IP bus1=1652623.2.3.0,bus2=5001193801.2.3.0,Phases=2,Linecode=IP_2,Length=0.005530000,Units=km
new line.SBT_1193808IP bus1=1652616.2.3.0,bus2=5001193808.2.3.0,Phases=2,Linecode=IP_2,Length=0.005530000,Units=km
new line.SBT_1193829IP bus1=1651629.1.2.0,bus2=5001193829.1.2.0,Phases=2,Linecode=IP_2,Length=0.007000000,Units=km
new line.SBT_1193836IP bus1=1651622.2.3.0,bus2=5001193836.2.3.0,Phases=2,Linecode=IP_2,Length=0.007000000,Units=km
new line.SBT_1193843IP bus1=1651615.1.2.0,bus2=5001193843.1.2.0,Phases=2,Linecode=IP_2,Length=0.007000000,Units=km
new line.SBT_1193850IP bus1=1651608.3.1.0,bus2=5001193850.3.1.0,Phases=2,Linecode=IP_2,Length=0.007000000,Units=km
new line.SBT_1193857IP bus1=1657320.1.2.0,bus2=5001193857.1.2.0,Phases=2,Linecode=IP_2,Length=0.007000000,Units=km
new line.SBT_1193864IP bus1=1657306.1.2.0,bus2=5001193864.1.2.0,Phases=2,Linecode=IP_2,Length=0.007000000,Units=km
new line.SBT_1193871IP bus1=1657299.1.2.0,bus2=5001193871.1.2.0,Phases=2,Linecode=IP_2,Length=0.007000000,Units=km
new line.SBT_1193878IP bus1=1657285.1.2.0,bus2=5001193878.1.2.0,Phases=2,Linecode=IP_2,Length=0.007000000,Units=km
new line.SBT_1193899IP bus1=1655304.2.3.0,bus2=5001193899.2.3.0,Phases=2,Linecode=IP_2,Length=0.007000000,Units=km
new line.SBT_1193906IP bus1=1655290.1.2.0,bus2=5001193906.1.2.0,Phases=2,Linecode=IP_2,Length=0.007000000,Units=km
new line.SBT_1193913IP bus1=1655276.2.3.0,bus2=5001193913.2.3.0,Phases=2,Linecode=IP_2,Length=0.007000000,Units=km
new line.SBT_1193920IP bus1=1655262.1.2.0,bus2=5001193920.1.2.0,Phases=2,Linecode=IP_2,Length=0.007000000,Units=km
new line.SBT_1193927IP bus1=1655255.2.3.0,bus2=5001193927.2.3.0,Phases=2,Linecode=IP_2,Length=0.007000000,Units=km
new line.SBT_1193934IP bus1=1653344.1.2.0,bus2=5001193934.1.2.0,Phases=2,Linecode=IP_2,Length=0.007000000,Units=km
new line.SBT_1193941IP bus1=1653330.1.2.0,bus2=5001193941.1.2.0,Phases=2,Linecode=IP_2,Length=0.007000000,Units=km
new line.SBT_1193948IP bus1=1653323.1.2.0,bus2=5001193948.1.2.0,Phases=2,Linecode=IP_2,Length=0.007000000,Units=km
new line.SBT_1193955IP bus1=1653309.1.2.0,bus2=5001193955.1.2.0,Phases=2,Linecode=IP_2,Length=0.007000000,Units=km
new line.SBT_1193962IP bus1=1653295.1.2.0,bus2=5001193962.1.2.0,Phases=2,Linecode=IP_2,Length=0.007000000,Units=km
new line.SBT_1193969IP bus1=1653281.1.2.0,bus2=5001193969.1.2.0,Phases=2,Linecode=IP_2,Length=0.007000000,Units=km
new line.SBT_1193976IP bus1=1653260.1.2.0,bus2=5001193976.1.2.0,Phases=2,Linecode=IP_2,Length=0.007000000,Units=km
new line.SBT_1193983IP bus1=1653253.1.2.0,bus2=5001193983.1.2.0,Phases=2,Linecode=IP_2,Length=0.007000000,Units=km
new line.SBT_1193990IP bus1=1653232.2.3.0,bus2=5001193990.2.3.0,Phases=2,Linecode=IP_2,Length=0.007000000,Units=km
new line.SBT_1193997IP bus1=1652483.1.2.0,bus2=5001193997.1.2.0,Phases=2,Linecode=IP_2,Length=0.007000000,Units=km
new line.SBT_1194004IP bus1=1652469.3.1.0,bus2=5001194004.3.1.0,Phases=2,Linecode=IP_2,Length=0.007000000,Units=km
new line.SBT_1194011IP bus1=1652462.1.2.0,bus2=5001194011.1.2.0,Phases=2,Linecode=IP_2,Length=0.007000000,Units=km
new line.SBT_1192415IP bus1=1662234.2.3.0,bus2=5001192415.2.3.0,Phases=2,Linecode=IP_2,Length=0.007000000,Units=km
new line.SBT_1192422IP bus1=1662213.2.3.0,bus2=5001192422.2.3.0,Phases=2,Linecode=IP_2,Length=0.007000000,Units=km
new line.SBT_1192429IP bus1=1660981.2.3.0,bus2=5001192429.2.3.0,Phases=2,Linecode=IP_2,Length=0.007000000,Units=km
new line.SBT_1192436IP bus1=1660960.2.3.0,bus2=5001192436.2.3.0,Phases=2,Linecode=IP_2,Length=0.007000000,Units=km
new line.SBT_1192443IP bus1=1660939.2.3.0,bus2=5001192443.2.3.0,Phases=2,Linecode=IP_2,Length=0.003300000,Units=km
new line.SBT_1192450IP bus1=1660925.2.3.0,bus2=5001192450.2.3.0,Phases=2,Linecode=IP_2,Length=0.007000000,Units=km
new line.SBT_1192457IP bus1=1660911.2.3.0,bus2=5001192457.2.3.0,Phases=2,Linecode=IP_2,Length=0.007000000,Units=km
new line.SBT_1192499IP bus1=1659343.2.3.0,bus2=5001192499.2.3.0,Phases=2,Linecode=IP_2,Length=0.007000000,Units=km
new line.SBT_1192590IP bus1=1661359.2.3.0,bus2=5001192590.2.3.0,Phases=2,Linecode=IP_2,Length=0.003300000,Units=km
new line.SBT_1192604IP bus1=1659707.2.3.0,bus2=5001192604.2.3.0,Phases=2,Linecode=IP_2,Length=0.007000000,Units=km
new line.SBT_1192611IP bus1=1659693.3.1.0,bus2=5001192611.3.1.0,Phases=2,Linecode=IP_2,Length=0.007000000,Units=km
new line.SBT_1192618IP bus1=1659679.1.2.0,bus2=5001192618.1.2.0,Phases=2,Linecode=IP_2,Length=0.007000000,Units=km
new line.SBT_1192625IP bus1=1659651.2.3.0,bus2=5001192625.2.3.0,Phases=2,Linecode=IP_2,Length=0.007000000,Units=km
new line.SBT_1192632IP bus1=1659630.3.1.0,bus2=5001192632.3.1.0,Phases=2,Linecode=IP_2,Length=0.007000000,Units=km
new line.SBT_1192695IP bus1=1663263.3.1.0,bus2=5001192695.3.1.0,Phases=2,Linecode=IP_2,Length=0.003300000,Units=km
new line.SBT_1192709IP bus1=1662934.2.3.0,bus2=5001192709.2.3.0,Phases=2,Linecode=IP_2,Length=0.007000000,Units=km
new line.SBT_1192716IP bus1=1662948.2.3.0,bus2=5001192716.2.3.0,Phases=2,Linecode=IP_2,Length=0.007000000,Units=km
new line.SBT_1192723IP bus1=1662962.2.3.0,bus2=5001192723.2.3.0,Phases=2,Linecode=IP_2,Length=0.007000000,Units=km
new line.SBT_1192730IP bus1=1662976.2.3.0,bus2=5001192730.2.3.0,Phases=2,Linecode=IP_2,Length=0.007000000,Units=km
new line.SBT_1192737IP bus1=1662983.2.3.0,bus2=5001192737.2.3.0,Phases=2,Linecode=IP_2,Length=0.007000000,Units=km
new line.SBT_1192744IP bus1=1662941.1.2.0,bus2=5001192744.1.2.0,Phases=2,Linecode=IP_2,Length=0.005530000,Units=km
new line.SBT_1192751IP bus1=1662927.3.1.0,bus2=5001192751.3.1.0,Phases=2,Linecode=IP_2,Length=0.007000000,Units=km
new line.SBT_1192758IP bus1=1661548.1.2.0,bus2=5001192758.1.2.0,Phases=2,Linecode=IP_2,Length=0.007000000,Units=km
new line.SBT_1192793IP bus1=1663102.2.3.0,bus2=5001192793.2.3.0,Phases=2,Linecode=IP_2,Length=0.007000000,Units=km
new line.SBT_1192800IP bus1=1665433.2.3.0,bus2=5001192800.2.3.0,Phases=2,Linecode=IP_2,Length=0.007000000,Units=km
new line.SBT_1192807IP bus1=1665440.2.3.0,bus2=5001192807.2.3.0,Phases=2,Linecode=IP_2,Length=0.007000000,Units=km
new line.SBT_1192814IP bus1=1665454.1.2.0,bus2=5001192814.1.2.0,Phases=2,Linecode=IP_2,Length=0.007000000,Units=km
new line.SBT_1192821IP bus1=1663781.1.2.0,bus2=5001192821.1.2.0,Phases=2,Linecode=IP_2,Length=0.007000000,Units=km
new line.SBT_1192828IP bus1=1663095.2.3.0,bus2=5001192828.2.3.0,Phases=2,Linecode=IP_2,Length=0.007000000,Units=km
new line.SBT_1192835IP bus1=1663088.2.3.0,bus2=5001192835.2.3.0,Phases=2,Linecode=IP_2,Length=0.007000000,Units=km
new line.SBT_1192842IP bus1=1663081.2.3.0,bus2=5001192842.2.3.0,Phases=2,Linecode=IP_2,Length=0.007000000,Units=km
new line.SBT_1192849IP bus1=1663074.2.3.0,bus2=5001192849.2.3.0,Phases=2,Linecode=IP_2,Length=0.007000000,Units=km
new line.SBT_1192856IP bus1=1663067.2.3.0,bus2=5001192856.2.3.0,Phases=2,Linecode=IP_2,Length=0.007000000,Units=km
new line.SBT_1192863IP bus1=1663060.2.3.0,bus2=5001192863.2.3.0,Phases=2,Linecode=IP_2,Length=0.007000000,Units=km
new line.SBT_1192870IP bus1=1662535.2.3.0,bus2=5001192870.2.3.0,Phases=2,Linecode=IP_2,Length=0.007000000,Units=km
new line.SBT_1192877IP bus1=1662528.2.3.0,bus2=5001192877.2.3.0,Phases=2,Linecode=IP_2,Length=0.007000000,Units=km
new line.SBT_1192884IP bus1=1662521.2.3.0,bus2=5001192884.2.3.0,Phases=2,Linecode=IP_2,Length=0.003300000,Units=km
new line.SBT_1192891IP bus1=1662507.2.3.0,bus2=5001192891.2.3.0,Phases=2,Linecode=IP_2,Length=0.007000000,Units=km
new line.SBT_1192898IP bus1=1661590.2.3.0,bus2=5001192898.2.3.0,Phases=2,Linecode=IP_2,Length=0.007000000,Units=km
new line.SBT_1192905IP bus1=1661149.1.2.0,bus2=5001192905.1.2.0,Phases=2,Linecode=IP_2,Length=0.007000000,Units=km
new line.SBT_1192912IP bus1=1661135.1.2.0,bus2=5001192912.1.2.0,Phases=2,Linecode=IP_2,Length=0.007000000,Units=km
new line.SBT_1192919IP bus1=1661142.1.2.0,bus2=5001192919.1.2.0,Phases=2,Linecode=IP_2,Length=0.007000000,Units=km
new line.SBT_1192968IP bus1=1660463.2.3.0,bus2=5001192968.2.3.0,Phases=2,Linecode=IP_2,Length=0.005530000,Units=km
new line.SBT_1192975IP bus1=1660456.1.2.0,bus2=5001192975.1.2.0,Phases=2,Linecode=IP_2,Length=0.005530000,Units=km
new line.SBT_1192982IP bus1=1660470.3.1.0,bus2=5001192982.3.1.0,Phases=2,Linecode=IP_2,Length=0.005530000,Units=km
new line.SBT_1192989IP bus1=1660484.3.1.0,bus2=5001192989.3.1.0,Phases=2,Linecode=IP_2,Length=0.003300000,Units=km
new line.SBT_1193003IP bus1=1660505.2.3.0,bus2=5001193003.2.3.0,Phases=2,Linecode=IP_2,Length=0.005530000,Units=km
new line.SBT_1193031IP bus1=1660281.1.2.0,bus2=5001193031.1.2.0,Phases=2,Linecode=IP_2,Length=0.005530000,Units=km
new line.SBT_1193101IP bus1=1664131.1.2.0,bus2=5001193101.1.2.0,Phases=2,Linecode=IP_2,Length=0.007000000,Units=km
new line.SBT_1193108IP bus1=1664124.1.2.0,bus2=5001193108.1.2.0,Phases=2,Linecode=IP_2,Length=0.007000000,Units=km
new line.SBT_1193115IP bus1=1664117.1.2.0,bus2=5001193115.1.2.0,Phases=2,Linecode=IP_2,Length=0.007000000,Units=km
new line.SBT_1193122IP bus1=1664404.3.1.0,bus2=5001193122.3.1.0,Phases=2,Linecode=IP_2,Length=0.007000000,Units=km
new line.SBT_1193129IP bus1=1664411.3.1.0,bus2=5001193129.3.1.0,Phases=2,Linecode=IP_2,Length=0.007000000,Units=km
new line.SBT_1193136IP bus1=1664425.3.1.0,bus2=5001193136.3.1.0,Phases=2,Linecode=IP_2,Length=0.007000000,Units=km
new line.SBT_1193143IP bus1=1664103.1.2.0,bus2=5001193143.1.2.0,Phases=2,Linecode=IP_2,Length=0.007000000,Units=km
new line.SBT_1193150IP bus1=1663634.3.1.0,bus2=5001193150.3.1.0,Phases=2,Linecode=IP_2,Length=0.007000000,Units=km
new line.SBT_1193157IP bus1=1663627.3.1.0,bus2=5001193157.3.1.0,Phases=2,Linecode=IP_2,Length=0.007000000,Units=km
new line.SBT_1193164IP bus1=1663620.1.2.0,bus2=5001193164.1.2.0,Phases=2,Linecode=IP_2,Length=0.007000000,Units=km
new line.SBT_1193171IP bus1=1663298.1.2.0,bus2=5001193171.1.2.0,Phases=2,Linecode=IP_2,Length=0.007000000,Units=km
new line.SBT_1193178IP bus1=1663291.1.2.0,bus2=5001193178.1.2.0,Phases=2,Linecode=IP_2,Length=0.007000000,Units=km
new line.SBT_1193192IP bus1=1663284.1.2.0,bus2=5001193192.1.2.0,Phases=2,Linecode=IP_2,Length=0.007000000,Units=km
new line.SBT_1193199IP bus1=1663417.1.2.0,bus2=5001193199.1.2.0,Phases=2,Linecode=IP_2,Length=0.007000000,Units=km
new line.SBT_1193206IP bus1=1664159.1.2.0,bus2=5001193206.1.2.0,Phases=2,Linecode=IP_2,Length=0.007000000,Units=km
new line.SBT_1193213IP bus1=1664145.1.2.0,bus2=5001193213.1.2.0,Phases=2,Linecode=IP_2,Length=0.007000000,Units=km
new line.SBT_1193220IP bus1=1664138.1.2.0,bus2=5001193220.1.2.0,Phases=2,Linecode=IP_2,Length=0.007000000,Units=km
new line.SBT_1193227IP bus1=1663305.1.2.0,bus2=5001193227.1.2.0,Phases=2,Linecode=IP_2,Length=0.007000000,Units=km
new line.SBT_1193234IP bus1=1663312.1.2.0,bus2=5001193234.1.2.0,Phases=2,Linecode=IP_2,Length=0.007000000,Units=km
new line.SBT_1193290IP bus1=1660862.1.2.0,bus2=5001193290.1.2.0,Phases=2,Linecode=IP_2,Length=0.007000000,Units=km
new line.SBT_1248254IP bus1=2720312.1.2.0,bus2=5001248254.1.2.0,Phases=2,Linecode=IP_2,Length=0.002840000,Units=km
new line.SBT_1248317IP bus1=1457974.3.1.0,bus2=5001248317.3.1.0,Phases=2,Linecode=IP_2,Length=0.002960000,Units=km
new line.SBT_1249458IP bus1=2843036.1.2.0,bus2=5001249458.1.2.0,Phases=2,Linecode=IP_2,Length=0.002840000,Units=km
new line.SBT_1249465IP bus1=1459381.1.2.0,bus2=5001249465.1.2.0,Phases=2,Linecode=IP_2,Length=0.002840000,Units=km
new line.SBT_1249472IP bus1=2843001.1.2.0,bus2=5001249472.1.2.0,Phases=2,Linecode=IP_2,Length=0.002960000,Units=km
new line.SBT_1249479IP bus1=2843015.1.2.0,bus2=5001249479.1.2.0,Phases=2,Linecode=IP_2,Length=0.002960000,Units=km
new line.SBT_1249486IP bus1=2843022.1.2.0,bus2=5001249486.1.2.0,Phases=2,Linecode=IP_2,Length=0.002960000,Units=km
new line.SBT_1249493IP bus1=2842966.1.2.0,bus2=5001249493.1.2.0,Phases=2,Linecode=IP_2,Length=0.002960000,Units=km
new line.SBT_1249500IP bus1=2842959.1.2.0,bus2=5001249500.1.2.0,Phases=2,Linecode=IP_2,Length=0.002960000,Units=km
new line.SBT_1249507IP bus1=1731611.1.2.0,bus2=5001249507.1.2.0,Phases=2,Linecode=IP_2,Length=0.002960000,Units=km
new line.SBT_1249535IP bus1=2842903.1.2.0,bus2=5001249535.1.2.0,Phases=2,Linecode=IP_2,Length=0.003300000,Units=km
new line.SBT_1249542IP bus1=2842910.1.2.0,bus2=5001249542.1.2.0,Phases=2,Linecode=IP_2,Length=0.002960000,Units=km
new line.SBT_1249549IP bus1=2842917.1.2.0,bus2=5001249549.1.2.0,Phases=2,Linecode=IP_2,Length=0.002960000,Units=km
new line.SBT_1249556IP bus1=2842924.1.2.0,bus2=5001249556.1.2.0,Phases=2,Linecode=IP_2,Length=0.002960000,Units=km
new line.SBT_1249563IP bus1=2842931.1.2.0,bus2=5001249563.1.2.0,Phases=2,Linecode=IP_2,Length=0.002960000,Units=km
new line.SBT_1249570IP bus1=2842826.1.2.0,bus2=5001249570.1.2.0,Phases=2,Linecode=IP_2,Length=0.002180000,Units=km
new line.SBT_1249577IP bus1=2842840.1.2.0,bus2=5001249577.1.2.0,Phases=2,Linecode=IP_2,Length=0.002180000,Units=km
new line.SBT_1249584IP bus1=2842833.1.2.0,bus2=5001249584.1.2.0,Phases=2,Linecode=IP_2,Length=0.002180000,Units=km
new line.SBT_1281056 bus1=1457904.1.2.3.0,bus2=1457883.1.2.3.0,Phases=3,Linecode=BT803_BT803_4_3_4_3,Length=0.040014000,Units=km
new line.SBT_1281063 bus1=1457911.1.2.3.0,bus2=2789199.1.2.3.0,Phases=3,Linecode=BT803_BT803_4_3_4_3,Length=0.035140000,Units=km
new line.SBT_1281070 bus1=1457918.1.2.3.0,bus2=1457911.1.2.3.0,Phases=3,Linecode=BT803_BT803_4_3_4_3,Length=0.027028000,Units=km
new line.SBT_1281077 bus1=1457932.1.2.3.0,bus2=1457904.1.2.3.0,Phases=3,Linecode=BT803_BT803_4_3_4_3,Length=0.021102000,Units=km
new line.SBT_1281084 bus1=1457932.1.2.3.0,bus2=172562652.1.2.3.0,Phases=3,Linecode=BT107_BT106_7_3_1_3,Length=0.015039000,Units=km
new line.SBT_1281091 bus1=1457932.1.2.3.0,bus2=1457995.1.2.3.0,Phases=3,Linecode=BT803_BT803_4_3_4_3,Length=0.042062000,Units=km
new line.SBT_1281098 bus1=1457939.1.2.3.0,bus2=1457932.1.2.3.0,Phases=3,Linecode=BT108_BT107_7_3_1_3,Length=0.035012000,Units=km
new line.SBT_1281105 bus1=1457946.1.2.3.0,bus2=1457939.1.2.3.0,Phases=3,Linecode=BT108_BT107_7_3_1_3,Length=0.036026000,Units=km
new line.SBT_1281112 bus1=1457953.1.2.3.0,bus2=1457946.1.2.3.0,Phases=3,Linecode=BT108_BT107_7_3_1_3,Length=0.032027000,Units=km
new line.SBT_1281119 bus1=1457876.1.2.3.0,bus2=1457953.1.2.3.0,Phases=3,Linecode=BT518_BT518_7_3_1_3,Length=0.000501000,Units=km
new line.SBT_1281126 bus1=1457953.1.2.3.0,bus2=1457960.1.2.3.0,Phases=3,Linecode=BT108_BT107_7_3_1_3,Length=0.032011000,Units=km
new line.SBT_1281133 bus1=1457960.1.2.3.0,bus2=1457974.1.2.3.0,Phases=3,Linecode=BT803_BT803_4_3_4_3,Length=0.028027000,Units=km
new line.SBT_1281140 bus1=1457967.1.2.3.0,bus2=1457918.1.2.3.0,Phases=3,Linecode=BT803_BT803_4_3_4_3,Length=0.035140000,Units=km
new line.SBT_1281147 bus1=1457967.1.2.3.0,bus2=2720305.1.2.3.0,Phases=3,Linecode=BT803_BT803_4_3_4_3,Length=0.024029000,Units=km
new line.SBT_1281154 bus1=1457974.1.2.3.0,bus2=1457897.1.2.3.0,Phases=3,Linecode=BT803_BT803_4_3_4_3,Length=0.030027000,Units=km
new line.SBT_1281161 bus1=1457974.1.2.3.0,bus2=1457988.1.2.3.0,Phases=3,Linecode=BT803_BT803_4_3_4_3,Length=0.037134000,Units=km
new line.SBT_1281168 bus1=1457981.1.2.3.0,bus2=1457967.1.2.3.0,Phases=3,Linecode=BT803_BT803_4_3_4_3,Length=0.041354000,Units=km
new line.SBT_1281175 bus1=2720298.1.2.3.0,bus2=1457981.1.2.3.0,Phases=3,Linecode=BT518_BT518_7_3_1_3,Length=0.000501000,Units=km
new line.SBT_1281182 bus1=1457981.1.2.3.0,bus2=2720312.1.2.3.0,Phases=3,Linecode=BT803_BT803_4_3_4_3,Length=0.037456000,Units=km
new line.SBT_1281189 bus1=1457981.1.2.0,bus2=3133816.1.2.0,Phases=2,Linecode=BT316_BT316_5_2_1_2,Length=0.015817000,Units=km
new line.SBT_1281196 bus1=1458345.1.2.3.0,bus2=1458352.1.2.3.0,Phases=3,Linecode=BT803_BT803_4_3_4_3,Length=0.034026000,Units=km
new line.SBT_1281203 bus1=1458359.1.2.3.0,bus2=1458387.1.2.3.0,Phases=3,Linecode=BT107_BT106_7_3_1_3,Length=0.005659000,Units=km
new line.SBT_1281224 bus1=3189137.1.2.0,bus2=4552226.1.2.0,Phases=2,Linecode=BT808_BT808_4_2_3_2,Length=0.023030000,Units=km
new line.SBT_1281259 bus1=1458016.1.2.3.0,bus2=1458009.1.2.3.0,Phases=3,Linecode=BT803_BT803_4_3_4_3,Length=0.037121000,Units=km
new line.SBT_1281266 bus1=1458023.1.2.3.0,bus2=1458016.1.2.3.0,Phases=3,Linecode=BT803_BT803_4_3_4_3,Length=0.035789000,Units=km
new line.SBT_1281273 bus1=1458002.1.2.3.0,bus2=1458023.1.2.3.0,Phases=3,Linecode=BT518_BT518_7_3_1_3,Length=0.000501000,Units=km
new line.SBT_1281280 bus1=1458023.1.2.3.0,bus2=1458030.1.2.3.0,Phases=3,Linecode=BT803_BT803_4_3_4_3,Length=0.031839000,Units=km
new line.SBT_1281287 bus1=1458030.1.2.3.0,bus2=1458037.1.2.3.0,Phases=3,Linecode=BT803_BT803_4_3_4_3,Length=0.041026000,Units=km
new line.SBT_1281294 bus1=1458037.1.2.3.0,bus2=1458044.1.2.3.0,Phases=3,Linecode=BT803_BT803_4_3_4_3,Length=0.018364000,Units=km