new transformer.TRF_1030497A Phases=1,Windings=3,Buses=[BMT182986396.2 98394461.1.0 98394461.0.2],Conns=[wye wye wye],kvs=[7.967 0.12 0.12],kvas=[5.000000000 5.000000000 5.000000000],Taps=[1,1.000000000,1.000000000],XHL=1.625000000,XHT=1.625000000,XLT=1.300000000,%loadloss=1.900000000,%noloadloss=0.600000000 !378780
new transformer.TRF_1030574A Phases=1,Windings=3,Buses=[BMT168916913.2 98446303.1.0 98446303.0.2],Conns=[wye wye wye],kvs=[7.967 0.12 0.12],kvas=[5.000000000 5.000000000 5.000000000],Taps=[1,1.000000000,1.000000000],XHL=1.625000000,XHT=1.625000000,XLT=1.300000000,%loadloss=1.900000000,%noloadloss=0.600000000 !978653
new transformer.TRF_1030791A Phases=1,Windings=3,Buses=[BMT182215354.1 98529659.1.0 98529659.0.2],Conns=[wye wye wye],kvs=[7.967 0.12 0.12],kvas=[5.000000000 5.000000000 5.000000000],Taps=[1,1.000000000,1.000000000],XHL=1.625000000,XHT=1.625000000,XLT=1.300000000,%loadloss=1.900000000,%noloadloss=0.600000000 !979042
new transformer.TRF_1045603 Phases=3,Windings=2,Buses=[BMT181803528.1.2.3 111356522.1.2.3.0],Conns=[delta,wye],kvs=[13.800000000,0.220000000],kvas=[45.000000000 45.000000000],Taps=[1,1.000000000],XHL=3.700000000,%loadloss=1.520000000,%noloadloss=0.377777000 !149944
new transformer.TRF_1051448A Phases=1,Windings=3,Buses=[BMT183846347.1 116873201.1.0 116873201.0.2],Conns=[wye wye wye],kvs=[7.967 0.12 0.12],kvas=[15.000000000 15.000000000 15.000000000],Taps=[1,1.000000000,1.000000000],XHL=1.921000000,XHT=1.921000000,XLT=1.537000000,%loadloss=1.600000000,%noloadloss=0.400000000 !34823
new transformer.TRF_1051959A Phases=1,Windings=3,Buses=[BMT160747444.2 117206590.1.0 117206590.0.2],Conns=[wye wye wye],kvs=[7.967 0.12 0.12],kvas=[10.000000000 10.000000000 10.000000000],Taps=[1,1.000000000,1.000000000],XHL=1.735000000,XHT=1.735000000,XLT=1.388000000,%loadloss=1.800000000,%noloadloss=0.450000000 !385763
new transformer.TRF_1052001A Phases=1,Windings=3,Buses=[BMT175039897.2 117270619.1.0 117270619.0.2],Conns=[wye wye wye],kvs=[7.967 0.12 0.12],kvas=[10.000000000 10.000000000 10.000000000],Taps=[1,1.000000000,1.000000000],XHL=1.735000000,XHT=1.735000000,XLT=1.388000000,%loadloss=1.800000000,%noloadloss=0.450000000 !385748
new transformer.TRF_1058238A Phases=1,Windings=3,Buses=[BMT166720966.3 132796059.1.0 132796059.0.2],Conns=[wye wye wye],kvs=[7.967 0.12 0.12],kvas=[10.000000000 10.000000000 10.000000000],Taps=[1,1.000000000,1.000000000],XHL=1.735000000,XHT=1.735000000,XLT=1.388000000,%loadloss=1.800000000,%noloadloss=0.450000000 !387553
new transformer.TRF_1073337 Phases=3,Windings=2,Buses=[BMT183510138.1.2.3 149153348.1.2.3.0],Conns=[delta,wye],kvs=[13.800000000,0.220000000],kvas=[300.000000000 300.000000000],Taps=[1,1.000000000],XHL=4.900000000,%loadloss=0.990000000,%noloadloss=0.233333000 !135
new transformer.TRF_1073400 Phases=3,Windings=2,Buses=[BMT134142572.1.2.3 134142579.1.2.3.0],Conns=[delta,wye],kvs=[13.800000000,0.220000000],kvas=[100.000000000 100.000000000],Taps=[1,1.000000000],XHL=3.810000000,%loadloss=1.220000000,%noloadloss=0.000000000 !305173
new transformer.TRF_1073771 Phases=3,Windings=2,Buses=[BMT135343289.1.2.3 135250784.1.2.3.0],Conns=[delta,wye],kvs=[13.800000000,0.220000000],kvas=[300.000000000 300.000000000],Taps=[1,1.000000000],XHL=4.900000000,%loadloss=0.990000000,%noloadloss=0.000000000 !302723
new transformer.TRF_1080288A Phases=1,Windings=3,Buses=[BMT162416145.3 144372190.1.0 144372190.0.2],Conns=[wye wye wye],kvs=[7.967 0.12 0.12],kvas=[15.000000000 15.000000000 15.000000000],Taps=[1,1.000000000,1.000000000],XHL=1.921000000,XHT=1.921000000,XLT=1.537000000,%loadloss=1.600000000,%noloadloss=0.400000000 !384741
new transformer.TRF_1080869 Phases=3,Windings=2,Buses=[BMT183836462.1.2.3 139655709.1.2.3.0],Conns=[delta,wye],kvs=[13.800000000,0.220000000],kvas=[75.000000000 75.000000000],Taps=[1,1.000000000],XHL=3.770000000,%loadloss=1.340000000,%noloadloss=0.340000000 !166039
new transformer.TRF_1093154A Phases=1,Windings=3,Buses=[BMT180953885.3 145454971.1.0 145454971.0.2],Conns=[wye wye wye],kvs=[7.967 0.12 0.12],kvas=[15.000000000 15.000000000 15.000000000],Taps=[1,1.000000000,1.000000000],XHL=1.921000000,XHT=1.921000000,XLT=1.537000000,%loadloss=1.600000000,%noloadloss=0.400000000 !385694
new transformer.TRF_1390932A Phases=1,Windings=3,Buses=[BMT169056886.3 148257324.1.0 148257324.0.2],Conns=[wye wye wye],kvs=[7.967 0.12 0.12],kvas=[5.000000000 5.000000000 5.000000000],Taps=[1,1.000000000,1.000000000],XHL=1.625000000,XHT=1.625000000,XLT=1.300000000,%loadloss=1.900000000,%noloadloss=0.600000000 !261277
new transformer.TRF_1390946 Phases=3,Windings=2,Buses=[BMT177703074.1.2.3 148261030.1.2.3.0],Conns=[delta,wye],kvs=[13.800000000,0.220000000],kvas=[100.000000000 100.000000000],Taps=[1,1.000000000],XHL=3.810000000,%loadloss=1.220000000,%noloadloss=0.000000000 !305163
new transformer.TRF_1393575 Phases=3,Windings=2,Buses=[BMT169893112.1.2.3 149930290.1.2.3.0],Conns=[delta,wye],kvs=[13.800000000,0.220000000],kvas=[45.000000000 45.000000000],Taps=[1,1.000000000],XHL=3.700000000,%loadloss=1.520000000,%noloadloss=0.377777000 !383975
new transformer.TRF_1395806A Phases=1,Windings=3,Buses=[BMT173051135.2 149377821.1.0 149377821.0.2],Conns=[wye wye wye],kvs=[7.967 0.12 0.12],kvas=[10.000000000 10.000000000 10.000000000],Taps=[1,1.000000000,1.000000000],XHL=1.735000000,XHT=1.735000000,XLT=1.388000000,%loadloss=1.800000000,%noloadloss=0.450000000 !393792
new transformer.TRF_1395838A Phases=1,Windings=3,Buses=[BMT179937732.2 154125968.1.0 154125968.0.2],Conns=[wye wye wye],kvs=[7.967 0.12 0.12],kvas=[10.000000000 10.000000000 10.000000000],Taps=[1,1.000000000,1.000000000],XHL=1.735000000,XHT=1.735000000,XLT=1.388000000,%loadloss=1.800000000,%noloadloss=0.450000000 !397722
new transformer.TRF_1400991 Phases=3,Windings=2,Buses=[BMT178196912.1.2.3 150672359.1.2.3.0],Conns=[delta,wye],kvs=[13.800000000,0.220000000],kvas=[45.000000000 45.000000000],Taps=[1,1.000000000],XHL=3.700000000,%loadloss=1.520000000,%noloadloss=0.377777000 !385026
new transformer.TRF_1406324A Phases=1,Windings=3,Buses=[BMT171632031.2 158020736.1.0 158020736.0.2],Conns=[wye wye wye],kvs=[7.967 0.12 0.12],kvas=[10.000000000 10.000000000 10.000000000],Taps=[1,1.000000000,1.000000000],XHL=1.735000000,XHT=1.735000000,XLT=1.388000000,%loadloss=1.800000000,%noloadloss=0.450000000 !423679
new transformer.TRF_1406569A Phases=1,Windings=3,Buses=[BMT166690241.2 152011704.1.0 152011704.0.2],Conns=[wye wye wye],kvs=[7.967 0.12 0.12],kvas=[10.000000000 10.000000000 10.000000000],Taps=[1,1.000000000,1.000000000],XHL=1.735000000,XHT=1.735000000,XLT=1.388000000,%loadloss=1.800000000,%noloadloss=0.450000000 !402124
new transformer.TRF_1406579 Phases=3,Windings=2,Buses=[BMT152012777.1.2.3 152012734.1.2.3.0],Conns=[delta,wye],kvs=[13.800000000,0.220000000],kvas=[833.000000000 833.000000000],Taps=[1,1.000000000],XHL=4.890000000,%loadloss=1.060000000,%noloadloss=0.000000000 !382081
new transformer.TRF_1408567 Phases=3,Windings=2,Buses=[BMT166721123.1.2.3 152506628.1.2.3.0],Conns=[delta,wye],kvs=[13.800000000,0.220000000],kvas=[45.000000000 45.000000000],Taps=[1,1.000000000],XHL=3.700000000,%loadloss=1.520000000,%noloadloss=0.377777000 !387667
new transformer.TRF_1410929A Phases=1,Windings=3,Buses=[BMT160075293.3 153047499.1.0 153047499.0.2],Conns=[wye wye wye],kvs=[7.967 0.12 0.12],kvas=[10.000000000 10.000000000 10.000000000],Taps=[1,1.000000000,1.000000000],XHL=1.735000000,XHT=1.735000000,XLT=1.388000000,%loadloss=1.800000000,%noloadloss=0.450000000 !403490
new transformer.TRF_1415495 Phases=3,Windings=2,Buses=[BMT156691897.1.2.3 154023112.1.2.3.0],Conns=[delta,wye],kvs=[13.800000000,0.220000000],kvas=[45.000000000 45.000000000],Taps=[1,1.000000000],XHL=3.700000000,%loadloss=1.520000000,%noloadloss=0.377777000 !388199
new transformer.TRF_1415698A Phases=1,Windings=3,Buses=[BMT181069595.1 154081985.1.0 154081985.0.2],Conns=[wye wye wye],kvs=[7.967 0.12 0.12],kvas=[15.000000000 15.000000000 15.000000000],Taps=[1,1.000000000,1.000000000],XHL=1.921000000,XHT=1.921000000,XLT=1.537000000,%loadloss=1.600000000,%noloadloss=0.400000000 !392469
new transformer.TRF_1415710 Phases=3,Windings=2,Buses=[BMT172534178.1.2.3 154083798.1.2.3.0],Conns=[delta,wye],kvs=[13.800000000,0.220000000],kvas=[509.000000000 509.000000000],Taps=[1,1.000000000],XHL=4.880000000,%loadloss=1.110000000,%noloadloss=0.000000000 !232985
new transformer.TRF_1418523A Phases=1,Windings=3,Buses=[BMT168916945.2 154746883.1.0 154746883.0.2],Conns=[wye wye wye],kvs=[7.967 0.12 0.12],kvas=[15.000000000 15.000000000 15.000000000],Taps=[1,1.000000000,1.000000000],XHL=1.921000000,XHT=1.921000000,XLT=1.537000000,%loadloss=1.600000000,%noloadloss=0.400000000 !952251
new transformer.TRF_1005948 Phases=3,Windings=2,Buses=[BMT172856321.1.2.3 84500854.1.2.3.0],Conns=[delta,wye],kvs=[13.800000000,0.220000000],kvas=[45.000000000 45.000000000],Taps=[1,1.000000000],XHL=3.700000000,%loadloss=1.520000000,%noloadloss=0.377777000 !12188
new transformer.TRF_1005997 Phases=3,Windings=2,Buses=[BMT172856322.1.2.3 84505880.1.2.3.0],Conns=[delta,wye],kvs=[13.800000000,0.220000000],kvas=[30.000000000 30.000000000],Taps=[1,1.000000000],XHL=3.640000000,%loadloss=1.670000000,%noloadloss=0.433333000 !154780
new transformer.TRF_1025912A Phases=1,Windings=3,Buses=[BMT125572871.3 94571698.1.0 94571698.0.2],Conns=[wye wye wye],kvs=[7.967 0.12 0.12],kvas=[5.000000000 5.000000000 5.000000000],Taps=[1,1.000000000,1.000000000],XHL=1.625000000,XHT=1.625000000,XLT=1.300000000,%loadloss=1.900000000,%noloadloss=0.600000000 !417971
new transformer.TRF_1033332A Phases=1,Windings=3,Buses=[BMT179283537.1 99886217.1.0 99886217.0.2],Conns=[wye wye wye],kvs=[7.967 0.12 0.12],kvas=[5.000000000 5.000000000 5.000000000],Taps=[1,1.000000000,1.000000000],XHL=1.625000000,XHT=1.625000000,XLT=1.300000000,%loadloss=1.900000000,%noloadloss=0.600000000 !45961
new transformer.TRF_1033353A Phases=1,Windings=3,Buses=[BMT125557849.2 110567692.1.0 110567692.0.2],Conns=[wye wye wye],kvs=[7.967 0.12 0.12],kvas=[10.000000000 10.000000000 10.000000000],Taps=[1,1.000000000,1.000000000],XHL=1.735000000,XHT=1.735000000,XLT=1.388000000,%loadloss=1.800000000,%noloadloss=0.450000000 !386540
new transformer.TRF_1041711 Phases=3,Windings=2,Buses=[BMT181166378.1.2.3 134761743.1.2.3.0],Conns=[delta,wye],kvs=[13.800000000,0.220000000],kvas=[300.000000000 300.000000000],Taps=[1,1.000000000],XHL=4.900000000,%loadloss=0.990000000,%noloadloss=0.233333000 !386
new transformer.TRF_1041914A Phases=1,Windings=3,Buses=[BMT172154904.3 152010620.1.0 152010620.0.2],Conns=[wye wye wye],kvs=[7.967 0.12 0.12],kvas=[15.000000000 15.000000000 15.000000000],Taps=[1,1.000000000,1.000000000],XHL=1.921000000,XHT=1.921000000,XLT=1.537000000,%loadloss=1.600000000,%noloadloss=0.400000000 !389503
new transformer.TRF_1048928 Phases=3,Windings=2,Buses=[BMT172385892.1.2.3 128974178.1.2.3.0],Conns=[delta,wye],kvs=[13.800000000,0.220000000],kvas=[75.000000000 75.000000000],Taps=[1,1.000000000],XHL=3.770000000,%loadloss=1.340000000,%noloadloss=0.340000000 !164542
new transformer.TRF_1049061 Phases=3,Windings=2,Buses=[BMT175966928.1.2.3 129576885.1.2.3.0],Conns=[delta,wye],kvs=[13.800000000,0.220000000],kvas=[45.000000000 45.000000000],Taps=[1,1.000000000],XHL=3.700000000,%loadloss=1.520000000,%noloadloss=0.377777000 !373602
new transformer.TRF_1055410A Phases=1,Windings=3,Buses=[BMT149462581.2 134121117.1.0 134121117.0.2],Conns=[wye wye wye],kvs=[7.967 0.12 0.12],kvas=[10.000000000 10.000000000 10.000000000],Taps=[1,1.000000000,1.000000000],XHL=1.735000000,XHT=1.735000000,XLT=1.388000000,%loadloss=1.800000000,%noloadloss=0.450000000 !387580
new transformer.TRF_1055417A Phases=1,Windings=3,Buses=[BMT169893307.2 134314709.1.0 134314709.0.2],Conns=[wye wye wye],kvs=[7.967 0.12 0.12],kvas=[10.000000000 10.000000000 10.000000000],Taps=[1,1.000000000,1.000000000],XHL=1.735000000,XHT=1.735000000,XLT=1.388000000,%loadloss=1.800000000,%noloadloss=0.450000000 !387381
new transformer.TRF_1055424A Phases=1,Windings=3,Buses=[BMT177503981.1 134156754.1.0 134156754.0.2],Conns=[wye wye wye],kvs=[7.967 0.12 0.12],kvas=[10.000000000 10.000000000 10.000000000],Taps=[1,1.000000000,1.000000000],XHL=1.735000000,XHT=1.735000000,XLT=1.388000000,%loadloss=1.800000000,%noloadloss=0.450000000 !387376
new transformer.TRF_1075605A Phases=1,Windings=3,Buses=[BMT180691189.1 134681243.1.0 134681243.0.2],Conns=[wye wye wye],kvs=[7.967 0.12 0.12],kvas=[5.000000000 5.000000000 5.000000000],Taps=[1,1.000000000,1.000000000],XHL=1.625000000,XHT=1.625000000,XLT=1.300000000,%loadloss=1.900000000,%noloadloss=0.600000000 !426303
new transformer.TRF_1090354 Phases=3,Windings=2,Buses=[BMT183836460.1.2.3 145816185.1.2.3.0],Conns=[delta,wye],kvs=[13.800000000,0.220000000],kvas=[75.000000000 75.000000000],Taps=[1,1.000000000],XHL=3.770000000,%loadloss=1.340000000,%noloadloss=0.340000000 !166940
new transformer.TRF_1391657 Phases=3,Windings=2,Buses=[BMT169893421.1.2.3 148438914.1.2.3.0],Conns=[delta,wye],kvs=[13.800000000,0.220000000],kvas=[75.000000000 75.000000000],Taps=[1,1.000000000],XHL=3.770000000,%loadloss=1.340000000,%noloadloss=0.340000000 !156611
new transformer.TRF_1396197 Phases=3,Windings=2,Buses=[BMT160603187.1.2.3 149744807.1.2.3.0],Conns=[delta,wye],kvs=[13.800000000,0.220000000],kvas=[100.000000000 100.000000000],Taps=[1,1.000000000],XHL=3.810000000,%loadloss=1.220000000,%noloadloss=0.000000000 !377908
new transformer.TRF_1396218A Phases=1,Windings=3,Buses=[BMT171199973.2 150648727.1.0 150648727.0.2],Conns=[wye wye wye],kvs=[7.967 0.12 0.12],kvas=[15.000000000 15.000000000 15.000000000],Taps=[1,1.000000000,1.000000000],XHL=1.921000000,XHT=1.921000000,XLT=1.537000000,%loadloss=1.600000000,%noloadloss=0.400000000 !389331
new transformer.TRF_1398454A Phases=1,Windings=3,Buses=[BMT166721198.3 149948200.1.0 149948200.0.2],Conns=[wye wye wye],kvs=[7.967 0.12 0.12],kvas=[15.000000000 15.000000000 15.000000000],Taps=[1,1.000000000,1.000000000],XHL=1.921000000,XHT=1.921000000,XLT=1.537000000,%loadloss=1.600000000,%noloadloss=0.400000000 !101971
new transformer.TRF_1398489 Phases=3,Windings=2,Buses=[BMT172856324.1.2.3 151907873.1.2.3.0],Conns=[delta,wye],kvs=[13.800000000,0.220000000],kvas=[45.000000000 45.000000000],Taps=[1,1.000000000],XHL=3.700000000,%loadloss=1.520000000,%noloadloss=0.377777000 !395803
new transformer.TRF_1406091A Phases=1,Windings=3,Buses=[BMT176583958.1 151878294.1.0 151878294.0.2],Conns=[wye wye wye],kvs=[7.967 0.12 0.12],kvas=[10.000000000 10.000000000 10.000000000],Taps=[1,1.000000000,1.000000000],XHL=1.735000000,XHT=1.735000000,XLT=1.388000000,%loadloss=1.800000000,%noloadloss=0.450000000 !395309
new transformer.TRF_1406170 Phases=3,Windings=2,Buses=[BMT183830133.1.2.3 151900267.1.2.3.0],Conns=[delta,wye],kvs=[13.800000000,0.220000000],kvas=[150.000000000 150.000000000],Taps=[1,1.000000000],XHL=3.840000000,%loadloss=1.130000000,%noloadloss=0.280000000 !255477
new transformer.TRF_1406204 Phases=3,Windings=2,Buses=[BMT162814230.1.2.3 151910075.1.2.3.0],Conns=[delta,wye],kvs=[13.800000000,0.220000000],kvas=[100.000000000 100.000000000],Taps=[1,1.000000000],XHL=3.810000000,%loadloss=1.220000000,%noloadloss=0.000000000 !158218
new transformer.TRF_1408942A Phases=1,Windings=3,Buses=[BMT174411413.2 152596559.1.0 152596559.0.2],Conns=[wye wye wye],kvs=[7.967 0.12 0.12],kvas=[10.000000000 10.000000000 10.000000000],Taps=[1,1.000000000,1.000000000],XHL=1.735000000,XHT=1.735000000,XLT=1.388000000,%loadloss=1.800000000,%noloadloss=0.450000000 !396048
new transformer.TRF_1411180 Phases=3,Windings=2,Buses=[BMT172566192.1.2.3 153093285.1.2.3.0],Conns=[delta,wye],kvs=[13.800000000,0.220000000],kvas=[45.000000000 45.000000000],Taps=[1,1.000000000],XHL=3.700000000,%loadloss=1.520000000,%noloadloss=0.377777000 !388391
new transformer.TRF_1413833A Phases=1,Windings=3,Buses=[BMT162991239.3 153592891.1.0 153592891.0.2],Conns=[wye wye wye],kvs=[7.967 0.12 0.12],kvas=[35.000000000 35.000000000 35.000000000],Taps=[1,1.000000000,1.000000000],XHL=2.139000000,XHT=2.139000000,XLT=1.712000000,%loadloss=1.293000000,%noloadloss=0.342857000 !300611
new transformer.TRF_1414099A Phases=1,Windings=3,Buses=[BMT161364140.2 153667710.1.0 153667710.0.2],Conns=[wye wye wye],kvs=[7.967 0.12 0.12],kvas=[10.000000000 10.000000000 10.000000000],Taps=[1,1.000000000,1.000000000],XHL=1.735000000,XHT=1.735000000,XLT=1.388000000,%loadloss=1.800000000,%noloadloss=0.450000000 !400681
new transformer.TRF_1416371A Phases=1,Windings=3,Buses=[BMT165431970.2 154260098.1.0 154260098.0.2],Conns=[wye wye wye],kvs=[7.967 0.12 0.12],kvas=[10.000000000 10.000000000 10.000000000],Taps=[1,1.000000000,1.000000000],XHL=1.735000000,XHT=1.735000000,XLT=1.388000000,%loadloss=1.800000000,%noloadloss=0.450000000 !398453
new transformer.TRF_1418814A Phases=1,Windings=3,Buses=[BMT182365313.1 154798766.1.0 154798766.0.2],Conns=[wye wye wye],kvs=[7.967 0.12 0.12],kvas=[10.000000000 10.000000000 10.000000000],Taps=[1,1.000000000,1.000000000],XHL=1.735000000,XHT=1.735000000,XLT=1.388000000,%loadloss=1.800000000,%noloadloss=0.450000000 !406965
new transformer.TRF_1434298 Phases=3,Windings=2,Buses=[BMT164936023.1.2.3 158054514.1.2.3.0],Conns=[delta,wye],kvs=[13.800000000,0.220000000],kvas=[75.000000000 75.000000000],Taps=[1,1.000000000],XHL=3.770000000,%loadloss=1.340000000,%noloadloss=0.340000000 !177036
new transformer.TRF_1061822A Phases=1,Windings=3,Buses=[BMT170139377.2 129692427.1.0 129692427.0.2],Conns=[wye wye wye],kvs=[7.967 0.12 0.12],kvas=[5.000000000 5.000000000 5.000000000],Taps=[1,1.000000000,1.000000000],XHL=1.625000000,XHT=1.625000000,XLT=1.300000000,%loadloss=1.900000000,%noloadloss=0.600000000 !425376
new transformer.TRF_1095030A Phases=1,Windings=3,Buses=[BMT175264372.3 145129590.1.0 145129590.0.2],Conns=[wye wye wye],kvs=[7.967 0.12 0.12],kvas=[35.000000000 35.000000000 35.000000000],Taps=[1,1.000000000,1.000000000],XHL=2.139000000,XHT=2.139000000,XLT=1.712000000,%loadloss=1.293000000,%noloadloss=0.342857000 !303267
new transformer.TRF_1101932 Phases=3,Windings=2,Buses=[BMT169950542.1.2.3 142033609.1.2.3.0],Conns=[delta,wye],kvs=[13.800000000,0.220000000],kvas=[75.000000000 75.000000000],Taps=[1,1.000000000],XHL=3.770000000,%loadloss=1.340000000,%noloadloss=0.340000000 !182943
new transformer.TRF_1108673A Phases=1,Windings=3,Buses=[BMT143928943.1 143928390.1.0 143928390.0.2],Conns=[wye wye wye],kvs=[7.967 0.12 0.12],kvas=[5.000000000 5.000000000 5.000000000],Taps=[1,1.000000000,1.000000000],XHL=1.625000000,XHT=1.625000000,XLT=1.300000000,%loadloss=1.900000000,%noloadloss=0.600000000 !429361
new transformer.TRF_1115722 Phases=3,Windings=2,Buses=[BMT163164196.1.2.3 145754774.1.2.3.0],Conns=[delta,wye],kvs=[13.800000000,0.220000000],kvas=[150.000000000 150.000000000],Taps=[1,1.000000000],XHL=3.840000000,%loadloss=1.130000000,%noloadloss=0.000000000 !308711
new transformer.TRF_1392880A Phases=1,Windings=3,Buses=[BMT166719963.2 149536816.1.0 149536816.0.2],Conns=[wye wye wye],kvs=[7.967 0.12 0.12],kvas=[35.000000000 35.000000000 35.000000000],Taps=[1,1.000000000,1.000000000],XHL=2.139000000,XHT=2.139000000,XLT=1.712000000,%loadloss=1.293000000,%noloadloss=0.342857000 !298008
new transformer.TRF_1392993 Phases=3,Windings=2,Buses=[BMT173868697.1.2.3 149517573.1.2.3.0],Conns=[delta,wye],kvs=[13.800000000,0.220000000],kvas=[100.000000000 100.000000000],Taps=[1,1.000000000],XHL=3.810000000,%loadloss=1.220000000,%noloadloss=0.000000000 !375432
new transformer.TRF_1393002A Phases=1,Windings=3,Buses=[BMT148735577.2 148735233.1.0 148735233.0.2],Conns=[wye wye wye],kvs=[7.967 0.12 0.12],kvas=[15.000000000 15.000000000 15.000000000],Taps=[1,1.000000000,1.000000000],XHL=1.921000000,XHT=1.921000000,XLT=1.537000000,%loadloss=1.600000000,%noloadloss=0.400000000 !383245
new transformer.TRF_1395513 Phases=3,Windings=2,Buses=[BMT153763063.1.2.3 149316592.1.2.3.0],Conns=[delta,wye],kvs=[13.800000000,0.220000000],kvas=[45.000000000 45.000000000],Taps=[1,1.000000000],XHL=3.700000000,%loadloss=1.520000000,%noloadloss=0.377777000 !381545
new transformer.TRF_1402889 Phases=3,Windings=2,Buses=[BMT169893337.1.2.3 151138858.1.2.3.0],Conns=[delta,wye],kvs=[13.800000000,0.220000000],kvas=[300.000000000 300.000000000],Taps=[1,1.000000000],XHL=4.900000000,%loadloss=0.990000000,%noloadloss=0.000000000 !381861
new transformer.TRF_1402905 Phases=3,Windings=2,Buses=[BMT165054598.1.2.3 155960888.1.2.3.0],Conns=[delta,wye],kvs=[13.800000000,0.220000000],kvas=[45.000000000 45.000000000],Taps=[1,1.000000000],XHL=3.700000000,%loadloss=1.520000000,%noloadloss=0.377777000 !390051
new transformer.TRF_1402906 Phases=3,Windings=2,Buses=[BMT165054597.1.2.3 155960917.1.2.3.0],Conns=[delta,wye],kvs=[13.800000000,0.220000000],kvas=[45.000000000 45.000000000],Taps=[1,1.000000000],XHL=3.700000000,%loadloss=1.520000000,%noloadloss=0.377777000 !390075
new transformer.TRF_1402908 Phases=3,Windings=2,Buses=[BMT178017027.1.2.3 158170321.1.2.3.0],Conns=[delta,wye],kvs=[13.800000000,0.220000000],kvas=[45.000000000 45.000000000],Taps=[1,1.000000000],XHL=3.700000000,%loadloss=1.520000000,%noloadloss=0.377777000 !394835
new transformer.TRF_1407927 Phases=3,Windings=2,Buses=[BMT177743874.1.2.3 152378687.1.2.3.0],Conns=[delta,wye],kvs=[13.800000000,0.220000000],kvas=[45.000000000 45.000000000],Taps=[1,1.000000000],XHL=3.700000000,%loadloss=1.520000000,%noloadloss=0.377777000 !387632
new transformer.TRF_1408111 Phases=3,Windings=2,Buses=[BMT152707731.1.2.3 152412139.1.2.3.0],Conns=[delta,wye],kvs=[13.800000000,0.220000000],kvas=[150.000000000 150.000000000],Taps=[1,1.000000000],XHL=3.840000000,%loadloss=1.130000000,%noloadloss=0.280000000 !255857
new transformer.TRF_1410284 Phases=3,Windings=2,Buses=[BMT177976663.1.2.3 152896503.1.2.3.0],Conns=[delta,wye],kvs=[13.800000000,0.220000000],kvas=[75.000000000 75.000000000],Taps=[1,1.000000000],XHL=3.770000000,%loadloss=1.340000000,%noloadloss=0.340000000 !171826
new transformer.TRF_1410289 Phases=3,Windings=2,Buses=[BMT177976664.1.2.3 152898595.1.2.3.0],Conns=[delta,wye],kvs=[13.800000000,0.220000000],kvas=[75.000000000 75.000000000],Taps=[1,1.000000000],XHL=3.770000000,%loadloss=1.340000000,%noloadloss=0.340000000 !171830
new transformer.TRF_1410294 Phases=3,Windings=2,Buses=[BMT177976665.1.2.3 152900426.1.2.3.0],Conns=[delta,wye],kvs=[13.800000000,0.220000000],kvas=[75.000000000 75.000000000],Taps=[1,1.000000000],XHL=3.770000000,%loadloss=1.340000000,%noloadloss=0.340000000 !171829
new transformer.TRF_1410296 Phases=3,Windings=2,Buses=[BMT179360267.1.2.3 152900957.1.2.3.0],Conns=[delta,wye],kvs=[13.800000000,0.220000000],kvas=[75.000000000 75.000000000],Taps=[1,1.000000000],XHL=3.770000000,%loadloss=1.340000000,%noloadloss=0.340000000 !171828
new transformer.TRF_1410297 Phases=3,Windings=2,Buses=[BMT179360268.1.2.3 152901333.1.2.3.0],Conns=[delta,wye],kvs=[13.800000000,0.220000000],kvas=[75.000000000 75.000000000],Taps=[1,1.000000000],XHL=3.770000000,%loadloss=1.340000000,%noloadloss=0.340000000 !171827
new transformer.TRF_1418351A Phases=1,Windings=3,Buses=[BMT173051136.2 154712252.1.0 154712252.0.2],Conns=[wye wye wye],kvs=[7.967 0.12 0.12],kvas=[10.000000000 10.000000000 10.000000000],Taps=[1,1.000000000,1.000000000],XHL=1.735000000,XHT=1.735000000,XLT=1.388000000,%loadloss=1.800000000,%noloadloss=0.450000000 !407593
new transformer.TRF_1420970A Phases=1,Windings=3,Buses=[BMT158038547.3 155277224.1.0 155277224.0.2],Conns=[wye wye wye],kvs=[7.967 0.12 0.12],kvas=[10.000000000 10.000000000 10.000000000],Taps=[1,1.000000000,1.000000000],XHL=1.735000000,XHT=1.735000000,XLT=1.388000000,%loadloss=1.800000000,%noloadloss=0.450000000 !405311
new transformer.TRF_1423669A Phases=1,Windings=3,Buses=[BMT172572342.1 155826405.1.0 155826405.0.2],Conns=[wye wye wye],kvs=[7.967 0.12 0.12],kvas=[10.000000000 10.000000000 10.000000000],Taps=[1,1.000000000,1.000000000],XHL=1.735000000,XHT=1.735000000,XLT=1.388000000,%loadloss=1.800000000,%noloadloss=0.450000000 !45615
new transformer.TRF_1426170 Phases=3,Windings=2,Buses=[BMT183078062.1.2.3 156380206.1.2.3.0],Conns=[delta,wye],kvs=[13.800000000,0.220000000],kvas=[45.000000000 45.000000000],Taps=[1,1.000000000],XHL=3.700000000,%loadloss=1.520000000,%noloadloss=0.377777000 !390004
new transformer.TRF_1428527A Phases=1,Windings=3,Buses=[BMT166721371.3 156902855.1.0 156902855.0.2],Conns=[wye wye wye],kvs=[7.967 0.12 0.12],kvas=[10.000000000 10.000000000 10.000000000],Taps=[1,1.000000000,1.000000000],XHL=1.735000000,XHT=1.735000000,XLT=1.388000000,%loadloss=1.800000000,%noloadloss=0.450000000 !411358
new transformer.TRF_1431092 Phases=3,Windings=2,Buses=[BMT178673709.1.2.3 168970322.1.2.3.0],Conns=[delta,wye],kvs=[13.800000000,0.220000000],kvas=[45.000000000 45.000000000],Taps=[1,1.000000000],XHL=3.700000000,%loadloss=1.520000000,%noloadloss=0.377777000 !394374
new transformer.TRF_1431095A Phases=1,Windings=3,Buses=[BMT182143921.2 157455759.1.0 157455759.0.2],Conns=[wye wye wye],kvs=[7.967 0.12 0.12],kvas=[10.000000000 10.000000000 10.000000000],Taps=[1,1.000000000,1.000000000],XHL=1.735000000,XHT=1.735000000,XLT=1.388000000,%loadloss=1.800000000,%noloadloss=0.450000000 !417249
new transformer.TRF_1445616 Phases=3,Windings=2,Buses=[BMT183847748.1.2.3 160572126.1.2.3.0],Conns=[delta,wye],kvs=[13.800000000,0.220000000],kvas=[45.000000000 45.000000000],Taps=[1,1.000000000],XHL=3.700000000,%loadloss=1.520000000,%noloadloss=0.377777000 !394833
new transformer.TRF_1448242A Phases=1,Windings=3,Buses=[BMT183846356.1 161261555.1.0 161261555.0.2],Conns=[wye wye wye],kvs=[7.967 0.12 0.12],kvas=[10.000000000 10.000000000 10.000000000],Taps=[1,1.000000000,1.000000000],XHL=1.735000000,XHT=1.735000000,XLT=1.388000000,%loadloss=1.800000000,%noloadloss=0.450000000 !422243
new transformer.TRF_1008720 Phases=3,Windings=2,Buses=[BMT180415090.1.2.3 85877873.1.2.3.0],Conns=[delta,wye],kvs=[13.800000000,0.220000000],kvas=[75.000000000 75.000000000],Taps=[1,1.000000000],XHL=3.770000000,%loadloss=1.340000000,%noloadloss=0.340000000 !190186
new transformer.TRF_1042509 Phases=3,Windings=2,Buses=[BMT166721267.1.2.3 107449864.1.2.3.0],Conns=[delta,wye],kvs=[13.800000000,0.220000000],kvas=[45.000000000 45.000000000],Taps=[1,1.000000000],XHL=3.700000000,%loadloss=1.520000000,%noloadloss=0.377777000 !48448
new transformer.TRF_1057034 Phases=3,Windings=2,Buses=[BMT178196911.1.2.3 127642862.1.2.3.0],Conns=[delta,wye],kvs=[13.800000000,0.220000000],kvas=[45.000000000 45.000000000],Taps=[1,1.000000000],XHL=3.700000000,%loadloss=1.520000000,%noloadloss=0.377777000 !20069
new transformer.TRF_1057041 Phases=3,Windings=2,Buses=[BMT178196913.1.2.3 127644955.1.2.3.0],Conns=[delta,wye],kvs=[13.800000000,0.220000000],kvas=[45.000000000 45.000000000],Taps=[1,1.000000000],XHL=3.700000000,%loadloss=1.520000000,%noloadloss=0.377777000 !373630
new transformer.TRF_1057097 Phases=3,Windings=2,Buses=[BMT168676960.1.2.3 152233020.1.2.3.0],Conns=[delta,wye],kvs=[13.800000000,0.220000000],kvas=[45.000000000 45.000000000],Taps=[1,1.000000000],XHL=3.700000000,%loadloss=1.520000000,%noloadloss=0.377777000 !387635
new transformer.TRF_1063782 Phases=3,Windings=2,Buses=[BMT169893364.1.2.3 130613914.1.2.3.0],Conns=[delta,wye],kvs=[13.800000000,0.220000000],kvas=[45.000000000 45.000000000],Taps=[1,1.000000000],XHL=3.700000000,%loadloss=1.520000000,%noloadloss=0.377777000 !66071
new transformer.TRF_1063789 Phases=3,Windings=2,Buses=[BMT169893363.1.2.3 130614159.1.2.3.0],Conns=[delta,wye],kvs=[13.800000000,0.220000000],kvas=[45.000000000 45.000000000],Taps=[1,1.000000000],XHL=3.700000000,%loadloss=1.520000000,%noloadloss=0.377777000 !372470
new transformer.TRF_1064153A Phases=1,Windings=3,Buses=[BMT177133338.1 135173532.1.0 135173532.0.2],Conns=[wye wye wye],kvs=[7.967 0.12 0.12],kvas=[25.000000000 25.000000000 25.000000000],Taps=[1,1.000000000,1.000000000],XHL=2.058000000,XHT=2.058000000,XLT=1.646000000,%loadloss=1.420000000,%noloadloss=0.320000000 !344698
new transformer.TRF_1089311 Phases=3,Windings=2,Buses=[BMT170631823.1.2.3 140185364.1.2.3.0],Conns=[delta,wye],kvs=[13.800000000,0.220000000],kvas=[225.000000000 225.000000000],Taps=[1,1.000000000],XHL=4.890000000,%loadloss=1.060000000,%noloadloss=0.000000000 !309623
new transformer.TRF_1114546A Phases=1,Windings=3,Buses=[BMT178407226.1 145422939.1.0 145422939.0.2],Conns=[wye wye wye],kvs=[7.967 0.12 0.12],kvas=[10.000000000 10.000000000 10.000000000],Taps=[1,1.000000000,1.000000000],XHL=1.735000000,XHT=1.735000000,XLT=1.388000000,%loadloss=1.800000000,%noloadloss=0.450000000 !423914
new transformer.TRF_1392652A Phases=1,Windings=3,Buses=[BMT173728665.3 148657744.1.0 148657744.0.2],Conns=[wye wye wye],kvs=[7.967 0.12 0.12],kvas=[10.000000000 10.000000000 10.000000000],Taps=[1,1.000000000,1.000000000],XHL=1.735000000,XHT=1.735000000,XLT=1.388000000,%loadloss=1.800000000,%noloadloss=0.450000000 !393608
new transformer.TRF_1402554 Phases=3,Windings=2,Buses=[BMT172763238.1.2.3 154833527.1.2.3.0],Conns=[delta,wye],kvs=[13.800000000,0.220000000],kvas=[75.000000000 75.000000000],Taps=[1,1.000000000],XHL=3.770000000,%loadloss=1.340000000,%noloadloss=0.340000000 !172401
new transformer.TRF_1402555 Phases=3,Windings=2,Buses=[BMT175199551.1.2.3 164925920.1.2.3.0],Conns=[delta,wye],kvs=[13.800000000,0.220000000],kvas=[45.000000000 45.000000000],Taps=[1,1.000000000],XHL=3.700000000,%loadloss=1.520000000,%noloadloss=0.377777000 !358706
new transformer.TRF_1404993 Phases=3,Windings=2,Buses=[BMT169893416.1.2.3 151636336.1.2.3.0],Conns=[delta,wye],kvs=[13.800000000,0.220000000],kvas=[225.000000000 225.000000000],Taps=[1,1.000000000],XHL=4.890000000,%loadloss=1.060000000,%noloadloss=0.248888000 !25307
new transformer.TRF_1407765A Phases=1,Windings=3,Buses=[BMT178159043.1 152341482.1.0 152341482.0.2],Conns=[wye wye wye],kvs=[7.967 0.12 0.12],kvas=[15.000000000 15.000000000 15.000000000],Taps=[1,1.000000000,1.000000000],XHL=1.921000000,XHT=1.921000000,XLT=1.537000000,%loadloss=1.600000000,%noloadloss=0.400000000 !391472