new load.3009000011M1 bus1=BMT155114639.1.2.3,Phases=3,kv=13.8,kW=5.29432,pf=0.92,Vminpu=0.93,Vmaxpu=1.5,model=8,zipv=[0.5,0,0.5,1,0,0,0],daily=MT1_1,status=variable
new load.3009000012M1 bus1=BMT123762027.1.2.3,Phases=3,kv=13.8,kW=25.74206,pf=0.92,Vminpu=0.93,Vmaxpu=1.5,model=8,zipv=[0.5,0,0.5,1,0,0,0],daily=MT3_1,status=variable
new load.3009000013M1 bus1=BMT138752065.1.2.3,Phases=3,kv=13.8,kW=35.45604,pf=0.92,Vminpu=0.93,Vmaxpu=1.5,model=8,zipv=[0.5,0,0.5,1,0,0,0],daily=MT3_1,status=variable
new load.3009001475M1 bus1=BMT123765128.1.2.3,Phases=3,kv=13.8,kW=16.4999,pf=0.92,Vminpu=0.93,Vmaxpu=1.5,model=8,zipv=[0.5,0,0.5,1,0,0,0],daily=MT3_1,status=variable
new load.3009001477M1 bus1=BMT176526798.1.2.3,Phases=3,kv=13.8,kW=60.61526,pf=0.92,Vminpu=0.93,Vmaxpu=1.5,model=8,zipv=[0.5,0,0.5,1,0,0,0],daily=MT3_1,status=variable
new load.3009007700M1 bus1=BMT155113798.1.2.3,Phases=3,kv=13.8,kW=18.10958,pf=0.92,Vminpu=0.93,Vmaxpu=1.5,model=8,zipv=[0.5,0,0.5,1,0,0,0],daily=MT1_1,status=variable
new load.3009008443M1 bus1=BMT169428162.1.2.3,Phases=3,kv=13.8,kW=28.04292,pf=0.92,Vminpu=0.93,Vmaxpu=1.5,model=8,zipv=[0.5,0,0.5,1,0,0,0],daily=MT2_1,status=variable
new load.3009009542M1 bus1=BMT123760634.1.2.3,Phases=3,kv=13.8,kW=34.4791,pf=0.92,Vminpu=0.93,Vmaxpu=1.5,model=8,zipv=[0.5,0,0.5,1,0,0,0],daily=MT3_1,status=variable
new load.3009012567M1 bus1=BMT148717468.1.2.3,Phases=3,kv=13.8,kW=185.3193,pf=0.92,Vminpu=0.93,Vmaxpu=1.5,model=8,zipv=[0.5,0,0.5,1,0,0,0],daily=MT5_2,status=variable
new load.3009013558M1 bus1=BMT151791957.1.2.3,Phases=3,kv=13.8,kW=146.1585,pf=0.92,Vminpu=0.93,Vmaxpu=1.5,model=8,zipv=[0.5,0,0.5,1,0,0,0],daily=MT5_2,status=variable
new load.3009016508M1 bus1=BMT172384019.1.2.3,Phases=3,kv=13.8,kW=368.00996,pf=0.92,Vminpu=0.93,Vmaxpu=1.5,model=8,zipv=[0.5,0,0.5,1,0,0,0],daily=MT5_2,status=variable
new load.3009017261M1 bus1=BMT123762013.1.2.3,Phases=3,kv=13.8,kW=48.70314,pf=0.92,Vminpu=0.93,Vmaxpu=1.5,model=8,zipv=[0.5,0,0.5,1,0,0,0],daily=MT3_1,status=variable
new load.3009018533M1 bus1=BMT123760620.1.2.3,Phases=3,kv=13.8,kW=46.548,pf=0.92,Vminpu=0.93,Vmaxpu=1.5,model=8,zipv=[0.5,0,0.5,1,0,0,0],daily=MT2_1,status=variable
new load.3009019676M1 bus1=BMT123765142.1.2.3,Phases=3,kv=13.8,kW=0.37212,pf=0.92,Vminpu=0.93,Vmaxpu=1.5,model=8,zipv=[0.5,0,0.5,1,0,0,0],daily=MT1_1,status=variable
new load.3009019753M1 bus1=BMT123764169.1.2.3,Phases=3,kv=13.8,kW=11.53556,pf=0.92,Vminpu=0.93,Vmaxpu=1.5,model=8,zipv=[0.5,0,0.5,1,0,0,0],daily=MT1_1,status=variable
new load.3009019794M1 bus1=BMT123753144.1.2.3,Phases=3,kv=13.8,kW=108.23174,pf=0.92,Vminpu=0.93,Vmaxpu=1.5,model=8,zipv=[0.5,0,0.5,1,0,0,0],daily=MT5_1,status=variable
new load.3009020144M1 bus1=BMT123766969.1.2.3,Phases=3,kv=13.8,kW=1.08912,pf=0.92,Vminpu=0.93,Vmaxpu=1.5,model=8,zipv=[0.5,0,0.5,1,0,0,0],daily=MT1_1,status=variable
new load.3009020312M1 bus1=BMT123761824.1.2.3,Phases=3,kv=13.8,kW=23.27054,pf=0.92,Vminpu=0.93,Vmaxpu=1.5,model=8,zipv=[0.5,0,0.5,1,0,0,0],daily=MT3_1,status=variable
new load.3009020983M1 bus1=BMT175362664.1.2.3,Phases=3,kv=13.8,kW=203.60882,pf=0.92,Vminpu=0.93,Vmaxpu=1.5,model=8,zipv=[0.5,0,0.5,1,0,0,0],daily=MT5_1,status=variable
new load.3009021071M1 bus1=BMT170173697.1.2.3,Phases=3,kv=13.8,kW=152.45328,pf=0.92,Vminpu=0.93,Vmaxpu=1.5,model=8,zipv=[0.5,0,0.5,1,0,0,0],daily=MT5_1,status=variable
new load.3009022246M1 bus1=BMT123773766.1.2.3,Phases=3,kv=13.8,kW=26.5469,pf=0.92,Vminpu=0.93,Vmaxpu=1.5,model=8,zipv=[0.5,0,0.5,1,0,0,0],daily=MT2_1,status=variable
new load.3009022260M1 bus1=BMT123755531.1.2.3,Phases=3,kv=13.8,kW=16.3861,pf=0.92,Vminpu=0.93,Vmaxpu=1.5,model=8,zipv=[0.5,0,0.5,1,0,0,0],daily=MT3_1,status=variable
new load.3010000774M1 bus1=BMT123771638.1.2.3,Phases=3,kv=13.8,kW=16.09472,pf=0.92,Vminpu=0.93,Vmaxpu=1.5,model=8,zipv=[0.5,0,0.5,1,0,0,0],daily=MT1_1,status=variable
new load.3010188903M1 bus1=BMT123770980.1.2.3,Phases=3,kv=13.8,kW=96.95112,pf=0.92,Vminpu=0.93,Vmaxpu=1.5,model=8,zipv=[0.5,0,0.5,1,0,0,0],daily=MT3_1,status=variable
new load.3010648358M1 bus1=BMT150346500.1.2.3,Phases=3,kv=13.8,kW=23.79926,pf=0.92,Vminpu=0.93,Vmaxpu=1.5,model=8,zipv=[0.5,0,0.5,1,0,0,0],daily=MT3_1,status=variable
new load.3010950470M1 bus1=BMT123766290.1.2.3,Phases=3,kv=13.8,kW=123.7124,pf=0.92,Vminpu=0.93,Vmaxpu=1.5,model=8,zipv=[0.5,0,0.5,1,0,0,0],daily=MT4_1,status=variable
new load.3010960217M1 bus1=BMT123771456.1.2.3,Phases=3,kv=13.8,kW=52.79966,pf=0.92,Vminpu=0.93,Vmaxpu=1.5,model=8,zipv=[0.5,0,0.5,1,0,0,0],daily=MT3_1,status=variable
new load.3011325998M1 bus1=BMT159327679.1.2.3,Phases=3,kv=13.8,kW=1.98462,pf=0.92,Vminpu=0.93,Vmaxpu=1.5,model=8,zipv=[0.5,0,0.5,1,0,0,0],daily=MT1_1,status=variable
new load.3011681425M1 bus1=BMT137810607.1.2.3,Phases=3,kv=13.8,kW=3.225,pf=0.92,Vminpu=0.93,Vmaxpu=1.5,model=8,zipv=[0.5,0,0.5,1,0,0,0],daily=MT1_1,status=variable
new load.3012426295M1 bus1=BMT157461444.1.2.3,Phases=3,kv=13.8,kW=102.20776,pf=0.92,Vminpu=0.93,Vmaxpu=1.5,model=8,zipv=[0.5,0,0.5,1,0,0,0],daily=MT3_1,status=variable
new load.3012776487M1 bus1=BMT155279707.1.2.3,Phases=3,kv=13.8,kW=54.47886,pf=0.92,Vminpu=0.93,Vmaxpu=1.5,model=8,zipv=[0.5,0,0.5,1,0,0,0],daily=MT4_1,status=variable
