new line.TR12123287 bus1=BMT148620177.1.2.3,bus2=BMT148619900.1.2.3,Phases=3,Linecode=CAB103_3_3,Length=0.051893000,Units=km
new line.TR12123288 bus1=BMT148619911.1.2.3,bus2=BMT148619912.1.2.3,Phases=3,Linecode=CAB103_3_3,Length=0.028183000,Units=km
new line.TR12126326 bus1=BMT154806563.1.2.3,bus2=BMT8719291B.1.2.3,Phases=3,Linecode=CAB102_3_3,Length=0.021177000,Units=km
new line.TR12126327 bus1=BMT8719291B.1.2.3,bus2=BMT154806565.1.2.3,Phases=3,Linecode=CAB102_3_3,Length=0.026137000,Units=km
new line.TR12126387 bus1=BMT176766994.1.2.3,bus2=BMT148718264.1.2.3,Phases=3,Linecode=CABA06_3_3,Length=0.019690000,Units=km
new line.TR12126393 bus1=BMT148718335.1.2.3,bus2=BMT8719416B.1.2.3,Phases=3,Linecode=CABA06_3_3,Length=0.021775000,Units=km
new line.TR12126394 bus1=BMT8719416B.1.2.3,bus2=BMT8719418B.1.2.3,Phases=3,Linecode=CABA06_3_3,Length=0.053756000,Units=km
new line.TR12126395 bus1=BMT8719418B.1.2.3,bus2=BMT8719419B.1.2.3,Phases=3,Linecode=CABA06_3_3,Length=0.064557000,Units=km
new line.TR12126396 bus1=BMT8719419B.1.2.3,bus2=BMT8719421B.1.2.3,Phases=3,Linecode=CABA06_3_3,Length=0.031821000,Units=km
new line.TR12126415 bus1=BMT8719421B.1.2.3,bus2=BMT123766556.1.2.3,Phases=3,Linecode=CABA06_3_3,Length=0.060195000,Units=km
new line.TR12126416 bus1=BMT148718264.1.2.3,bus2=BMT176766996.1.2.3,Phases=3,Linecode=CABA06_3_3,Length=0.031319000,Units=km
new line.TR12146426 bus1=BMT1704792B.1.2.3,bus2=BMT1707326B.1.2.3,Phases=3,Linecode=CAB102_3_3,Length=0.033493000,Units=km
new line.TR12212299 bus1=BMT151791853.1.2.3,bus2=BMT151791854.1.2.3,Phases=3,Linecode=CAB902_4_3,Length=0.015266000,Units=km
new line.TR12230810 bus1=BMT1701306B.1.2.3,bus2=BMT174367571.1.2.3,Phases=3,Linecode=CAB102_3_3,Length=0.007121000,Units=km
new line.TR12248989 bus1=BMT1706178B.1.2.3,bus2=BMT8850419B.1.2.3,Phases=3,Linecode=CABA06_3_3,Length=0.010964000,Units=km
new line.TR12248990 bus1=BMT1706619B.1.2.3,bus2=BMT8850419B.1.2.3,Phases=3,Linecode=CABA06_3_3,Length=0.015331000,Units=km
new line.TR12252070 bus1=BMT153147316.1,bus2=BMT8853626B.1,Phases=1,Linecode=CAB102_3_1,Length=0.008545000,Units=km
new line.TR12252071 bus1=BMT8853626B.1,bus2=BMT153147318.1,Phases=1,Linecode=CAB102_3_1,Length=0.025323000,Units=km
new line.TR12270551 bus1=BMT150745075.1.2.3,bus2=BMT8874260B.1.2.3,Phases=3,Linecode=CABA06_3_3,Length=0.016695000,Units=km
new line.TR12270552 bus1=BMT8874260B.1.2.3,bus2=BMT1716230B.1.2.3,Phases=3,Linecode=CABA06_3_3,Length=0.017599000,Units=km
new line.TR12270753 bus1=BMT160697476.3,bus2=BMT160697477.3,Phases=1,Linecode=CAB102_3_1,Length=0.168273000,Units=km
new line.TR12270754 bus1=BMT160697477.3,bus2=BMT160697478.3,Phases=1,Linecode=CAB102_3_1,Length=0.076706000,Units=km
new line.TR12270756 bus1=BMT160697477.3,bus2=BMT8874405B.3,Phases=1,Linecode=CAB202_3_1,Length=0.201828000,Units=km
new line.TR12270757 bus1=BMT8874405B.3,bus2=BMT160697479.3,Phases=1,Linecode=CAB202_3_1,Length=0.233369000,Units=km
new line.TR12290108 bus1=BMT154487347.1,bus2=BMT154487349.1,Phases=1,Linecode=CAB202_3_1,Length=0.042609000,Units=km
new line.TR12290109 bus1=BMT154487349.1,bus2=BMT154487350.1,Phases=1,Linecode=CAB202_3_1,Length=0.061309000,Units=km
new line.TR12290145 bus1=BMT169600377.1,bus2=BMT8892055B.1,Phases=1,Linecode=CAB103_3_1,Length=0.083278000,Units=km
new line.TR12290146 bus1=BMT8892055B.1,bus2=BMT8892057B.1,Phases=1,Linecode=CAB103_3_1,Length=0.052672000,Units=km
new line.TR12290147 bus1=BMT8892057B.1,bus2=BMT169600378.1,Phases=1,Linecode=CAB103_3_1,Length=0.053162000,Units=km
new line.TR12290148 bus1=BMT169600378.1,bus2=BMT8892062B.1,Phases=1,Linecode=CAB103_3_1,Length=0.055725000,Units=km
new line.TR12290149 bus1=BMT8892062B.1,bus2=BMT169600379.1,Phases=1,Linecode=CAB103_3_1,Length=0.054159000,Units=km
new line.TR12290150 bus1=BMT169600379.1,bus2=BMT8892069B.1,Phases=1,Linecode=CAB103_3_1,Length=0.051774000,Units=km
new line.TR12290151 bus1=BMT8892069B.1,bus2=BMT169600380.1,Phases=1,Linecode=CAB103_3_1,Length=0.051784000,Units=km
new line.TR12290152 bus1=BMT169600380.1,bus2=BMT169600381.1,Phases=1,Linecode=CAB202_3_1,Length=0.421757000,Units=km
new line.TR12290153 bus1=BMT169600381.1,bus2=BMT8892074B.1,Phases=1,Linecode=CAB103_3_1,Length=0.051676000,Units=km
new line.TR12290154 bus1=BMT8892074B.1,bus2=BMT8892076B.1,Phases=1,Linecode=CAB103_3_1,Length=0.070735000,Units=km
new line.TR12290155 bus1=BMT8892076B.1,bus2=BMT8892092B.1,Phases=1,Linecode=CAB103_3_1,Length=0.030056000,Units=km
new line.TR12290156 bus1=BMT8892092B.1,bus2=BMT8892094B.1,Phases=1,Linecode=CAB103_3_1,Length=0.063549000,Units=km
new line.TR12290157 bus1=BMT8892094B.1,bus2=BMT8892096B.1,Phases=1,Linecode=CAB103_3_1,Length=0.021303000,Units=km
new line.TR12290158 bus1=BMT8892096B.1,bus2=BMT8892101B.1,Phases=1,Linecode=CAB103_3_1,Length=0.029003000,Units=km
new line.TR12290159 bus1=BMT8892101B.1,bus2=BMT8892102B.1,Phases=1,Linecode=CAB103_3_1,Length=0.025571000,Units=km
new line.TR12290173 bus1=BMT8892102B.1,bus2=BMT8892125B.1,Phases=1,Linecode=CAB103_3_1,Length=0.025806000,Units=km
new line.TR12290174 bus1=BMT8892125B.1,bus2=BMT8892139B.1,Phases=1,Linecode=CAB103_3_1,Length=0.050797000,Units=km
new line.TR12290175 bus1=BMT8892139B.1,bus2=BMT169600382.1,Phases=1,Linecode=CAB103_3_1,Length=0.050137000,Units=km
new line.TR12290176 bus1=BMT169600382.1,bus2=BMT8892148B.1,Phases=1,Linecode=CAB103_3_1,Length=0.060117000,Units=km
new line.TR12290177 bus1=BMT8892148B.1,bus2=BMT8892152B.1,Phases=1,Linecode=CAB103_3_1,Length=0.063741000,Units=km
new line.TR12290178 bus1=BMT8892152B.1,bus2=BMT8892154B.1,Phases=1,Linecode=CAB103_3_1,Length=0.064657000,Units=km
new line.TR12290179 bus1=BMT8892154B.1,bus2=BMT169600384.1,Phases=1,Linecode=CAB103_3_1,Length=0.080133000,Units=km
new line.TR12290508 bus1=BMT154502914.2,bus2=BMT8892474B.2,Phases=1,Linecode=CAB202_3_1,Length=0.032045000,Units=km
new line.TR12290509 bus1=BMT8892474B.2,bus2=BMT154502916.2,Phases=1,Linecode=CAB202_3_1,Length=0.039754000,Units=km
new line.TR12290680 bus1=BMT175891033.1.2.3,bus2=BMT1713045B.1.2.3,Phases=3,Linecode=CABA06_3_3,Length=0.020453000,Units=km
new line.TR12290681 bus1=BMT1713045B.1.2.3,bus2=BMT1713017B.1.2.3,Phases=3,Linecode=CABA06_3_3,Length=0.026627000,Units=km
new line.TR12290682 bus1=BMT1713017B.1.2.3,bus2=BMT1712996B.1.2.3,Phases=3,Linecode=CABA06_3_3,Length=0.030513000,Units=km
new line.TR12290683 bus1=BMT1712996B.1.2.3,bus2=BMT1712982B.1.2.3,Phases=3,Linecode=CABA06_3_3,Length=0.030591000,Units=km
new line.TR12290684 bus1=BMT1712982B.1.2.3,bus2=BMT1712968B.1.2.3,Phases=3,Linecode=CABA06_3_3,Length=0.011980000,Units=km
new line.TR12110528 bus1=BMT148145919.1,bus2=BMT8702814B.1,Phases=1,Linecode=CAB202_3_1,Length=0.118999000,Units=km
new line.TR12110532 bus1=BMT8702814B.1,bus2=BMT1826298B.1,Phases=1,Linecode=CAB202_3_1,Length=0.131756000,Units=km
new line.TR12112890 bus1=BMT8490530B.2,bus2=BMT8705419B.2,Phases=1,Linecode=CAB202_3_1,Length=0.115755000,Units=km
new line.TR12112891 bus1=BMT8705419B.2,bus2=BMT8705420B.2,Phases=1,Linecode=CAB202_3_1,Length=0.115988000,Units=km
new line.TR12112892 bus1=BMT8705420B.2,bus2=BMT8705421B.2,Phases=1,Linecode=CAB202_3_1,Length=0.095364000,Units=km
new line.TR12112893 bus1=BMT8705421B.2,bus2=BMT8705422B.2,Phases=1,Linecode=CAB202_3_1,Length=0.095894000,Units=km
new line.TR12112894 bus1=BMT8705422B.2,bus2=BMT8705423B.2,Phases=1,Linecode=CAB202_3_1,Length=0.074495000,Units=km
new line.TR12112895 bus1=BMT8705423B.2,bus2=BMT8705424B.2,Phases=1,Linecode=CAB202_3_1,Length=0.110223000,Units=km
new line.TR12112896 bus1=BMT8705424B.2,bus2=BMT160143726.2,Phases=1,Linecode=CAB202_3_1,Length=0.073962000,Units=km
new line.TR12128221 bus1=BMT123752801.1.2.3,bus2=BMT174542075.1.2.3,Phases=3,Linecode=CAB103_3_3,Length=0.033544000,Units=km
new line.TR12150585 bus1=BMT176083231.1.2.3,bus2=BMT8746285B.1.2.3,Phases=3,Linecode=CAB107_3_3,Length=0.020076000,Units=km
new line.TR12150586 bus1=BMT8746285B.1.2.3,bus2=BMT176083232.1.2.3,Phases=3,Linecode=CAB107_3_3,Length=0.019365000,Units=km
new line.TR12182059 bus1=BMT1703448B.1.2.3,bus2=BMT169066439.1.2.3,Phases=3,Linecode=CAB103_3_3,Length=0.034295000,Units=km
new line.TR12201587 bus1=BMT160089683.1.2.3,bus2=BMT1710441B.1.2.3,Phases=3,Linecode=CABA06_3_3,Length=0.038732000,Units=km
new line.TR12201593 bus1=BMT1710441B.1.2.3,bus2=BMT8802992B.1.2.3,Phases=3,Linecode=CABA06_3_3,Length=0.018545000,Units=km
new line.TR12201594 bus1=BMT8802992B.1.2.3,bus2=BMT1710448B.1.2.3,Phases=3,Linecode=CABA06_3_3,Length=0.019277000,Units=km
new line.TR12201599 bus1=BMT1710448B.1.2.3,bus2=BMT1710455B.1.2.3,Phases=3,Linecode=CABA06_3_3,Length=0.041387000,Units=km
new line.TR12201608 bus1=BMT1710455B.1.2.3,bus2=BMT1710462B.1.2.3,Phases=3,Linecode=CABA06_3_3,Length=0.037037000,Units=km
new line.TR12201617 bus1=BMT1710462B.1.2.3,bus2=BMT1710469B.1.2.3,Phases=3,Linecode=CABA06_3_3,Length=0.033067000,Units=km
new line.TR12201620 bus1=BMT1710469B.1.2.3,bus2=BMT1712254B.1.2.3,Phases=3,Linecode=CABA06_3_3,Length=0.027206000,Units=km
new line.TR12201625 bus1=BMT1712254B.1.2.3,bus2=BMT1712268B.1.2.3,Phases=3,Linecode=CABA06_3_3,Length=0.029836000,Units=km
new line.TR12201642 bus1=BMT1712268B.1.2.3,bus2=BMT2917654B.1.2.3,Phases=3,Linecode=CABA06_3_3,Length=0.012808000,Units=km
new line.TR12201643 bus1=BMT2917654B.1.2.3,bus2=BMT1712275B.1.2.3,Phases=3,Linecode=CABA06_3_3,Length=0.017044000,Units=km
new line.TR12201661 bus1=BMT1712275B.1.2.3,bus2=BMT160089685.1.2.3,Phases=3,Linecode=CABA06_3_3,Length=0.015676000,Units=km
new line.TR12201683 bus1=BMT160089685.1.2.3,bus2=BMT8803125B.1.2.3,Phases=3,Linecode=CABA06_3_3,Length=0.024851000,Units=km
new line.TR12201684 bus1=BMT8803125B.1.2.3,bus2=BMT160089686.1.2.3,Phases=3,Linecode=CABA06_3_3,Length=0.023224000,Units=km
new line.TR12201811 bus1=BMT151431896.1.2.3,bus2=BMT151431897.1.2.3,Phases=3,Linecode=CABA06_3_3,Length=0.039997000,Units=km
new line.TR12201833 bus1=BMT151431897.1,bus2=BMT8803298B.1,Phases=1,Linecode=CABA06_3_1,Length=0.019275000,Units=km
new line.TR12201834 bus1=BMT8803298B.1,bus2=BMT1713206B.1,Phases=1,Linecode=CABA06_3_1,Length=0.015179000,Units=km
new line.TR12201836 bus1=BMT1713206B.1,bus2=BMT1713220B.1,Phases=1,Linecode=CABA06_3_1,Length=0.018609000,Units=km
new line.TR12201837 bus1=BMT1713220B.1,bus2=BMT151431898.1,Phases=1,Linecode=CABA06_3_1,Length=0.044460000,Units=km
new line.TR12239185 bus1=BMT157461441.1.2.3,bus2=BMT157461442.1.2.3,Phases=3,Linecode=CAB402_3_3,Length=0.003630000,Units=km
new line.TR12239196 bus1=BMT157461442.1.2.3,bus2=BMT157461443.1.2.3,Phases=3,Linecode=CAB402_3_3,Length=0.007106000,Units=km
new line.TR12239197 bus1=BMT157461443.1.2.3,bus2=BMT157461444.1.2.3,Phases=3,Linecode=CAB402_3_3,Length=0.004264000,Units=km
new line.TR12242851 bus1=BMT170074886.1,bus2=BMT1714767B.1,Phases=1,Linecode=CABA06_3_1,Length=0.038125000,Units=km
new line.TR12242861 bus1=BMT1714767B.1,bus2=BMT2045552B.1,Phases=1,Linecode=CABA06_3_1,Length=0.010544000,Units=km
new line.TR12242864 bus1=BMT2045552B.1,bus2=BMT1714753B.1,Phases=1,Linecode=CABA06_3_1,Length=0.017316000,Units=km
new line.TR12242870 bus1=BMT1714753B.1,bus2=BMT170074887.1,Phases=1,Linecode=CABA06_3_1,Length=0.030397000,Units=km
new line.TR12260596 bus1=BMT1726240B.1,bus2=BMT1726233B.1,Phases=1,Linecode=CAB103_3_1,Length=0.020129000,Units=km
new line.TR12319244 bus1=BMT175677097.1.2.3,bus2=BMT8920429B.1.2.3,Phases=3,Linecode=CABA06_3_3,Length=0.043801000,Units=km
new line.TR12319245 bus1=BMT8920429B.1.2.3,bus2=BMT175677098.1.2.3,Phases=3,Linecode=CABA06_3_3,Length=0.028293000,Units=km
new line.TR12319246 bus1=BMT175677098.1.2.3,bus2=BMT8920426B.1.2.3,Phases=3,Linecode=CABA06_3_3,Length=0.025083000,Units=km
new line.TR12319247 bus1=BMT8920426B.1.2.3,bus2=BMT8920422B.1.2.3,Phases=3,Linecode=CABA06_3_3,Length=0.042490000,Units=km
new line.TR12319251 bus1=BMT8920422B.1.2.3,bus2=BMT8920421B.1.2.3,Phases=3,Linecode=CABA06_3_3,Length=0.035360000,Units=km
new line.TR12319252 bus1=BMT8920421B.1.2.3,bus2=BMT175677099.1.2.3,Phases=3,Linecode=CABA06_3_3,Length=0.040821000,Units=km
new line.TR12319253 bus1=BMT175677099.1.2.3,bus2=BMT8920415B.1.2.3,Phases=3,Linecode=CABA06_3_3,Length=0.039413000,Units=km
new line.TR12319254 bus1=BMT8920415B.1.2.3,bus2=BMT8920413B.1.2.3,Phases=3,Linecode=CABA06_3_3,Length=0.040229000,Units=km
new line.TR12319255 bus1=BMT8920413B.1.2.3,bus2=BMT8920411B.1.2.3,Phases=3,Linecode=CABA06_3_3,Length=0.038902000,Units=km
new line.TR12319256 bus1=BMT8920411B.1.2.3,bus2=BMT8920409B.1.2.3,Phases=3,Linecode=CABA06_3_3,Length=0.034990000,Units=km
new line.TR12319257 bus1=BMT8920409B.1.2.3,bus2=BMT8920407B.1.2.3,Phases=3,Linecode=CABA06_3_3,Length=0.041870000,Units=km
new line.TR12319258 bus1=BMT8920407B.1.2.3,bus2=BMT8920405B.1.2.3,Phases=3,Linecode=CABA06_3_3,Length=0.042010000,Units=km
new line.TR12319259 bus1=BMT8920405B.1.2.3,bus2=BMT8920402B.1.2.3,Phases=3,Linecode=CABA06_3_3,Length=0.029169000,Units=km
new line.TR12319260 bus1=BMT8920402B.1.2.3,bus2=BMT8920399B.1.2.3,Phases=3,Linecode=CABA06_3_3,Length=0.030614000,Units=km
new line.TR12319261 bus1=BMT8920399B.1.2.3,bus2=BMT8920397B.1.2.3,Phases=3,Linecode=CABA06_3_3,Length=0.031957000,Units=km
new line.TR12319262 bus1=BMT8920397B.1.2.3,bus2=BMT8920395B.1.2.3,Phases=3,Linecode=CABA06_3_3,Length=0.037410000,Units=km
new line.TR12114295 bus1=BMT1710896B.1.2.3,bus2=BMT148311528.1.2.3,Phases=3,Linecode=CAB104_3_3,Length=0.014325000,Units=km
new line.TR12114296 bus1=BMT148311529.1.2.3,bus2=BMT123762853.1.2.3,Phases=3,Linecode=CAB104_3_3,Length=0.021119000,Units=km
new line.TR12132693 bus1=BMT148928416.1.2.3,bus2=BMT123765429.1.2.3,Phases=3,Linecode=CABA06_3_3,Length=0.029970000,Units=km
new line.TR12132712 bus1=BMT148929502.1.2.3,bus2=BMT148929503.1.2.3,Phases=3,Linecode=CAB104_3_3,Length=0.014868000,Units=km
new line.TR12132713 bus1=BMT1687488B.1.2.3,bus2=BMT148929503.1.2.3,Phases=3,Linecode=CAB104_3_3,Length=0.017467000,Units=km
new line.TR12132717 bus1=BMT148930249.1.2.3,bus2=BMT148930250.1.2.3,Phases=3,Linecode=CAB902_4_3,Length=0.020311000,Units=km
new line.TR12135018 bus1=BMT149017251.1.2.3,bus2=BMT3231387B.1.2.3,Phases=3,Linecode=CABA06_3_3,Length=0.024617000,Units=km
new line.TR12135023 bus1=BMT3231387B.1.2.3,bus2=BMT149017253.1.2.3,Phases=3,Linecode=CABA06_3_3,Length=0.024275000,Units=km
new line.TR12158152 bus1=BMT160868270.1,bus2=BMT149815438.1,Phases=1,Linecode=CAB103_3_1,Length=0.031621000,Units=km
new line.TR12158153 bus1=BMT160868291.1,bus2=BMT149818791.1,Phases=1,Linecode=CAB103_3_1,Length=0.029775000,Units=km
new line.TR12159276 bus1=BMT2467379B.1,bus2=BMT174557793.1,Phases=1,Linecode=CAB202_3_1,Length=0.083553000,Units=km
new line.TR12159277 bus1=BMT174557793.1,bus2=BMT174557794.1,Phases=1,Linecode=CAB202_3_1,Length=0.063540000,Units=km
new line.TR12228187 bus1=BMT123762041.1.2.3,bus2=BMT152369912.1.2.3,Phases=3,Linecode=CAB207_3_3,Length=0.026080000,Units=km
new line.TR12228188 bus1=BMT152369912.1.2.3,bus2=BMT8829224B.1.2.3,Phases=3,Linecode=CABA08_3_3,Length=0.025063000,Units=km
new line.TR12228189 bus1=BMT8829224B.1.2.3,bus2=BMT152366443.1.2.3,Phases=3,Linecode=CABA08_3_3,Length=0.035781000,Units=km
new line.TR12228190 bus1=BMT152366443.1.2.3,bus2=BMT8829226B.1.2.3,Phases=3,Linecode=CAB207_3_3,Length=0.174097000,Units=km
new line.TR12228196 bus1=BMT8829226B.1.2.3,bus2=BMT2207777B.1.2.3,Phases=3,Linecode=CAB207_3_3,Length=0.467051000,Units=km
new line.TR12228197 bus1=BMT2207777B.1.2.3,bus2=BMT1691583D.1.2.3,Phases=3,Linecode=CABA08_3_3,Length=0.047139000,Units=km
new line.TR12228198 bus1=BMT1691583D.1.2.3,bus2=BMT1691555D.1.2.3,Phases=3,Linecode=CABA08_3_3,Length=0.080020000,Units=km
new line.TR12228203 bus1=BMT1908177.1.2.3,bus2=BMT8829225B.1.2.3,Phases=3,Linecode=CAB208_3_3,Length=0.175587000,Units=km
new line.TR12228204 bus1=BMT8829225B.1.2.3,bus2=BMT152560706.1.2.3,Phases=3,Linecode=CAB208_3_3,Length=0.468059000,Units=km
new line.TR12228205 bus1=BMT152560706.1.2.3,bus2=BMT1691583B.1.2.3,Phases=3,Linecode=CABA08_3_3,Length=0.043669000,Units=km
new line.TR12228299 bus1=BMT1908177.1.2.3,bus2=BMT8829221B.1.2.3,Phases=3,Linecode=CAB107_3_3,Length=0.005658000,Units=km
new line.TR12228333 bus1=BMT1908177.1.2.3,bus2=BMT152560707.1.2.3,Phases=3,Linecode=CABA08_3_3,Length=0.013455000,Units=km
new line.TR12228338 bus1=BMT152366443.1.2.3,bus2=BMT8829351B.1.2.3,Phases=3,Linecode=CAB207_3_3,Length=0.004473000,Units=km
new line.TR12228360 bus1=BMT2207777B.1.2.3,bus2=BMT2207784B.1.2.3,Phases=3,Linecode=CAB207_3_3,Length=0.005386000,Units=km
new line.TR12228369 bus1=BMT152560706.1.2.3,bus2=BMT8829386B.1.2.3,Phases=3,Linecode=CAB208_3_3,Length=0.005386000,Units=km
new line.TR12228373 bus1=BMT152560706.1.2.3,bus2=BMT8829385B.1.2.3,Phases=3,Linecode=CAB208_3_3,Length=0.005386000,Units=km
new line.TR12228384 bus1=BMT8829226B.1.2.3,bus2=BMT8829380B.1.2.3,Phases=3,Linecode=CAB207_3_3,Length=0.004981000,Units=km
new line.TR12228385 bus1=BMT8829225B.1.2.3,bus2=BMT8829377B.1.2.3,Phases=3,Linecode=CAB208_3_3,Length=0.005537000,Units=km
new line.TR12228386 bus1=BMT8829225B.1.2.3,bus2=BMT8829378B.1.2.3,Phases=3,Linecode=CAB208_3_3,Length=0.004845000,Units=km
new line.TR12247185 bus1=BMT153691640.1.2.3,bus2=BMT1712933B.1.2.3,Phases=3,Linecode=CABA06_3_3,Length=0.014316000,Units=km
new line.TR12247186 bus1=BMT1712933B.1.2.3,bus2=BMT153691641.1.2.3,Phases=3,Linecode=CABA06_3_3,Length=0.029896000,Units=km
new line.TR12247673 bus1=BMT170058943.1.2.3,bus2=BMT8848936B.1.2.3,Phases=3,Linecode=CABA06_3_3,Length=0.022363000,Units=km
new line.TR12247674 bus1=BMT8848936B.1.2.3,bus2=BMT170610404.1.2.3,Phases=3,Linecode=CABA06_3_3,Length=0.018038000,Units=km
new line.TR12262964 bus1=BMT155111718.1.2.3,bus2=BMT8865641B.1.2.3,Phases=3,Linecode=CAB104_3_3,Length=0.023090000,Units=km
new line.TR12262965 bus1=BMT8865641B.1.2.3,bus2=BMT1689679B.1.2.3,Phases=3,Linecode=CAB104_3_3,Length=0.013930000,Units=km
new line.TR12283212 bus1=BMT164042511.3,bus2=BMT8885828B.3,Phases=1,Linecode=CAB202_3_1,Length=0.020370000,Units=km
new line.TR12283213 bus1=BMT8885828B.3,bus2=BMT164042513.3,Phases=1,Linecode=CAB202_3_1,Length=0.134193000,Units=km
new line.TR12325521 bus1=BMT172609118.1.2.3,bus2=BMT8926573B.1.2.3,Phases=3,Linecode=CAB202_3_3,Length=0.036763000,Units=km
new line.TR12325522 bus1=BMT8926573B.1.2.3,bus2=BMT172609119.1.2.3,Phases=3,Linecode=CAB202_3_3,Length=0.036139000,Units=km
new line.TR12337615 bus1=BMT171212467.1.2.3,bus2=BMT171212468.1.2.3,Phases=3,Linecode=CAB103_3_3,Length=0.018509000,Units=km
new line.TR12337616 bus1=BMT171212468.1.2.3,bus2=BMT171212469.1.2.3,Phases=3,Linecode=CABA06_3_3,Length=0.017035000,Units=km
new line.TR12337762 bus1=BMT171212471.1.2.3,bus2=BMT171212474.1.2.3,Phases=3,Linecode=CAB203_3_3,Length=0.144326000,Units=km
new line.TR12359024 bus1=BMT169600381.1,bus2=BMT8962879B.1,Phases=1,Linecode=CAB103_3_1,Length=0.025420000,Units=km
new line.TR12359027 bus1=BMT8962879B.1,bus2=BMT8962882B.1,Phases=1,Linecode=CAB103_3_1,Length=0.037209000,Units=km
new line.TR12359028 bus1=BMT8962882B.1,bus2=BMT169600383.1,Phases=1,Linecode=CAB103_3_1,Length=0.049823000,Units=km
new line.TR12381210 bus1=BMT1714634B.2,bus2=BMT8848165B.2,Phases=1,Linecode=CAB103_3_1,Length=0.017303000,Units=km
new line.TR12381212 bus1=BMT8848165B.2,bus2=BMT1714627B.2,Phases=1,Linecode=CAB103_3_1,Length=0.019887000,Units=km
new line.TR12411439 bus1=BMT174073041.1.2.3,bus2=BMT174073042.1.2.3,Phases=3,Linecode=CAB103_3_3,Length=0.064357000,Units=km
new line.TR12411474 bus1=BMT174073042.1.2.3,bus2=BMT174073043.1.2.3,Phases=3,Linecode=CABA08_3_3,Length=0.056866000,Units=km
new line.TR12533610 bus1=BMT174328516.1.2.3,bus2=BMT163936272.1.2.3,Phases=3,Linecode=CAB102_3_3,Length=0.014794000,Units=km
new line.TR12533611 bus1=BMT163936272.1.2.3,bus2=BMT1685920B.1.2.3,Phases=3,Linecode=CAB102_3_3,Length=0.012556000,Units=km
new line.TR12533614 bus1=BMT164717668.1.2.3,bus2=BMT1685927B.1.2.3,Phases=3,Linecode=CABA06_3_3,Length=0.008595000,Units=km
new line.TR12290685 bus1=BMT1712968B.1.2.3,bus2=BMT175891034.1.2.3,Phases=3,Linecode=CABA06_3_3,Length=0.046295000,Units=km
new line.TR12308101 bus1=BMT123759654.1,bus2=BMT155079465.1,Phases=1,Linecode=CAB202_3_1,Length=0.142055000,Units=km
new line.TR12350022 bus1=BMT173089120.1.2.3,bus2=BMT173089122.1.2.3,Phases=3,Linecode=CABA06_3_3,Length=0.013956000,Units=km
new line.TR12350023 bus1=BMT173089122.1.2.3,bus2=BMT1683463B.1.2.3,Phases=3,Linecode=CABA06_3_3,Length=0.022723000,Units=km
new line.TR12350028 bus1=BMT173089122.1.2.3,bus2=BMT1683484B.1.2.3,Phases=3,Linecode=CABA06_3_3,Length=0.022796000,Units=km
new line.TR12350029 bus1=BMT1683484B.1.2.3,bus2=BMT1683498B.1.2.3,Phases=3,Linecode=CABA06_3_3,Length=0.034722000,Units=km
new line.TR12350030 bus1=BMT1683498B.1.2.3,bus2=BMT8953693B.1.2.3,Phases=3,Linecode=CABA06_3_3,Length=0.019806000,Units=km
new line.TR12350031 bus1=BMT8953693B.1.2.3,bus2=BMT8953696B.1.2.3,Phases=3,Linecode=CABA06_3_3,Length=0.020686000,Units=km
new line.TR12350032 bus1=BMT8953696B.1.2.3,bus2=BMT1683330B.1.2.3,Phases=3,Linecode=CABA06_3_3,Length=0.020079000,Units=km
new line.TR12350034 bus1=BMT1683330B.1.2.3,bus2=BMT1683337B.1.2.3,Phases=3,Linecode=CABA06_3_3,Length=0.030727000,Units=km
new line.TR12350036 bus1=BMT1683337B.1.2.3,bus2=BMT1683344B.1.2.3,Phases=3,Linecode=CABA06_3_3,Length=0.024290000,Units=km
new line.TR12351324 bus1=BMT156652721.1.2.3,bus2=BMT1697106B.1.2.3,Phases=3,Linecode=CAB103_3_3,Length=0.030824000,Units=km
new line.TR12351325 bus1=BMT1697106B.1.2.3,bus2=BMT1697113B.1.2.3,Phases=3,Linecode=CAB103_3_3,Length=0.029639000,Units=km
new line.TR12351326 bus1=BMT1697113B.1.2.3,bus2=BMT156652722.1.2.3,Phases=3,Linecode=CAB103_3_3,Length=0.020593000,Units=km
new line.TR12374937 bus1=BMT157406534.2,bus2=BMT157406535.2,Phases=1,Linecode=CAB103_3_1,Length=0.010021000,Units=km
new line.TR12374942 bus1=BMT157406535.2,bus2=BMT8980571B.2,Phases=1,Linecode=CAB202_3_1,Length=0.219273000,Units=km
new line.TR12374943 bus1=BMT8980571B.2,bus2=BMT8980572B.2,Phases=1,Linecode=CAB202_3_1,Length=0.114753000,Units=km
new line.TR12374944 bus1=BMT8980572B.2,bus2=BMT157406536.2,Phases=1,Linecode=CAB202_3_1,Length=0.135933000,Units=km
new line.TR12374950 bus1=BMT157406536.2,bus2=BMT157406537.2,Phases=1,Linecode=CAB103_3_1,Length=0.067208000,Units=km
new line.TR12375090 bus1=BMT157406536.2,bus2=BMT157406538.2,Phases=1,Linecode=CAB103_3_1,Length=0.065276000,Units=km
new line.TR12376661 bus1=BMT174192427.1.2.3,bus2=BMT158588573.1.2.3,Phases=3,Linecode=CABA08_3_3,Length=0.019029000,Units=km
new line.TR12376662 bus1=BMT172321727.1.2.3,bus2=BMT152737089.1.2.3,Phases=3,Linecode=CABA08_3_3,Length=0.020229000,Units=km
new line.TR12376663 bus1=BMT152737089.1.2.3,bus2=BMT1705527B.1.2.3,Phases=3,Linecode=CAB107_3_3,Length=0.032684000,Units=km
new line.TR12421758 bus1=BMT7902572B.1.2.3,bus2=BMT1696539B.1.2.3,Phases=3,Linecode=CABA08_3_3,Length=0.075479000,Units=km
new line.TR12421787 bus1=BMT1696602B.1.2.3,bus2=BMT2200861B.1.2.3,Phases=3,Linecode=CABA08_3_3,Length=0.027079000,Units=km
new line.TR12421836 bus1=BMT2200861B.1.2.3,bus2=BMT9028297B.1.2.3,Phases=3,Linecode=CABA08_3_3,Length=0.034223000,Units=km
new line.TR12421839 bus1=BMT9028297B.1.2.3,bus2=BMT9028313B.1.2.3,Phases=3,Linecode=CABA08_3_3,Length=0.032133000,Units=km
new line.TR12421840 bus1=BMT9028313B.1.2.3,bus2=BMT2202961B.1.2.3,Phases=3,Linecode=CABA08_3_3,Length=0.043203000,Units=km
new line.TR12421857 bus1=BMT2202961B.1.2.3,bus2=BMT9028359B.1.2.3,Phases=3,Linecode=CABA08_3_3,Length=0.058714000,Units=km
new line.TR12421858 bus1=BMT9028359B.1.2.3,bus2=BMT2202954B.1.2.3,Phases=3,Linecode=CABA08_3_3,Length=0.059019000,Units=km
new line.TR12421901 bus1=BMT2201855B.1.2.3,bus2=BMT9028420B.1.2.3,Phases=3,Linecode=CABA08_3_3,Length=0.050098000,Units=km
new line.TR12421902 bus1=BMT9028420B.1.2.3,bus2=BMT1700571B.1.2.3,Phases=3,Linecode=CABA08_3_3,Length=0.047446000,Units=km
new line.TR12423498 bus1=BMT1687859B.1.2.3,bus2=BMT159063671.1.2.3,Phases=3,Linecode=CAB103_3_3,Length=0.007703000,Units=km
new line.TR12423499 bus1=BMT159063671.1.2.3,bus2=BMT1687215B.1.2.3,Phases=3,Linecode=CAB103_3_3,Length=0.027284000,Units=km
new line.TR12423501 bus1=BMT159063671.1.2.3,bus2=BMT1687866B.1.2.3,Phases=3,Linecode=CAB103_3_3,Length=0.026676000,Units=km
new line.TR12423502 bus1=BMT159063671.1.2.3,bus2=BMT159063674.1.2.3,Phases=3,Linecode=CAB103_3_3,Length=0.006514000,Units=km
new line.TR12438010 bus1=BMT159606535.2,bus2=BMT9044286B.2,Phases=1,Linecode=CAB103_3_1,Length=0.035379000,Units=km
new line.TR12438011 bus1=BMT9044286B.2,bus2=BMT159606540.2,Phases=1,Linecode=CAB103_3_1,Length=0.043339000,Units=km
new line.TR12497581 bus1=BMT9107302B.1.2.3,bus2=BMT9107303B.1.2.3,Phases=3,Linecode=CABA06_3_3,Length=0.021981000,Units=km
new line.TR12497598 bus1=BMT9107303B.1.2.3,bus2=BMT9107304B.1.2.3,Phases=3,Linecode=CABA06_3_3,Length=0.026736000,Units=km
new line.TR12497599 bus1=BMT9107304B.1.2.3,bus2=BMT172606509.1.2.3,Phases=3,Linecode=CABA06_3_3,Length=0.028046000,Units=km
new line.TR12512180 bus1=BMT2480868B.1,bus2=BMT165393389.1,Phases=1,Linecode=CAB202_3_1,Length=0.179611000,Units=km
new line.TR12512181 bus1=BMT165393389.1,bus2=BMT2480889B.1,Phases=1,Linecode=CAB202_3_1,Length=0.061039000,Units=km
new line.TR12512185 bus1=BMT165393389.1,bus2=BMT165393391.1,Phases=1,Linecode=CAB103_3_1,Length=0.029292000,Units=km
new line.TR12535798 bus1=BMT164040540.1.2.3,bus2=BMT9143710B.1.2.3,Phases=3,Linecode=CAB102_3_3,Length=0.019049000,Units=km
new line.TR12535879 bus1=BMT1686753B.1.2.3,bus2=BMT164040541.1.2.3,Phases=3,Linecode=CAB102_3_3,Length=0.003615000,Units=km
new line.TR12535880 bus1=BMT164040541.1.2.3,bus2=BMT155060363.1.2.3,Phases=3,Linecode=CAB102_3_3,Length=0.041723000,Units=km
new line.TR12535882 bus1=BMT9143710B.1.2.3,bus2=BMT164040541.1.2.3,Phases=3,Linecode=CAB102_3_3,Length=0.021724000,Units=km
new line.TR12535883 bus1=BMT164040541.1.2.3,bus2=BMT9143788B.1.2.3,Phases=3,Linecode=CAB103_3_3,Length=0.009628000,Units=km
new line.TR12537829 bus1=BMT175959722.1.2.3,bus2=BMT1686879B.1.2.3,Phases=3,Linecode=CABA06_3_3,Length=0.033769000,Units=km
new line.TR12537831 bus1=BMT1686879B.1.2.3,bus2=BMT2991721B.1.2.3,Phases=3,Linecode=CABA06_3_3,Length=0.026094000,Units=km
new line.TR12537832 bus1=BMT2991721B.1.2.3,bus2=BMT2991728B.1.2.3,Phases=3,Linecode=CABA06_3_3,Length=0.023320000,Units=km
new line.TR12537835 bus1=BMT2991728B.1.2.3,bus2=BMT9146093B.1.2.3,Phases=3,Linecode=CABA06_3_3,Length=0.011421000,Units=km
new line.TR12537836 bus1=BMT9146093B.1.2.3,bus2=BMT9146095B.1.2.3,Phases=3,Linecode=CABA06_3_3,Length=0.034222000,Units=km
new line.TR12537837 bus1=BMT9146095B.1.2.3,bus2=BMT9146097B.1.2.3,Phases=3,Linecode=CABA06_3_3,Length=0.034871000,Units=km
new line.TR12137324 bus1=BMT160666106.1,bus2=BMT160666108.1,Phases=1,Linecode=CAB202_3_1,Length=0.200026000,Units=km
new line.TR12154435 bus1=BMT1700641B.1.2.3,bus2=BMT8750128B.1.2.3,Phases=3,Linecode=CAB102_3_3,Length=0.029136000,Units=km
new line.TR12154436 bus1=BMT1700634B.1.2.3,bus2=BMT8750128B.1.2.3,Phases=3,Linecode=CAB102_3_3,Length=0.006443000,Units=km
new line.TR12154518 bus1=BMT175266687.1,bus2=BMT1718981B.1,Phases=1,Linecode=CABA06_3_1,Length=0.035276000,Units=km
new line.TR12154519 bus1=BMT1718981B.1,bus2=BMT1718995B.1,Phases=1,Linecode=CABA06_3_1,Length=0.038688000,Units=km
new line.TR12154520 bus1=BMT1718995B.1,bus2=BMT8750155B.1,Phases=1,Linecode=CABA06_3_1,Length=0.037759000,Units=km
new line.TR12154521 bus1=BMT8750155B.1,bus2=BMT8750157B.1,Phases=1,Linecode=CABA06_3_1,Length=0.035174000,Units=km
new line.TR12154522 bus1=BMT8750157B.1,bus2=BMT8750167B.1,Phases=1,Linecode=CABA06_3_1,Length=0.017475000,Units=km
new line.TR12154523 bus1=BMT8750167B.1,bus2=BMT175266689.1,Phases=1,Linecode=CABA06_3_1,Length=0.031368000,Units=km
new line.TR12274384 bus1=BMT154011946.1,bus2=BMT153902157.1,Phases=1,Linecode=CAB103_3_1,Length=0.029835000,Units=km
new line.TR12274410 bus1=BMT157993128.1,bus2=BMT153902179.1,Phases=1,Linecode=CAB103_3_1,Length=0.022563000,Units=km
new line.TR12274411 bus1=BMT157993108.1,bus2=BMT157993109.1,Phases=1,Linecode=CAB103_3_1,Length=0.029123000,Units=km
new line.TR12295796 bus1=BMT155279671.1.2.3,bus2=BMT1699514B.1.2.3,Phases=3,Linecode=CABA06_3_3,Length=0.025184000,Units=km
new line.TR12295797 bus1=BMT1699514B.1.2.3,bus2=BMT1699500B.1.2.3,Phases=3,Linecode=CABA06_3_3,Length=0.049488000,Units=km
new line.TR12295798 bus1=BMT1699500B.1.2.3,bus2=BMT154680594.1.2.3,Phases=3,Linecode=CABA06_3_3,Length=0.039413000,Units=km
new line.TR12295799 bus1=BMT155279706.1.2.3,bus2=BMT155279707.1.2.3,Phases=3,Linecode=CAB902_4_3,Length=0.010200000,Units=km
new line.TR12314350 bus1=BMT169906256.3,bus2=BMT169906257.3,Phases=1,Linecode=CAB202_3_1,Length=0.034849000,Units=km
new line.TR12314351 bus1=BMT169906257.3,bus2=BMT1827376B.3,Phases=1,Linecode=CAB202_3_1,Length=0.031687000,Units=km
new line.TR12314581 bus1=BMT173635714.3,bus2=BMT173635715.3,Phases=1,Linecode=CAB202_3_1,Length=0.241190000,Units=km
new line.TR12314582 bus1=BMT173635715.3,bus2=BMT173635716.3,Phases=1,Linecode=CAB202_3_1,Length=0.030887000,Units=km
new line.TR12314586 bus1=BMT173636822.3,bus2=BMT173636823.3,Phases=1,Linecode=CAB103_3_1,Length=0.061712000,Units=km
new line.TR12314587 bus1=BMT173636823.3,bus2=BMT173636824.3,Phases=1,Linecode=CAB103_3_1,Length=0.075036000,Units=km
new line.TR12355847 bus1=BMT174319840.1,bus2=BMT174319850.1,Phases=1,Linecode=CAB202_3_1,Length=0.107196000,Units=km
new line.TR12356183 bus1=BMT1716769B.2,bus2=BMT8959866B.2,Phases=1,Linecode=CAB102_3_1,Length=0.011663000,Units=km
new line.TR12356184 bus1=BMT8959866B.2,bus2=BMT173989422.2,Phases=1,Linecode=CAB102_3_1,Length=0.018367000,Units=km
new line.TR12389743 bus1=BMT123770315.3,bus2=BMT173627059.3,Phases=1,Linecode=CAB103_3_1,Length=0.056079000,Units=km
new line.TR12391408 bus1=BMT164042457.1.2.3,bus2=BMT8997322B.1.2.3,Phases=3,Linecode=CAB102_3_3,Length=0.014818000,Units=km
new line.TR12391409 bus1=BMT8997322B.1.2.3,bus2=BMT1782653B.1.2.3,Phases=3,Linecode=CAB102_3_3,Length=0.006505000,Units=km
new line.TR12483557 bus1=BMT172321729.1.2.3,bus2=BMT172321734.1.2.3,Phases=3,Linecode=CAB103_3_3,Length=0.027036000,Units=km