new line.10061904 bus1=BBT1740247.1.2.0,bus2=BBT146934736.1.2.0,Phases=2,Linecode=BT807_BT807_4_2_3,Length=0.042547000,Units=km
new line.10061911 bus1=BBT146934736.1.2.0,bus2=BBT146934743.1.2.0,Phases=2,Linecode=BT807_BT807_4_2_3,Length=0.028896000,Units=km
new line.10064039 bus1=BBT146968210.1.2.3.0,bus2=BBT1778257.1.2.3.0,Phases=3,Linecode=BT803_BT803_4_3_4,Length=0.018869000,Units=km
new line.18686699 bus1=BBT1790507.1.2.0,bus2=BBT148149367.1.2.0,Phases=2,Linecode=BT807_BT807_4_2_3,Length=0.045004000,Units=km
new line.18686700 bus1=BBT148149367.1.2.0,bus2=BBT148149368.1.2.0,Phases=2,Linecode=BT807_BT807_4_2_3,Length=0.037129000,Units=km
new line.18686701 bus1=BBT148149368.1.2.0,bus2=BBT148149395.1.2.0,Phases=2,Linecode=BT807_BT807_4_2_3,Length=0.039230000,Units=km
new line.18686702 bus1=BBT148149395.1.2.0,bus2=BBT148149396.1.2.0,Phases=2,Linecode=BT807_BT807_4_2_3,Length=0.040848000,Units=km
new line.18705298 bus1=BBT148715423.1.2.3.0,bus2=BBT1785866.1.2.3.0,Phases=3,Linecode=BT108_BT107_7_3_1,Length=0.021177000,Units=km
new line.18705302 bus1=BBT148715423.1.2.3.0,bus2=BBT148715452.1.2.3.0,Phases=3,Linecode=BT803_BT803_4_3_4,Length=0.037579000,Units=km
new line.18705362 bus1=BBT148717231.1.2.0,bus2=BBT1737125.1.2.0,Phases=2,Linecode=BT108_BT107_7_2_1,Length=0.031319000,Units=km
new line.18706483 bus1=BBT1751853.1.2.3.0,bus2=BBT148746605.1.2.3.0,Phases=3,Linecode=BT803_BT803_4_3_4,Length=0.019269000,Units=km
new line.18706485 bus1=BBT148746605.1.2.3.0,bus2=BBT148746620.1.2.3.0,Phases=3,Linecode=BT803_BT803_4_3_4,Length=0.006417000,Units=km
new line.18706486 bus1=BBT148746620.1.2.3.0,bus2=BBT148746630.1.2.3.0,Phases=3,Linecode=BT803_BT803_4_3_4,Length=0.034497000,Units=km
new line.18708126 bus1=BBT148783030.1.2.3.0,bus2=BBT148783031.1.2.3.0,Phases=3,Linecode=BT521_BT521_7_3_1,Length=0.000510000,Units=km
new line.18721571 bus1=BBT1773007.1.2.0,bus2=BBT149161968.1.2.0,Phases=2,Linecode=BT803_BT803_4_2_4,Length=0.008951000,Units=km
new line.18721572 bus1=BBT149161968.1.2.0,bus2=BBT149162044.1.2.0,Phases=2,Linecode=BT803_BT803_4_2_4,Length=0.034380000,Units=km
new line.18746332 bus1=BBT149843144.1.2.0,bus2=BBT149843145.1.2.0,Phases=2,Linecode=BT521_BT521_7_2_1,Length=0.000504000,Units=km
new line.18765810 bus1=BBT150437750.1.2.3.0,bus2=BBT1760372.1.2.3.0,Phases=3,Linecode=BT521_BT521_7_3_1,Length=0.000508000,Units=km
new line.18804018 bus1=BBT1775989.1.2.3.0,bus2=BBT151613018.1.2.3.0,Phases=3,Linecode=BT803_BT803_4_3_4,Length=0.023135000,Units=km
new line.18804019 bus1=BBT151613018.1.2.3.0,bus2=BBT151613019.1.2.3.0,Phases=3,Linecode=BT803_BT803_4_3_4,Length=0.036291000,Units=km
new line.18804020 bus1=BBT151613019.1.2.3.0,bus2=BBT151613020.1.2.3.0,Phases=3,Linecode=BT803_BT803_4_3_4,Length=0.035004000,Units=km
new line.18831355 bus1=BBT152451679.1.2.3.0,bus2=BBT1769150.1.2.3.0,Phases=3,Linecode=BT803_BT803_4_3_4,Length=0.007121000,Units=km
new line.18833295 bus1=BBT1782989.1.2.3.0,bus2=BBT152501757.1.2.3.0,Phases=3,Linecode=BT803_BT803_4_3_4,Length=0.019026000,Units=km
new line.18850138 bus1=BBT1784144.1.2.0,bus2=BBT152987870.1.2.0,Phases=2,Linecode=BT807_BT807_4_2_3,Length=0.019887000,Units=km
new line.18850139 bus1=BBT152987870.1.2.0,bus2=BBT152987871.1.2.0,Phases=2,Linecode=BT807_BT807_4_2_3,Length=0.028354000,Units=km
new line.18850141 bus1=BBT152987871.1.2.0,bus2=BBT152987874.1.2.0,Phases=2,Linecode=BT807_BT807_4_2_3,Length=0.030755000,Units=km
new line.18850458 bus1=BBT153000514.1.2.3.0,bus2=BBT1782149.1.2.3.0,Phases=3,Linecode=BT521_BT521_7_3_1,Length=0.000521000,Units=km
new line.18850912 bus1=BBT153018661.1.2.3.0,bus2=BBT153018662.1.2.3.0,Phases=3,Linecode=BT518_BT518_7_3_1,Length=0.000501000,Units=km
new line.18850919 bus1=BBT153018662.1.2.3.0,bus2=BBT153018713.1.2.3.0,Phases=3,Linecode=BT803_BT803_4_3_4,Length=0.018038000,Units=km
new line.18850920 bus1=BBT153018713.1.2.3.0,bus2=BBT1778243.1.2.3.0,Phases=3,Linecode=BT803_BT803_4_3_4,Length=0.022363000,Units=km
new line.18850933 bus1=BBT153018662.1.2.3.0,bus2=BBT2175563.1.2.3.0,Phases=3,Linecode=BT803_BT803_4_3_4,Length=0.020138000,Units=km
new line.18851754 bus1=BBT153039426.1.2.3.0,bus2=BBT1760274.1.2.3.0,Phases=3,Linecode=BT513_BT513_7_3_1,Length=0.000503000,Units=km
new line.18852632 bus1=BBT153059703.1.2.3.0,bus2=BBT1775065.1.2.3.0,Phases=3,Linecode=BT803_BT803_4_3_4,Length=0.010964000,Units=km
new line.18909616 bus1=BBT154806953.1.2.3.0,bus2=BBT3081839.1.2.3.0,Phases=3,Linecode=BT810_BT810_4_3_4,Length=0.015588000,Units=km
new line.18930199 bus1=BBT155511703.1.2.0,bus2=BBT155511704.1.2.0,Phases=2,Linecode=BT521_BT521_7_2_1,Length=0.000501000,Units=km
new line.18930203 bus1=BBT155511704.1.2.0,bus2=BBT155511730.1.2.0,Phases=2,Linecode=BT807_BT807_4_2_3,Length=0.040821000,Units=km
new line.18930204 bus1=BBT155511730.1.2.0,bus2=BBT155511736.1.2.0,Phases=2,Linecode=BT807_BT807_4_2_3,Length=0.035360000,Units=km
new line.18930205 bus1=BBT155511736.1.2.0,bus2=BBT155511737.1.2.0,Phases=2,Linecode=BT807_BT807_4_2_3,Length=0.042490000,Units=km
new line.18930207 bus1=BBT155511737.1.2.0,bus2=BBT155511741.1.2.0,Phases=2,Linecode=BT807_BT807_4_2_3,Length=0.025083000,Units=km
new line.18930208 bus1=BBT155511741.1.2.0,bus2=BBT155511749.1.2.0,Phases=2,Linecode=BT807_BT807_4_2_3,Length=0.028293000,Units=km
new line.18930209 bus1=BBT155511749.1.2.0,bus2=BBT155511750.1.2.0,Phases=2,Linecode=BT807_BT807_4_2_3,Length=0.043801000,Units=km
new line.18930210 bus1=BBT155511704.1.2.0,bus2=BBT155511751.1.2.0,Phases=2,Linecode=BT807_BT807_4_2_3,Length=0.039413000,Units=km
new line.18930212 bus1=BBT155511751.1.2.0,bus2=BBT155511760.1.2.0,Phases=2,Linecode=BT807_BT807_4_2_3,Length=0.040229000,Units=km
new line.18930213 bus1=BBT155511760.1.2.0,bus2=BBT155511788.1.2.0,Phases=2,Linecode=BT807_BT807_4_2_3,Length=0.038902000,Units=km
new line.18930214 bus1=BBT155511788.1.2.0,bus2=BBT155511880.1.2.0,Phases=2,Linecode=BT807_BT807_4_2_3,Length=0.034990000,Units=km
new line.18930215 bus1=BBT155511880.1.2.0,bus2=BBT155511890.1.2.0,Phases=2,Linecode=BT807_BT807_4_2_3,Length=0.041870000,Units=km
new line.18930217 bus1=BBT155511973.1.2.3.0,bus2=BBT155511974.1.2.3.0,Phases=3,Linecode=BT521_BT521_7_3_1,Length=0.000501000,Units=km
new line.18930218 bus1=BBT155511974.1.2.3.0,bus2=BBT155512020.1.2.3.0,Phases=3,Linecode=BT803_BT803_4_3_4,Length=0.024742000,Units=km
new line.18930219 bus1=BBT155512020.1.2.3.0,bus2=BBT155512021.1.2.3.0,Phases=3,Linecode=BT803_BT803_4_3_4,Length=0.008546000,Units=km
new line.18930221 bus1=BBT155512021.1.2.3.0,bus2=BBT155512035.1.2.3.0,Phases=3,Linecode=BT803_BT803_4_3_4,Length=0.035289000,Units=km
new line.18930222 bus1=BBT155512020.1.2.3.0,bus2=BBT155512036.1.2.3.0,Phases=3,Linecode=BT803_BT803_4_3_4,Length=0.008644000,Units=km
new line.18930223 bus1=BBT155512036.1.2.3.0,bus2=BBT155512037.1.2.3.0,Phases=3,Linecode=BT803_BT803_4_3_4,Length=0.039849000,Units=km
new line.18930224 bus1=BBT155512037.1.2.3.0,bus2=BBT155512045.1.2.3.0,Phases=3,Linecode=BT803_BT803_4_3_4,Length=0.035847000,Units=km
new line.18930225 bus1=BBT155512045.1.2.3.0,bus2=BBT155512056.1.2.3.0,Phases=3,Linecode=BT803_BT803_4_3_4,Length=0.032802000,Units=km
new line.18930227 bus1=BBT155511974.1.2.3.0,bus2=BBT155512070.1.2.3.0,Phases=3,Linecode=BT803_BT803_4_3_4,Length=0.035856000,Units=km
new line.10045839 bus1=BBT146374554.1.2.3.0,bus2=BBT2239732.1.2.3.0,Phases=3,Linecode=BT521_BT521_7_3_1,Length=0.000513000,Units=km
new line.10045846 bus1=BBT146374771.1.2.3.0,bus2=BBT2239739.1.2.3.0,Phases=3,Linecode=BT803_BT803_4_3_4,Length=0.017327000,Units=km
new line.10045951 bus1=BBT146374771.1.2.3.0,bus2=BBT146375926.1.2.3.0,Phases=3,Linecode=BT803_BT803_4_3_4,Length=0.033398000,Units=km
new line.10047974 bus1=BBT1762955.1.2.3.0,bus2=BBT146426417.1.2.3.0,Phases=3,Linecode=BT803_BT803_4_3_4,Length=0.039100000,Units=km
new line.10047988 bus1=BBT146426417.1.2.3.0,bus2=BBT146426550.1.2.3.0,Phases=3,Linecode=BT803_BT803_4_3_4,Length=0.028503000,Units=km
new line.18692901 bus1=BBT1866296.1.2.3.0,bus2=BBT148347108.1.2.3.0,Phases=3,Linecode=BT803_BT803_4_3_4,Length=0.040253000,Units=km
new line.18695106 bus1=BBT1778838.1.2.3.0,bus2=BBT148420955.1.2.3.0,Phases=3,Linecode=BT803_BT803_4_3_4,Length=0.017474000,Units=km
new line.18695128 bus1=BBT1772825.1.2.0,bus2=BBT148421133.1.2.0,Phases=2,Linecode=BT807_BT807_4_2_3,Length=0.032625000,Units=km
new line.18695130 bus1=BBT148421133.1.2.0,bus2=BBT148421134.1.2.0,Phases=2,Linecode=BT807_BT807_4_2_3,Length=0.034120000,Units=km
new line.18696080 bus1=BBT148456773.1.2.3.0,bus2=BBT1780007.1.2.3.0,Phases=3,Linecode=BT803_BT803_4_3_4,Length=0.021643000,Units=km
new line.18716082 bus1=BBT149014528.1.2.3.0,bus2=BBT1779090.1.2.3.0,Phases=3,Linecode=BT521_BT521_7_3_1,Length=0.000501000,Units=km
new line.18718808 bus1=BBT149092569.1.2.0,bus2=BBT149092570.1.2.0,Phases=2,Linecode=BT521_BT521_7_2_1,Length=0.000513000,Units=km
new line.18736061 bus1=BBT149562104.1.2.3.0,bus2=BBT1776080.1.2.3.0,Phases=3,Linecode=BT803_BT803_4_3_4,Length=0.020076000,Units=km
new line.18737314 bus1=BBT1779573.1.2.3.0,bus2=BBT149611942.1.2.3.0,Phases=3,Linecode=BT803_BT803_4_3_4,Length=0.030625000,Units=km
new line.18737778 bus1=BBT149628880.1.2.3.0,bus2=BBT1784522.1.2.3.0,Phases=3,Linecode=BT803_BT803_4_3_4,Length=0.028877000,Units=km
new line.18740311 bus1=BBT1778089.1.2.0,bus2=BBT149693689.1.2.0,Phases=2,Linecode=BT803_BT803_4_2_4,Length=0.019392000,Units=km
new line.18740327 bus1=BBT149693901.1.2.3.0,bus2=BBT1768471.1.2.3.0,Phases=3,Linecode=BT106_BT106_7_3_1,Length=0.006443000,Units=km
new line.18740349 bus1=BBT4209084.1.2.3.0,bus2=BBT149694481.1.2.3.0,Phases=3,Linecode=BT803_BT803_4_3_4,Length=0.020594000,Units=km
new line.18740350 bus1=BBT149694481.1.2.3.0,bus2=BBT149694482.1.2.3.0,Phases=3,Linecode=BT803_BT803_4_3_4,Length=0.020003000,Units=km
new line.18740351 bus1=BBT149694482.1.2.3.0,bus2=BBT149694505.1.2.3.0,Phases=3,Linecode=BT803_BT803_4_3_4,Length=0.027590000,Units=km
new line.18740463 bus1=BBT149700348.1.2.0,bus2=BBT149700349.1.2.0,Phases=2,Linecode=BT513_BT513_7_2_1,Length=0.000511000,Units=km
new line.18740465 bus1=BBT149700349.1.2.0,bus2=BBT149700440.1.2.0,Phases=2,Linecode=BT803_BT803_4_2_4,Length=0.028515000,Units=km
new line.18740466 bus1=BBT149700440.1.2.0,bus2=BBT149700442.1.2.0,Phases=2,Linecode=BT803_BT803_4_2_4,Length=0.031245000,Units=km
new line.18740467 bus1=BBT149700442.1.2.0,bus2=BBT149700454.1.2.0,Phases=2,Linecode=BT803_BT803_4_2_4,Length=0.024122000,Units=km
new line.18740468 bus1=BBT149700454.1.2.0,bus2=BBT149700466.1.2.0,Phases=2,Linecode=BT803_BT803_4_2_4,Length=0.029415000,Units=km
new line.18740469 bus1=BBT149700349.1.2.0,bus2=BBT149700534.1.2.0,Phases=2,Linecode=BT803_BT803_4_2_4,Length=0.031368000,Units=km
new line.18740470 bus1=BBT149700534.1.2.0,bus2=BBT149700541.1.2.0,Phases=2,Linecode=BT803_BT803_4_2_4,Length=0.017475000,Units=km
new line.18740471 bus1=BBT149700541.1.2.0,bus2=BBT149700549.1.2.0,Phases=2,Linecode=BT803_BT803_4_2_4,Length=0.035174000,Units=km
new line.18740472 bus1=BBT149700549.1.2.0,bus2=BBT149700572.1.2.0,Phases=2,Linecode=BT803_BT803_4_2_4,Length=0.037759000,Units=km
new line.18761934 bus1=BBT1786125.1.2.3.0,bus2=BBT1787042.1.2.3.0,Phases=3,Linecode=BT803_BT803_4_3_4,Length=0.016611000,Units=km
new line.18791723 bus1=BBT1764362.1.2.3.0,bus2=BBT1762598.1.2.3.0,Phases=3,Linecode=BT513_BT513_5_3_1,Length=0.018441000,Units=km
new line.18856067 bus1=BBT153147242.1.2.0,bus2=BBT1761793.1.2.0,Phases=2,Linecode=BT807_BT807_4_2_3,Length=0.008545000,Units=km
new line.18878552 bus1=BBT153757607.1.2.3.0,bus2=BBT1786041.1.2.3.0,Phases=3,Linecode=BT803_BT803_4_3_4,Length=0.017599000,Units=km
new line.18878851 bus1=BBT153765193.1.2.0,bus2=BBT153765194.1.2.0,Phases=2,Linecode=BT521_BT521_7_2_1,Length=0.000507000,Units=km
new line.18899631 bus1=BBT1736397.1.2.0,bus2=BBT154502909.1.2.0,Phases=2,Linecode=BT808_BT808_4_2_3,Length=0.039754000,Units=km
new line.18899831 bus1=BBT154512283.1.2.3.0,bus2=BBT1782282.1.2.3.0,Phases=3,Linecode=BT521_BT521_7_3_1,Length=0.000501000,Units=km
new line.18905236 bus1=BBT154680587.1.2.3.0,bus2=BBT154680588.1.2.3.0,Phases=3,Linecode=BT514_BT514_7_3_1,Length=0.000501000,Units=km
new line.18921263 bus1=BBT155157120.1.2.0,bus2=BBT1767421.1.2.0,Phases=2,Linecode=BT808_BT808_4_2_3,Length=0.006709000,Units=km
new line.18921316 bus1=BBT155157120.1.2.0,bus2=BBT155157420.1.2.0,Phases=2,Linecode=BT807_BT807_4_2_3,Length=0.011403000,Units=km
new line.18921331 bus1=BBT155157420.1.2.0,bus2=BBT1767414.1.2.0,Phases=2,Linecode=BT807_BT807_4_2_3,Length=0.022806000,Units=km
new line.18937514 bus1=BBT1740450.1.2.3.0,bus2=BBT155729900.1.2.3.0,Phases=3,Linecode=BT803_BT803_4_3_4,Length=0.036763000,Units=km
new line.18959117 bus1=BBT156334067.1.2.3.0,bus2=BBT1760582.1.2.3.0,Phases=3,Linecode=BT514_BT514_7_3_1,Length=0.000509000,Units=km
new line.18983058 bus1=BBT156977613.1.2.0,bus2=BBT156977614.1.2.0,Phases=2,Linecode=BT521_BT521_7_2_1,Length=0.000501000,Units=km
new line.18998497 bus1=BBT157399372.1.2.0,bus2=BBT157399373.1.2.0,Phases=2,Linecode=BT517_BT517_7_2_1,Length=0.000503000,Units=km
new line.18998682 bus1=BBT157406548.1.2.0,bus2=BBT157406549.1.2.0,Phases=2,Linecode=BT517_BT517_7_2_1,Length=0.000501000,Units=km
new line.19021898 bus1=BBT158060618.1.2.3.0,bus2=BBT1785579.1.2.3.0,Phases=3,Linecode=BT803_BT803_4_3_4,Length=0.015033000,Units=km
new line.19023377 bus1=BBT158089766.1.2.0,bus2=BBT158089767.1.2.0,Phases=2,Linecode=BT517_BT517_7_2_1,Length=0.000507000,Units=km
new line.19072107 bus1=BBT159606571.1.2.0,bus2=BBT159606572.1.2.0,Phases=2,Linecode=BT505_BT505_7_2_1,Length=0.000505000,Units=km
new line.19075086 bus1=BBT159688730.1.2.3.0,bus2=BBT1781470.1.2.3.0,Phases=3,Linecode=BT513_BT513_7_3_1,Length=0.000539000,Units=km
new line.19096685 bus1=BBT160435662.1.2.0,bus2=BBT1777102.1.2.0,Phases=2,Linecode=BT106_BT106_7_2_1,Length=0.013883000,Units=km
new line.19121178 bus1=BBT1745308.1.2.3.0,bus2=BBT161407780.1.2.3.0,Phases=3,Linecode=BT803_BT803_4_3_4,Length=0.029210000,Units=km
new line.19121179 bus1=BBT161407780.1.2.3.0,bus2=BBT161407795.1.2.3.0,Phases=3,Linecode=BT803_BT803_4_3_4,Length=0.024334000,Units=km
new line.19143767 bus1=BBT162300527.1.2.3.0,bus2=BBT162300528.1.2.3.0,Phases=3,Linecode=BT518_BT518_7_3_1,Length=0.000506000,Units=km
new line.19143769 bus1=BBT162300528.1.2.3.0,bus2=BBT162300544.1.2.3.0,Phases=3,Linecode=BT803_BT803_4_3_4,Length=0.028046000,Units=km
new line.19143770 bus1=BBT162300544.1.2.3.0,bus2=BBT162300571.1.2.3.0,Phases=3,Linecode=BT803_BT803_4_3_4,Length=0.026736000,Units=km
new line.18689798 bus1=BBT148246393.1.2.0,bus2=BBT148246394.1.2.0,Phases=2,Linecode=BT521_BT521_7_2_1,Length=0.000501000,Units=km
new line.18691803 bus1=BBT148311099.1.2.3.0,bus2=BBT1780623.1.2.3.0,Phases=3,Linecode=BT810_BT810_4_3_4,Length=0.014325000,Units=km
new line.18708933 bus1=BBT148804999.1.2.0,bus2=BBT1731889.1.2.0,Phases=2,Linecode=BT107_BT106_7_2_1,Length=0.032297000,Units=km
new line.18713310 bus1=BBT148928745.1.2.3.0,bus2=BBT1754107.1.2.3.0,Phases=3,Linecode=BT108_BT107_7_3_1,Length=0.017467000,Units=km
new line.18713348 bus1=BBT148930060.1.2.3.0,bus2=BBT148930061.1.2.3.0,Phases=3,Linecode=BT514_BT514_7_3_1,Length=0.000518000,Units=km
new line.18731367 bus1=BBT1775870.1.2.0,bus2=BBT149395980.1.2.0,Phases=2,Linecode=BT803_BT803_4_2_4,Length=0.018987000,Units=km
new line.18731368 bus1=BBT149395980.1.2.0,bus2=BBT149395981.1.2.0,Phases=2,Linecode=BT803_BT803_4_2_4,Length=0.014628000,Units=km
new line.18731369 bus1=BBT149395980.1.2.0,bus2=BBT149395993.1.2.0,Phases=2,Linecode=BT803_BT803_4_2_4,Length=0.023604000,Units=km
new line.18731370 bus1=BBT149395993.1.2.0,bus2=BBT149396003.1.2.0,Phases=2,Linecode=BT803_BT803_4_2_4,Length=0.028584000,Units=km
new line.18731371 bus1=BBT149396003.1.2.0,bus2=BBT149396028.1.2.0,Phases=2,Linecode=BT803_BT803_4_2_4,Length=0.030221000,Units=km
new line.18731373 bus1=BBT149395980.1.2.0,bus2=BBT149396038.1.2.0,Phases=2,Linecode=BT803_BT803_4_2_4,Length=0.007092000,Units=km
new line.18731381 bus1=BBT1767841.1.2.3.0,bus2=BBT149396240.1.2.3.0,Phases=3,Linecode=BT803_BT803_4_3_4,Length=0.019120000,Units=km
new line.18731391 bus1=BBT149396240.1.2.3.0,bus2=BBT149396280.1.2.3.0,Phases=3,Linecode=BT803_BT803_4_3_4,Length=0.020314000,Units=km
new line.18731393 bus1=BBT149396280.1.2.3.0,bus2=BBT149396284.1.2.3.0,Phases=3,Linecode=BT803_BT803_4_3_4,Length=0.011837000,Units=km
new line.18752290 bus1=BBT1750600.1.2.0,bus2=BBT149994105.1.2.0,Phases=2,Linecode=BT107_BT106_7_2_1,Length=0.035590000,Units=km
new line.18752291 bus1=BBT149994105.1.2.0,bus2=BBT149994106.1.2.0,Phases=2,Linecode=BT107_BT106_7_2_1,Length=0.039873000,Units=km
new line.18754896 bus1=BBT150053807.1.2.3.0,bus2=BBT1773819.1.2.3.0,Phases=3,Linecode=BT513_BT513_5_3_1,Length=0.012337000,Units=km
new line.18808980 bus1=BBT151734942.1.2.0,bus2=BBT1780000.1.2.0,Phases=2,Linecode=BT107_BT106_7_2_1,Length=0.023665000,Units=km
new line.18808995 bus1=BBT1787693.1.2.0,bus2=BBT151735067.1.2.0,Phases=2,Linecode=BT808_BT808_4_2_3,Length=0.012480000,Units=km
new line.18810573 bus1=BBT151791591.1.2.3.0,bus2=BBT151791592.1.2.3.0,Phases=3,Linecode=BT514_BT514_7_3_1,Length=0.000501000,Units=km
new line.18826502 bus1=BBT89359498.1.2.3.0,bus2=BBT152311086.1.2.3.0,Phases=3,Linecode=BT803_BT803_4_3_4,Length=0.036774000,Units=km
new line.18845940 bus1=BBT152856886.1.2.0,bus2=BBT1784319.1.2.0,Phases=2,Linecode=BT513_BT513_7_2_1,Length=0.000511000,Units=km
new line.18866512 bus1=BBT153427516.1.2.0,bus2=BBT2944856.1.2.0,Phases=2,Linecode=BT808_BT808_4_2_3,Length=0.015642000,Units=km
new line.18866531 bus1=BBT153428598.1.2.0,bus2=BBT1797549.1.2.0,Phases=2,Linecode=BT108_BT108_7_2_1,Length=0.010264000,Units=km
new line.18869566 bus1=BBT153512453.1.2.3.0,bus2=BBT1756592.1.2.3.0,Phases=3,Linecode=BT108_BT108_7_3_1,Length=0.023090000,Units=km
new line.18892065 bus1=BBT154222503.1.2.0,bus2=BBT154222504.1.2.0,Phases=2,Linecode=BT521_BT521_7_2_1,Length=0.000502000,Units=km
new line.18910990 bus1=BBT154845455.1.2.0,bus2=BBT1784354.1.2.0,Phases=2,Linecode=BT808_BT808_4_2_3,Length=0.016291000,Units=km
new line.18915396 bus1=BBT1777144.1.2.0,bus2=BBT155006142.1.2.0,Phases=2,Linecode=BT808_BT808_4_2_3,Length=0.007164000,Units=km
new line.18961394 bus1=BBT156392947.1.2.3.0,bus2=BBT1779608.1.2.3.0,Phases=3,Linecode=BT803_BT803_4_3_4,Length=0.016218000,Units=km
new line.18961696 bus1=BBT1782695.1.2.3.0,bus2=BBT156401971.1.2.3.0,Phases=3,Linecode=BT803_BT803_4_3_4,Length=0.027699000,Units=km
new line.18961700 bus1=BBT156402070.1.2.3.0,bus2=BBT1782695.1.2.3.0,Phases=3,Linecode=BT521_BT521_7_3_1,Length=0.000514000,Units=km
new line.18961761 bus1=BBT1782653.1.2.3.0,bus2=BBT127392927.1.2.3.0,Phases=3,Linecode=BT805_BT805_4_3_4,Length=0.005593000,Units=km
new line.18961764 bus1=BBT156404546.1.2.3.0,bus2=BBT127392920.1.2.3.0,Phases=3,Linecode=BT803_BT803_4_3_4,Length=0.008117000,Units=km
new line.18961765 bus1=BBT1782688.1.2.3.0,bus2=BBT156404546.1.2.3.0,Phases=3,Linecode=BT805_BT805_4_3_4,Length=0.028755000,Units=km
new line.18962937 bus1=BBT156428524.1.2.0,bus2=BBT1778593.1.2.0,Phases=2,Linecode=BT513_BT513_7_2_1,Length=0.000501000,Units=km
new line.18975858 bus1=BBT156788491.1.2.0,bus2=BBT156788492.1.2.0,Phases=2,Linecode=BT521_BT521_7_2_1,Length=0.000501000,Units=km
new line.18976113 bus1=BBT156796837.1.2.0,bus2=BBT1786678.1.2.0,Phases=2,Linecode=BT108_BT107_7_2_1,Length=0.011663000,Units=km
new line.18977487 bus1=BBT1762297.1.2.3.0,bus2=BBT156839014.1.2.3.0,Phases=3,Linecode=BT514_BT514_5_3_1,Length=0.014112000,Units=km
new line.18979282 bus1=BBT156886419.1.2.0,bus2=BBT156886420.1.2.0,Phases=2,Linecode=BT521_BT521_7_2_1,Length=0.000504000,Units=km
new line.19008581 bus1=BBT157686718.1.2.0,bus2=BBT1783227.1.2.0,Phases=2,Linecode=BT108_BT107_7_2_1,Length=0.011008000,Units=km
new line.19009066 bus1=BBT157698421.1.2.3.0,bus2=BBT1773868.1.2.3.0,Phases=3,Linecode=BT514_BT514_7_3_1,Length=0.000504000,Units=km
new line.19009070 bus1=BBT1773868.1.2.3.0,bus2=BBT157698427.1.2.3.0,Phases=3,Linecode=BT805_BT805_4_3_4,Length=0.022852000,Units=km
new line.19009080 bus1=BBT157698429.1.2.3.0,bus2=BBT157698544.1.2.3.0,Phases=3,Linecode=BT514_BT514_5_3_1,Length=0.005006000,Units=km
new line.19031336 bus1=BBT2678842.1.2.3.0,bus2=BBT158321244.1.2.3.0,Phases=3,Linecode=BT803_BT803_4_3_4,Length=0.007930000,Units=km
new line.19031412 bus1=BBT1778222.1.2.3.0,bus2=BBT158323968.1.2.3.0,Phases=3,Linecode=BT803_BT803_4_3_4,Length=0.015619000,Units=km
new line.19055370 bus1=BBT159063675.1.2.3.0,bus2=BBT159063676.1.2.3.0,Phases=3,Linecode=BT518_BT518_7_3_1,Length=0.000553000,Units=km
new line.19055371 bus1=BBT159063683.1.2.3.0,bus2=BBT1754562.1.2.3.0,Phases=3,Linecode=BT803_BT803_4_3_4,Length=0.026676000,Units=km
new line.19055375 bus1=BBT159063676.1.2.3.0,bus2=BBT159063683.1.2.3.0,Phases=3,Linecode=BT803_BT803_4_3_4,Length=0.006514000,Units=km
new line.19055844 bus1=BBT1772125.1.2.0,bus2=BBT159086746.1.2.0,Phases=2,Linecode=BT807_BT807_4_2_3,Length=0.005672000,Units=km
new line.19128074 bus1=BBT161634587.1.2.3.0,bus2=BBT1774169.1.2.3.0,Phases=3,Linecode=BT518_BT518_7_3_1,Length=0.000501000,Units=km
new line.19153321 bus1=BBT162753768.1.2.3.0,bus2=BBT1758748.1.2.3.0,Phases=3,Linecode=BT108_BT108_7_3_1,Length=0.018791000,Units=km
new line.19158204 bus1=BBT162976915.1.2.0,bus2=BBT162976916.1.2.0,Phases=2,Linecode=BT505_BT505_7_2_1,Length=0.000501000,Units=km
new line.19181706 bus1=BBT163935886.1.2.3.0,bus2=BBT1752532.1.2.3.0,Phases=3,Linecode=BT106_BT108_7_3_1,Length=0.014794000,Units=km
new line.19181731 bus1=BBT163936867.1.2.3.0,bus2=BBT163936868.1.2.3.0,Phases=3,Linecode=BT514_BT514_7_3_1,Length=0.000504000,Units=km
new line.19182197 bus1=BBT163952191.1.2.0,bus2=BBT163952192.1.2.0,Phases=2,Linecode=BT513_BT513_7_2_1,Length=0.000502000,Units=km
new line.10008179 bus1=BBT145276093.1.2.3.0,bus2=BBT1753176.1.2.3.0,Phases=3,Linecode=BT521_BT521_7_3_1,Length=0.000504000,Units=km
new line.10008655 bus1=BBT145289470.1.2.0,bus2=BBT145289477.1.2.0,Phases=2,Linecode=BT521_BT521_7_2_1,Length=0.000503000,Units=km
new line.10069716 bus1=BBT147081274.1.2.0,bus2=BBT1764880.1.2.0,Phases=2,Linecode=BT513_BT513_7_2_1,Length=0.000570000,Units=km
new line.10071305 bus1=BBT147140368.1.2.0,bus2=BBT1779510.1.2.0,Phases=2,Linecode=BT807_BT807_4_2_3,Length=0.023089000,Units=km
new line.10071487 bus1=BBT147148971.1.2.0,bus2=BBT1757943.1.2.0,Phases=2,Linecode=BT513_BT513_7_2_1,Length=0.000501000,Units=km
new line.18726775 bus1=BBT2218900.1.2.0,bus2=BBT149296124.1.2.0,Phases=2,Linecode=BT807_BT807_4_2_3,Length=0.025747000,Units=km
new line.18726776 bus1=BBT149296124.1.2.0,bus2=BBT149296137.1.2.0,Phases=2,Linecode=BT807_BT807_4_2_3,Length=0.026477000,Units=km
new line.18771527 bus1=BBT150599387.1.2.3.0,bus2=BBT1765930.1.2.3.0,Phases=3,Linecode=BT514_BT514_7_3_1,Length=0.000501000,Units=km
new line.18771535 bus1=BBT150599468.1.2.3.0,bus2=BBT150599469.1.2.3.0,Phases=3,Linecode=BT513_BT513_7_3_1,Length=0.000501000,Units=km
new line.18771568 bus1=BBT1862901.1.2.3.0,bus2=BBT150600419.1.2.3.0,Phases=3,Linecode=BT803_BT803_4_3_4,Length=0.027363000,Units=km
new line.18798413 bus1=BBT151426624.1.2.0,bus2=BBT1779356.1.2.0,Phases=2,Linecode=BT801_BT801_4_2_3,Length=0.019277000,Units=km
new line.18798484 bus1=BBT1781414.1.2.3.0,bus2=BBT151427742.1.2.3.0,Phases=3,Linecode=BT803_BT803_4_3_4,Length=0.023224000,Units=km
new line.18798514 bus1=BBT151427836.1.2.3.0,bus2=BBT1781414.1.2.3.0,Phases=3,Linecode=BT513_BT513_7_3_1,Length=0.000501000,Units=km
new line.18798553 bus1=BBT1781400.1.2.3.0,bus2=BBT151428455.1.2.3.0,Phases=3,Linecode=BT803_BT803_4_3_4,Length=0.009901000,Units=km
new line.18798557 bus1=BBT151428455.1.2.3.0,bus2=BBT1779727.1.2.3.0,Phases=3,Linecode=BT803_BT803_4_3_4,Length=0.008001000,Units=km
new line.18798606 bus1=BBT1781533.1.2.3.0,bus2=BBT151430074.1.2.3.0,Phases=3,Linecode=BT803_BT803_4_3_4,Length=0.017173000,Units=km
new line.18798621 bus1=BBT1782492.1.2.0,bus2=BBT151431200.1.2.0,Phases=2,Linecode=BT807_BT807_4_2_3,Length=0.015179000,Units=km
new line.18798627 bus1=BBT151431317.1.2.0,bus2=BBT1782513.1.2.0,Phases=2,Linecode=BT513_BT513_7_2_1,Length=0.000571000,Units=km
new line.18819709 bus1=BBT1863881.1.2.0,bus2=BBT152087129.1.2.0,Phases=2,Linecode=BT803_BT803_4_2_4,Length=0.037047000,Units=km
new line.18819710 bus1=BBT152087129.1.2.0,bus2=BBT152087130.1.2.0,Phases=2,Linecode=BT803_BT803_4_2_4,Length=0.031890000,Units=km
new line.18819711 bus1=BBT1863377.1.2.0,bus2=BBT152087131.1.2.0,Phases=2,Linecode=BT803_BT803_4_2_4,Length=0.031107000,Units=km
new line.18841515 bus1=BBT152737168.1.2.3.0,bus2=BBT152737169.1.2.3.0,Phases=3,Linecode=BT514_BT514_7_3_1,Length=0.000505000,Units=km
new line.18893525 bus1=BBT1752819.1.2.3.0,bus2=BBT154278156.1.2.3.0,Phases=3,Linecode=BT803_BT803_4_3_4,Length=0.037207000,Units=km
new line.18894554 bus1=BBT1761114.1.2.3.0,bus2=BBT154325429.1.2.3.0,Phases=3,Linecode=BT803_BT803_4_3_4,Length=0.018651000,Units=km
new line.18899135 bus1=BBT1749648.1.2.3.0,bus2=BBT154484743.1.2.3.0,Phases=3,Linecode=BT803_BT803_4_3_4,Length=0.027466000,Units=km
new line.18899296 bus1=BBT154488359.1.2.0,bus2=BBT154488360.1.2.0,Phases=2,Linecode=BT521_BT521_7_2_1,Length=0.000525000,Units=km
new line.18922150 bus1=BBT3387949.1.2.3.0,bus2=BBT155178452.1.2.3.0,Phases=3,Linecode=BT803_BT803_4_3_4,Length=0.029015000,Units=km
new line.18925149 bus1=BBT155295760.1.2.0,bus2=BBT155295761.1.2.0,Phases=2,Linecode=BT521_BT521_7_2_1,Length=0.000526000,Units=km
new line.18925334 bus1=BBT155304020.1.2.0,bus2=BBT155304021.1.2.0,Phases=2,Linecode=BT521_BT521_7_2_1,Length=0.000502000,Units=km
new line.18945927 bus1=BBT157698427.1.2.3.0,bus2=BBT155939100.1.2.3.0,Phases=3,Linecode=BT803_BT803_4_3_4,Length=0.008008000,Units=km
new line.18945928 bus1=BBT155939100.1.2.3.0,bus2=BBT155939108.1.2.3.0,Phases=3,Linecode=BT803_BT803_4_3_4,Length=0.007854000,Units=km
new line.18945929 bus1=BBT155939108.1.2.3.0,bus2=BBT1774085.1.2.3.0,Phases=3,Linecode=BT803_BT803_4_3_4,Length=0.017679000,Units=km
new line.18945951 bus1=BBT1736103.1.2.0,bus2=BBT155939739.1.2.0,Phases=2,Linecode=BT807_BT807_4_2_3,Length=0.030964000,Units=km
new line.18966901 bus1=BBT1762297.1.2.3.0,bus2=BBT156538639.1.2.3.0,Phases=3,Linecode=BT514_BT514_5_3_1,Length=0.014071000,Units=km
new line.18969449 bus1=BBT156614785.1.2.3.0,bus2=BBT1749767.1.2.3.0,Phases=3,Linecode=BT803_BT803_4_3_4,Length=0.013956000,Units=km
new line.18969543 bus1=BBT1749606.2.3.0,bus2=BBT156616611.2.3.0,Phases=2,Linecode=BT503_BT503_5_2_1,Length=0.004473000,Units=km
new line.18969544 bus1=BBT156616611.2.3.0,bus2=BBT156616612.2.3.0,Phases=2,Linecode=BT503_BT503_5_2_1,Length=0.006411000,Units=km
new line.19005759 bus1=BBT1785502.1.2.3.0,bus2=BBT157613100.1.2.3.0,Phases=3,Linecode=BT803_BT803_4_3_4,Length=0.023559000,Units=km
new line.19006941 bus1=BBT3366186.1.2.3.0,bus2=BBT157644628.1.2.3.0,Phases=3,Linecode=BT805_BT805_4_3_4,Length=0.027003000,Units=km
new line.19006956 bus1=BBT1762325.1.2.3.0,bus2=BBT157645062.1.2.3.0,Phases=3,Linecode=BT518_BT518_5_3_1,Length=0.004001000,Units=km
new line.19006957 bus1=BBT157645062.1.2.3.0,bus2=BBT157645063.1.2.3.0,Phases=3,Linecode=BT518_BT518_5_3_1,Length=0.011182000,Units=km
new line.19042036 bus1=BBT158631217.1.2.3.0,bus2=BBT158631218.1.2.3.0,Phases=3,Linecode=BT518_BT518_7_3_1,Length=0.000501000,Units=km
new line.19042064 bus1=BBT158631218.1.2.3.0,bus2=BBT158632871.1.2.3.0,Phases=3,Linecode=BT803_BT803_4_3_4,Length=0.033545000,Units=km
new line.19042101 bus1=BBT3670147.1.2.3.0,bus2=BBT158634378.1.2.3.0,Phases=3,Linecode=BT514_BT514_5_3_1,Length=0.005001000,Units=km
new line.19042102 bus1=BBT158634378.1.2.3.0,bus2=BBT158634393.1.2.3.0,Phases=3,Linecode=BT514_BT514_5_3_1,Length=0.009235000,Units=km
new line.19150208 bus1=BBT162588908.1.2.0,bus2=BBT162588909.1.2.0,Phases=2,Linecode=BT508_BT508_7_2_1,Length=0.000501000,Units=km
new line.19281333 bus1=BBT166987864.1.2.0,bus2=BBT166987865.1.2.0,Phases=2,Linecode=BT505_BT505_7_2_1,Length=0.000524000,Units=km
new line.19318353 bus1=BBT1740611.1.2.0,bus2=BBT167989717.1.2.0,Phases=2,Linecode=BT808_BT808_4_2_3,Length=0.030058000,Units=km
new line.19372688 bus1=BBT169600355.1.2.0,bus2=BBT169600356.1.2.0,Phases=2,Linecode=BT521_BT521_7_2_1,Length=0.000506000,Units=km
new line.19372691 bus1=BBT169600385.1.2.0,bus2=BBT169600386.1.2.0,Phases=2,Linecode=BT521_BT521_7_2_1,Length=0.000501000,Units=km
new line.19391218 bus1=BBT1788330.1.2.0,bus2=BBT170158962.1.2.0,Phases=2,Linecode=BT108_BT107_7_2_1,Length=0.008805000,Units=km
new line.19391225 bus1=BBT170158967.1.2.0,bus2=BBT1788309.1.2.0,Phases=2,Linecode=BT107_BT106_7_2_1,Length=0.018687000,Units=km
new line.19391561 bus1=BBT170166762.1.2.0,bus2=BBT170166763.1.2.0,Phases=2,Linecode=BT521_BT521_7_2_1,Length=0.000501000,Units=km
new line.19431010 bus1=BBT171327364.1.2.3.0,bus2=BBT171327365.1.2.3.0,Phases=3,Linecode=BT521_BT521_7_3_1,Length=0.000505000,Units=km
new line.19431012 bus1=BBT171327365.1.2.3.0,bus2=BBT171327373.1.2.3.0,Phases=3,Linecode=BT803_BT803_4_3_4,Length=0.040664000,Units=km
new line.19143772 bus1=BBT162300571.1.2.3.0,bus2=BBT162300580.1.2.3.0,Phases=3,Linecode=BT803_BT803_4_3_4,Length=0.021981000,Units=km
new line.19143773 bus1=BBT162300580.1.2.3.0,bus2=BBT172605555.1.2.3.0,Phases=3,Linecode=BT803_BT803_4_3_4,Length=0.017447000,Units=km
new line.19143775 bus1=BBT162300528.1.2.3.0,bus2=BBT162300607.1.2.3.0,Phases=3,Linecode=BT803_BT803_4_3_4,Length=0.030541000,Units=km
new line.19254622 bus1=BBT166310859.1.2.0,bus2=BBT166310860.1.2.0,Phases=2,Linecode=BT505_BT505_7_2_1,Length=0.000507000,Units=km
new line.19255365 bus1=BBT1738056.1.2.0,bus2=BBT166326909.1.2.0,Phases=2,Linecode=BT807_BT807_4_2_3,Length=0.052106000,Units=km
new line.19255367 bus1=BBT166326909.1.2.0,bus2=BBT166326910.1.2.0,Phases=2,Linecode=BT807_BT807_4_2_3,Length=0.042186000,Units=km
new line.19255369 bus1=BBT166326910.1.2.0,bus2=BBT166326930.1.2.0,Phases=2,Linecode=BT807_BT807_4_2_3,Length=0.037267000,Units=km
new line.19273871 bus1=BBT166781948.1.2.0,bus2=BBT166781949.1.2.0,Phases=2,Linecode=BT521_BT521_7_2_1,Length=0.000501000,Units=km