new line.CTR10351 bus1=BMT123760270.2,bus2=BMT123760487.2,Phases=1,LineCode=tieSwitch1,Length=0.001,Units=km,switch=T !numEQ 154492
new line.CTR116317 bus1=BMT123762391.1.2.3,bus2=BMT123762398.1.2.3,Phases=3,LineCode=tieSwitch,Length=0.001,Units=km,switch=T !numEQ 100853
open line.CTR116317 term=1
new line.CTR122610 bus1=BMT123761103.1.2.3,bus2=BMT159350770.1.2.3,Phases=3,LineCode=tieSwitch,Length=0.001,Units=km,switch=T !numEQ 94664
new line.CTR122617 bus1=BMT123761117.1.2.3,bus2=BMT152632315.1.2.3,Phases=3,LineCode=tieSwitch,Length=0.001,Units=km,switch=T !numEQ 95725
new line.CTR122624 bus1=BMT123761124.1.2.3,bus2=BMT164040255.1.2.3,Phases=3,LineCode=tieSwitch,Length=0.001,Units=km,switch=T !numEQ 95957
new line.CTR122638 bus1=BMT123761250.1,bus2=BMT154487340.1,Phases=1,LineCode=tieSwitch1,Length=0.001,Units=km,switch=T !numEQ 94159
new line.CTR122645 bus1=BMT170173693.1.2.3,bus2=BMT170173696.1.2.3,Phases=3,LineCode=tieSwitch,Length=0.001,Units=km,switch=T !numEQ 94691
new line.CTR122659 bus1=BMT123762041.1.2.3,bus2=BMT169734827.1.2.3,Phases=3,LineCode=tieSwitch,Length=0.001,Units=km,switch=T !numEQ 95024
new line.CTR122666 bus1=BMT123762083.1.2.3,bus2=BMT174367564.1.2.3,Phases=3,LineCode=tieSwitch,Length=0.001,Units=km,switch=T !numEQ 94061
new line.CTR122680 bus1=BMT123762202.1.2.3,bus2=BMT123762335.1.2.3,Phases=3,LineCode=tieSwitch,Length=0.001,Units=km,switch=T !numEQ 94750
new line.CTR122694 bus1=BMT123762195.1.2.3,bus2=BMT138752058.1.2.3,Phases=3,LineCode=tieSwitch,Length=0.001,Units=km,switch=T !numEQ 94072
new line.CTR122701 bus1=BMT123762230.1.2.3,bus2=BMT129950650.1.2.3,Phases=3,LineCode=tieSwitch,Length=0.001,Units=km,switch=T !numEQ 94918
new line.CTR122708 bus1=BMT123762132.1.2.3,bus2=BMT123762370.1.2.3,Phases=3,LineCode=tieSwitch,Length=0.001,Units=km,switch=T !numEQ 94065
new line.CTR122722 bus1=BMT154921019.1.2.3,bus2=BMT123762496.1.2.3,Phases=3,LineCode=tieSwitch,Length=0.001,Units=km,switch=T !numEQ 94079
new line.CTR122736 bus1=BMT123762720.1.2.3,bus2=BMT123762741.1.2.3,Phases=3,LineCode=tieSwitch,Length=0.001,Units=km,switch=T !numEQ 94084
new line.CTR122743 bus1=BMT123762979.1.2.3,bus2=BMT173731138.1.2.3,Phases=3,LineCode=tieSwitch,Length=0.001,Units=km,switch=T !numEQ 95685
new line.CTR122750 bus1=BMT123762811.1.2.3,bus2=BMT148311525.1.2.3,Phases=3,LineCode=tieSwitch,Length=0.001,Units=km,switch=T !numEQ 95594
new line.CTR122757 bus1=BMT123762832.1.2.3,bus2=BMT153978364.1.2.3,Phases=3,LineCode=tieSwitch,Length=0.001,Units=km,switch=T !numEQ 94091
new line.CTR122764 bus1=BMT123762860.1.2.3,bus2=BMT127341827.1.2.3,Phases=3,LineCode=tieSwitch,Length=0.001,Units=km,switch=T !numEQ 95700
new line.CTR122771 bus1=BMT123762895.1.2.3,bus2=BMT176082820.1.2.3,Phases=3,LineCode=tieSwitch,Length=0.001,Units=km,switch=T !numEQ 7013
new line.CTR122792 bus1=BMT123763252.1,bus2=BMT123763294.1,Phases=1,LineCode=tieSwitch1,Length=0.001,Units=km,switch=T !numEQ 93944
new line.CTR122799 bus1=BMT123762986.1.2.3,bus2=BMT148554462.1.2.3,Phases=3,LineCode=tieSwitch,Length=0.001,Units=km,switch=T !numEQ 94103
new line.CTR122806 bus1=BMT123763021.2,bus2=BMT123763861.2,Phases=1,LineCode=tieSwitch1,Length=0.001,Units=km,switch=T !numEQ 94104
new line.CTR122813 bus1=BMT123763154.1.2.3,bus2=BMT123763686.1.2.3,Phases=3,LineCode=tieSwitch,Length=0.001,Units=km,switch=T !numEQ 94107
new line.CTR122820 bus1=BMT123763749.1.2.3,bus2=BMT123763777.1.2.3,Phases=3,LineCode=tieSwitch,Length=0.001,Units=km,switch=T !numEQ 94108
new line.CTR122827 bus1=BMT123763140.1.2.3,bus2=BMT123763189.1.2.3,Phases=3,LineCode=tieSwitch,Length=0.001,Units=km,switch=T !numEQ 94105
new line.CTR122834 bus1=BMT123763322.1,bus2=BMT123763329.1,Phases=1,LineCode=tieSwitch1,Length=0.001,Units=km,switch=T !numEQ 94109
new line.CTR122841 bus1=BMT123763112.1.2.3,bus2=BMT123763161.1.2.3,Phases=3,LineCode=tieSwitch,Length=0.001,Units=km,switch=T !numEQ 94049
new line.CTR122848 bus1=BMT123760606.1.2.3,bus2=BMT123760613.1.2.3,Phases=3,LineCode=tieSwitch,Length=0.001,Units=km,switch=T !numEQ 128276
new line.CTR122855 bus1=BMT123766164.1.2.3,bus2=BMT123766185.1.2.3,Phases=3,LineCode=tieSwitch,Length=0.001,Units=km,switch=T !numEQ 94934
new line.CTR122862 bus1=BMT123773003.1.2.3,bus2=BMT164890347.1.2.3,Phases=3,LineCode=tieSwitch,Length=0.001,Units=km,switch=T !numEQ 94974
new line.CTR122869 bus1=BMT123764309.3,bus2=BMT159937525.3,Phases=1,LineCode=tieSwitch1,Length=0.001,Units=km,switch=T !numEQ 94097
new line.CTR122876 bus1=BMT123762853.1.2.3,bus2=BMT175777321.1.2.3,Phases=3,LineCode=tieSwitch,Length=0.001,Units=km,switch=T !numEQ 94092
new line.CTR122890 bus1=BMT123753956.2,bus2=BMT149811988.2,Phases=1,LineCode=tieSwitch1,Length=0.001,Units=km,switch=T !numEQ 130644
new line.CTR122904 bus1=BMT123764589.3,bus2=BMT123764610.3,Phases=1,LineCode=tieSwitch1,Length=0.001,Units=km,switch=T !numEQ 94252
new line.CTR122911 bus1=BMT123771841.1.2.3,bus2=BMT147545640.1.2.3,Phases=3,LineCode=tieSwitch,Length=0.001,Units=km,switch=T !numEQ 94025
new line.CTR122918 bus1=BMT123772401.1.2.3,bus2=BMT175518605.1.2.3,Phases=3,LineCode=tieSwitch,Length=0.001,Units=km,switch=T !numEQ 94070
new line.CTR122925 bus1=BMT123764645.2,bus2=BMT154150929.2,Phases=1,LineCode=tieSwitch1,Length=0.001,Units=km,switch=T !numEQ 94087
new line.CTR122932 bus1=BMT123762272.1.2.3,bus2=BMT150347708.1.2.3,Phases=3,LineCode=tieSwitch,Length=0.001,Units=km,switch=T !numEQ 94073
new line.CTR122939 bus1=BMT123764680.1.2.3,bus2=BMT123764694.1.2.3,Phases=3,LineCode=tieSwitch,Length=0.001,Units=km,switch=T !numEQ 95684
new line.CTR122953 bus1=BMT173672846.1.2.3,bus2=BMT2288655.1.2.3,Phases=3,LineCode=tieSwitch,Length=0.001,Units=km,switch=T !numEQ 94068
new line.CTR122967 bus1=BMT123764869.1.2.3,bus2=BMT151431895.1.2.3,Phases=3,LineCode=tieSwitch,Length=0.001,Units=km,switch=T !numEQ 94781
new line.CTR122974 bus1=BMT123762678.1.2.3,bus2=BMT123762727.1.2.3,Phases=3,LineCode=tieSwitch,Length=0.001,Units=km,switch=T !numEQ 94082
new line.CTR122995 bus1=BMT123765114.1.2.3,bus2=BMT123765121.1.2.3,Phases=3,LineCode=tieSwitch,Length=0.001,Units=km,switch=T !numEQ 94076
new line.CTR123002 bus1=BMT123762433.1.2.3,bus2=BMT154921010.1.2.3,Phases=3,LineCode=tieSwitch,Length=0.001,Units=km,switch=T !numEQ 94074
new line.CTR123016 bus1=BMT123765401.1.2.3,bus2=BMT123772681.1.2.3,Phases=3,LineCode=tieSwitch,Length=0.001,Units=km,switch=T !numEQ 94003
new line.CTR123030 bus1=BMT155111668.1.2.3,bus2=BMT123770546.1.2.3,Phases=3,LineCode=tieSwitch,Length=0.001,Units=km,switch=T !numEQ 94029
new line.CTR101547 bus1=BMT123759213.1,bus2=BMT123759297.1,Phases=1,LineCode=tieSwitch1,Length=0.001,Units=km,switch=T !numEQ 124104
new line.CTR10729 bus1=BMT123773066.1,bus2=BMT173074460.1,Phases=1,LineCode=tieSwitch1,Length=0.001,Units=km,switch=T !numEQ 323309
new line.CTR107742 bus1=BMT168321802.1.2.3,bus2=BMT168797887.1.2.3,Phases=3,LineCode=tieSwitch,Length=0.001,Units=km,switch=T !numEQ 94623
new line.CTR119397 bus1=BMT123755286.2,bus2=BMT148810794.2,Phases=1,LineCode=tieSwitch1,Length=0.001,Units=km,switch=T !numEQ 135535
new line.CTR124192 bus1=BMT123769468.1,bus2=BMT123769475.1,Phases=1,LineCode=tieSwitch1,Length=0.001,Units=km,switch=T !numEQ 94472
new line.CTR124206 bus1=BMT123772786.1.2.3,bus2=BMT172606506.1.2.3,Phases=3,LineCode=tieSwitch,Length=0.001,Units=km,switch=T !numEQ 97616
new line.CTR124241 bus1=BMT123757897.1,bus2=BMT170293832.1,Phases=1,LineCode=tieSwitch1,Length=0.001,Units=km,switch=T !numEQ 93970
new line.CTR124248 bus1=BMT123757995.1,bus2=BMT165393388.1,Phases=1,LineCode=tieSwitch1,Length=0.001,Units=km,switch=T !numEQ 93937
new line.CTR124255 bus1=BMT123758716.1,bus2=BMT123758723.1,Phases=1,LineCode=tieSwitch1,Length=0.001,Units=km,switch=T !numEQ 93938
new line.CTR124262 bus1=BMT123758961.1,bus2=BMT123758975.1,Phases=1,LineCode=tieSwitch1,Length=0.001,Units=km,switch=T !numEQ 93941
new line.CTR124269 bus1=BMT123759416.1,bus2=BMT123759423.1,Phases=1,LineCode=tieSwitch1,Length=0.001,Units=km,switch=T !numEQ 93974
new line.CTR124283 bus1=BMT123755769.3,bus2=BMT123757330.3,Phases=1,LineCode=tieSwitch1,Length=0.001,Units=km,switch=T !numEQ 95913
new line.CTR124304 bus1=BMT123773493.1.2.3,bus2=BMT165501554.1.2.3,Phases=3,LineCode=tieSwitch,Length=0.001,Units=km,switch=T !numEQ 95026
new line.CTR124465 bus1=BMT123754222.1.2.3,bus2=BMT176223745.1.2.3,Phases=3,LineCode=tieSwitch,Length=0.001,Units=km,switch=T !numEQ 95846
new line.CTR124472 bus1=BMT123755125.1,bus2=BMT123760221.1,Phases=1,LineCode=tieSwitch1,Length=0.001,Units=km,switch=T !numEQ 93952
new line.CTR124486 bus1=BMT123755496.1.2.3,bus2=BMT164457233.1.2.3,Phases=3,LineCode=tieSwitch,Length=0.001,Units=km,switch=T !numEQ 97864
new line.CTR124493 bus1=BMT123759696.1,bus2=BMT123759703.1,Phases=1,LineCode=tieSwitch1,Length=0.001,Units=km,switch=T !numEQ 95918
new line.CTR124500 bus1=BMT123757491.1,bus2=BMT155079463.1,Phases=1,LineCode=tieSwitch1,Length=0.001,Units=km,switch=T !numEQ 95926
new line.CTR124507 bus1=BMT123759731.1,bus2=BMT152651398.1,Phases=1,LineCode=tieSwitch1,Length=0.001,Units=km,switch=T !numEQ 95914
new line.CTR124514 bus1=BMT123753788.1.2.3,bus2=BMT123753816.1.2.3,Phases=3,LineCode=tieSwitch,Length=0.001,Units=km,switch=T !numEQ 95884
new line.CTR124521 bus1=BMT123757666.1,bus2=BMT123757673.1,Phases=1,LineCode=tieSwitch1,Length=0.001,Units=km,switch=T !numEQ 93939
new line.CTR124528 bus1=BMT123757806.1,bus2=BMT123759353.1,Phases=1,LineCode=tieSwitch1,Length=0.001,Units=km,switch=T !numEQ 93976
new line.CTR124535 bus1=BMT123757848.1,bus2=BMT123759178.1,Phases=1,LineCode=tieSwitch1,Length=0.001,Units=km,switch=T !numEQ 93977
new line.CTR124549 bus1=BMT123756154.3,bus2=BMT123756798.3,Phases=1,LineCode=tieSwitch1,Length=0.001,Units=km,switch=T !numEQ 93971
new line.CTR124556 bus1=BMT123756672.3,bus2=BMT123756763.3,Phases=1,LineCode=tieSwitch1,Length=0.001,Units=km,switch=T !numEQ 93964
new line.CTR124563 bus1=BMT123756490.3,bus2=BMT160123450.3,Phases=1,LineCode=tieSwitch1,Length=0.001,Units=km,switch=T !numEQ 93973
new line.CTR124570 bus1=BMT123755776.3,bus2=BMT173594440.3,Phases=1,LineCode=tieSwitch1,Length=0.001,Units=km,switch=T !numEQ 95922
new line.CTR124591 bus1=BMT123773668.1.2.3,bus2=BMT123773675.1.2.3,Phases=3,LineCode=tieSwitch,Length=0.001,Units=km,switch=T !numEQ 94341
open line.CTR124591 term=1
new line.CTR124605 bus1=BMT123772765.1.2.3,bus2=BMT170871793.1.2.3,Phases=3,LineCode=tieSwitch,Length=0.001,Units=km,switch=T !numEQ 94114
new line.CTR124612 bus1=BMT123773780.1.2.3,bus2=BMT123772919.1.2.3,Phases=3,LineCode=tieSwitch,Length=0.001,Units=km,switch=T !numEQ 94121
open line.CTR124612 term=1
new line.CTR124759 bus1=BMT123756245.3,bus2=BMT167941557.3,Phases=1,LineCode=tieSwitch1,Length=0.001,Units=km,switch=T !numEQ 93961
new line.CTR124766 bus1=BMT123773458.1.2.3,bus2=BMT165485914.1.2.3,Phases=3,LineCode=tieSwitch,Length=0.001,Units=km,switch=T !numEQ 94120
new line.CTR124843 bus1=BMT123767459.1.2.3,bus2=BMT173197199.1.2.3,Phases=3,LineCode=tieSwitch,Length=0.001,Units=km,switch=T !numEQ 216041
new line.CTR124871 bus1=BMT123769013.2,bus2=BMT162948235.2,Phases=1,LineCode=tieSwitch1,Length=0.001,Units=km,switch=T !numEQ 95774
new line.CTR124934 bus1=BMT123767382.2,bus2=BMT169600340.2,Phases=1,LineCode=tieSwitch1,Length=0.001,Units=km,switch=T !numEQ 94762
new line.CTR124941 bus1=BMT123769188.3,bus2=BMT123769195.3,Phases=1,LineCode=tieSwitch1,Length=0.001,Units=km,switch=T !numEQ 94719
new line.CTR124948 bus1=BMT123766696.1.2.3,bus2=BMT123766731.1.2.3,Phases=3,LineCode=tieSwitch,Length=0.001,Units=km,switch=T !numEQ 94636
new line.CTR124955 bus1=BMT123766955.1.2.3,bus2=BMT123766962.1.2.3,Phases=3,LineCode=tieSwitch,Length=0.001,Units=km,switch=T !numEQ 94761
new line.CTR124962 bus1=BMT155729842.1.2.3,bus2=BMT172609118.1.2.3,Phases=3,LineCode=tieSwitch,Length=0.001,Units=km,switch=T !numEQ 94764
new line.CTR124969 bus1=BMT123767032.2,bus2=BMT123767039.2,Phases=1,LineCode=tieSwitch1,Length=0.001,Units=km,switch=T !numEQ 94736
new line.CTR124976 bus1=BMT123767445.1.2.3,bus2=BMT169428155.1.2.3,Phases=3,LineCode=tieSwitch,Length=0.001,Units=km,switch=T !numEQ 94747
new line.CTR124990 bus1=BMT123767627.2,bus2=BMT123767641.2,Phases=1,LineCode=tieSwitch1,Length=0.001,Units=km,switch=T !numEQ 94753
new line.CTR125032 bus1=BMT123767802.2,bus2=BMT123768292.2,Phases=1,LineCode=tieSwitch1,Length=0.001,Units=km,switch=T !numEQ 94671
new line.CTR125039 bus1=BMT123767921.2,bus2=BMT123768201.2,Phases=1,LineCode=tieSwitch1,Length=0.001,Units=km,switch=T !numEQ 94767
new line.CTR125053 bus1=BMT123768047.2,bus2=BMT123768138.2,Phases=1,LineCode=tieSwitch1,Length=0.001,Units=km,switch=T !numEQ 94734
new line.CTR125319 bus1=BMT123769174.3,bus2=BMT123769181.3,Phases=1,LineCode=tieSwitch1,Length=0.001,Units=km,switch=T !numEQ 95617
new line.CTR125333 bus1=BMT123766990.1,bus2=BMT123766997.1,Phases=1,LineCode=tieSwitch1,Length=0.001,Units=km,switch=T !numEQ 94743
new line.CTR123058 bus1=BMT154189617.1.2.3,bus2=BMT123765618.1.2.3,Phases=3,LineCode=tieSwitch,Length=0.001,Units=km,switch=T !numEQ 94033
open line.CTR123058 term=1
new line.CTR123065 bus1=BMT123770588.1.2.3,bus2=BMT148929500.1.2.3,Phases=3,LineCode=tieSwitch,Length=0.001,Units=km,switch=T !numEQ 94032
new line.CTR123072 bus1=BMT123770630.1.2.3,bus2=BMT150438596.1.2.3,Phases=3,LineCode=tieSwitch,Length=0.001,Units=km,switch=T !numEQ 94915
new line.CTR123079 bus1=BMT134153282.3,bus2=BMT159763827.3,Phases=1,LineCode=tieSwitch1,Length=0.001,Units=km,switch=T !numEQ 94100
new line.CTR123086 bus1=BMT123766262.1.2.3,bus2=BMT163337255.1.2.3,Phases=3,LineCode=tieSwitch,Length=0.001,Units=km,switch=T !numEQ 94047
new line.CTR123100 bus1=BMT123762510.1.2.3,bus2=BMT176630327.1.2.3,Phases=3,LineCode=tieSwitch,Length=0.001,Units=km,switch=T !numEQ 94078
new line.CTR123114 bus1=BMT123765359.1.2.3,bus2=BMT137160482.1.2.3,Phases=3,LineCode=tieSwitch,Length=0.001,Units=km,switch=T !numEQ 94001
new line.CTR123121 bus1=BMT154189615.1.2.3,bus2=BMT123765590.1.2.3,Phases=3,LineCode=tieSwitch,Length=0.001,Units=km,switch=T !numEQ 94028
open line.CTR123121 term=1
new line.CTR123128 bus1=BMT123765772.2,bus2=BMT123766108.2,Phases=1,LineCode=tieSwitch1,Length=0.001,Units=km,switch=T !numEQ 94041
new line.CTR123135 bus1=BMT123766024.2,bus2=BMT123766031.2,Phases=1,LineCode=tieSwitch1,Length=0.001,Units=km,switch=T !numEQ 94363
new line.CTR123142 bus1=BMT123770651.1.2.3,bus2=BMT155113796.1.2.3,Phases=3,LineCode=tieSwitch,Length=0.001,Units=km,switch=T !numEQ 94036
new line.CTR123149 bus1=BMT163337259.1.2.3,bus2=BMT123766325.1.2.3,Phases=3,LineCode=tieSwitch,Length=0.001,Units=km,switch=T !numEQ 94048
new line.CTR123156 bus1=BMT123766444.1.2.3,bus2=BMT123769447.1.2.3,Phases=3,LineCode=tieSwitch,Length=0.001,Units=km,switch=T !numEQ 94057
new line.CTR123163 bus1=BMT123773598.1.2.3,bus2=BMT123773682.1.2.3,Phases=3,LineCode=tieSwitch,Length=0.001,Units=km,switch=T !numEQ 154020
new line.CTR123170 bus1=BMT123766556.1.2.3,bus2=BMT148717467.1.2.3,Phases=3,LineCode=tieSwitch,Length=0.001,Units=km,switch=T !numEQ 94709
new line.CTR123177 bus1=BMT123769454.3,bus2=BMT167989740.3,Phases=1,LineCode=tieSwitch1,Length=0.001,Units=km,switch=T !numEQ 94056
new line.CTR123191 bus1=BMT123752682.1.2.3,bus2=BMT156652719.1.2.3,Phases=3,LineCode=tieSwitch,Length=0.001,Units=km,switch=T !numEQ 94123
new line.CTR123198 bus1=BMT123771330.1.2.3,bus2=BMT176459301.1.2.3,Phases=3,LineCode=tieSwitch,Length=0.001,Units=km,switch=T !numEQ 94011
new line.CTR123205 bus1=BMT173313029.1.2.3,bus2=BMT123771351.1.2.3,Phases=3,LineCode=tieSwitch,Length=0.001,Units=km,switch=T !numEQ 94012
new line.CTR123212 bus1=BMT123771505.1.2.3,bus2=BMT123772562.1.2.3,Phases=3,LineCode=tieSwitch,Length=0.001,Units=km,switch=T !numEQ 94128
new line.CTR123219 bus1=BMT123771561.1.2.3,bus2=BMT175766173.1.2.3,Phases=3,LineCode=tieSwitch,Length=0.001,Units=km,switch=T !numEQ 94015
new line.CTR123226 bus1=BMT123771666.1.2.3,bus2=BMT123772548.1.2.3,Phases=3,LineCode=tieSwitch,Length=0.001,Units=km,switch=T !numEQ 94016
new line.CTR123240 bus1=BMT174886119.1.2.3,bus2=BMT174886121.1.2.3,Phases=3,LineCode=tieSwitch,Length=0.001,Units=km,switch=T !numEQ 94019
new line.CTR123247 bus1=BMT123771995.1.2.3,bus2=BMT173313113.1.2.3,Phases=3,LineCode=tieSwitch,Length=0.001,Units=km,switch=T !numEQ 95728
new line.CTR123254 bus1=BMT123771785.1.2.3,bus2=BMT123771820.1.2.3,Phases=3,LineCode=tieSwitch,Length=0.001,Units=km,switch=T !numEQ 94024
new line.CTR123261 bus1=BMT123771750.1.2.3,bus2=BMT155114638.1.2.3,Phases=3,LineCode=tieSwitch,Length=0.001,Units=km,switch=T !numEQ 94022
new line.CTR123275 bus1=BMT123772471.1.2.3,bus2=BMT149694216.1.2.3,Phases=3,LineCode=tieSwitch,Length=0.001,Units=km,switch=T !numEQ 94069
new line.CTR123289 bus1=BMT123771050.1.2.3,bus2=BMT176035268.1.2.3,Phases=3,LineCode=tieSwitch,Length=0.001,Units=km,switch=T !numEQ 94006
new line.CTR123303 bus1=BMT169386864.1.2.3,bus2=BMT123771085.1.2.3,Phases=3,LineCode=tieSwitch,Length=0.001,Units=km,switch=T !numEQ 94008
new line.CTR123310 bus1=BMT123765457.1.2.3,bus2=BMT159063668.1.2.3,Phases=3,LineCode=tieSwitch,Length=0.001,Units=km,switch=T !numEQ 94002
new line.CTR123317 bus1=BMT123772716.1.2.3,bus2=BMT152560699.1.2.3,Phases=3,LineCode=tieSwitch,Length=0.001,Units=km,switch=T !numEQ 94112
new line.CTR123331 bus1=BMT123773822.1.2.3,bus2=BMT152855824.1.2.3,Phases=3,LineCode=tieSwitch,Length=0.001,Units=km,switch=T !numEQ 94142
new line.CTR123338 bus1=BMT123752493.1,bus2=BMT123760809.1,Phases=1,LineCode=tieSwitch1,Length=0.001,Units=km,switch=T !numEQ 95588
new line.CTR123345 bus1=BMT123760788.1,bus2=BMT176084354.1,Phases=1,LineCode=tieSwitch1,Length=0.001,Units=km,switch=T !numEQ 94148
new line.CTR123359 bus1=BMT1907155.1.2.3,bus2=BMT169066436.1.2.3,Phases=3,LineCode=tieSwitch,Length=0.001,Units=km,switch=T !numEQ 94845
new line.CTR123366 bus1=BMT154680273.1.2.3,bus2=BMT174542069.1.2.3,Phases=3,LineCode=tieSwitch,Length=0.001,Units=km,switch=T !numEQ 97624
new line.CTR123373 bus1=BMT123753340.1.2.3,bus2=BMT123753347.1.2.3,Phases=3,LineCode=tieSwitch,Length=0.001,Units=km,switch=T !numEQ 94152
new line.CTR123380 bus1=BMT123753319.1.2.3,bus2=BMT123760536.1.2.3,Phases=3,LineCode=tieSwitch,Length=0.001,Units=km,switch=T !numEQ 93949
new line.CTR123387 bus1=BMT123765212.1,bus2=BMT123765268.1,Phases=1,LineCode=tieSwitch1,Length=0.001,Units=km,switch=T !numEQ 94063
new line.CTR123401 bus1=BMT123770462.1.2.3,bus2=BMT155111662.1.2.3,Phases=3,LineCode=tieSwitch,Length=0.001,Units=km,switch=T !numEQ 94027
new line.CTR123408 bus1=BMT123765709.1.2.3,bus2=BMT123765716.1.2.3,Phases=3,LineCode=tieSwitch,Length=0.001,Units=km,switch=T !numEQ 94040
new line.CTR123415 bus1=BMT123765898.2,bus2=BMT123765996.2,Phases=1,LineCode=tieSwitch1,Length=0.001,Units=km,switch=T !numEQ 94046
new line.CTR123422 bus1=BMT123770644.1.2.3,bus2=BMT174886115.1.2.3,Phases=3,LineCode=tieSwitch,Length=0.001,Units=km,switch=T !numEQ 94035
new line.CTR123429 bus1=BMT123770679.1.2.3,bus2=BMT123770707.1.2.3,Phases=3,LineCode=tieSwitch,Length=0.001,Units=km,switch=T !numEQ 95598
new line.CTR123436 bus1=BMT123770763.1.2.3,bus2=BMT123770798.1.2.3,Phases=3,LineCode=tieSwitch,Length=0.001,Units=km,switch=T !numEQ 95758
new line.CTR123450 bus1=BMT123766339.1.2.3,bus2=BMT176526797.1.2.3,Phases=3,LineCode=tieSwitch,Length=0.001,Units=km,switch=T !numEQ 95595
new line.CTR123464 bus1=BMT123766437.1.2.3,bus2=BMT123769608.1.2.3,Phases=3,LineCode=tieSwitch,Length=0.001,Units=km,switch=T !numEQ 94055
new line.CTR123471 bus1=BMT127146254.1.2.3,bus2=BMT176529093.1.2.3,Phases=3,LineCode=tieSwitch,Length=0.001,Units=km,switch=T !numEQ 95017
new line.CTR123478 bus1=BMT123770245.3,bus2=BMT123770273.3,Phases=1,LineCode=tieSwitch1,Length=0.001,Units=km,switch=T !numEQ 94742
new line.CTR123485 bus1=BMT123770021.3,bus2=BMT123770070.3,Phases=1,LineCode=tieSwitch1,Length=0.001,Units=km,switch=T !numEQ 93980
new line.CTR123492 bus1=BMT123771512.1.2.3,bus2=BMT150599463.1.2.3,Phases=3,LineCode=tieSwitch,Length=0.001,Units=km,switch=T !numEQ 95613
new line.CTR123527 bus1=BMT173313034.1.2.3,bus2=BMT123770567.1.2.3,Phases=3,LineCode=tieSwitch,Length=0.001,Units=km,switch=T !numEQ 94030
open line.CTR123527 term=1
new line.CTR123541 bus1=BMT156871317.1.2.3,bus2=BMT156871328.1.2.3,Phases=3,LineCode=tieSwitch,Length=0.001,Units=km,switch=T !numEQ 95707
new line.CTR123548 bus1=BMT123752381.1.2.3,bus2=BMT173156023.1.2.3,Phases=3,LineCode=tieSwitch,Length=0.001,Units=km,switch=T !numEQ 97620
new line.CTR123555 bus1=BMT123752556.1.2.3,bus2=BMT159452043.1.2.3,Phases=3,LineCode=tieSwitch,Length=0.001,Units=km,switch=T !numEQ 94146
new line.CTR123576 bus1=BMT123753452.1.2.3,bus2=BMT123753697.1.2.3,Phases=3,LineCode=tieSwitch,Length=0.001,Units=km,switch=T !numEQ 94153
new line.CTR123583 bus1=BMT123753795.1.2.3,bus2=BMT169981856.1.2.3,Phases=3,LineCode=tieSwitch,Length=0.001,Units=km,switch=T !numEQ 94917
new line.CTR123590 bus1=BMT123754341.1,bus2=BMT123754600.1,Phases=1,LineCode=tieSwitch1,Length=0.001,Units=km,switch=T !numEQ 95781
new line.CTR123604 bus1=BMT123754446.2,bus2=BMT123754453.2,Phases=1,LineCode=tieSwitch1,Length=0.001,Units=km,switch=T !numEQ 95807
new line.CTR123611 bus1=BMT123755468.1.2.3,bus2=BMT154378082.1.2.3,Phases=3,LineCode=tieSwitch,Length=0.001,Units=km,switch=T !numEQ 7005
new line.CTR123618 bus1=BMT123755489.1.2.3,bus2=BMT151613174.1.2.3,Phases=3,LineCode=tieSwitch,Length=0.001,Units=km,switch=T !numEQ 95932
new line.CTR123639 bus1=BMT123759654.1,bus2=BMT160611536.1,Phases=1,LineCode=tieSwitch1,Length=0.001,Units=km,switch=T !numEQ 95920
new line.CTR123646 bus1=BMT123758226.1,bus2=BMT123758345.1,Phases=1,LineCode=tieSwitch1,Length=0.001,Units=km,switch=T !numEQ 95801
new line.CTR123653 bus1=BMT123757764.1,bus2=BMT160070658.1,Phases=1,LineCode=tieSwitch1,Length=0.001,Units=km,switch=T !numEQ 95907
new line.CTR123660 bus1=BMT123757946.1,bus2=BMT123758877.1,Phases=1,LineCode=tieSwitch1,Length=0.001,Units=km,switch=T !numEQ 93979
new line.CTR123667 bus1=BMT123758996.1,bus2=BMT171018442.1,Phases=1,LineCode=tieSwitch1,Length=0.001,Units=km,switch=T !numEQ 93943
new line.CTR123681 bus1=BMT123752661.1.2.3,bus2=BMT172206810.1.2.3,Phases=3,LineCode=tieSwitch,Length=0.001,Units=km,switch=T !numEQ 94147
new line.CTR123688 bus1=BMT123758954.1,bus2=BMT170848914.1,Phases=1,LineCode=tieSwitch1,Length=0.001,Units=km,switch=T !numEQ 93940
new line.CTR123695 bus1=BMT137132944.3,bus2=BMT158965683.3,Phases=1,LineCode=tieSwitch1,Length=0.001,Units=km,switch=T !numEQ 93698
new line.CTR123709 bus1=BMT123759066.1,bus2=BMT123759136.1,Phases=1,LineCode=tieSwitch1,Length=0.001,Units=km,switch=T !numEQ 93942
new line.CTR123723 bus1=BMT123760431.2,bus2=BMT165393614.2,Phases=1,LineCode=tieSwitch1,Length=0.001,Units=km,switch=T !numEQ 95839
new line.CTR123737 bus1=BMT123756588.3,bus2=BMT155304166.3,Phases=1,LineCode=tieSwitch1,Length=0.001,Units=km,switch=T !numEQ 93962
new line.CTR123744 bus1=BMT152363040.1.2.3,bus2=BMT152560705.1.2.3,Phases=3,LineCode=tieSwitch,Length=0.001,Units=km,switch=T !numEQ 95025
new line.CTR123751 bus1=BMT123756350.3,bus2=BMT173270765.3,Phases=1,LineCode=tieSwitch1,Length=0.001,Units=km,switch=T !numEQ 93963
new line.CTR123765 bus1=BMT123757050.3,bus2=BMT123757127.3,Phases=1,LineCode=tieSwitch1,Length=0.001,Units=km,switch=T !numEQ 95925
new line.CTR123772 bus1=BMT123757078.3,bus2=BMT123757099.3,Phases=1,LineCode=tieSwitch1,Length=0.001,Units=km,switch=T !numEQ 93960
new line.CTR123779 bus1=BMT123757337.3,bus2=BMT123757351.3,Phases=1,LineCode=tieSwitch1,Length=0.001,Units=km,switch=T !numEQ 95898
new line.CTR123793 bus1=BMT175455508.1.2.3,bus2=BMT175455509.1.2.3,Phases=3,LineCode=tieSwitch,Length=0.001,Units=km,switch=T !numEQ 95826
new line.CTR123807 bus1=BMT123752801.1.2.3,bus2=BMT171487102.1.2.3,Phases=3,LineCode=tieSwitch,Length=0.001,Units=km,switch=T !numEQ 94756
new line.CTR123821 bus1=BMT123773521.1.2.3,bus2=BMT151791951.1.2.3,Phases=3,LineCode=tieSwitch,Length=0.001,Units=km,switch=T !numEQ 97618
new line.CTR123828 bus1=BMT123773591.1.2.3,bus2=BMT123773647.1.2.3,Phases=3,LineCode=tieSwitch,Length=0.001,Units=km,switch=T !numEQ 94137
new line.CTR123835 bus1=BMT123765625.1.2.3,bus2=BMT123765667.1.2.3,Phases=3,LineCode=tieSwitch,Length=0.001,Units=km,switch=T !numEQ 94039
new line.CTR123842 bus1=BMT123772926.1.2.3,bus2=BMT123773318.1.2.3,Phases=3,LineCode=tieSwitch,Length=0.001,Units=km,switch=T !numEQ 94136
new line.CTR123849 bus1=BMT123772961.1.2.3,bus2=BMT174085577.1.2.3,Phases=3,LineCode=tieSwitch,Length=0.001,Units=km,switch=T !numEQ 94130
new line.CTR123856 bus1=BMT123773024.1.2.3,bus2=BMT173089118.1.2.3,Phases=3,LineCode=tieSwitch,Length=0.001,Units=km,switch=T !numEQ 94134
new line.CTR123870 bus1=BMT172989680.1,bus2=BMT172989684.1,Phases=1,LineCode=tieSwitch1,Length=0.001,Units=km,switch=T !numEQ 94132
new line.CTR123877 bus1=BMT123772828.1.2.3,bus2=BMT123773409.1.2.3,Phases=3,LineCode=tieSwitch,Length=0.001,Units=km,switch=T !numEQ 94117
new line.CTR123891 bus1=BMT123773479.1.2.3,bus2=BMT165501552.1.2.3,Phases=3,LineCode=tieSwitch,Length=0.001,Units=km,switch=T !numEQ 97760
new line.CTR123947 bus1=BMT176766999.1.2.3,bus2=BMT123766549.1.2.3,Phases=3,LineCode=tieSwitch,Length=0.001,Units=km,switch=T !numEQ 94824
new line.CTR123954 bus1=BMT158631123.1.2.3,bus2=BMT174073041.1.2.3,Phases=3,LineCode=tieSwitch,Length=0.001,Units=km,switch=T !numEQ 94292
new line.CTR123975 bus1=BMT123758030.1,bus2=BMT123758037.1,Phases=1,LineCode=tieSwitch1,Length=0.001,Units=km,switch=T !numEQ 7004
new line.CTR123982 bus1=BMT123760277.2,bus2=BMT174072576.2,Phases=1,LineCode=tieSwitch1,Length=0.001,Units=km,switch=T !numEQ 94158
new line.CTR124010 bus1=BMT123761292.1.2.3,bus2=BMT123761320.1.2.3,Phases=3,LineCode=tieSwitch,Length=0.001,Units=km,switch=T !numEQ 135029
new line.CTR124017 bus1=BMT174367180.1.2.3,bus2=BMT175891031.1.2.3,Phases=3,LineCode=tieSwitch,Length=0.001,Units=km,switch=T !numEQ 94133
new line.CTR10197 bus1=BMT123770259.3,bus2=BMT123770371.3,Phases=1,LineCode=tieSwitch1,Length=0.001,Units=km,switch=T !numEQ 94916
new line.CTR10323 bus1=BMT123763413.1,bus2=BMT123763476.1,Phases=1,LineCode=tieSwitch1,Length=0.001,Units=km,switch=T !numEQ 121863
new line.CTR109646 bus1=BMT123765100.1.2.3,bus2=BMT123765135.1.2.3,Phases=3,LineCode=tieSwitch,Length=0.001,Units=km,switch=T !numEQ 134350
new line.CTR115190 bus1=BMT123753494.1.2.3,bus2=BMT145276163.1.2.3,Phases=3,LineCode=tieSwitch,Length=0.001,Units=km,switch=T !numEQ 216042
new line.CTR120594 bus1=BMT123771729.1.2.3,bus2=BMT123771736.1.2.3,Phases=3,LineCode=tieSwitch,Length=0.001,Units=km,switch=T !numEQ 198836
new line.CTR121000 bus1=BMT123750862.1.2.3,bus2=BMT155332404.1.2.3,Phases=3,LineCode=tieSwitch,Length=0.001,Units=km,switch=T !numEQ 95012
new line.CTR121007 bus1=BMT172384013.1.2.3,bus2=BMT172384018.1.2.3,Phases=3,LineCode=tieSwitch,Length=0.001,Units=km,switch=T !numEQ 94111
new line.CTR121021 bus1=BMT123750918.1.2.3,bus2=BMT170592409.1.2.3,Phases=3,LineCode=tieSwitch,Length=0.001,Units=km,switch=T !numEQ 95020
new line.CTR121028 bus1=BMT123750967.1.2.3,bus2=BMT123752318.1.2.3,Phases=3,LineCode=tieSwitch,Length=0.001,Units=km,switch=T !numEQ 94573
new line.CTR121035 bus1=BMT149562165.1.2.3,bus2=BMT176083231.1.2.3,Phases=3,LineCode=tieSwitch,Length=0.001,Units=km,switch=T !numEQ 95607
new line.CTR121042 bus1=BMT123751079.1.2.3,bus2=BMT174367179.1.2.3,Phases=3,LineCode=tieSwitch,Length=0.001,Units=km,switch=T !numEQ 94391
new line.CTR121049 bus1=BMT123751086.1.2.3,bus2=BMT123751093.1.2.3,Phases=3,LineCode=tieSwitch,Length=0.001,Units=km,switch=T !numEQ 94173
new line.CTR121056 bus1=BMT123751198.1.2.3,bus2=BMT123751205.1.2.3,Phases=3,LineCode=tieSwitch,Length=0.001,Units=km,switch=T !numEQ 95753
new line.CTR121077 bus1=BMT123751254.2,bus2=BMT170032154.2,Phases=1,LineCode=tieSwitch1,Length=0.001,Units=km,switch=T !numEQ 94903
new line.CTR121322 bus1=BMT123752402.1.2.3,bus2=BMT123762006.1.2.3,Phases=3,LineCode=tieSwitch,Length=0.001,Units=km,switch=T !numEQ 95843
new line.CTR121469 bus1=BMT133315564.1.2.3,bus2=BMT176369264.1.2.3,Phases=3,LineCode=tieSwitch,Length=0.001,Units=km,switch=T !numEQ 94263
new line.CTR121588 bus1=BMT123751590.1.2.3,bus2=BMT164042455.1.2.3,Phases=3,LineCode=tieSwitch,Length=0.001,Units=km,switch=T !numEQ 94255
new line.CTR121595 bus1=BMT123751632.2,bus2=BMT123752108.2,Phases=1,LineCode=tieSwitch1,Length=0.001,Units=km,switch=T !numEQ 95564
new line.CTR121602 bus1=BMT123751723.1,bus2=BMT123752094.1,Phases=1,LineCode=tieSwitch1,Length=0.001,Units=km,switch=T !numEQ 94259
new line.CTR121623 bus1=BMT123751996.1,bus2=BMT123752010.1,Phases=1,LineCode=tieSwitch1,Length=0.001,Units=km,switch=T !numEQ 94182
new line.CTR121637 bus1=BMT123751898.1,bus2=BMT123751954.1,Phases=1,LineCode=tieSwitch1,Length=0.001,Units=km,switch=T !numEQ 94267
new line.CTR121644 bus1=BMT123751709.1.2.3,bus2=BMT157136010.1.2.3,Phases=3,LineCode=tieSwitch,Length=0.001,Units=km,switch=T !numEQ 94257
new line.CTR121651 bus1=BMT174192432.1.2.3,bus2=BMT1907169.1.2.3,Phases=3,LineCode=tieSwitch,Length=0.001,Units=km,switch=T !numEQ 94127
open line.CTR121651 term=1
new line.CTR121665 bus1=BMT123752339.1.2.3,bus2=BMT174192409.1.2.3,Phases=3,LineCode=tieSwitch,Length=0.001,Units=km,switch=T !numEQ 95022
new line.CTR121672 bus1=BMT123752409.1.2.3,bus2=BMT176229456.1.2.3,Phases=3,LineCode=tieSwitch,Length=0.001,Units=km,switch=T !numEQ 97856
new line.CTR121693 bus1=BMT123761110.1.2.3,bus2=BMT123761628.1.2.3,Phases=3,LineCode=tieSwitch,Length=0.001,Units=km,switch=T !numEQ 94161
new line.CTR121707 bus1=BMT123761698.1.2.3,bus2=BMT123761705.1.2.3,Phases=3,LineCode=tieSwitch,Length=0.001,Units=km,switch=T !numEQ 95792
new line.CTR121714 bus1=BMT123761712.1.2.3,bus2=BMT168285012.1.2.3,Phases=3,LineCode=tieSwitch,Length=0.001,Units=km,switch=T !numEQ 95559
new line.CTR121728 bus1=BMT123761761.1.2.3,bus2=BMT132805964.1.2.3,Phases=3,LineCode=tieSwitch,Length=0.001,Units=km,switch=T !numEQ 95599
new line.CTR121763 bus1=BMT123760949.1.2.3,bus2=BMT123760956.1.2.3,Phases=3,LineCode=tieSwitch,Length=0.001,Units=km,switch=T !numEQ 94318