new line.RML10032912 bus1=BBT1862257.1.0,bus2=RML1010032912.1.0,Phases=1,Linecode=CABBTG01_4_1,Length=0.017000000,Units=km
new line.RML10033029 bus1=BBT1753183.2.3.0,bus2=RML1010033029.2.3.0,Phases=2,Linecode=CABBTG05_4_2,Length=0.017000000,Units=km
new line.RML10033050 bus1=BBT1795449.1.2.3.0,bus2=RML1010033050.1.2.3.0,Phases=3,Linecode=CABBTG06_4_3,Length=0.017000000,Units=km
new line.RML10033060 bus1=BBT1774526.2.3.0,bus2=RML1010033060.2.3.0,Phases=2,Linecode=CABBTG05_4_2,Length=0.017000000,Units=km
new line.RML10033239 bus1=BBT1864546.2.0,bus2=RML1010033239.2.0,Phases=1,Linecode=CABBTG01_4_1,Length=0.017000000,Units=km
new line.RML10033377 bus1=BBT1787875.1.2.0,bus2=RML1010033377.1.2.0,Phases=2,Linecode=CABBTG04_4_2,Length=0.017000000,Units=km
new line.RML10033382 bus1=BBT2156208.1.0,bus2=RML1010033382.1.0,Phases=1,Linecode=CABBTG02_4_1,Length=0.017000000,Units=km
new line.RML10033402 bus1=BBT1779503.1.2.0,bus2=RML1010033402.1.2.0,Phases=2,Linecode=CABBTG04_4_2,Length=0.017000000,Units=km
new line.RML10033692 bus1=BBT1775555.1.2.0,bus2=RML1010033692.1.2.0,Phases=2,Linecode=CABBTG05_4_2,Length=0.017000000,Units=km
new line.RML10033726 bus1=BBT1776206.2.3.0,bus2=RML1010033726.2.3.0,Phases=2,Linecode=CABBTG05_4_2,Length=0.017000000,Units=km
new line.RML10033736 bus1=BBT1776206.3.0,bus2=RML1010033736.3.0,Phases=1,Linecode=CABBTG02_4_1,Length=0.017000000,Units=km
new line.RML10033791 bus1=BBT1774169.1.3.0,bus2=RML1010033791.1.3.0,Phases=2,Linecode=CABBTG05_4_2,Length=0.017000000,Units=km
new line.RML10033804 bus1=BBT1751286.2.0,bus2=RML1010033804.2.0,Phases=1,Linecode=CABBTG02_4_1,Length=0.017000000,Units=km
new line.RML10049976 bus1=BBT1789695.1.0,bus2=RML1010049976.1.0,Phases=1,Linecode=CABBTG02_4_1,Length=0.017000000,Units=km
new line.RML10049983 bus1=BBT1862796.1.2.3.0,bus2=RML1010049983.1.2.3.0,Phases=3,Linecode=CABBTG06_4_3,Length=0.017000000,Units=km
new line.RML10050223 bus1=BBT1755423.1.2.0,bus2=RML1010050223.1.2.0,Phases=2,Linecode=CABBTG05_4_2,Length=0.008000000,Units=km
new line.RML10050226 bus1=BBT1786216.1.0,bus2=RML1010050226.1.0,Phases=1,Linecode=CABBTG02_4_1,Length=0.008000000,Units=km
new line.RML10050268 bus1=BBT1796870.1.0,bus2=RML1010050268.1.0,Phases=1,Linecode=CABBTG01_4_1,Length=0.025000000,Units=km
new line.RML10050528 bus1=BBT1780049.1.2.0,bus2=RML1010050528.1.2.0,Phases=2,Linecode=CABBTG05_4_2,Length=0.017000000,Units=km
new line.RML10050547 bus1=BBT1783234.1.0,bus2=RML1010050547.1.0,Phases=1,Linecode=CABBTG02_4_1,Length=0.017000000,Units=km
new line.RML10050750 bus1=BBT2695061.1.2.0,bus2=RML1010050750.1.2.0,Phases=2,Linecode=CABBTG05_4_2,Length=0.021000000,Units=km
new line.RML10050780 bus1=BBT1782359.1.0,bus2=RML1010050780.1.0,Phases=1,Linecode=CABBTG01_4_1,Length=0.017000000,Units=km
new line.RML10050785 bus1=BBT1787091.1.0,bus2=RML1010050785.1.0,Phases=1,Linecode=CABBTG01_4_1,Length=0.020000000,Units=km
new line.RML10050857 bus1=BBT1758832.1.0,bus2=RML1010050857.1.0,Phases=1,Linecode=CABBTG02_4_1,Length=0.017000000,Units=km
new line.RML10050984 bus1=BBT1862789.1.2.3.0,bus2=RML1010050984.1.2.3.0,Phases=3,Linecode=CABBTG06_4_3,Length=0.017000000,Units=km
new line.RML10051006 bus1=BBT1784081.1.2.0,bus2=RML1010051006.1.2.0,Phases=2,Linecode=CABBTG05_4_2,Length=0.017000000,Units=km
new line.RML10051081 bus1=BBT1774127.2.3.0,bus2=RML1010051081.2.3.0,Phases=2,Linecode=CABBTG05_4_2,Length=0.017000000,Units=km
new line.RML10051084 bus1=BBT1783171.1.2.0,bus2=RML1010051084.1.2.0,Phases=2,Linecode=CABBTG05_4_2,Length=0.014000000,Units=km
new line.RML10051123 bus1=BBT1753169.1.2.0,bus2=RML1010051123.1.2.0,Phases=2,Linecode=CABBTG05_4_2,Length=0.017000000,Units=km
new line.RML10051127 bus1=BBT1746484.1.2.0,bus2=RML1010051127.1.2.0,Phases=2,Linecode=CABBTG05_4_2,Length=0.017000000,Units=km
new line.RML10051826 bus1=BBT1776451.1.2.0,bus2=RML1010051826.1.2.0,Phases=2,Linecode=CABBTG05_4_2,Length=0.017000000,Units=km
new line.RML10063656 bus1=BBT1775688.1.2.0,bus2=RML1010063656.1.2.0,Phases=2,Linecode=CABBTG05_4_2,Length=0.015000000,Units=km
new line.RML10063830 bus1=BBT1759938.1.2.0,bus2=RML1010063830.1.2.0,Phases=2,Linecode=CABBTG05_4_2,Length=0.015000000,Units=km
new line.RML10063972 bus1=BBT1766574.1.3.0,bus2=RML1010063972.1.3.0,Phases=2,Linecode=CABBTG05_4_2,Length=0.015000000,Units=km
new line.RML10064130 bus1=BBT1738343.1.2.0,bus2=RML1010064130.1.2.0,Phases=2,Linecode=CABBTG05_4_2,Length=0.020000000,Units=km
new line.RML10064287 bus1=BBT1789233.1.0,bus2=RML1010064287.1.0,Phases=1,Linecode=CABBTG02_4_1,Length=0.010000000,Units=km
new line.RML10064302 bus1=BBT1777865.1.2.3.0,bus2=RML1010064302.1.2.3.0,Phases=3,Linecode=CABBTG07_4_3,Length=0.010000000,Units=km
new line.RML10064353 bus1=BBT1751783.1.2.0,bus2=RML1010064353.1.2.0,Phases=2,Linecode=CABBTG05_4_2,Length=0.008000000,Units=km
new line.RML10064355 bus1=BBT3082504.1.2.0,bus2=RML1010064355.1.2.0,Phases=2,Linecode=CABBTG05_4_2,Length=0.010000000,Units=km
new line.RML10064356 bus1=BBT1771544.1.2.0,bus2=RML1010064356.1.2.0,Phases=2,Linecode=CABBTG05_4_2,Length=0.008000000,Units=km
new line.RML10064365 bus1=BBT1863468.1.2.3.0,bus2=RML1010064365.1.2.3.0,Phases=3,Linecode=CABBTG06_4_3,Length=0.008000000,Units=km
new line.RML10064444 bus1=BBT1782044.2.3.0,bus2=RML1010064444.2.3.0,Phases=2,Linecode=CABBTG05_4_2,Length=0.014000000,Units=km
new line.RML10067000 bus1=BBT140875627.1.2.3.0,bus2=RML1010067000.1.2.3.0,Phases=3,Linecode=CABBTG07_4_3,Length=0.017000000,Units=km
new line.RML10080112 bus1=BBT3045425.1.2.0,bus2=RML1010080112.1.2.0,Phases=2,Linecode=CABBTG05_4_2,Length=0.017000000,Units=km
new line.RML10080133 bus1=BBT2449536.1.2.0,bus2=RML1010080133.1.2.0,Phases=2,Linecode=CABBTG05_4_2,Length=0.017000000,Units=km
new line.RML10080449 bus1=BBT1749074.1.2.3.0,bus2=RML1010080449.1.2.3.0,Phases=3,Linecode=CABBTG06_4_3,Length=0.017000000,Units=km
new line.RML10080566 bus1=BBT2257694.1.2.0,bus2=RML1010080566.1.2.0,Phases=2,Linecode=CABBTG05_4_2,Length=0.017000000,Units=km
new line.RML10080751 bus1=BBT2208449.1.2.0,bus2=RML1010080751.1.2.0,Phases=2,Linecode=CABBTG05_4_2,Length=0.017000000,Units=km
new line.RML10081135 bus1=BBT1736537.1.2.0,bus2=RML1010081135.1.2.0,Phases=2,Linecode=CABBTG05_4_2,Length=0.017000000,Units=km
new line.RML10081293 bus1=BBT1785649.1.2.0,bus2=RML1010081293.1.2.0,Phases=2,Linecode=CABBTG04_4_2,Length=0.017000000,Units=km
new line.RML10081317 bus1=BBT3376063.1.2.3.0,bus2=RML1010081317.1.2.3.0,Phases=3,Linecode=CABBTG11_4_3,Length=0.017000000,Units=km
new line.RML10082318 bus1=BBT1786559.1.3.0,bus2=RML1010082318.1.3.0,Phases=2,Linecode=CABBTG05_4_2,Length=0.017000000,Units=km
new line.RML10082335 bus1=BBT1789674.1.2.0,bus2=RML1010082335.1.2.0,Phases=2,Linecode=CABBTG05_4_2,Length=0.010000000,Units=km
new line.RML10082344 bus1=BBT1764887.1.2.0,bus2=RML1010082344.1.2.0,Phases=2,Linecode=CABBTG05_4_2,Length=0.017000000,Units=km
new line.RML10082469 bus1=BBT1745630.1.2.0,bus2=RML1010082469.1.2.0,Phases=2,Linecode=CABBTG05_4_2,Length=0.006000000,Units=km
new line.RML10082586 bus1=BBT4966939.1.0,bus2=RML1010082586.1.0,Phases=1,Linecode=CABBTG02_4_1,Length=0.020000000,Units=km
new line.RML10082627 bus1=BBT1746274.1.2.0,bus2=RML1010082627.1.2.0,Phases=2,Linecode=CABBTG05_4_2,Length=0.012000000,Units=km
new line.RML10037885 bus1=BBT1761667.1.2.3.0,bus2=RML1010037885.1.2.3.0,Phases=3,Linecode=CABBTG06_4_3,Length=0.017000000,Units=km
new line.RML10037908 bus1=BBT1759217.1.0,bus2=RML1010037908.1.0,Phases=1,Linecode=CABBTG02_4_1,Length=0.017000000,Units=km
new line.RML10037925 bus1=BBT2060763.1.2.3.0,bus2=RML1010037925.1.2.3.0,Phases=3,Linecode=CABBTG06_4_3,Length=0.017000000,Units=km
new line.RML10037980 bus1=BBT2208491.2.0,bus2=RML1010037980.2.0,Phases=1,Linecode=CABBTG02_4_1,Length=0.017000000,Units=km
new line.RML10038217 bus1=BBT1753547.1.2.0,bus2=RML1010038217.1.2.0,Phases=2,Linecode=CABBTG05_4_2,Length=0.017000000,Units=km
new line.RML10038667 bus1=BBT2060875.1.2.0,bus2=RML1010038667.1.2.0,Phases=2,Linecode=CABBTG05_4_2,Length=0.017000000,Units=km
new line.RML10038772 bus1=BBT1796632.1.2.3.0,bus2=RML1010038772.1.2.3.0,Phases=3,Linecode=CABBTG06_4_3,Length=0.017000000,Units=km
new line.RML10038920 bus1=BBT1738273.1.0,bus2=RML1010038920.1.0,Phases=1,Linecode=CABBTG01_4_1,Length=0.017000000,Units=km
new line.RML10038997 bus1=BBT2145155.3.0,bus2=RML1010038997.3.0,Phases=1,Linecode=CABBTG01_4_1,Length=0.017000000,Units=km
new line.RML10039009 bus1=BBT1762255.1.2.0,bus2=RML1010039009.1.2.0,Phases=2,Linecode=CABBTG05_4_2,Length=0.017000000,Units=km
new line.RML10039251 bus1=BBT1739239.1.3.0,bus2=RML1010039251.1.3.0,Phases=2,Linecode=CABBTG05_4_2,Length=0.017000000,Units=km
new line.RML10039355 bus1=BBT1777914.1.2.0,bus2=RML1010039355.1.2.0,Phases=2,Linecode=CABBTG05_4_2,Length=0.014000000,Units=km
new line.RML10039367 bus1=BBT2060868.1.0,bus2=RML1010039367.1.0,Phases=1,Linecode=CABBTG02_4_1,Length=0.017000000,Units=km
new line.RML10039374 bus1=BBT3565840.1.0,bus2=RML1010039374.1.0,Phases=1,Linecode=CABBTG02_4_1,Length=0.017000000,Units=km
new line.RML10039762 bus1=BBT1755689.3.0,bus2=RML1010039762.3.0,Phases=1,Linecode=CABBTG02_4_1,Length=0.017000000,Units=km
new line.RML10039831 bus1=BBT1745833.1.2.0,bus2=RML1010039831.1.2.0,Phases=2,Linecode=CABBTG05_4_2,Length=0.017000000,Units=km
new line.RML10040141 bus1=BBT1796548.1.0,bus2=RML1010040141.1.0,Phases=1,Linecode=CABBTG01_4_1,Length=0.017000000,Units=km
new line.RML10056856 bus1=BBT1765790.1.2.3.0,bus2=RML1010056856.1.2.3.0,Phases=3,Linecode=CABBTG06_4_3,Length=0.017000000,Units=km
new line.RML10057230 bus1=BBT1760519.1.0,bus2=RML1010057230.1.0,Phases=1,Linecode=CABBTG02_4_1,Length=0.017000000,Units=km
new line.RML10058942 bus1=BBT1767715.1.2.0,bus2=RML1010058942.1.2.0,Phases=2,Linecode=CABBTG05_4_2,Length=0.017000000,Units=km
new line.RML10058944 bus1=BBT1767715.1.2.0,bus2=RML1010058944.1.2.0,Phases=2,Linecode=CABBTG05_4_2,Length=0.017000000,Units=km
new line.RML10059052 bus1=BBT1781568.1.2.0,bus2=RML1010059052.1.2.0,Phases=2,Linecode=CABBTG05_4_2,Length=0.017000000,Units=km
new line.RML10059053 bus1=BBT131407728.1.2.0,bus2=RML1010059053.1.2.0,Phases=2,Linecode=CABBTG05_4_2,Length=0.017000000,Units=km
new line.RML10059054 bus1=BBT1862607.1.2.3.0,bus2=RML1010059054.1.2.3.0,Phases=3,Linecode=CABBTG06_4_3,Length=0.017000000,Units=km
new line.RML10059537 bus1=BBT1760792.1.2.0,bus2=RML1010059537.1.2.0,Phases=2,Linecode=CABBTG05_4_2,Length=0.017000000,Units=km
new line.RML10059542 bus1=BBT1770123.1.2.0,bus2=RML1010059542.1.2.0,Phases=2,Linecode=CABBTG05_4_2,Length=0.017000000,Units=km
new line.RML10059553 bus1=BBT1768212.1.2.0,bus2=RML1010059553.1.2.0,Phases=2,Linecode=CABBTG05_4_2,Length=0.017000000,Units=km
new line.RML10059720 bus1=BBT1781897.1.2.0,bus2=RML1010059720.1.2.0,Phases=2,Linecode=CABBTG05_4_2,Length=0.017000000,Units=km
new line.RML10067832 bus1=BBT1750362.1.2.0,bus2=RML1010067832.1.2.0,Phases=2,Linecode=CABBTG05_4_2,Length=0.025000000,Units=km
new line.RML10068129 bus1=BBT1751349.1.2.0,bus2=RML1010068129.1.2.0,Phases=2,Linecode=CABBTG05_4_2,Length=0.015000000,Units=km
new line.RML10068131 bus1=BBT1778726.3.0,bus2=RML1010068131.3.0,Phases=1,Linecode=CABBTG02_4_1,Length=0.007000000,Units=km
new line.RML10068151 bus1=BBT3459286.1.2.0,bus2=RML1010068151.1.2.0,Phases=2,Linecode=CABBTG05_4_2,Length=0.018000000,Units=km
new line.RML10070278 bus1=BBT1799950.1.2.0,bus2=RML1010070278.1.2.0,Phases=2,Linecode=CABBTG05_4_2,Length=0.017000000,Units=km
new line.RML10070564 bus1=BBT2004560.1.2.0,bus2=RML1010070564.1.2.0,Phases=2,Linecode=CABBTG05_4_2,Length=0.017000000,Units=km
new line.RML10070565 bus1=BBT1863209.1.3.0,bus2=RML1010070565.1.3.0,Phases=2,Linecode=CABBTG05_4_2,Length=0.017000000,Units=km
new line.RML10070566 bus1=BBT1863594.1.2.0,bus2=RML1010070566.1.2.0,Phases=2,Linecode=CABBTG05_4_2,Length=0.017000000,Units=km
new line.RML10070644 bus1=BBT1864161.1.2.0,bus2=RML1010070644.1.2.0,Phases=2,Linecode=CABBTG05_4_2,Length=0.017000000,Units=km
new line.RML10070645 bus1=BBT1863643.1.2.0,bus2=RML1010070645.1.2.0,Phases=2,Linecode=CABBTG05_4_2,Length=0.017000000,Units=km
new line.RML10070647 bus1=BBT1862824.1.2.0,bus2=RML1010070647.1.2.0,Phases=2,Linecode=CABBTG05_4_2,Length=0.017000000,Units=km
new line.RML10083116 bus1=BBT1756907.1.0,bus2=RML1010083116.1.0,Phases=1,Linecode=CABBTG02_4_1,Length=0.017000000,Units=km
new line.RML10083234 bus1=BBT2218942.1.0,bus2=RML1010083234.1.0,Phases=1,Linecode=CABBTG01_4_1,Length=0.010000000,Units=km
new line.RML10083254 bus1=BBT1758475.1.0,bus2=RML1010083254.1.0,Phases=1,Linecode=CABBTG01_4_1,Length=0.018000000,Units=km
new line.RML10083376 bus1=BBT1761331.1.2.3.0,bus2=RML1010083376.1.2.3.0,Phases=3,Linecode=CABBTG06_4_3,Length=0.008000000,Units=km
new line.RML10083390 bus1=BBT1785600.1.0,bus2=RML1010083390.1.0,Phases=1,Linecode=CABBTG02_4_1,Length=0.009000000,Units=km
new line.RML10083394 bus1=BBT1781526.2.0,bus2=RML1010083394.2.0,Phases=1,Linecode=CABBTG02_4_1,Length=0.008000000,Units=km
new line.RML10083479 bus1=BBT1776486.1.2.0,bus2=RML1010083479.1.2.0,Phases=2,Linecode=CABBTG05_4_2,Length=0.015000000,Units=km
new line.RML10083538 bus1=BBT148715452.1.2.0,bus2=RML1010083538.1.2.0,Phases=2,Linecode=CABBTG05_4_2,Length=0.017000000,Units=km
new line.RML10083889 bus1=BBT1774491.1.2.3.0,bus2=RML1010083889.1.2.3.0,Phases=3,Linecode=CABBTG06_4_3,Length=0.017000000,Units=km
new line.RML10083911 bus1=BBT1781246.1.2.0,bus2=RML1010083911.1.2.0,Phases=2,Linecode=CABBTG05_4_2,Length=0.017000000,Units=km
new line.RML10084821 bus1=BBT1766525.1.2.0,bus2=RML1010084821.1.2.0,Phases=2,Linecode=CABBTG04_4_2,Length=0.017000000,Units=km
new line.RML10084830 bus1=BBT1761912.1.2.0,bus2=RML1010084830.1.2.0,Phases=2,Linecode=CABBTG04_4_2,Length=0.017000000,Units=km
new line.RML10099983 bus1=BBT1775947.1.0,bus2=RML1010099983.1.0,Phases=1,Linecode=CABBTG02_4_1,Length=0.017000000,Units=km
new line.RML10100275 bus1=BBT3259716.1.2.0,bus2=RML1010100275.1.2.0,Phases=2,Linecode=CABBTG05_4_2,Length=0.017000000,Units=km
new line.RML10100419 bus1=BBT1745630.1.2.0,bus2=RML1010100419.1.2.0,Phases=2,Linecode=CABBTG05_4_2,Length=0.017000000,Units=km
new line.RML10101150 bus1=BBT1772342.1.2.0,bus2=RML1010101150.1.2.0,Phases=2,Linecode=CABBTG04_4_2,Length=0.017000000,Units=km
new line.RML10101153 bus1=BBT1775177.2.0,bus2=RML1010101153.2.0,Phases=1,Linecode=CABBTG01_4_1,Length=0.017000000,Units=km
new line.RML10101157 bus1=BBT1775296.1.0,bus2=RML1010101157.1.0,Phases=1,Linecode=CABBTG02_4_1,Length=0.017000000,Units=km
new line.RML10047057 bus1=BBT135618809.1.2.3.0,bus2=RML1010047057.1.2.3.0,Phases=3,Linecode=CABBTG12_4_3,Length=0.017000000,Units=km
new line.RML10048067 bus1=BBT1789926.1.2.0,bus2=RML1010048067.1.2.0,Phases=2,Linecode=CABBTG05_4_2,Length=0.015000000,Units=km
new line.RML10060972 bus1=BBT1784018.1.2.0,bus2=RML1010060972.1.2.0,Phases=2,Linecode=CABBTG05_4_2,Length=0.017000000,Units=km
new line.RML10061472 bus1=BBT1740296.1.2.0,bus2=RML1010061472.1.2.0,Phases=2,Linecode=CABBTG05_4_2,Length=0.017000000,Units=km
new line.RML10061473 bus1=BBT1782121.1.2.0,bus2=RML1010061473.1.2.0,Phases=2,Linecode=CABBTG05_4_2,Length=0.017000000,Units=km
new line.RML10061475 bus1=BBT1781491.1.2.0,bus2=RML1010061475.1.2.0,Phases=2,Linecode=CABBTG05_4_2,Length=0.017000000,Units=km
new line.RML10062068 bus1=BBT1775709.1.2.0,bus2=RML1010062068.1.2.0,Phases=2,Linecode=CABBTG05_4_2,Length=0.017000000,Units=km
new line.RML10062242 bus1=BBT1753666.1.2.0,bus2=RML1010062242.1.2.0,Phases=2,Linecode=CABBTG05_4_2,Length=0.017000000,Units=km
new line.RML10063147 bus1=BBT1768569.1.2.0,bus2=RML1010063147.1.2.0,Phases=2,Linecode=CABBTG05_4_2,Length=0.017000000,Units=km
new line.RML10063329 bus1=BBT1757698.1.2.0,bus2=RML1010063329.1.2.0,Phases=2,Linecode=CABBTG05_4_2,Length=0.010000000,Units=km
new line.RML10063371 bus1=BBT1750068.1.0,bus2=RML1010063371.1.0,Phases=1,Linecode=CABBTG02_4_1,Length=0.010000000,Units=km
new line.RML10063418 bus1=BBT1783395.1.0,bus2=RML1010063418.1.0,Phases=1,Linecode=CABBTG01_4_1,Length=0.017000000,Units=km
new line.RML10063471 bus1=BBT1861921.1.2.0,bus2=RML1010063471.1.2.0,Phases=2,Linecode=CABBTG05_4_2,Length=0.015000000,Units=km
new line.RML10063477 bus1=BBT2004560.1.2.0,bus2=RML1010063477.1.2.0,Phases=2,Linecode=CABBTG05_4_2,Length=0.010000000,Units=km
new line.RML10063482 bus1=BBT1747471.1.2.0,bus2=RML1010063482.1.2.0,Phases=2,Linecode=CABBTG05_4_2,Length=0.010000000,Units=km
new line.RML10063495 bus1=BBT146375926.1.2.0,bus2=RML1010063495.1.2.0,Phases=2,Linecode=CABBTG05_4_2,Length=0.020000000,Units=km
new line.RML10063526 bus1=BBT1739008.1.2.0,bus2=RML1010063526.1.2.0,Phases=2,Linecode=CABBTG05_4_2,Length=0.012000000,Units=km
new line.RML10063529 bus1=BBT2084164.1.2.0,bus2=RML1010063529.1.2.0,Phases=2,Linecode=CABBTG05_4_2,Length=0.013000000,Units=km
new line.RML10063605 bus1=BBT1864896.1.0,bus2=RML1010063605.1.0,Phases=1,Linecode=CABBTG01_4_1,Length=0.020000000,Units=km
new line.RML10092339 bus1=BBT2582767.1.0,bus2=RML1010092339.1.0,Phases=1,Linecode=CABBTG01_4_1,Length=0.015000000,Units=km
new line.RML10092686 bus1=BBT1761569.1.2.3.0,bus2=RML1010092686.1.2.3.0,Phases=3,Linecode=CABBTG06_4_3,Length=0.017000000,Units=km
new line.RML10092763 bus1=BBT1745266.2.3.0,bus2=RML1010092763.2.3.0,Phases=2,Linecode=CABBTG05_4_2,Length=0.017000000,Units=km
new line.RML10092838 bus1=BBT2213377.1.2.0,bus2=RML1010092838.1.2.0,Phases=2,Linecode=CABBTG05_4_2,Length=0.015000000,Units=km
new line.RML10092889 bus1=BBT1864546.1.2.0,bus2=RML1010092889.1.2.0,Phases=2,Linecode=CABBTG05_4_2,Length=0.008000000,Units=km
new line.RML10092904 bus1=BBT1782030.1.2.3.0,bus2=RML1010092904.1.2.3.0,Phases=3,Linecode=CABBTG07_4_3,Length=0.015000000,Units=km
new line.RML10094523 bus1=BBT148930061.1.2.3.0,bus2=RML1010094523.1.2.3.0,Phases=3,Linecode=CABBTG07_4_3,Length=0.017000000,Units=km
new line.RML10106507 bus1=BBT1747954.1.0,bus2=RML1010106507.1.0,Phases=1,Linecode=CABBTG02_4_1,Length=0.015000000,Units=km
new line.RML10106511 bus1=BBT1748318.1.0,bus2=RML1010106511.1.0,Phases=1,Linecode=CABBTG01_4_1,Length=0.010000000,Units=km
new line.RML10106517 bus1=BBT1795113.1.0,bus2=RML1010106517.1.0,Phases=1,Linecode=CABBTG02_4_1,Length=0.027000000,Units=km
new line.RML10106551 bus1=BBT3570096.2.3.0,bus2=RML1010106551.2.3.0,Phases=2,Linecode=CABBTG05_4_2,Length=0.017000000,Units=km
new line.RML10106558 bus1=BBT1747562.1.0,bus2=RML1010106558.1.0,Phases=1,Linecode=CABBTG02_4_1,Length=0.012000000,Units=km
new line.RML10106561 bus1=BBT1753736.1.0,bus2=RML1010106561.1.0,Phases=1,Linecode=CABBTG02_4_1,Length=0.010000000,Units=km
new line.RML10106566 bus1=BBT1767925.2.0,bus2=RML1010106566.2.0,Phases=1,Linecode=CABBTG02_4_1,Length=0.010000000,Units=km
new line.RML10106570 bus1=BBT1756683.1.0,bus2=RML1010106570.1.0,Phases=1,Linecode=CABBTG02_4_1,Length=0.017000000,Units=km
new line.RML10106576 bus1=BBT1861704.1.2.3.0,bus2=RML1010106576.1.2.3.0,Phases=3,Linecode=CABBTG06_4_3,Length=0.010000000,Units=km
new line.RML10106605 bus1=BBT1751692.1.2.3.0,bus2=RML1010106605.1.2.3.0,Phases=3,Linecode=CABBTG07_4_3,Length=0.025000000,Units=km
new line.RML10106756 bus1=BBT149092570.1.2.0,bus2=RML1010106756.1.2.0,Phases=2,Linecode=CABBTG05_4_2,Length=0.017000000,Units=km
new line.RML10107525 bus1=BBT1861627.1.2.3.0,bus2=RML1010107525.1.2.3.0,Phases=3,Linecode=CABBTG06_4_3,Length=0.010000000,Units=km
new line.RML10107531 bus1=BBT1861872.1.2.3.0,bus2=RML1010107531.1.2.3.0,Phases=3,Linecode=CABBTG06_4_3,Length=0.010000000,Units=km
new line.RML10107676 bus1=BBT1773980.1.2.3.0,bus2=RML1010107676.1.2.3.0,Phases=3,Linecode=CABBTG07_4_3,Length=0.016000000,Units=km
new line.RML10109078 bus1=BBT1737524.1.0,bus2=RML1010109078.1.0,Phases=1,Linecode=CABBTG02_4_1,Length=0.009000000,Units=km
new line.RML10109126 bus1=BBT1788428.1.0,bus2=RML1010109126.1.0,Phases=1,Linecode=CABBTG02_4_1,Length=0.017000000,Units=km
new line.RML10109282 bus1=BBT12894126.2.0,bus2=RML1010109282.2.0,Phases=1,Linecode=CABBTG02_4_1,Length=0.008000000,Units=km
new line.RML10109355 bus1=BBT1917627.2.0,bus2=RML1010109355.2.0,Phases=1,Linecode=CABBTG02_4_1,Length=0.017000000,Units=km
new line.RML10109407 bus1=BBT1755409.1.2.0,bus2=RML1010109407.1.2.0,Phases=2,Linecode=CABBTG05_4_2,Length=0.015000000,Units=km
new line.RML10109455 bus1=BBT1779496.1.2.0,bus2=RML1010109455.1.2.0,Phases=2,Linecode=CABBTG05_4_2,Length=0.010000000,Units=km
new line.RML10122123 bus1=BBT1751342.1.2.0,bus2=RML1010122123.1.2.0,Phases=2,Linecode=CABBTG05_4_2,Length=0.010000000,Units=km
new line.RML10123693 bus1=BBT1770592.1.2.3.0,bus2=RML1010123693.1.2.3.0,Phases=3,Linecode=CABBTG06_4_3,Length=0.017000000,Units=km
new line.RML10123829 bus1=BBT1755276.1.3.0,bus2=RML1010123829.1.3.0,Phases=2,Linecode=CABBTG05_4_2,Length=0.017000000,Units=km
new line.RML10123862 bus1=BBT1746519.1.2.0,bus2=RML1010123862.1.2.0,Phases=2,Linecode=CABBTG05_4_2,Length=0.017000000,Units=km
new line.RML10151830 bus1=BBT1776199.2.3.0,bus2=RML1010151830.2.3.0,Phases=2,Linecode=CABBTG05_4_2,Length=0.017000000,Units=km
new line.RML10151934 bus1=BBT1792824.1.2.0,bus2=RML1010151934.1.2.0,Phases=2,Linecode=CABBTG05_4_2,Length=0.008000000,Units=km
new line.RML10152086 bus1=BBT1863272.1.2.3.0,bus2=RML1010152086.1.2.3.0,Phases=3,Linecode=CABBTG06_4_3,Length=0.017000000,Units=km
new line.RML10152406 bus1=BBT1777942.1.2.0,bus2=RML1010152406.1.2.0,Phases=2,Linecode=CABBTG05_4_2,Length=0.017000000,Units=km
new line.RML10152412 bus1=BBT3595310.2.0,bus2=RML1010152412.2.0,Phases=1,Linecode=CABBTG01_4_1,Length=0.010000000,Units=km
new line.RML10152520 bus1=BBT1746792.1.2.0,bus2=RML1010152520.1.2.0,Phases=2,Linecode=CABBTG05_4_2,Length=0.025000000,Units=km
new line.RML10152546 bus1=BBT1863160.1.2.3.0,bus2=RML1010152546.1.2.3.0,Phases=3,Linecode=CABBTG06_4_3,Length=0.012000000,Units=km
new line.RML10101167 bus1=BBT1750621.1.0,bus2=RML1010101167.1.0,Phases=1,Linecode=CABBTG01_4_1,Length=0.017000000,Units=km
new line.RML10101172 bus1=BBT1789170.1.2.0,bus2=RML1010101172.1.2.0,Phases=2,Linecode=CABBTG05_4_2,Length=0.017000000,Units=km
new line.RML10115362 bus1=BBT1761968.1.2.3.0,bus2=RML1010115362.1.2.3.0,Phases=3,Linecode=CABBTG06_4_3,Length=0.017000000,Units=km
new line.RML10115366 bus1=BBT1761163.1.2.0,bus2=RML1010115366.1.2.0,Phases=2,Linecode=CABBTG05_4_2,Length=0.017000000,Units=km
new line.RML10115367 bus1=BBT1762066.1.0,bus2=RML1010115367.1.0,Phases=1,Linecode=CABBTG01_4_1,Length=0.017000000,Units=km
new line.RML10115369 bus1=BBT1764845.1.0,bus2=RML1010115369.1.0,Phases=1,Linecode=CABBTG02_4_1,Length=0.017000000,Units=km
new line.RML10115370 bus1=BBT1764649.1.2.0,bus2=RML1010115370.1.2.0,Phases=2,Linecode=CABBTG05_4_2,Length=0.017000000,Units=km
new line.RML10115373 bus1=BBT1766252.1.2.0,bus2=RML1010115373.1.2.0,Phases=2,Linecode=CABBTG05_4_2,Length=0.017000000,Units=km
new line.RML10115440 bus1=BBT1766231.1.2.0,bus2=RML1010115440.1.2.0,Phases=2,Linecode=CABBTG05_4_2,Length=0.017000000,Units=km
new line.RML10116358 bus1=BBT1866422.1.0,bus2=RML1010116358.1.0,Phases=1,Linecode=CABBTG01_4_1,Length=0.017000000,Units=km
new line.RML10117289 bus1=BBT1736411.2.0,bus2=RML1010117289.2.0,Phases=1,Linecode=CABBTG02_4_1,Length=0.012000000,Units=km
new line.RML10117445 bus1=BBT1759959.1.2.0,bus2=RML1010117445.1.2.0,Phases=2,Linecode=CABBTG05_4_2,Length=0.010000000,Units=km
new line.RML10125975 bus1=BBT1770221.1.2.0,bus2=RML1010125975.1.2.0,Phases=2,Linecode=CABBTG05_4_2,Length=0.017000000,Units=km
new line.RML10126111 bus1=BBT3081818.2.3.0,bus2=RML1010126111.2.3.0,Phases=2,Linecode=CABBTG05_4_2,Length=0.017000000,Units=km
new line.RML10126129 bus1=BBT1778075.1.0,bus2=RML1010126129.1.0,Phases=1,Linecode=CABBTG01_4_1,Length=0.017000000,Units=km
new line.RML10126160 bus1=BBT1779930.1.2.0,bus2=RML1010126160.1.2.0,Phases=2,Linecode=CABBTG05_4_2,Length=0.017000000,Units=km
new line.RML10126191 bus1=BBT1771005.2.0,bus2=RML1010126191.2.0,Phases=1,Linecode=CABBTG02_4_1,Length=0.017000000,Units=km
new line.RML10126204 bus1=BBT1762066.2.0,bus2=RML1010126204.2.0,Phases=1,Linecode=CABBTG02_4_1,Length=0.017000000,Units=km
new line.RML10126213 bus1=BBT1764866.1.2.0,bus2=RML1010126213.1.2.0,Phases=2,Linecode=CABBTG05_4_2,Length=0.017000000,Units=km
new line.RML10126220 bus1=BBT1773966.1.2.0,bus2=RML1010126220.1.2.0,Phases=2,Linecode=CABBTG05_4_2,Length=0.017000000,Units=km
new line.RML10126254 bus1=BBT1737678.1.2.0,bus2=RML1010126254.1.2.0,Phases=2,Linecode=CABBTG05_4_2,Length=0.017000000,Units=km
new line.RML10126266 bus1=BBT1737153.1.2.0,bus2=RML1010126266.1.2.0,Phases=2,Linecode=CABBTG04_4_2,Length=0.017000000,Units=km
new line.RML10126280 bus1=BBT1738336.1.0,bus2=RML1010126280.1.0,Phases=1,Linecode=CABBTG02_4_1,Length=0.017000000,Units=km
new line.RML10126753 bus1=BBT1765629.2.3.0,bus2=RML1010126753.2.3.0,Phases=2,Linecode=CABBTG05_4_2,Length=0.017000000,Units=km
new line.RML10126758 bus1=BBT1765650.1.2.0,bus2=RML1010126758.1.2.0,Phases=2,Linecode=CABBTG05_4_2,Length=0.017000000,Units=km
new line.RML10127203 bus1=BBT1781260.2.3.0,bus2=RML1010127203.2.3.0,Phases=2,Linecode=CABBTG05_4_2,Length=0.017000000,Units=km
new line.RML10127207 bus1=BBT1782023.1.2.0,bus2=RML1010127207.1.2.0,Phases=2,Linecode=CABBTG05_4_2,Length=0.017000000,Units=km
new line.RML10129447 bus1=BBT1862194.1.2.3.0,bus2=RML1010129447.1.2.3.0,Phases=3,Linecode=CABBTG12_4_3,Length=0.010000000,Units=km
new line.RML10129566 bus1=BBT1775961.1.0,bus2=RML1010129566.1.0,Phases=1,Linecode=CABBTG02_4_1,Length=0.010000000,Units=km
new line.RML10145309 bus1=BBT1766959.1.2.0,bus2=RML1010145309.1.2.0,Phases=2,Linecode=CABBTG05_4_2,Length=0.017000000,Units=km
new line.RML10145313 bus1=BBT2208456.1.0,bus2=RML1010145313.1.0,Phases=1,Linecode=CABBTG01_4_1,Length=0.017000000,Units=km
new line.RML10157777 bus1=BBT1759602.1.0,bus2=RML1010157777.1.0,Phases=1,Linecode=CABBTG02_4_1,Length=0.017000000,Units=km
new line.RML10157802 bus1=BBT1757509.1.0,bus2=RML1010157802.1.0,Phases=1,Linecode=CABBTG02_4_1,Length=0.017000000,Units=km
new line.RML10157969 bus1=BBT1755395.1.0,bus2=RML1010157969.1.0,Phases=1,Linecode=CABBTG02_4_1,Length=0.017000000,Units=km
new line.RML10157971 bus1=BBT1756543.1.0,bus2=RML1010157971.1.0,Phases=1,Linecode=CABBTG02_4_1,Length=0.017000000,Units=km
new line.RML10158007 bus1=BBT1752994.1.0,bus2=RML1010158007.1.0,Phases=1,Linecode=CABBTG02_4_1,Length=0.017000000,Units=km
new line.RML10158547 bus1=BBT1792656.1.2.0,bus2=RML1010158547.1.2.0,Phases=2,Linecode=CABBTG05_4_2,Length=0.017000000,Units=km
new line.RML10158598 bus1=BBT1749830.1.2.0,bus2=RML1010158598.1.2.0,Phases=2,Linecode=CABBTG05_4_2,Length=0.017000000,Units=km
new line.RML10158804 bus1=BBT1749998.1.2.0,bus2=RML1010158804.1.2.0,Phases=2,Linecode=CABBTG05_4_2,Length=0.017000000,Units=km
new line.RML10158941 bus1=BBT1750964.1.2.0,bus2=RML1010158941.1.2.0,Phases=2,Linecode=CABBTG05_4_2,Length=0.017000000,Units=km
new line.RML10159110 bus1=BBT2173617.1.2.0,bus2=RML1010159110.1.2.0,Phases=2,Linecode=CABBTG05_4_2,Length=0.017000000,Units=km
new line.RML10159120 bus1=BBT3703194.1.2.0,bus2=RML1010159120.1.2.0,Phases=2,Linecode=CABBTG05_4_2,Length=0.017000000,Units=km
new line.RML10159127 bus1=BBT1748332.1.2.0,bus2=RML1010159127.1.2.0,Phases=2,Linecode=CABBTG05_4_2,Length=0.017000000,Units=km
new line.RML10159153 bus1=BBT77603215.1.2.0,bus2=RML1010159153.1.2.0,Phases=2,Linecode=CABBTG05_4_2,Length=0.017000000,Units=km
new line.RML10159161 bus1=BBT1797640.1.2.0,bus2=RML1010159161.1.2.0,Phases=2,Linecode=CABBTG05_4_2,Length=0.017000000,Units=km
new line.RML10159210 bus1=BBT119568628.1.2.0,bus2=RML1010159210.1.2.0,Phases=2,Linecode=CABBTG05_4_2,Length=0.017000000,Units=km
new line.RML10159212 bus1=BBT119596761.1.2.0,bus2=RML1010159212.1.2.0,Phases=2,Linecode=CABBTG05_4_2,Length=0.017000000,Units=km
new line.RML10159215 bus1=BBT119592246.1.2.0,bus2=RML1010159215.1.2.0,Phases=2,Linecode=CABBTG05_4_2,Length=0.017000000,Units=km
new line.RML10159236 bus1=BBT1797955.1.2.0,bus2=RML1010159236.1.2.0,Phases=2,Linecode=CABBTG05_4_2,Length=0.017000000,Units=km
new line.RML10159970 bus1=BBT1783010.3.0,bus2=RML1010159970.3.0,Phases=1,Linecode=CABBTG02_4_1,Length=0.017000000,Units=km
new line.RML10159971 bus1=BBT1786538.3.0,bus2=RML1010159971.3.0,Phases=1,Linecode=CABBTG02_4_1,Length=0.017000000,Units=km
new line.RML10159975 bus1=BBT1786244.1.2.0,bus2=RML1010159975.1.2.0,Phases=2,Linecode=CABBTG05_4_2,Length=0.017000000,Units=km
new line.RML10159979 bus1=BBT1786762.1.2.0,bus2=RML1010159979.1.2.0,Phases=2,Linecode=CABBTG05_4_2,Length=0.017000000,Units=km
new line.RML10173152 bus1=BBT2531618.1.0,bus2=RML1010173152.1.0,Phases=1,Linecode=CABBTG02_4_1,Length=0.017000000,Units=km
new line.RML10174025 bus1=BBT12890801.1.0,bus2=RML1010174025.1.0,Phases=1,Linecode=CABBTG02_4_1,Length=0.017000000,Units=km
new line.RML10174124 bus1=BBT3596136.1.2.0,bus2=RML1010174124.1.2.0,Phases=2,Linecode=CABBTG05_4_2,Length=0.012000000,Units=km
new line.RML10174189 bus1=BBT1791900.1.0,bus2=RML1010174189.1.0,Phases=1,Linecode=CABBTG02_4_1,Length=0.017000000,Units=km
new line.RML10082709 bus1=BBT1786398.1.0,bus2=RML1010082709.1.0,Phases=1,Linecode=CABBTG02_4_1,Length=0.020000000,Units=km
new line.RML10082722 bus1=BBT1753715.1.2.0,bus2=RML1010082722.1.2.0,Phases=2,Linecode=CABBTG05_4_2,Length=0.017000000,Units=km
new line.RML10082844 bus1=BBT2175780.1.2.0,bus2=RML1010082844.1.2.0,Phases=2,Linecode=CABBTG05_4_2,Length=0.017000000,Units=km
new line.RML10083001 bus1=BBT3045705.1.2.0,bus2=RML1010083001.1.2.0,Phases=2,Linecode=CABBTG05_4_2,Length=0.017000000,Units=km
new line.RML10083003 bus1=BBT148456773.1.0,bus2=RML1010083003.1.0,Phases=1,Linecode=CABBTG02_4_1,Length=0.011000000,Units=km
new line.RML10096705 bus1=BBT1782814.1.2.0,bus2=RML1010096705.1.2.0,Phases=2,Linecode=CABBTG04_4_2,Length=0.017000000,Units=km
new line.RML10097585 bus1=BBT1864665.1.2.0,bus2=RML1010097585.1.2.0,Phases=2,Linecode=CABBTG05_4_2,Length=0.017000000,Units=km
new line.RML10113786 bus1=BBT1765608.1.2.0,bus2=RML1010113786.1.2.0,Phases=2,Linecode=CABBTG05_4_2,Length=0.017000000,Units=km
new line.RML10113803 bus1=BBT1745056.1.2.0,bus2=RML1010113803.1.2.0,Phases=2,Linecode=CABBTG05_4_2,Length=0.017000000,Units=km