new line.SBT_10002474 bus1=148243337.1.2.3.0,bus2=148243338.1.2.3.0,Phases=3,Linecode=BT514_BT514_7_3_1_3,Length=0.000501000,Units=km
new line.SBT_10010643 bus1=145366694.1.2.0,bus2=145366701.1.2.0,Phases=2,Linecode=BT518_BT518_7_2_1_2,Length=0.000501000,Units=km
new line.SBT_10024734 bus1=145790775.1.2.0,bus2=145790782.1.2.0,Phases=2,Linecode=BT518_BT518_7_2_1_2,Length=0.000501000,Units=km
new line.SBT_10049038 bus1=151230000.1.2.0,bus2=151230001.1.2.0,Phases=2,Linecode=BT518_BT518_7_2_1_2,Length=0.000507000,Units=km
new line.SBT_10100054 bus1=377279.1.2.3.0,bus2=147895115.1.2.3.0,Phases=3,Linecode=BT803_BT803_4_3_4_3,Length=0.030029000,Units=km
new line.SBT_18689558 bus1=148753928.1.2.0,bus2=148753929.1.2.0,Phases=2,Linecode=BT518_BT518_7_2_1_2,Length=0.000521000,Units=km
new line.SBT_18691410 bus1=148298554.1.2.3.0,bus2=377398.1.2.3.0,Phases=3,Linecode=BT518_BT518_7_3_1_3,Length=0.000501000,Units=km
new line.SBT_18692733 bus1=149777532.1.2.0,bus2=149777533.1.2.0,Phases=2,Linecode=BT518_BT518_7_2_1_2,Length=0.000501000,Units=km
new line.SBT_18695286 bus1=149261072.1.2.0,bus2=149261073.1.2.0,Phases=2,Linecode=BT518_BT518_7_2_1_2,Length=0.000501000,Units=km
new line.SBT_18695321 bus1=149115085.1.2.0,bus2=149115086.1.2.0,Phases=2,Linecode=BT518_BT518_7_2_1_2,Length=0.000508000,Units=km
new line.SBT_18696285 bus1=149114571.1.2.0,bus2=149114572.1.2.0,Phases=2,Linecode=BT518_BT518_7_2_1_2,Length=0.000501000,Units=km
new line.SBT_18700025 bus1=149153863.1.2.0,bus2=149153864.1.2.0,Phases=2,Linecode=BT518_BT518_7_2_1_2,Length=0.000501000,Units=km
new line.SBT_18704021 bus1=3629542.1.2.3.0,bus2=149910155.1.2.3.0,Phases=3,Linecode=BT803_BT803_4_3_4_3,Length=0.039829000,Units=km
new line.SBT_18704022 bus1=149910155.1.2.3.0,bus2=149910156.1.2.3.0,Phases=3,Linecode=BT803_BT803_4_3_4_3,Length=0.036689000,Units=km
new line.SBT_18706254 bus1=148741356.1.2.0,bus2=148741357.1.2.0,Phases=2,Linecode=BT518_BT518_7_2_1_2,Length=0.000501000,Units=km
new line.SBT_18715922 bus1=469035.1.2.0,bus2=149009121.1.2.0,Phases=2,Linecode=BT808_BT808_4_2_3_2,Length=0.012048000,Units=km
new line.SBT_18721756 bus1=3125059.1.2.3.0,bus2=149166333.1.2.3.0,Phases=3,Linecode=BT810_BT810_4_3_4_3,Length=0.019434000,Units=km
new line.SBT_18734580 bus1=150654362.1.2.3.0,bus2=150654363.1.2.3.0,Phases=3,Linecode=BT518_BT518_7_3_1_3,Length=0.000504000,Units=km
new line.SBT_18740448 bus1=98491467.1.2.3.0,bus2=149697696.1.2.3.0,Phases=3,Linecode=BT803_BT803_4_3_4_3,Length=0.032278000,Units=km
new line.SBT_18740449 bus1=149697696.1.2.3.0,bus2=149697716.1.2.3.0,Phases=3,Linecode=BT803_BT803_4_3_4_3,Length=0.035373000,Units=km
new line.SBT_18740450 bus1=149697716.1.2.3.0,bus2=149697769.1.2.3.0,Phases=3,Linecode=BT803_BT803_4_3_4_3,Length=0.030031000,Units=km
new line.SBT_18740451 bus1=149697769.1.2.3.0,bus2=149697780.1.2.3.0,Phases=3,Linecode=BT803_BT803_4_3_4_3,Length=0.033137000,Units=km
new line.SBT_18740452 bus1=149697780.1.2.3.0,bus2=149697881.1.2.3.0,Phases=3,Linecode=BT803_BT803_4_3_4_3,Length=0.038488000,Units=km
new line.SBT_18741795 bus1=151157988.1.2.3.0,bus2=151157989.1.2.3.0,Phases=3,Linecode=BT518_BT518_7_3_1_3,Length=0.000501000,Units=km
new line.SBT_18741796 bus1=151158004.1.2.3.0,bus2=151158005.1.2.3.0,Phases=3,Linecode=BT518_BT518_7_3_1_3,Length=0.000501000,Units=km
new line.SBT_18741798 bus1=151158022.1.2.3.0,bus2=151158023.1.2.3.0,Phases=3,Linecode=BT518_BT518_7_3_1_3,Length=0.000501000,Units=km
new line.SBT_18741812 bus1=151158160.1.2.3.0,bus2=151158161.1.2.3.0,Phases=3,Linecode=BT518_BT518_7_3_1_3,Length=0.000501000,Units=km
new line.SBT_18741844 bus1=151158005.1.2.3.0,bus2=151158192.1.2.3.0,Phases=3,Linecode=BT803_BT803_4_3_4_3,Length=0.039067000,Units=km
new line.SBT_18741845 bus1=151158192.1.2.3.0,bus2=151158196.1.2.3.0,Phases=3,Linecode=BT803_BT803_4_3_4_3,Length=0.037658000,Units=km
new line.SBT_18741846 bus1=151158196.1.2.3.0,bus2=151158197.1.2.3.0,Phases=3,Linecode=BT803_BT803_4_3_4_3,Length=0.034073000,Units=km
new line.SBT_18741847 bus1=151158005.1.2.3.0,bus2=151158198.1.2.3.0,Phases=3,Linecode=BT803_BT803_4_3_4_3,Length=0.035483000,Units=km
new line.SBT_18741848 bus1=151158198.1.2.3.0,bus2=151158199.1.2.3.0,Phases=3,Linecode=BT803_BT803_4_3_4_3,Length=0.030245000,Units=km
new line.SBT_18741849 bus1=151158199.1.2.3.0,bus2=151158200.1.2.3.0,Phases=3,Linecode=BT803_BT803_4_3_4_3,Length=0.028029000,Units=km
new line.SBT_18741850 bus1=151158198.1.2.3.0,bus2=151158201.1.2.3.0,Phases=3,Linecode=BT803_BT803_4_3_4_3,Length=0.025818000,Units=km
new line.SBT_18741851 bus1=151158201.1.2.3.0,bus2=151158202.1.2.3.0,Phases=3,Linecode=BT803_BT803_4_3_4_3,Length=0.025818000,Units=km
new line.SBT_18741855 bus1=151158202.1.2.3.0,bus2=151158203.1.2.3.0,Phases=3,Linecode=BT803_BT803_4_3_4_3,Length=0.025010000,Units=km
new line.SBT_18741858 bus1=151158023.1.2.3.0,bus2=151158204.1.2.3.0,Phases=3,Linecode=BT803_BT803_4_3_4_3,Length=0.033315000,Units=km
new line.SBT_18741860 bus1=151158204.1.2.3.0,bus2=151158205.1.2.3.0,Phases=3,Linecode=BT803_BT803_4_3_4_3,Length=0.037552000,Units=km
new line.SBT_18741863 bus1=151158205.1.2.3.0,bus2=151158206.1.2.3.0,Phases=3,Linecode=BT803_BT803_4_3_4_3,Length=0.025818000,Units=km
new line.SBT_18741865 bus1=151158205.1.2.3.0,bus2=151158207.1.2.3.0,Phases=3,Linecode=BT803_BT803_4_3_4_3,Length=0.020817000,Units=km
new line.SBT_18741867 bus1=151158207.1.2.3.0,bus2=151158211.1.2.3.0,Phases=3,Linecode=BT803_BT803_4_3_4_3,Length=0.031636000,Units=km
new line.SBT_18741868 bus1=151158023.1.2.3.0,bus2=151158212.1.2.3.0,Phases=3,Linecode=BT803_BT803_4_3_4_3,Length=0.039715000,Units=km
new line.SBT_18741870 bus1=151158212.1.2.3.0,bus2=151158213.1.2.3.0,Phases=3,Linecode=BT803_BT803_4_3_4_3,Length=0.039715000,Units=km
new line.SBT_18741871 bus1=151158213.1.2.3.0,bus2=151158214.1.2.3.0,Phases=3,Linecode=BT803_BT803_4_3_4_3,Length=0.034727000,Units=km
new line.SBT_18741872 bus1=151157989.1.2.3.0,bus2=151158215.1.2.3.0,Phases=3,Linecode=BT803_BT803_4_3_4_3,Length=0.034727000,Units=km
new line.SBT_18741873 bus1=151158215.1.2.3.0,bus2=151158216.1.2.3.0,Phases=3,Linecode=BT803_BT803_4_3_4_3,Length=0.033315000,Units=km
new line.SBT_18741874 bus1=151158216.1.2.3.0,bus2=151158217.1.2.3.0,Phases=3,Linecode=BT803_BT803_4_3_4_3,Length=0.035071000,Units=km
new line.SBT_18741875 bus1=151158217.1.2.3.0,bus2=151158218.1.2.3.0,Phases=3,Linecode=BT803_BT803_4_3_4_3,Length=0.029029000,Units=km
new line.SBT_18741876 bus1=151158217.1.2.3.0,bus2=151158219.1.2.3.0,Phases=3,Linecode=BT803_BT803_4_3_4_3,Length=0.029012000,Units=km
new line.SBT_18741878 bus1=151158219.1.2.3.0,bus2=151158220.1.2.3.0,Phases=3,Linecode=BT803_BT803_4_3_4_3,Length=0.025010000,Units=km
new line.SBT_18741880 bus1=151157989.1.2.3.0,bus2=151158221.1.2.3.0,Phases=3,Linecode=BT803_BT803_4_3_4_3,Length=0.033315000,Units=km
new line.SBT_18741881 bus1=151158221.1.2.3.0,bus2=151158222.1.2.3.0,Phases=3,Linecode=BT803_BT803_4_3_4_3,Length=0.034727000,Units=km
new line.SBT_18741882 bus1=151158222.1.2.3.0,bus2=151158223.1.2.3.0,Phases=3,Linecode=BT803_BT803_4_3_4_3,Length=0.034727000,Units=km
new line.SBT_18741883 bus1=151158161.1.2.3.0,bus2=151158224.1.2.3.0,Phases=3,Linecode=BT803_BT803_4_3_4_3,Length=0.040328000,Units=km
new line.SBT_18741884 bus1=151158224.1.2.3.0,bus2=151158229.1.2.3.0,Phases=3,Linecode=BT803_BT803_4_3_4_3,Length=0.039639000,Units=km
new line.SBT_18741885 bus1=151158229.1.2.3.0,bus2=151158230.1.2.3.0,Phases=3,Linecode=BT803_BT803_4_3_4_3,Length=0.039614000,Units=km
new line.SBT_18741886 bus1=151158230.1.2.3.0,bus2=151158231.1.2.3.0,Phases=3,Linecode=BT803_BT803_4_3_4_3,Length=0.040328000,Units=km
new line.SBT_18741888 bus1=151158161.1.2.3.0,bus2=151158232.1.2.3.0,Phases=3,Linecode=BT803_BT803_4_3_4_3,Length=0.040377000,Units=km
new line.SBT_18741889 bus1=151158232.1.2.3.0,bus2=151158233.1.2.3.0,Phases=3,Linecode=BT803_BT803_4_3_4_3,Length=0.039067000,Units=km
new line.SBT_18741890 bus1=151158232.1.2.3.0,bus2=151158234.1.2.3.0,Phases=3,Linecode=BT803_BT803_4_3_4_3,Length=0.031077000,Units=km
new line.SBT_18741891 bus1=151158234.1.2.3.0,bus2=151158235.1.2.3.0,Phases=3,Linecode=BT803_BT803_4_3_4_3,Length=0.028314000,Units=km
new line.SBT_18741892 bus1=151158235.1.2.3.0,bus2=151158236.1.2.3.0,Phases=3,Linecode=BT803_BT803_4_3_4_3,Length=0.026937000,Units=km
new line.SBT_18741893 bus1=151158236.1.2.3.0,bus2=151158237.1.2.3.0,Phases=3,Linecode=BT803_BT803_4_3_4_3,Length=0.029167000,Units=km
new line.SBT_18744501 bus1=149799136.1.2.0,bus2=149799137.1.2.0,Phases=2,Linecode=BT518_BT518_7_2_1_2,Length=0.000501000,Units=km
new line.SBT_18749880 bus1=151940478.1.2.3.0,bus2=151940479.1.2.3.0,Phases=3,Linecode=BT518_BT518_7_3_1_3,Length=0.000501000,Units=km
new line.SBT_18749883 bus1=151940479.1.2.3.0,bus2=151940480.1.2.3.0,Phases=3,Linecode=BT803_BT803_4_3_4_3,Length=0.030883000,Units=km
new line.SBT_18749885 bus1=151940480.1.2.3.0,bus2=151940481.1.2.3.0,Phases=3,Linecode=BT803_BT803_4_3_4_3,Length=0.028437000,Units=km
new line.SBT_18749888 bus1=151940480.1.2.3.0,bus2=151940482.1.2.3.0,Phases=3,Linecode=BT803_BT803_4_3_4_3,Length=0.051683000,Units=km
new line.SBT_18749890 bus1=151940482.1.2.3.0,bus2=151940483.1.2.3.0,Phases=3,Linecode=BT803_BT803_4_3_4_3,Length=0.038486000,Units=km
new line.SBT_18749893 bus1=151940483.1.2.3.0,bus2=151940484.1.2.3.0,Phases=3,Linecode=BT803_BT803_4_3_4_3,Length=0.033435000,Units=km
new line.SBT_18749894 bus1=151940479.1.2.3.0,bus2=151940485.1.2.3.0,Phases=3,Linecode=BT803_BT803_4_3_4_3,Length=0.034842000,Units=km
new line.SBT_18749895 bus1=151940485.1.2.3.0,bus2=151940486.1.2.3.0,Phases=3,Linecode=BT803_BT803_4_3_4_3,Length=0.039067000,Units=km
new line.SBT_18749896 bus1=151940486.1.2.3.0,bus2=151940487.1.2.3.0,Phases=3,Linecode=BT803_BT803_4_3_4_3,Length=0.041248000,Units=km
new line.SBT_18749921 bus1=151940487.1.2.3.0,bus2=151940506.1.2.3.0,Phases=3,Linecode=BT803_BT803_4_3_4_3,Length=0.038434000,Units=km
new line.SBT_18761195 bus1=377979.1.2.3.0,bus2=377972.1.2.3.0,Phases=3,Linecode=BT803_BT803_4_3_4_3,Length=0.034146000,Units=km
new line.SBT_18761306 bus1=150255233.1.2.3.0,bus2=150255234.1.2.3.0,Phases=3,Linecode=BT518_BT518_7_3_1_3,Length=0.000501000,Units=km
new line.SBT_18761316 bus1=150255376.1.2.3.0,bus2=150255377.1.2.3.0,Phases=3,Linecode=BT518_BT518_7_3_1_3,Length=0.000501000,Units=km
new line.SBT_18762821 bus1=3125087.1.2.3.0,bus2=150360316.1.2.3.0,Phases=3,Linecode=BT803_BT803_4_3_4_3,Length=0.018044000,Units=km
new line.SBT_18768681 bus1=150518980.1.2.0,bus2=150518981.1.2.0,Phases=2,Linecode=BT518_BT518_7_2_1_2,Length=0.000501000,Units=km
new line.SBT_18782925 bus1=150961967.1.2.0,bus2=150961968.1.2.0,Phases=2,Linecode=BT518_BT518_7_2_1_2,Length=0.000501000,Units=km
new line.SBT_18792492 bus1=3529491.1.2.0,bus2=151232094.1.2.0,Phases=2,Linecode=BT808_BT808_4_2_3_2,Length=0.023269000,Units=km
new line.SBT_18792493 bus1=151232094.1.2.0,bus2=151232102.1.2.0,Phases=2,Linecode=BT808_BT808_4_2_3_2,Length=0.045102000,Units=km
new line.SBT_18799177 bus1=375270.1.2.0,bus2=151446728.1.2.0,Phases=2,Linecode=BT807_BT807_4_2_3_2,Length=0.035072000,Units=km
new line.SBT_18805808 bus1=151654039.1.2.0,bus2=151654040.1.2.0,Phases=2,Linecode=BT518_BT518_7_2_1_2,Length=0.000501000,Units=km
new line.SBT_18806057 bus1=151658572.1.2.0,bus2=151658573.1.2.0,Phases=2,Linecode=BT518_BT518_7_2_1_2,Length=0.000503000,Units=km
new line.SBT_18809827 bus1=151762070.1.2.0,bus2=151762071.1.2.0,Phases=2,Linecode=BT518_BT518_7_2_1_2,Length=0.000502000,Units=km
new line.SBT_18810236 bus1=151777339.1.2.0,bus2=151777340.1.2.0,Phases=2,Linecode=BT518_BT518_7_2_1_2,Length=0.000504000,Units=km
new line.SBT_18816000 bus1=151975894.1.2.3.0,bus2=151975895.1.2.3.0,Phases=3,Linecode=BT518_BT518_7_3_1_3,Length=0.000501000,Units=km
new line.SBT_18816008 bus1=151975895.1.2.3.0,bus2=151975901.1.2.3.0,Phases=3,Linecode=BT803_BT803_4_3_4_3,Length=0.026412000,Units=km
new line.SBT_18816010 bus1=151975901.1.2.3.0,bus2=151975903.1.2.3.0,Phases=3,Linecode=BT803_BT803_4_3_4_3,Length=0.035185000,Units=km
new line.SBT_18816011 bus1=151975901.1.2.3.0,bus2=151975904.1.2.3.0,Phases=3,Linecode=BT803_BT803_4_3_4_3,Length=0.049213000,Units=km
new line.SBT_18816012 bus1=151975904.1.2.3.0,bus2=151975905.1.2.3.0,Phases=3,Linecode=BT803_BT803_4_3_4_3,Length=0.037658000,Units=km
new line.SBT_18816015 bus1=151975895.1.2.3.0,bus2=151975986.1.2.3.0,Phases=3,Linecode=BT803_BT803_4_3_4_3,Length=0.024423000,Units=km
new line.SBT_18816016 bus1=151975986.1.2.3.0,bus2=151975998.1.2.3.0,Phases=3,Linecode=BT803_BT803_4_3_4_3,Length=0.019425000,Units=km
new line.SBT_18816017 bus1=151975986.1.2.3.0,bus2=151976002.1.2.3.0,Phases=3,Linecode=BT803_BT803_4_3_4_3,Length=0.040328000,Units=km
new line.SBT_18816032 bus1=151976002.1.2.3.0,bus2=151976226.1.2.3.0,Phases=3,Linecode=BT803_BT803_4_3_4_3,Length=0.027030000,Units=km
new line.SBT_18817066 bus1=151940485.1.2.3.0,bus2=152007006.1.2.3.0,Phases=3,Linecode=BT803_BT803_4_3_4_3,Length=0.026011000,Units=km
new line.SBT_18817067 bus1=152007006.1.2.3.0,bus2=152007007.1.2.3.0,Phases=3,Linecode=BT803_BT803_4_3_4_3,Length=0.029423000,Units=km
new line.SBT_18817068 bus1=152007007.1.2.3.0,bus2=152007008.1.2.3.0,Phases=3,Linecode=BT803_BT803_4_3_4_3,Length=0.038913000,Units=km
new line.SBT_18817069 bus1=152007008.1.2.3.0,bus2=152007016.1.2.3.0,Phases=3,Linecode=BT803_BT803_4_3_4_3,Length=0.034219000,Units=km
new line.SBT_18817083 bus1=151975986.1.2.3.0,bus2=152007316.1.2.3.0,Phases=3,Linecode=BT803_BT803_4_3_4_3,Length=0.041694000,Units=km
new line.SBT_18817084 bus1=152007316.1.2.3.0,bus2=152007317.1.2.3.0,Phases=3,Linecode=BT803_BT803_4_3_4_3,Length=0.038094000,Units=km
new line.SBT_18817533 bus1=152021484.1.2.0,bus2=152021485.1.2.0,Phases=2,Linecode=BT518_BT518_7_2_1_2,Length=0.000516000,Units=km
new line.SBT_18861194 bus1=489741.1.2.0,bus2=153287032.1.2.0,Phases=2,Linecode=BT808_BT808_4_2_3_2,Length=0.034156000,Units=km
new line.SBT_18861195 bus1=153287032.1.2.0,bus2=153287033.1.2.0,Phases=2,Linecode=BT808_BT808_4_2_3_2,Length=0.039635000,Units=km
new line.SBT_18861197 bus1=153287033.1.2.0,bus2=153287044.1.2.0,Phases=2,Linecode=BT808_BT808_4_2_3_2,Length=0.029238000,Units=km
new line.SBT_18865169 bus1=153390377.1.2.0,bus2=153390378.1.2.0,Phases=2,Linecode=BT513_BT513_7_2_1_2,Length=0.000502000,Units=km
new line.SBT_18881331 bus1=153849983.1.2.0,bus2=153849984.1.2.0,Phases=2,Linecode=BT518_BT518_7_2_1_2,Length=0.000501000,Units=km
new line.SBT_18883300 bus1=153922473.1.2.0,bus2=153922474.1.2.0,Phases=2,Linecode=BT518_BT518_7_2_1_2,Length=0.000514000,Units=km
new line.SBT_18884468 bus1=153959035.1.2.0,bus2=153959036.1.2.0,Phases=2,Linecode=BT518_BT518_7_2_1_2,Length=0.000503000,Units=km
new line.SBT_18884945 bus1=134529889.1.2.0,bus2=153980549.1.2.0,Phases=2,Linecode=BT808_BT808_4_2_3_2,Length=0.064353000,Units=km
new line.SBT_18884946 bus1=153980549.1.2.0,bus2=153980550.1.2.0,Phases=2,Linecode=BT808_BT808_4_2_3_2,Length=0.030426000,Units=km
new line.SBT_18890691 bus1=154174335.1.2.0,bus2=470750.1.2.0,Phases=2,Linecode=BT513_BT513_7_2_1_2,Length=0.000501000,Units=km
new line.SBT_18903863 bus1=154641559.1.2.0,bus2=154641560.1.2.0,Phases=2,Linecode=BT518_BT518_7_2_1_2,Length=0.000501000,Units=km
new line.SBT_18904605 bus1=154661932.1.2.0,bus2=154661933.1.2.0,Phases=2,Linecode=BT518_BT518_7_2_1_2,Length=0.000501000,Units=km
new line.SBT_18904754 bus1=154667034.1.2.0,bus2=154667035.1.2.0,Phases=2,Linecode=BT518_BT518_7_2_1_2,Length=0.000508000,Units=km
new line.SBT_18910368 bus1=154827980.1.2.0,bus2=154827981.1.2.0,Phases=2,Linecode=BT518_BT518_7_2_1_2,Length=0.000509000,Units=km
new line.SBT_18913504 bus1=154935969.1.2.0,bus2=154935970.1.2.0,Phases=2,Linecode=BT518_BT518_7_2_1_2,Length=0.000501000,Units=km
new line.SBT_18932616 bus1=3586093.1.2.3.0,bus2=155596422.1.2.3.0,Phases=3,Linecode=BT803_BT803_4_3_4_3,Length=0.012733000,Units=km
new line.SBT_18932617 bus1=155596422.1.2.3.0,bus2=155596442.1.2.3.0,Phases=3,Linecode=BT803_BT803_4_3_4_3,Length=0.035455000,Units=km
new line.SBT_18932618 bus1=155596442.1.2.3.0,bus2=155596443.1.2.3.0,Phases=3,Linecode=BT803_BT803_4_3_4_3,Length=0.028029000,Units=km
new line.SBT_18932620 bus1=155596443.1.2.3.0,bus2=155596445.1.2.3.0,Phases=3,Linecode=BT803_BT803_4_3_4_3,Length=0.032663000,Units=km
new line.SBT_18932621 bus1=155596445.1.2.3.0,bus2=155596460.1.2.3.0,Phases=3,Linecode=BT803_BT803_4_3_4_3,Length=0.029218000,Units=km
new line.SBT_18932624 bus1=3586100.1.2.3.0,bus2=155596506.1.2.3.0,Phases=3,Linecode=BT803_BT803_4_3_4_3,Length=0.026844000,Units=km
new line.SBT_18932625 bus1=155596506.1.2.3.0,bus2=155596507.1.2.3.0,Phases=3,Linecode=BT803_BT803_4_3_4_3,Length=0.021104000,Units=km
new line.SBT_18932626 bus1=155596507.1.2.3.0,bus2=155596508.1.2.3.0,Phases=3,Linecode=BT803_BT803_4_3_4_3,Length=0.028029000,Units=km
new line.SBT_18932628 bus1=155596508.1.2.3.0,bus2=155596510.1.2.3.0,Phases=3,Linecode=BT803_BT803_4_3_4_3,Length=0.028029000,Units=km
new line.SBT_18932680 bus1=155598652.1.2.3.0,bus2=155598653.1.2.3.0,Phases=3,Linecode=BT518_BT518_7_3_1_3,Length=0.000501000,Units=km
new line.SBT_18932684 bus1=155598653.1.2.3.0,bus2=155598730.1.2.3.0,Phases=3,Linecode=BT803_BT803_4_3_4_3,Length=0.035525000,Units=km
new line.SBT_18932685 bus1=155598730.1.2.3.0,bus2=155598733.1.2.3.0,Phases=3,Linecode=BT803_BT803_4_3_4_3,Length=0.034670000,Units=km
new line.SBT_18932686 bus1=155598733.1.2.3.0,bus2=155598744.1.2.3.0,Phases=3,Linecode=BT803_BT803_4_3_4_3,Length=0.033955000,Units=km
new line.SBT_18932687 bus1=155598744.1.2.3.0,bus2=155598745.1.2.3.0,Phases=3,Linecode=BT803_BT803_4_3_4_3,Length=0.034497000,Units=km
new line.SBT_18932702 bus1=155598653.1.2.3.0,bus2=155598943.1.2.3.0,Phases=3,Linecode=BT803_BT803_4_3_4_3,Length=0.034684000,Units=km
new line.SBT_18932703 bus1=155598943.1.2.3.0,bus2=155598968.1.2.3.0,Phases=3,Linecode=BT803_BT803_4_3_4_3,Length=0.033300000,Units=km
new line.SBT_18932704 bus1=155598943.1.2.3.0,bus2=155598969.1.2.3.0,Phases=3,Linecode=BT803_BT803_4_3_4_3,Length=0.027814000,Units=km
new line.SBT_18932706 bus1=155598968.1.2.3.0,bus2=155598987.1.2.3.0,Phases=3,Linecode=BT803_BT803_4_3_4_3,Length=0.034684000,Units=km
new line.SBT_18932707 bus1=155598987.1.2.3.0,bus2=155598988.1.2.3.0,Phases=3,Linecode=BT803_BT803_4_3_4_3,Length=0.033300000,Units=km
new line.SBT_18932708 bus1=155598988.1.2.3.0,bus2=155598989.1.2.3.0,Phases=3,Linecode=BT803_BT803_4_3_4_3,Length=0.032463000,Units=km
new line.SBT_18932710 bus1=155598943.1.2.3.0,bus2=155599119.1.2.3.0,Phases=3,Linecode=BT803_BT803_4_3_4_3,Length=0.036730000,Units=km
new line.SBT_18932711 bus1=155599119.1.2.3.0,bus2=155599120.1.2.3.0,Phases=3,Linecode=BT803_BT803_4_3_4_3,Length=0.038094000,Units=km
new line.SBT_18932714 bus1=155599120.1.2.3.0,bus2=155599131.1.2.3.0,Phases=3,Linecode=BT803_BT803_4_3_4_3,Length=0.032770000,Units=km
new line.SBT_18932715 bus1=155599131.1.2.3.0,bus2=155599163.1.2.3.0,Phases=3,Linecode=BT803_BT803_4_3_4_3,Length=0.008066000,Units=km
new line.SBT_18952878 bus1=380002.1.2.0,bus2=156139039.1.2.0,Phases=2,Linecode=BT807_BT807_4_2_3_2,Length=0.031794000,Units=km
new line.SBT_18952880 bus1=156139227.1.2.0,bus2=378385.1.2.0,Phases=2,Linecode=BT108_BT107_7_2_1_2,Length=0.026088000,Units=km
new line.SBT_18952885 bus1=156139227.1.2.0,bus2=156139357.1.2.0,Phases=2,Linecode=BT807_BT807_4_2_3_2,Length=0.020819000,Units=km
new line.SBT_18952906 bus1=473592.1.2.0,bus2=156139667.1.2.0,Phases=2,Linecode=BT807_BT807_4_2_3_2,Length=0.029744000,Units=km
new line.SBT_18952912 bus1=4845176.1.2.0,bus2=156139744.1.2.0,Phases=2,Linecode=BT807_BT807_4_2_3_2,Length=0.020889000,Units=km
new line.SBT_18952922 bus1=375508.1.2.0,bus2=156139752.1.2.0,Phases=2,Linecode=BT807_BT807_4_2_3_2,Length=0.025506000,Units=km
new line.SBT_18952932 bus1=2965130.1.2.0,bus2=156139836.1.2.0,Phases=2,Linecode=BT807_BT807_4_2_3_2,Length=0.042077000,Units=km
new line.SBT_18952933 bus1=2965144.1.2.0,bus2=156139873.1.2.0,Phases=2,Linecode=BT807_BT807_4_2_3_2,Length=0.030489000,Units=km
new line.SBT_18952935 bus1=2965151.1.2.0,bus2=156139900.1.2.0,Phases=2,Linecode=BT807_BT807_4_2_3_2,Length=0.035185000,Units=km
new line.SBT_18952938 bus1=2965137.1.2.0,bus2=156139956.1.2.0,Phases=2,Linecode=BT807_BT807_4_2_3_2,Length=0.033540000,Units=km
new line.SBT_18952939 bus1=156139956.1.2.0,bus2=156139976.1.2.0,Phases=2,Linecode=BT807_BT807_4_2_3_2,Length=0.030377000,Units=km
new line.SBT_18952941 bus1=2965144.1.2.0,bus2=156140019.1.2.0,Phases=2,Linecode=BT807_BT807_4_2_3_2,Length=0.029132000,Units=km
new line.SBT_18952944 bus1=2965179.1.2.0,bus2=156140083.1.2.0,Phases=2,Linecode=BT807_BT807_4_2_3_2,Length=0.022482000,Units=km
new line.SBT_18952948 bus1=473634.1.2.3.0,bus2=156140311.1.2.3.0,Phases=3,Linecode=BT803_BT803_4_3_4_3,Length=0.005102000,Units=km
new line.SBT_18952949 bus1=156140311.1.2.3.0,bus2=156140312.1.2.3.0,Phases=3,Linecode=BT803_BT803_4_3_4_3,Length=0.013607000,Units=km
new line.SBT_18952955 bus1=156140399.1.2.3.0,bus2=2891133.1.2.3.0,Phases=3,Linecode=BT803_BT803_4_3_4_3,Length=0.024769000,Units=km
new line.SBT_18952957 bus1=156140399.1.2.0,bus2=156140520.1.2.0,Phases=2,Linecode=BT807_BT807_4_2_3_2,Length=0.029845000,Units=km
new line.SBT_18961699 bus1=156402051.1.2.0,bus2=156402052.1.2.0,Phases=2,Linecode=BT518_BT518_7_2_1_2,Length=0.000501000,Units=km
new line.SBT_18973781 bus1=156719703.1.2.0,bus2=156719704.1.2.0,Phases=2,Linecode=BT518_BT518_7_2_1_2,Length=0.000501000,Units=km
new line.SBT_18981189 bus1=376019.1.2.3.0,bus2=156932521.1.2.3.0,Phases=3,Linecode=BT803_BT803_4_3_4_3,Length=0.017813000,Units=km
new line.SBT_18981368 bus1=156935063.1.2.0,bus2=156935064.1.2.0,Phases=2,Linecode=BT518_BT518_7_2_1_2,Length=0.000505000,Units=km
new line.SBT_18997632 bus1=157382530.1.2.3.0,bus2=157382531.1.2.3.0,Phases=3,Linecode=BT518_BT518_7_3_1_3,Length=0.000501000,Units=km
new line.SBT_18997633 bus1=157382531.1.2.3.0,bus2=157382556.1.2.3.0,Phases=3,Linecode=BT805_BT805_4_3_4_3,Length=0.041129000,Units=km
new line.SBT_18997634 bus1=157382556.1.2.3.0,bus2=157382557.1.2.3.0,Phases=3,Linecode=BT803_BT803_4_3_4_3,Length=0.038967000,Units=km
new line.SBT_18997635 bus1=157382557.1.2.3.0,bus2=157382558.1.2.3.0,Phases=3,Linecode=BT803_BT803_4_3_4_3,Length=0.039717000,Units=km
new line.SBT_18997636 bus1=157382559.1.2.3.0,bus2=166095297.1.2.3.0,Phases=3,Linecode=BT803_BT803_4_3_4_3,Length=0.040380000,Units=km
new line.SBT_18997637 bus1=157382531.1.2.3.0,bus2=157382561.1.2.3.0,Phases=3,Linecode=BT805_BT805_4_3_4_3,Length=0.013608000,Units=km
new line.SBT_18997638 bus1=157382561.1.2.3.0,bus2=157382562.1.2.3.0,Phases=3,Linecode=BT805_BT805_4_3_4_3,Length=0.018610000,Units=km
new line.SBT_18997640 bus1=157382562.1.2.3.0,bus2=157382565.1.2.3.0,Phases=3,Linecode=BT803_BT803_4_3_4_3,Length=0.039642000,Units=km
new line.SBT_18997645 bus1=157382565.1.2.3.0,bus2=157382568.1.2.3.0,Phases=3,Linecode=BT803_BT803_4_3_4_3,Length=0.040377000,Units=km
new line.SBT_18997659 bus1=157382561.1.2.3.0,bus2=157382583.1.2.3.0,Phases=3,Linecode=BT805_BT805_4_3_4_3,Length=0.012212000,Units=km
new line.SBT_18997660 bus1=157382561.1.2.3.0,bus2=157382584.1.2.3.0,Phases=3,Linecode=BT805_BT805_4_3_4_3,Length=0.014872000,Units=km
new line.SBT_18997661 bus1=157382584.1.2.3.0,bus2=157382589.1.2.3.0,Phases=3,Linecode=BT805_BT805_4_3_4_3,Length=0.025506000,Units=km
new line.SBT_18997662 bus1=166096997.1.2.3.0,bus2=157382594.1.2.3.0,Phases=3,Linecode=BT803_BT803_4_3_4_3,Length=0.034670000,Units=km
new line.SBT_18997663 bus1=166096997.1.2.3.0,bus2=157382595.1.2.3.0,Phases=3,Linecode=BT803_BT803_4_3_4_3,Length=0.012048000,Units=km
new line.SBT_18997664 bus1=157382595.1.2.3.0,bus2=157382596.1.2.3.0,Phases=3,Linecode=BT803_BT803_4_3_4_3,Length=0.035400000,Units=km
new line.SBT_18997665 bus1=157382596.1.2.3.0,bus2=157382597.1.2.3.0,Phases=3,Linecode=BT803_BT803_4_3_4_3,Length=0.039715000,Units=km
new line.SBT_18997666 bus1=157382631.1.2.3.0,bus2=157382632.1.2.3.0,Phases=3,Linecode=BT518_BT518_7_3_1_3,Length=0.000501000,Units=km
new line.SBT_18997667 bus1=157382632.1.2.3.0,bus2=157382638.1.2.3.0,Phases=3,Linecode=BT803_BT803_4_3_4_3,Length=0.034842000,Units=km
new line.SBT_18997668 bus1=157382638.1.2.3.0,bus2=157382644.1.2.3.0,Phases=3,Linecode=BT803_BT803_4_3_4_3,Length=0.040377000,Units=km
new line.SBT_18997669 bus1=157382644.1.2.3.0,bus2=157382650.1.2.3.0,Phases=3,Linecode=BT803_BT803_4_3_4_3,Length=0.039717000,Units=km
new line.SBT_18997670 bus1=157382650.1.2.3.0,bus2=157382653.1.2.3.0,Phases=3,Linecode=BT803_BT803_4_3_4_3,Length=0.036895000,Units=km
new line.SBT_18997671 bus1=157382653.1.2.3.0,bus2=157382662.1.2.3.0,Phases=3,Linecode=BT803_BT803_4_3_4_3,Length=0.009491000,Units=km
new line.SBT_18997674 bus1=157382632.1.2.3.0,bus2=157382670.1.2.3.0,Phases=3,Linecode=BT803_BT803_4_3_4_3,Length=0.025010000,Units=km
new line.SBT_18997675 bus1=157382632.1.2.3.0,bus2=157382682.1.2.3.0,Phases=3,Linecode=BT803_BT803_4_3_4_3,Length=0.029845000,Units=km
new line.SBT_18997676 bus1=157382682.1.2.3.0,bus2=157382685.1.2.3.0,Phases=3,Linecode=BT803_BT803_4_3_4_3,Length=0.045018000,Units=km
new line.SBT_18997677 bus1=157382685.1.2.3.0,bus2=157382691.1.2.3.0,Phases=3,Linecode=BT803_BT803_4_3_4_3,Length=0.040513000,Units=km
new line.SBT_18997678 bus1=157382691.1.2.3.0,bus2=157382692.1.2.3.0,Phases=3,Linecode=BT803_BT803_4_3_4_3,Length=0.040328000,Units=km
new line.SBT_18997679 bus1=157382801.1.2.3.0,bus2=157382802.1.2.3.0,Phases=3,Linecode=BT518_BT518_7_3_1_3,Length=0.000501000,Units=km
new line.SBT_18997682 bus1=157382802.1.2.3.0,bus2=157382857.1.2.3.0,Phases=3,Linecode=BT803_BT803_4_3_4_3,Length=0.041199000,Units=km
new line.SBT_18997686 bus1=157382857.1.2.3.0,bus2=157382950.1.2.3.0,Phases=3,Linecode=BT803_BT803_4_3_4_3,Length=0.040328000,Units=km
new line.SBT_18997689 bus1=157382950.1.2.3.0,bus2=157382996.1.2.3.0,Phases=3,Linecode=BT803_BT803_4_3_4_3,Length=0.038304000,Units=km
new line.SBT_18997690 bus1=157382950.1.2.3.0,bus2=157382997.1.2.3.0,Phases=3,Linecode=BT803_BT803_4_3_4_3,Length=0.043284000,Units=km
new line.SBT_18997691 bus1=157382996.1.2.3.0,bus2=157382998.1.2.3.0,Phases=3,Linecode=BT803_BT803_4_3_4_3,Length=0.043698000,Units=km
new line.SBT_18997694 bus1=157382802.1.2.3.0,bus2=157383127.1.2.3.0,Phases=3,Linecode=BT803_BT803_4_3_4_3,Length=0.039979000,Units=km
new line.SBT_18997695 bus1=157383127.1.2.3.0,bus2=157383171.1.2.3.0,Phases=3,Linecode=BT803_BT803_4_3_4_3,Length=0.035525000,Units=km
new line.SBT_18997696 bus1=157383171.1.2.3.0,bus2=157383172.1.2.3.0,Phases=3,Linecode=BT803_BT803_4_3_4_3,Length=0.015818000,Units=km
new line.SBT_18997697 bus1=157383172.1.2.3.0,bus2=157383216.1.2.3.0,Phases=3,Linecode=BT803_BT803_4_3_4_3,Length=0.007814000,Units=km
new line.SBT_18997698 bus1=157383216.1.2.3.0,bus2=157383217.1.2.3.0,Phases=3,Linecode=BT803_BT803_4_3_4_3,Length=0.007814000,Units=km
new line.SBT_18997699 bus1=157383217.1.2.3.0,bus2=157383218.1.2.3.0,Phases=3,Linecode=BT803_BT803_4_3_4_3,Length=0.025506000,Units=km
new line.SBT_18997703 bus1=157383172.1.2.3.0,bus2=157383301.1.2.3.0,Phases=3,Linecode=BT803_BT803_4_3_4_3,Length=0.010821000,Units=km
new line.SBT_18997705 bus1=157383172.1.2.3.0,bus2=157383302.1.2.3.0,Phases=3,Linecode=BT803_BT803_4_3_4_3,Length=0.016650000,Units=km
new line.SBT_18997706 bus1=155598969.1.2.3.0,bus2=157383359.1.2.3.0,Phases=3,Linecode=BT803_BT803_4_3_4_3,Length=0.053257000,Units=km
new line.SBT_18997707 bus1=157383359.1.2.3.0,bus2=157383382.1.2.3.0,Phases=3,Linecode=BT803_BT803_4_3_4_3,Length=0.017812000,Units=km
new line.SBT_18997708 bus1=157383382.1.2.3.0,bus2=157383392.1.2.3.0,Phases=3,Linecode=BT803_BT803_4_3_4_3,Length=0.010004000,Units=km
new line.SBT_18997710 bus1=157383392.1.2.3.0,bus2=157383451.1.2.3.0,Phases=3,Linecode=BT803_BT803_4_3_4_3,Length=0.035624000,Units=km
new line.SBT_18997721 bus1=157383359.1.2.3.0,bus2=157384045.1.2.3.0,Phases=3,Linecode=BT803_BT803_4_3_4_3,Length=0.011050000,Units=km
new line.SBT_18997722 bus1=157384045.1.2.3.0,bus2=157384046.1.2.3.0,Phases=3,Linecode=BT803_BT803_4_3_4_3,Length=0.034423000,Units=km
new line.SBT_18997723 bus1=157384046.1.2.3.0,bus2=157384090.1.2.3.0,Phases=3,Linecode=BT803_BT803_4_3_4_3,Length=0.040723000,Units=km
new line.SBT_18997727 bus1=157383216.1.2.3.0,bus2=157384097.1.2.3.0,Phases=3,Linecode=BT803_BT803_4_3_4_3,Length=0.012733000,Units=km
new line.SBT_18997729 bus1=157383216.1.2.3.0,bus2=157384120.1.2.3.0,Phases=3,Linecode=BT803_BT803_4_3_4_3,Length=0.030900000,Units=km
new line.SBT_18999415 bus1=157431286.1.2.0,bus2=157431287.1.2.0,Phases=2,Linecode=BT518_BT518_7_2_1_2,Length=0.000501000,Units=km
new line.SBT_18999951 bus1=155598989.1.2.3.0,bus2=157445420.1.2.3.0,Phases=3,Linecode=BT803_BT803_4_3_4_3,Length=0.042561000,Units=km
new line.SBT_19001262 bus1=157499708.1.2.0,bus2=157499709.1.2.0,Phases=2,Linecode=BT518_BT518_7_2_1_2,Length=0.000501000,Units=km
new line.SBT_19006434 bus1=151975905.1.2.3.0,bus2=157628670.1.2.3.0,Phases=3,Linecode=BT803_BT803_4_3_4_3,Length=0.033255000,Units=km
new line.SBT_19006435 bus1=157628670.1.2.3.0,bus2=157628671.1.2.3.0,Phases=3,Linecode=BT803_BT803_4_3_4_3,Length=0.033984000,Units=km
new line.SBT_19006436 bus1=157628671.1.2.3.0,bus2=157628676.1.2.3.0,Phases=3,Linecode=BT803_BT803_4_3_4_3,Length=0.033255000,Units=km
new line.SBT_19011289 bus1=3125087.1.2.3.0,bus2=157769931.1.2.3.0,Phases=3,Linecode=BT803_BT803_4_3_4_3,Length=0.021420000,Units=km
new line.SBT_19011292 bus1=157769955.1.2.3.0,bus2=3125087.1.2.3.0,Phases=3,Linecode=BT518_BT518_7_3_1_3,Length=0.000501000,Units=km
new line.SBT_19017095 bus1=157922002.1.2.0,bus2=157922003.1.2.0,Phases=2,Linecode=BT518_BT518_7_2_1_2,Length=0.000501000,Units=km
new line.SBT_19018360 bus1=157962752.1.2.0,bus2=157962753.1.2.0,Phases=2,Linecode=BT518_BT518_7_2_1_2,Length=0.000519000,Units=km
new line.SBT_19025507 bus1=2965452.1.2.0,bus2=158155160.1.2.0,Phases=2,Linecode=BT807_BT807_4_2_3_2,Length=0.030029000,Units=km
new line.SBT_19025959 bus1=156139744.1.2.0,bus2=158172160.1.2.0,Phases=2,Linecode=BT807_BT807_4_2_3_2,Length=0.030097000,Units=km
new line.SBT_19026119 bus1=117198281.1.2.3.0,bus2=158178378.1.2.3.0,Phases=3,Linecode=BT803_BT803_4_3_4_3,Length=0.029168000,Units=km