new load.3009000075M1 bus1=BMT120733820.1.2.3,Phases=3,kv=13.800000000,kW=3.07022,pf=0.92,Vminpu=0.93,Vmaxpu=1.5,model=1,daily=MT1_1,status=variable
new load.3009002545M1 bus1=BMT120728486.1.2.3,Phases=3,kv=13.800000000,kW=22.53772,pf=0.92,Vminpu=0.93,Vmaxpu=1.5,model=1,daily=MT3_1,status=variable
new load.3009002547M1 bus1=BMT120727800.1.2.3,Phases=3,kv=13.800000000,kW=2.6044,pf=0.92,Vminpu=0.93,Vmaxpu=1.5,model=1,daily=MT1_1,status=variable
new load.3009002549M1 bus1=BMT142241453.1.2.3,Phases=3,kv=13.800000000,kW=4.46468,pf=0.92,Vminpu=0.93,Vmaxpu=1.5,model=1,daily=MT1_1,status=variable
new load.3009007950M1 bus1=BMT150343934.1.2.3,Phases=3,kv=13.800000000,kW=50.67328,pf=0.92,Vminpu=0.93,Vmaxpu=1.5,model=1,daily=MT4_1,status=variable
new load.3009011698M1 bus1=BMT120707878.1.2.3,Phases=3,kv=13.800000000,kW=76.59946,pf=0.92,Vminpu=0.93,Vmaxpu=1.5,model=1,daily=MT4_1,status=variable
new load.3009014506M1 bus1=BMT120741723.1.2.3,Phases=3,kv=13.800000000,kW=40.97152,pf=0.92,Vminpu=0.93,Vmaxpu=1.5,model=1,daily=MT2_1,status=variable
new load.3009014609M1 bus1=BMT138633555.1.2.3,Phases=3,kv=13.800000000,kW=19.75846,pf=0.92,Vminpu=0.93,Vmaxpu=1.5,model=1,daily=MT2_1,status=variable
new load.3009014917M1 bus1=BMT150343936.1.2.3,Phases=3,kv=13.800000000,kW=24.05966,pf=0.92,Vminpu=0.93,Vmaxpu=1.5,model=1,daily=MT1_1,status=variable
new load.3009014930M1 bus1=BMT175167546.1.2.3,Phases=3,kv=13.800000000,kW=94.453,pf=0.92,Vminpu=0.93,Vmaxpu=1.5,model=1,daily=MT3_1,status=variable
new load.3009015879M1 bus1=BMT120707241.1.2.3,Phases=3,kv=13.800000000,kW=212.21624,pf=0.92,Vminpu=0.93,Vmaxpu=1.5,model=1,daily=MT5_2,status=variable
new load.3009017336M1 bus1=BMT120702936.1.2.3,Phases=3,kv=13.800000000,kW=19.232,pf=0.92,Vminpu=0.93,Vmaxpu=1.5,model=1,daily=MT3_1,status=variable
new load.3010663522M1 bus1=BMT120726456.1.2.3,Phases=3,kv=13.800000000,kW=17.63714,pf=0.92,Vminpu=0.93,Vmaxpu=1.5,model=1,daily=MT2_1,status=variable
new load.3010669568M1 bus1=BMT174050594.1.2.3,Phases=3,kv=13.800000000,kW=263.75888,pf=0.92,Vminpu=0.93,Vmaxpu=1.5,model=1,daily=MT5_1,status=variable
new load.3010958581M1 bus1=BMT120698953.1.2.3,Phases=3,kv=13.800000000,kW=33.22924,pf=0.92,Vminpu=0.93,Vmaxpu=1.5,model=1,daily=MT3_1,status=variable
new load.3011420065M1 bus1=BMT163110974.1.2.3,Phases=3,kv=13.800000000,kW=20.80062,pf=0.92,Vminpu=0.93,Vmaxpu=1.5,model=1,daily=MT2_1,status=variable
new load.3011910423M1 bus1=BMT161330089.1.2.3,Phases=3,kv=13.800000000,kW=0.43406,pf=0.92,Vminpu=0.93,Vmaxpu=1.5,model=1,daily=MT1_1,status=variable
new load.3012266463M1 bus1=BMT120729081.1.2.3,Phases=3,kv=13.800000000,kW=2.23234,pf=0.92,Vminpu=0.93,Vmaxpu=1.5,model=1,daily=MT1_1,status=variable
new load.3012629402M1 bus1=BMT162791185.1.2.3,Phases=3,kv=13.800000000,kW=42.3049,pf=0.92,Vminpu=0.93,Vmaxpu=1.5,model=1,daily=MT2_1,status=variable
new load.3013224135M1 bus1=BMT160350041.1.2.3,Phases=3,kv=13.800000000,kW=76.74892,pf=0.92,Vminpu=0.93,Vmaxpu=1.5,model=1,daily=MT4_1,status=variable
new load.3013242163M1 bus1=BMT150343929.1.2.3,Phases=3,kv=13.800000000,kW=125.10414,pf=0.92,Vminpu=0.93,Vmaxpu=1.5,model=1,daily=MT4_1,status=variable
new load.3013244310M1 bus1=BMT158917353.1.2.3,Phases=3,kv=13.800000000,kW=47.52466,pf=0.92,Vminpu=0.93,Vmaxpu=1.5,model=1,daily=MT2_1,status=variable
