new line.RBT_10053504 bus1=138167180.1.2.3.0,bus2=1010053504.1.2.3.0,Phases=3,Linecode=CABBTG06_4_3_3,Length=0.017000000,Units=km
new line.RBT_10053571 bus1=348453.1.0,bus2=1010053571.1.0,Phases=1,Linecode=CABBTG02_4_1_1,Length=0.017000000,Units=km
new line.RBT_10053883 bus1=490910.2.3.0,bus2=1010053883.2.3.0,Phases=2,Linecode=CABBTG05_4_2_2,Length=0.017000000,Units=km
new line.RBT_10053885 bus1=377986.1.0,bus2=1010053885.1.0,Phases=1,Linecode=CABBTG02_4_1_1,Length=0.017000000,Units=km
new line.RBT_10053890 bus1=142675292.1.0,bus2=1010053890.1.0,Phases=1,Linecode=CABBTG02_4_1_1,Length=0.017000000,Units=km
new line.RBT_10053893 bus1=3254860.1.0,bus2=1010053893.1.0,Phases=1,Linecode=CABBTG02_4_1_1,Length=0.017000000,Units=km
new line.RBT_10053894 bus1=2896124.1.0,bus2=1010053894.1.0,Phases=1,Linecode=CABBTG02_4_1_1,Length=0.017000000,Units=km
new line.RBT_10053900 bus1=3039862.2.0,bus2=1010053900.2.0,Phases=1,Linecode=CABBTG02_4_1_1,Length=0.017000000,Units=km
new line.RBT_10053904 bus1=347641.1.0,bus2=1010053904.1.0,Phases=1,Linecode=CABBTG02_4_1_1,Length=0.017000000,Units=km
new line.RBT_10053964 bus1=366478.1.0,bus2=1010053964.1.0,Phases=1,Linecode=CABBTG02_4_1_1,Length=0.017000000,Units=km
new line.RBT_10054020 bus1=365848.1.0,bus2=1010054020.1.0,Phases=1,Linecode=CABBTG02_4_1_1,Length=0.017000000,Units=km
new line.RBT_10054033 bus1=360122.1.2.0,bus2=1010054033.1.2.0,Phases=2,Linecode=CABBTG05_4_2_2,Length=0.017000000,Units=km
new line.RBT_10054036 bus1=481621.1.0,bus2=1010054036.1.0,Phases=1,Linecode=CABBTG02_4_1_1,Length=0.017000000,Units=km
new line.RBT_10054042 bus1=355355.1.2.3.0,bus2=1010054042.1.2.3.0,Phases=3,Linecode=CABBTG06_4_3_3,Length=0.017000000,Units=km
new line.RBT_10054113 bus1=369033.3.1.0,bus2=1010054113.3.1.0,Phases=2,Linecode=CABBTG05_4_2_2,Length=0.017000000,Units=km
new line.RBT_10054317 bus1=362194.1.0,bus2=1010054317.1.0,Phases=1,Linecode=CABBTG02_4_1_1,Length=0.017000000,Units=km
new line.RBT_10054318 bus1=361746.1.2.0,bus2=1010054318.1.2.0,Phases=2,Linecode=CABBTG05_4_2_2,Length=0.017000000,Units=km
new line.RBT_10054320 bus1=378196.1.0,bus2=1010054320.1.0,Phases=1,Linecode=CABBTG02_4_1_1,Length=0.017000000,Units=km
new line.RBT_10054326 bus1=347025.1.2.3.0,bus2=1010054326.1.2.3.0,Phases=3,Linecode=CABBTG06_4_3_3,Length=0.017000000,Units=km
new line.RBT_10054434 bus1=5230309.1.2.3.0,bus2=1010054434.1.2.3.0,Phases=3,Linecode=CABBTG06_4_3_3,Length=0.017000000,Units=km
new line.RBT_10054437 bus1=142676062.1.0,bus2=1010054437.1.0,Phases=1,Linecode=CABBTG02_4_1_1,Length=0.017000000,Units=km
new line.RBT_10054455 bus1=389837.1.2.0,bus2=1010054455.1.2.0,Phases=2,Linecode=CABBTG05_4_2_2,Length=0.017000000,Units=km
new line.RBT_10054465 bus1=469441.1.2.0,bus2=1010054465.1.2.0,Phases=2,Linecode=CABBTG05_4_2_2,Length=0.017000000,Units=km
new line.RBT_10054467 bus1=380184.3.0,bus2=1010054467.3.0,Phases=1,Linecode=CABBTG02_4_1_1,Length=0.017000000,Units=km
new line.RBT_10054474 bus1=147553459.1.0,bus2=1010054474.1.0,Phases=1,Linecode=CABBTG02_4_1_1,Length=0.017000000,Units=km
new line.RBT_10054479 bus1=376936.1.0,bus2=1010054479.1.0,Phases=1,Linecode=CABBTG02_4_1_1,Length=0.017000000,Units=km
new line.RBT_10054490 bus1=4894036.1.2.3.0,bus2=1010054490.1.2.3.0,Phases=3,Linecode=CABBTG06_4_3_3,Length=0.017000000,Units=km
new line.RBT_10054577 bus1=494123.3.0,bus2=1010054577.3.0,Phases=1,Linecode=CABBTG02_4_1_1,Length=0.017000000,Units=km
new line.RBT_10054658 bus1=374927.1.2.3.0,bus2=1010054658.1.2.3.0,Phases=3,Linecode=CABBTG06_4_3_3,Length=0.017000000,Units=km
new line.RBT_10054659 bus1=381388.1.0,bus2=1010054659.1.0,Phases=1,Linecode=CABBTG02_4_1_1,Length=0.017000000,Units=km
new line.RBT_10054705 bus1=140096352.1.2.3.0,bus2=1010054705.1.2.3.0,Phases=3,Linecode=CABBTG06_4_3_3,Length=0.017000000,Units=km
new line.RBT_10054706 bus1=363531.1.2.3.0,bus2=1010054706.1.2.3.0,Phases=3,Linecode=CABBTG06_4_3_3,Length=0.017000000,Units=km
new line.RBT_10054734 bus1=67300356.1.2.0,bus2=1010054734.1.2.0,Phases=2,Linecode=CABBTG05_4_2_2,Length=0.017000000,Units=km
new line.RBT_10054735 bus1=4511598.1.2.0,bus2=1010054735.1.2.0,Phases=2,Linecode=CABBTG05_4_2_2,Length=0.017000000,Units=km
new line.RBT_10054741 bus1=3595991.1.0,bus2=1010054741.1.0,Phases=1,Linecode=CABBTG02_4_1_1,Length=0.017000000,Units=km
new line.RBT_10054805 bus1=4406437.2.0,bus2=1010054805.2.0,Phases=1,Linecode=CABBTG02_4_1_1,Length=0.017000000,Units=km
new line.RBT_10054809 bus1=376642.2.0,bus2=1010054809.2.0,Phases=1,Linecode=CABBTG02_4_1_1,Length=0.017000000,Units=km
new line.RBT_10054893 bus1=493598.2.0,bus2=1010054893.2.0,Phases=1,Linecode=CABBTG02_4_1_1,Length=0.017000000,Units=km
new line.RBT_10054895 bus1=4511311.3.1.0,bus2=1010054895.3.1.0,Phases=2,Linecode=CABBTG05_4_2_2,Length=0.017000000,Units=km
new line.RBT_10054901 bus1=378392.1.0,bus2=1010054901.1.0,Phases=1,Linecode=CABBTG02_4_1_1,Length=0.017000000,Units=km
new line.RBT_10054903 bus1=4565239.1.0,bus2=1010054903.1.0,Phases=1,Linecode=CABBTG02_4_1_1,Length=0.017000000,Units=km
new line.RBT_10054971 bus1=368956.1.0,bus2=1010054971.1.0,Phases=1,Linecode=CABBTG01_4_1_1,Length=0.017000000,Units=km
new line.RBT_10054979 bus1=3586086.1.2.0,bus2=1010054979.1.2.0,Phases=2,Linecode=CABBTG05_4_2_2,Length=0.017000000,Units=km
new line.RBT_10055009 bus1=473697.2.0,bus2=1010055009.2.0,Phases=1,Linecode=CABBTG02_4_1_1,Length=0.017000000,Units=km
new line.RBT_10055033 bus1=67300370.2.0,bus2=1010055033.2.0,Phases=1,Linecode=CABBTG02_4_1_1,Length=0.017000000,Units=km
new line.RBT_10055037 bus1=146025282.1.0,bus2=1010055037.1.0,Phases=1,Linecode=CABBTG02_4_1_1,Length=0.017000000,Units=km
new line.RBT_10063931 bus1=393169.1.0,bus2=1010063931.1.0,Phases=1,Linecode=CABBTG02_4_1_1,Length=0.017000000,Units=km
new line.RBT_10063950 bus1=3518032.1.0,bus2=1010063950.1.0,Phases=1,Linecode=CABBTG02_4_1_1,Length=0.017000000,Units=km
new line.RBT_10063956 bus1=390397.1.0,bus2=1010063956.1.0,Phases=1,Linecode=CABBTG02_4_1_1,Length=0.017000000,Units=km
new line.RBT_10063961 bus1=4911221.1.0,bus2=1010063961.1.0,Phases=1,Linecode=CABBTG02_4_1_1,Length=0.017000000,Units=km
new line.RBT_10063962 bus1=2734753.1.0,bus2=1010063962.1.0,Phases=1,Linecode=CABBTG02_4_1_1,Length=0.017000000,Units=km
new line.RBT_10063969 bus1=11240894.1.0,bus2=1010063969.1.0,Phases=1,Linecode=CABBTG02_4_1_1,Length=0.017000000,Units=km
new line.RBT_10063975 bus1=393197.1.0,bus2=1010063975.1.0,Phases=1,Linecode=CABBTG02_4_1_1,Length=0.017000000,Units=km
new line.RBT_10063978 bus1=392770.1.2.0,bus2=1010063978.1.2.0,Phases=2,Linecode=CABBTG05_4_2_2,Length=0.017000000,Units=km
new line.RBT_10063979 bus1=60312550.1.2.0,bus2=1010063979.1.2.0,Phases=2,Linecode=CABBTG05_4_2_2,Length=0.017000000,Units=km
new line.RBT_10063983 bus1=4824155.1.2.0,bus2=1010063983.1.2.0,Phases=2,Linecode=CABBTG05_4_2_2,Length=0.017000000,Units=km
new line.RBT_10064008 bus1=392000.1.2.0,bus2=1010064008.1.2.0,Phases=2,Linecode=CABBTG05_4_2_2,Length=0.017000000,Units=km
new line.RBT_10064165 bus1=391412.1.2.0,bus2=1010064165.1.2.0,Phases=2,Linecode=CABBTG05_4_2_2,Length=0.017000000,Units=km
new line.RBT_10036241 bus1=480368.1.0,bus2=1010036241.1.0,Phases=1,Linecode=CABBTG02_4_1_1,Length=0.017000000,Units=km
new line.RBT_10036331 bus1=483413.1.0,bus2=1010036331.1.0,Phases=1,Linecode=CABBTG02_4_1_1,Length=0.017000000,Units=km
new line.RBT_10036405 bus1=343714.1.2.0,bus2=1010036405.1.2.0,Phases=2,Linecode=CABBTG05_4_2_2,Length=0.017000000,Units=km
new line.RBT_10036446 bus1=389963.1.0,bus2=1010036446.1.0,Phases=1,Linecode=CABBTG02_4_1_1,Length=0.017000000,Units=km
new line.RBT_10036448 bus1=365379.1.2.0,bus2=1010036448.1.2.0,Phases=2,Linecode=CABBTG05_4_2_2,Length=0.017000000,Units=km
new line.RBT_10036466 bus1=4033736.1.2.0,bus2=1010036466.1.2.0,Phases=2,Linecode=CABBTG05_4_2_2,Length=0.017000000,Units=km
new line.RBT_10036481 bus1=470596.1.0,bus2=1010036481.1.0,Phases=1,Linecode=CABBTG02_4_1_1,Length=0.017000000,Units=km
new line.RBT_10036544 bus1=67300328.1.0,bus2=1010036544.1.0,Phases=1,Linecode=CABBTG02_4_1_1,Length=0.017000000,Units=km
new line.RBT_10036608 bus1=81842688.1.2.0,bus2=1010036608.1.2.0,Phases=2,Linecode=CABBTG05_4_2_2,Length=0.017000000,Units=km
new line.RBT_10036621 bus1=488614.1.2.0,bus2=1010036621.1.2.0,Phases=2,Linecode=CABBTG05_4_2_2,Length=0.017000000,Units=km
new line.RBT_10036626 bus1=373828.1.2.0,bus2=1010036626.1.2.0,Phases=2,Linecode=CABBTG05_4_2_2,Length=0.017000000,Units=km
new line.RBT_10036630 bus1=2965130.1.0,bus2=1010036630.1.0,Phases=1,Linecode=CABBTG02_4_1_1,Length=0.017000000,Units=km
new line.RBT_10036634 bus1=375781.1.0,bus2=1010036634.1.0,Phases=1,Linecode=CABBTG02_4_1_1,Length=0.017000000,Units=km
new line.RBT_10036772 bus1=2952026.1.0,bus2=1010036772.1.0,Phases=1,Linecode=CABBTG02_4_1_1,Length=0.017000000,Units=km
new line.RBT_10036972 bus1=67300349.1.2.0,bus2=1010036972.1.2.0,Phases=2,Linecode=CABBTG05_4_2_2,Length=0.017000000,Units=km
new line.RBT_10036973 bus1=67300349.1.0,bus2=1010036973.1.0,Phases=1,Linecode=CABBTG02_4_1_1,Length=0.017000000,Units=km
new line.RBT_10036976 bus1=4511962.1.2.0,bus2=1010036976.1.2.0,Phases=2,Linecode=CABBTG05_4_2_2,Length=0.017000000,Units=km
new line.RBT_10037030 bus1=2965123.1.0,bus2=1010037030.1.0,Phases=1,Linecode=CABBTG02_4_1_1,Length=0.017000000,Units=km
new line.RBT_10037077 bus1=142675796.1.0,bus2=1010037077.1.0,Phases=1,Linecode=CABBTG02_4_1_1,Length=0.017000000,Units=km
new line.RBT_10037173 bus1=4511381.2.3.0,bus2=1010037173.2.3.0,Phases=2,Linecode=CABBTG05_4_2_2,Length=0.017000000,Units=km
new line.RBT_10037175 bus1=375011.1.2.3.0,bus2=1010037175.1.2.3.0,Phases=3,Linecode=CABBTG06_4_3_3,Length=0.017000000,Units=km
new line.RBT_10037178 bus1=368886.1.0,bus2=1010037178.1.0,Phases=1,Linecode=CABBTG02_4_1_1,Length=0.017000000,Units=km
new line.RBT_10037184 bus1=462784.1.0,bus2=1010037184.1.0,Phases=1,Linecode=CABBTG02_4_1_1,Length=0.017000000,Units=km
new line.RBT_10037188 bus1=365330.1.2.0,bus2=1010037188.1.2.0,Phases=2,Linecode=CABBTG05_4_2_2,Length=0.017000000,Units=km
new line.RBT_10037211 bus1=359772.1.2.0,bus2=1010037211.1.2.0,Phases=2,Linecode=CABBTG05_4_2_2,Length=0.017000000,Units=km
new line.RBT_10037485 bus1=4248230.1.0,bus2=1010037485.1.0,Phases=1,Linecode=CABBTG02_4_1_1,Length=0.017000000,Units=km
new line.RBT_10037494 bus1=341803.1.0,bus2=1010037494.1.0,Phases=1,Linecode=CABBTG02_4_1_1,Length=0.017000000,Units=km
new line.RBT_10037496 bus1=2638986.1.2.0,bus2=1010037496.1.2.0,Phases=2,Linecode=CABBTG05_4_2_2,Length=0.017000000,Units=km
new line.RBT_10037499 bus1=155909622.1.2.0,bus2=1010037499.1.2.0,Phases=2,Linecode=CABBTG05_4_2_2,Length=0.017000000,Units=km
new line.RBT_10037502 bus1=2965417.1.2.0,bus2=1010037502.1.2.0,Phases=2,Linecode=CABBTG05_4_2_2,Length=0.017000000,Units=km
new line.RBT_10037506 bus1=343924.1.2.0,bus2=1010037506.1.2.0,Phases=2,Linecode=CABBTG05_4_2_2,Length=0.017000000,Units=km
new line.RBT_10037508 bus1=360318.1.0,bus2=1010037508.1.0,Phases=1,Linecode=CABBTG02_4_1_1,Length=0.017000000,Units=km
new line.RBT_10037511 bus1=2633428.1.2.3.0,bus2=1010037511.1.2.3.0,Phases=3,Linecode=CABBTG06_4_3_3,Length=0.017000000,Units=km
new line.RBT_10037514 bus1=67300363.1.2.0,bus2=1010037514.1.2.0,Phases=2,Linecode=CABBTG05_4_2_2,Length=0.017000000,Units=km
new line.RBT_10037519 bus1=362656.1.2.0,bus2=1010037519.1.2.0,Phases=2,Linecode=CABBTG05_4_2_2,Length=0.017000000,Units=km
new line.RBT_10037522 bus1=360304.1.2.3.0,bus2=1010037522.1.2.3.0,Phases=3,Linecode=CABBTG06_4_3_3,Length=0.017000000,Units=km
new line.RBT_10037568 bus1=360248.1.2.0,bus2=1010037568.1.2.0,Phases=2,Linecode=CABBTG05_4_2_2,Length=0.017000000,Units=km
new line.RBT_10037584 bus1=364700.1.0,bus2=1010037584.1.0,Phases=1,Linecode=CABBTG02_4_1_1,Length=0.017000000,Units=km
new line.RBT_10037591 bus1=4511297.2.3.0,bus2=1010037591.2.3.0,Phases=2,Linecode=CABBTG05_4_2_2,Length=0.017000000,Units=km
new line.RBT_10037603 bus1=102564361.1.2.0,bus2=1010037603.1.2.0,Phases=2,Linecode=CABBTG05_4_2_2,Length=0.017000000,Units=km
new line.RBT_10037627 bus1=346094.1.2.3.0,bus2=1010037627.1.2.3.0,Phases=3,Linecode=CABBTG07_4_3_3,Length=0.017000000,Units=km
new line.RBT_10038021 bus1=3775282.1.0,bus2=1010038021.1.0,Phases=1,Linecode=CABBTG02_4_1_1,Length=0.017000000,Units=km
new line.RBT_10038166 bus1=3199462.1.0,bus2=1010038166.1.0,Phases=1,Linecode=CABBTG02_4_1_1,Length=0.017000000,Units=km
new line.RBT_10038289 bus1=476042.1.0,bus2=1010038289.1.0,Phases=1,Linecode=CABBTG02_4_1_1,Length=0.017000000,Units=km
new line.RBT_10038310 bus1=363958.1.2.0,bus2=1010038310.1.2.0,Phases=2,Linecode=CABBTG05_4_2_2,Length=0.017000000,Units=km
new line.RBT_10090900 bus1=3967572.1.0,bus2=1010090900.1.0,Phases=1,Linecode=CABBTG02_4_1_1,Length=0.017000000,Units=km
new line.RBT_10090905 bus1=376859.1.0,bus2=1010090905.1.0,Phases=1,Linecode=CABBTG02_4_1_1,Length=0.017000000,Units=km
new line.RBT_10090924 bus1=3640091.1.2.0,bus2=1010090924.1.2.0,Phases=2,Linecode=CABBTG05_4_2_2,Length=0.017000000,Units=km
new line.RBT_10090949 bus1=469063.2.0,bus2=1010090949.2.0,Phases=1,Linecode=CABBTG02_4_1_1,Length=0.017000000,Units=km
new line.RBT_10090986 bus1=374724.1.0,bus2=1010090986.1.0,Phases=1,Linecode=CABBTG02_4_1_1,Length=0.017000000,Units=km
new line.RBT_10090987 bus1=3125150.1.0,bus2=1010090987.1.0,Phases=1,Linecode=CABBTG02_4_1_1,Length=0.017000000,Units=km
new line.RBT_10090995 bus1=3705639.1.0,bus2=1010090995.1.0,Phases=1,Linecode=CABBTG02_4_1_1,Length=0.017000000,Units=km
new line.RBT_10091022 bus1=370552.1.0,bus2=1010091022.1.0,Phases=1,Linecode=CABBTG02_4_1_1,Length=0.017000000,Units=km
new line.RBT_10091025 bus1=151158161.1.0,bus2=1010091025.1.0,Phases=1,Linecode=CABBTG02_4_1_1,Length=0.017000000,Units=km
new line.RBT_10091067 bus1=5033917.1.0,bus2=1010091067.1.0,Phases=1,Linecode=CABBTG02_4_1_1,Length=0.017000000,Units=km
new line.RBT_10091771 bus1=5188379.1.2.3.0,bus2=1010091771.1.2.3.0,Phases=3,Linecode=CABBTG06_4_3_3,Length=0.017000000,Units=km
new line.RBT_10091783 bus1=2859528.1.0,bus2=1010091783.1.0,Phases=1,Linecode=CABBTG02_4_1_1,Length=0.017000000,Units=km
new line.RBT_10040565 bus1=148244446.1.2.0,bus2=1010040565.1.2.0,Phases=2,Linecode=CABBTG05_4_2_2,Length=0.017000000,Units=km
new line.RBT_10040605 bus1=148243338.1.2.3.0,bus2=1010040605.1.2.3.0,Phases=3,Linecode=CABBTG06_4_3_3,Length=0.017000000,Units=km
new line.RBT_10041141 bus1=148250845.1.2.0,bus2=1010041141.1.2.0,Phases=2,Linecode=CABBTG05_4_2_2,Length=0.013000000,Units=km
new line.RBT_10041351 bus1=4409293.1.0,bus2=1010041351.1.0,Phases=1,Linecode=CABBTG01_4_1_1,Length=0.017000000,Units=km
new line.RBT_10041353 bus1=4409293.1.0,bus2=1010041353.1.0,Phases=1,Linecode=CABBTG01_4_1_1,Length=0.017000000,Units=km
new line.RBT_10041354 bus1=4409293.1.0,bus2=1010041354.1.0,Phases=1,Linecode=CABBTG01_4_1_1,Length=0.017000000,Units=km
new line.RBT_10041357 bus1=4409293.1.0,bus2=1010041357.1.0,Phases=1,Linecode=CABBTG01_4_1_1,Length=0.017000000,Units=km
new line.RBT_10041359 bus1=4409293.2.0,bus2=1010041359.2.0,Phases=1,Linecode=CABBTG01_4_1_1,Length=0.017000000,Units=km
new line.RBT_10041876 bus1=8587768.1.0,bus2=1010041876.1.0,Phases=1,Linecode=CABBTG01_4_1_1,Length=0.017000000,Units=km
new line.RBT_10042213 bus1=371084.1.0,bus2=1010042213.1.0,Phases=1,Linecode=CABBTG02_4_1_1,Length=0.017000000,Units=km
new line.RBT_10099823 bus1=3125276.2.0,bus2=1010099823.2.0,Phases=1,Linecode=CABBTG02_4_1_1,Length=0.017000000,Units=km
new line.RBT_10099826 bus1=379610.3.0,bus2=1010099826.3.0,Phases=1,Linecode=CABBTG02_4_1_1,Length=0.017000000,Units=km
new line.RBT_10099843 bus1=53026460.2.0,bus2=1010099843.2.0,Phases=1,Linecode=CABBTG02_4_1_1,Length=0.017000000,Units=km
new line.RBT_10099849 bus1=53026460.1.0,bus2=1010099849.1.0,Phases=1,Linecode=CABBTG02_4_1_1,Length=0.017000000,Units=km
new line.RBT_10099852 bus1=380009.1.0,bus2=1010099852.1.0,Phases=1,Linecode=CABBTG02_4_1_1,Length=0.017000000,Units=km
new line.RBT_10099857 bus1=2965130.1.0,bus2=1010099857.1.0,Phases=1,Linecode=CABBTG02_4_1_1,Length=0.017000000,Units=km
new line.RBT_10099858 bus1=379883.2.0,bus2=1010099858.2.0,Phases=1,Linecode=CABBTG02_4_1_1,Length=0.017000000,Units=km
new line.RBT_10099860 bus1=473641.2.0,bus2=1010099860.2.0,Phases=1,Linecode=CABBTG02_4_1_1,Length=0.017000000,Units=km
new line.RBT_10099864 bus1=473669.3.0,bus2=1010099864.3.0,Phases=1,Linecode=CABBTG02_4_1_1,Length=0.017000000,Units=km
new line.RBT_10099871 bus1=3125283.1.0,bus2=1010099871.1.0,Phases=1,Linecode=CABBTG02_4_1_1,Length=0.017000000,Units=km
new line.RBT_10099875 bus1=380632.1.0,bus2=1010099875.1.0,Phases=1,Linecode=CABBTG02_4_1_1,Length=0.017000000,Units=km
new line.RBT_10099877 bus1=2965109.1.0,bus2=1010099877.1.0,Phases=1,Linecode=CABBTG02_4_1_1,Length=0.017000000,Units=km
new line.RBT_10100216 bus1=494564.3.0,bus2=1010100216.3.0,Phases=1,Linecode=CABBTG02_4_1_1,Length=0.017000000,Units=km
new line.RBT_10100221 bus1=342377.3.0,bus2=1010100221.3.0,Phases=1,Linecode=CABBTG02_4_1_1,Length=0.017000000,Units=km
new line.RBT_10100307 bus1=361725.1.0,bus2=1010100307.1.0,Phases=1,Linecode=CABBTG02_4_1_1,Length=0.017000000,Units=km
new line.RBT_10100311 bus1=4248272.1.2.0,bus2=1010100311.1.2.0,Phases=2,Linecode=CABBTG05_4_2_2,Length=0.017000000,Units=km
new line.RBT_10100316 bus1=379162.1.2.0,bus2=1010100316.1.2.0,Phases=2,Linecode=CABBTG05_4_2_2,Length=0.017000000,Units=km
new line.RBT_10100317 bus1=359072.2.0,bus2=1010100317.2.0,Phases=1,Linecode=CABBTG02_4_1_1,Length=0.017000000,Units=km
new line.RBT_10100355 bus1=3125066.1.2.3.0,bus2=1010100355.1.2.3.0,Phases=3,Linecode=CABBTG06_4_3_3,Length=0.017000000,Units=km
new line.RBT_10100357 bus1=4039091.2.0,bus2=1010100357.2.0,Phases=1,Linecode=CABBTG02_4_1_1,Length=0.017000000,Units=km
new line.RBT_10100358 bus1=4429019.2.0,bus2=1010100358.2.0,Phases=1,Linecode=CABBTG02_4_1_1,Length=0.017000000,Units=km
new line.RBT_10100359 bus1=360850.2.0,bus2=1010100359.2.0,Phases=1,Linecode=CABBTG02_4_1_1,Length=0.017000000,Units=km
new line.RBT_10100365 bus1=163787644.2.3.0,bus2=1010100365.2.3.0,Phases=2,Linecode=CABBTG05_4_2_2,Length=0.017000000,Units=km
new line.RBT_10100366 bus1=481621.1.0,bus2=1010100366.1.0,Phases=1,Linecode=CABBTG02_4_1_1,Length=0.017000000,Units=km
new line.RBT_10100369 bus1=4565113.1.2.0,bus2=1010100369.1.2.0,Phases=2,Linecode=CABBTG05_4_2_2,Length=0.017000000,Units=km
new line.RBT_10100372 bus1=3111836.1.2.0,bus2=1010100372.1.2.0,Phases=2,Linecode=CABBTG05_4_2_2,Length=0.017000000,Units=km
new line.RBT_10100375 bus1=458248.1.2.0,bus2=1010100375.1.2.0,Phases=2,Linecode=CABBTG05_4_2_2,Length=0.017000000,Units=km
new line.RBT_10100377 bus1=148524474.1.2.0,bus2=1010100377.1.2.0,Phases=2,Linecode=CABBTG05_4_2_2,Length=0.017000000,Units=km
new line.RBT_10100467 bus1=377041.1.0,bus2=1010100467.1.0,Phases=1,Linecode=CABBTG02_4_1_1,Length=0.017000000,Units=km
new line.RBT_10100497 bus1=380275.1.2.0,bus2=1010100497.1.2.0,Phases=2,Linecode=CABBTG05_4_2_2,Length=0.017000000,Units=km
new line.RBT_10100502 bus1=146024610.1.2.0,bus2=1010100502.1.2.0,Phases=2,Linecode=CABBTG05_4_2_2,Length=0.017000000,Units=km
new line.RBT_10100509 bus1=346234.1.2.3.0,bus2=1010100509.1.2.3.0,Phases=3,Linecode=CABBTG06_4_3_3,Length=0.017000000,Units=km
new line.RBT_10101290 bus1=4428984.1.2.0,bus2=1010101290.1.2.0,Phases=2,Linecode=CABBTG05_4_2_2,Length=0.017000000,Units=km
new line.RBT_10101292 bus1=4894057.2.3.0,bus2=1010101292.2.3.0,Phases=2,Linecode=CABBTG05_4_2_2,Length=0.017000000,Units=km
new line.RBT_10101295 bus1=4893994.1.0,bus2=1010101295.1.0,Phases=1,Linecode=CABBTG02_4_1_1,Length=0.017000000,Units=km
new line.RBT_10101298 bus1=98966697.1.0,bus2=1010101298.1.0,Phases=1,Linecode=CABBTG02_4_1_1,Length=0.017000000,Units=km
new line.RBT_10101303 bus1=3199490.1.2.0,bus2=1010101303.1.2.0,Phases=2,Linecode=CABBTG04_4_2_2,Length=0.017000000,Units=km
new line.RBT_10101305 bus1=355705.1.2.0,bus2=1010101305.1.2.0,Phases=2,Linecode=CABBTG04_4_2_2,Length=0.017000000,Units=km
new line.RBT_10101308 bus1=346339.1.2.0,bus2=1010101308.1.2.0,Phases=2,Linecode=CABBTG04_4_2_2,Length=0.017000000,Units=km
new line.RBT_10101355 bus1=112067519.1.2.0,bus2=1010101355.1.2.0,Phases=2,Linecode=CABBTG04_4_2_2,Length=0.017000000,Units=km
new line.RBT_10101357 bus1=129664896.1.2.0,bus2=1010101357.1.2.0,Phases=2,Linecode=CABBTG04_4_2_2,Length=0.017000000,Units=km
new line.RBT_10101372 bus1=368851.3.0,bus2=1010101372.3.0,Phases=1,Linecode=CABBTG02_4_1_1,Length=0.017000000,Units=km
new line.RBT_10102290 bus1=148035587.1.2.0,bus2=1010102290.1.2.0,Phases=2,Linecode=CABBTG05_4_2_2,Length=0.017000000,Units=km
new line.RBT_10102316 bus1=4190802.2.3.0,bus2=1010102316.2.3.0,Phases=2,Linecode=CABBTG05_4_2_2,Length=0.017000000,Units=km
new line.RBT_10102324 bus1=369264.1.2.0,bus2=1010102324.1.2.0,Phases=2,Linecode=CABBTG05_4_2_2,Length=0.017000000,Units=km
new line.RBT_10102327 bus1=375074.1.2.0,bus2=1010102327.1.2.0,Phases=2,Linecode=CABBTG05_4_2_2,Length=0.017000000,Units=km
new line.RBT_10102353 bus1=474208.1.2.0,bus2=1010102353.1.2.0,Phases=2,Linecode=CABBTG05_4_2_2,Length=0.017000000,Units=km
new line.RBT_10049508 bus1=148440497.1.2.0,bus2=1010049508.1.2.0,Phases=2,Linecode=CABBTG05_4_2_2,Length=0.017000000,Units=km
new line.RBT_10079509 bus1=146025226.1.0,bus2=1010079509.1.0,Phases=1,Linecode=CABBTG02_4_1_1,Length=0.017000000,Units=km
new line.RBT_10079562 bus1=4749913.1.2.0,bus2=1010079562.1.2.0,Phases=2,Linecode=CABBTG05_4_2_2,Length=0.017000000,Units=km
new line.RBT_10079628 bus1=4512298.1.2.0,bus2=1010079628.1.2.0,Phases=2,Linecode=CABBTG05_4_2_2,Length=0.017000000,Units=km
new line.RBT_10079638 bus1=368473.1.0,bus2=1010079638.1.0,Phases=1,Linecode=CABBTG02_4_1_1,Length=0.017000000,Units=km
new line.RBT_10079667 bus1=375235.1.0,bus2=1010079667.1.0,Phases=1,Linecode=CABBTG02_4_1_1,Length=0.017000000,Units=km
new line.RBT_10079690 bus1=3353091.1.2.0,bus2=1010079690.1.2.0,Phases=2,Linecode=CABBTG05_4_2_2,Length=0.017000000,Units=km
new line.RBT_10079700 bus1=3033569.1.0,bus2=1010079700.1.0,Phases=1,Linecode=CABBTG02_4_1_1,Length=0.017000000,Units=km
new line.RBT_10080587 bus1=149242352.1.2.3.0,bus2=1010080587.1.2.3.0,Phases=3,Linecode=CABBTG06_4_3_3,Length=0.017000000,Units=km
new line.RBT_10081757 bus1=149261073.1.2.0,bus2=1010081757.1.2.0,Phases=2,Linecode=CABBTG05_4_2_2,Length=0.017000000,Units=km
new line.RBT_10082216 bus1=142675789.1.0,bus2=1010082216.1.0,Phases=1,Linecode=CABBTG02_4_1_1,Length=0.017000000,Units=km
new line.RBT_10082632 bus1=361508.1.0,bus2=1010082632.1.0,Phases=1,Linecode=CABBTG02_4_1_1,Length=0.017000000,Units=km
new line.RBT_10082757 bus1=354977.1.2.0,bus2=1010082757.1.2.0,Phases=2,Linecode=CABBTG05_4_2_2,Length=0.017000000,Units=km
new line.RBT_10107063 bus1=363685.1.2.0,bus2=1010107063.1.2.0,Phases=2,Linecode=CABBTG05_4_2_2,Length=0.017000000,Units=km
new line.RBT_10107066 bus1=4893819.1.2.0,bus2=1010107066.1.2.0,Phases=2,Linecode=CABBTG05_4_2_2,Length=0.017000000,Units=km
new line.RBT_10107086 bus1=4894015.1.0,bus2=1010107086.1.0,Phases=1,Linecode=CABBTG02_4_1_1,Length=0.017000000,Units=km
new line.RBT_10107089 bus1=4511633.2.3.0,bus2=1010107089.2.3.0,Phases=2,Linecode=CABBTG05_4_2_2,Length=0.017000000,Units=km
new line.RBT_10107094 bus1=475244.1.0,bus2=1010107094.1.0,Phases=1,Linecode=CABBTG02_4_1_1,Length=0.017000000,Units=km
new line.RBT_10110159 bus1=377783.2.0,bus2=1010110159.2.0,Phases=1,Linecode=CABBTG02_4_1_1,Length=0.017000000,Units=km
new line.RBT_10110175 bus1=377790.2.0,bus2=1010110175.2.0,Phases=1,Linecode=CABBTG02_4_1_1,Length=0.017000000,Units=km
new line.RBT_10110184 bus1=4406458.1.2.0,bus2=1010110184.1.2.0,Phases=2,Linecode=CABBTG05_4_2_2,Length=0.017000000,Units=km
new line.RBT_10138925 bus1=377181.1.2.0,bus2=1010138925.1.2.0,Phases=2,Linecode=CABBTG05_4_2_2,Length=0.017000000,Units=km
new line.RBT_10140004 bus1=353276.1.2.0,bus2=1010140004.1.2.0,Phases=2,Linecode=CABBTG05_4_2_2,Length=0.017000000,Units=km
new line.RBT_10140703 bus1=350546.1.0,bus2=1010140703.1.0,Phases=1,Linecode=CABBTG02_4_1_1,Length=0.017000000,Units=km
new line.RBT_10141239 bus1=481005.1.2.0,bus2=1010141239.1.2.0,Phases=2,Linecode=CABBTG05_4_2_2,Length=0.017000000,Units=km
new line.RBT_10141279 bus1=358645.1.2.0,bus2=1010141279.1.2.0,Phases=2,Linecode=CABBTG05_4_2_2,Length=0.017000000,Units=km
new line.RBT_10184596 bus1=361025.1.0,bus2=1010184596.1.0,Phases=1,Linecode=CABBTG01_4_1_1,Length=0.017000000,Units=km
new line.RBT_10184725 bus1=3077963.1.2.0,bus2=1010184725.1.2.0,Phases=2,Linecode=CABBTG05_4_2_2,Length=0.017000000,Units=km
new line.RBT_10184729 bus1=3199483.1.2.0,bus2=1010184729.1.2.0,Phases=2,Linecode=CABBTG05_4_2_2,Length=0.017000000,Units=km
new line.RBT_10184742 bus1=366324.1.2.0,bus2=1010184742.1.2.0,Phases=2,Linecode=CABBTG05_4_2_2,Length=0.017000000,Units=km
new line.RBT_10184753 bus1=494361.2.0,bus2=1010184753.2.0,Phases=1,Linecode=CABBTG02_4_1_1,Length=0.017000000,Units=km
new line.RBT_10184754 bus1=146025317.1.0,bus2=1010184754.1.0,Phases=1,Linecode=CABBTG02_4_1_1,Length=0.017000000,Units=km
new line.RBT_10184755 bus1=493605.1.0,bus2=1010184755.1.0,Phases=1,Linecode=CABBTG02_4_1_1,Length=0.017000000,Units=km
new line.RBT_10184758 bus1=148741357.1.2.0,bus2=1010184758.1.2.0,Phases=2,Linecode=CABBTG05_4_2_2,Length=0.017000000,Units=km
new line.RBT_10184763 bus1=140046043.1.0,bus2=1010184763.1.0,Phases=1,Linecode=CABBTG02_4_1_1,Length=0.017000000,Units=km
new line.RBT_10184766 bus1=140045973.2.0,bus2=1010184766.2.0,Phases=1,Linecode=CABBTG02_4_1_1,Length=0.017000000,Units=km
new line.RBT_10184891 bus1=355705.1.0,bus2=1010184891.1.0,Phases=1,Linecode=CABBTG02_4_1_1,Length=0.017000000,Units=km
new line.RBT_10184893 bus1=112067561.1.0,bus2=1010184893.1.0,Phases=1,Linecode=CABBTG02_4_1_1,Length=0.017000000,Units=km
new line.RBT_10184898 bus1=112067449.1.0,bus2=1010184898.1.0,Phases=1,Linecode=CABBTG02_4_1_1,Length=0.017000000,Units=km
new line.RBT_10184936 bus1=140767337.1.2.0,bus2=1010184936.1.2.0,Phases=2,Linecode=CABBTG05_4_2_2,Length=0.017000000,Units=km
new line.RBT_10184979 bus1=142675292.1.0,bus2=1010184979.1.0,Phases=1,Linecode=CABBTG02_4_1_1,Length=0.017000000,Units=km
new line.RBT_10185000 bus1=98966900.2.0,bus2=1010185000.2.0,Phases=1,Linecode=CABBTG02_4_1_1,Length=0.017000000,Units=km
new line.RBT_10185003 bus1=98966900.2.0,bus2=1010185003.2.0,Phases=1,Linecode=CABBTG02_4_1_1,Length=0.017000000,Units=km
new line.RBT_10185009 bus1=137688107.1.2.0,bus2=1010185009.1.2.0,Phases=2,Linecode=CABBTG05_4_2_2,Length=0.017000000,Units=km
new line.RBT_10185012 bus1=469049.2.0,bus2=1010185012.2.0,Phases=1,Linecode=CABBTG02_4_1_1,Length=0.017000000,Units=km
new line.RBT_10185016 bus1=4511997.1.2.3.0,bus2=1010185016.1.2.3.0,Phases=3,Linecode=CABBTG06_4_3_3,Length=0.017000000,Units=km
new line.RBT_10185109 bus1=475629.1.0,bus2=1010185109.1.0,Phases=1,Linecode=CABBTG02_4_1_1,Length=0.017000000,Units=km
new line.RBT_10185110 bus1=98966865.1.2.0,bus2=1010185110.1.2.0,Phases=2,Linecode=CABBTG05_4_2_2,Length=0.017000000,Units=km
new line.RBT_10185111 bus1=355698.1.2.0,bus2=1010185111.1.2.0,Phases=2,Linecode=CABBTG05_4_2_2,Length=0.017000000,Units=km
new line.RBT_10185113 bus1=98966865.2.3.0,bus2=1010185113.2.3.0,Phases=2,Linecode=CABBTG05_4_2_2,Length=0.017000000,Units=km
new line.RBT_10185116 bus1=112067547.1.0,bus2=1010185116.1.0,Phases=1,Linecode=CABBTG02_4_1_1,Length=0.017000000,Units=km
new line.RBT_10185117 bus1=127226187.1.2.0,bus2=1010185117.1.2.0,Phases=2,Linecode=CABBTG05_4_2_2,Length=0.017000000,Units=km
new line.RBT_10185157 bus1=357350.1.0,bus2=1010185157.1.0,Phases=1,Linecode=CABBTG01_4_1_1,Length=0.017000000,Units=km
new line.RBT_10185161 bus1=494613.1.0,bus2=1010185161.1.0,Phases=1,Linecode=CABBTG02_4_1_1,Length=0.017000000,Units=km
new line.RBT_10185164 bus1=377881.1.2.0,bus2=1010185164.1.2.0,Phases=2,Linecode=CABBTG05_4_2_2,Length=0.017000000,Units=km
new line.RBT_10185177 bus1=355586.3.1.0,bus2=1010185177.3.1.0,Phases=2,Linecode=CABBTG05_4_2_2,Length=0.017000000,Units=km
new line.RBT_10185234 bus1=367969.1.2.0,bus2=1010185234.1.2.0,Phases=2,Linecode=CABBTG05_4_2_2,Length=0.017000000,Units=km
new line.RBT_10102357 bus1=372435.1.2.0,bus2=1010102357.1.2.0,Phases=2,Linecode=CABBTG05_4_2_2,Length=0.017000000,Units=km
new line.RBT_10102367 bus1=4190718.2.0,bus2=1010102367.2.0,Phases=1,Linecode=CABBTG02_4_1_1,Length=0.017000000,Units=km
new line.RBT_10102369 bus1=67300370.2.0,bus2=1010102369.2.0,Phases=1,Linecode=CABBTG02_4_1_1,Length=0.017000000,Units=km
new line.RBT_10130220 bus1=358981.2.3.0,bus2=1010130220.2.3.0,Phases=2,Linecode=CABBTG05_4_2_2,Length=0.017000000,Units=km
new line.RBT_10130226 bus1=357903.2.3.0,bus2=1010130226.2.3.0,Phases=2,Linecode=CABBTG05_4_2_2,Length=0.017000000,Units=km
new line.RBT_10130229 bus1=356895.3.1.0,bus2=1010130229.3.1.0,Phases=2,Linecode=CABBTG05_4_2_2,Length=0.017000000,Units=km
new line.RBT_10130238 bus1=352177.2.0,bus2=1010130238.2.0,Phases=1,Linecode=CABBTG02_4_1_1,Length=0.017000000,Units=km
new line.RBT_10130285 bus1=2638972.1.2.0,bus2=1010130285.1.2.0,Phases=2,Linecode=CABBTG05_4_2_2,Length=0.017000000,Units=km
new line.RBT_10130298 bus1=354739.1.2.0,bus2=1010130298.1.2.0,Phases=2,Linecode=CABBTG05_4_2_2,Length=0.017000000,Units=km
new line.RBT_10130316 bus1=5357667.1.2.0,bus2=1010130316.1.2.0,Phases=2,Linecode=CABBTG05_4_2_2,Length=0.017000000,Units=km
new line.RBT_10130433 bus1=149645170.2.0,bus2=1010130433.2.0,Phases=1,Linecode=CABBTG02_4_1_1,Length=0.017000000,Units=km
new line.RBT_10131853 bus1=377790.1.2.0,bus2=1010131853.1.2.0,Phases=2,Linecode=CABBTG05_4_2_2,Length=0.017000000,Units=km
new line.RBT_10182214 bus1=129664049.2.0,bus2=1010182214.2.0,Phases=1,Linecode=CABBTG02_4_1_1,Length=0.017000000,Units=km
new line.RBT_10182216 bus1=98966900.2.0,bus2=1010182216.2.0,Phases=1,Linecode=CABBTG02_4_1_1,Length=0.017000000,Units=km
new line.RBT_10182218 bus1=362138.2.0,bus2=1010182218.2.0,Phases=1,Linecode=CABBTG02_4_1_1,Length=0.017000000,Units=km
new line.RBT_10182219 bus1=84927896.2.0,bus2=1010182219.2.0,Phases=1,Linecode=CABBTG02_4_1_1,Length=0.017000000,Units=km