new line.CTR105868 bus1=BMT120725896.1.2.3,bus2=BMT120728521.1.2.3,Phases=3,LineCode=tieSwitch,Length=0.001,Units=km,switch=T !numEQ 15727
new line.CTR105875 bus1=BMT120725966.1.2.3,bus2=BMT120725980.1.2.3,Phases=3,LineCode=tieSwitch,Length=0.001,Units=km,switch=T !numEQ 72471
new line.CTR105896 bus1=BMT120726526.1.2.3,bus2=BMT120726533.1.2.3,Phases=3,LineCode=tieSwitch,Length=0.001,Units=km,switch=T !numEQ 91327
new line.CTR105910 bus1=BMT120728367.1.2.3,bus2=BMT150923778.1.2.3,Phases=3,LineCode=tieSwitch,Length=0.001,Units=km,switch=T !numEQ 91331
new line.CTR105917 bus1=BMT120727912.1.2.3,bus2=BMT151455011.1.2.3,Phases=3,LineCode=tieSwitch,Length=0.001,Units=km,switch=T !numEQ 91333
new line.CTR105931 bus1=BMT120726687.1.2.3,bus2=BMT160541595.1.2.3,Phases=3,LineCode=tieSwitch,Length=0.001,Units=km,switch=T !numEQ 74502
new line.CTR105938 bus1=BMT120726757.1.2.3,bus2=BMT120726778.1.2.3,Phases=3,LineCode=tieSwitch,Length=0.001,Units=km,switch=T !numEQ 91295
new line.CTR105945 bus1=BMT120726624.1.2.3,bus2=BMT150343930.1.2.3,Phases=3,LineCode=tieSwitch,Length=0.001,Units=km,switch=T !numEQ 73708
new line.CTR105959 bus1=BMT120726225.1.2.3,bus2=BMT175170110.1.2.3,Phases=3,LineCode=tieSwitch,Length=0.001,Units=km,switch=T !numEQ 85731
new line.CTR105973 bus1=BMT149337754.1.2.3,bus2=BMT120728822.1.2.3,Phases=3,LineCode=tieSwitch,Length=0.001,Units=km,switch=T !numEQ 72630
new line.CTR105980 bus1=BMT120728850.1.2.3,bus2=BMT146726108.1.2.3,Phases=3,LineCode=tieSwitch,Length=0.001,Units=km,switch=T !numEQ 91463
new line.CTR105987 bus1=BMT120728766.1.2.3,bus2=BMT136368572.1.2.3,Phases=3,LineCode=tieSwitch,Length=0.001,Units=km,switch=T !numEQ 91343
new line.CTR105994 bus1=BMT120728724.1.2.3,bus2=BMT120726085.1.2.3,Phases=3,LineCode=tieSwitch,Length=0.001,Units=km,switch=T !numEQ 72940
open line.CTR105994 term=1
new line.CTR106001 bus1=BMT170189569.1.2.3,bus2=BMT145446326.1.2.3,Phases=3,LineCode=tieSwitch,Length=0.001,Units=km,switch=T !numEQ 85585
new line.CTR106008 bus1=BMT120717678.1,bus2=BMT120725728.1,Phases=1,LineCode=tieSwitch1,Length=0.001,Units=km,switch=T !numEQ 72480
new line.CTR106015 bus1=BMT120717797.1.2.3,bus2=BMT120717811.1.2.3,Phases=3,LineCode=tieSwitch,Length=0.001,Units=km,switch=T !numEQ 85383
new line.CTR106022 bus1=BMT120717818.1.2.3,bus2=BMT120725602.1.2.3,Phases=3,LineCode=tieSwitch,Length=0.001,Units=km,switch=T !numEQ 84812
new line.CTR106029 bus1=BMT120717832.1.2.3,bus2=BMT145923488.1.2.3,Phases=3,LineCode=tieSwitch,Length=0.001,Units=km,switch=T !numEQ 72484
new line.CTR106036 bus1=BMT120719071.2,bus2=BMT120723432.2,Phases=1,LineCode=tieSwitch1,Length=0.001,Units=km,switch=T !numEQ 73133
new line.CTR106043 bus1=BMT120719092.1,bus2=BMT120723369.1,Phases=1,LineCode=tieSwitch1,Length=0.001,Units=km,switch=T !numEQ 73135
new line.CTR106057 bus1=BMT120718007.1.2.3,bus2=BMT120718049.1.2.3,Phases=3,LineCode=tieSwitch,Length=0.001,Units=km,switch=T !numEQ 72495
new line.CTR106078 bus1=BMT132497803.1.2.3,bus2=BMT120718133.1.2.3,Phases=3,LineCode=tieSwitch,Length=0.001,Units=km,switch=T !numEQ 84726
new line.CTR106085 bus1=BMT120724930.1.2.3,bus2=BMT175458866.1.2.3,Phases=3,LineCode=tieSwitch,Length=0.001,Units=km,switch=T !numEQ 288392
new line.CTR106113 bus1=BMT120723908.2,bus2=BMT120723999.2,Phases=1,LineCode=tieSwitch1,Length=0.001,Units=km,switch=T !numEQ 15276
new line.CTR106155 bus1=BMT120718931.1.2.3,bus2=BMT120718952.1.2.3,Phases=3,LineCode=tieSwitch,Length=0.001,Units=km,switch=T !numEQ 73247
new line.CTR106218 bus1=BMT120719512.3,bus2=BMT120721430.3,Phases=1,LineCode=tieSwitch1,Length=0.001,Units=km,switch=T !numEQ 73331
new line.CTR106225 bus1=BMT120720226.2,bus2=BMT120720835.2,Phases=1,LineCode=tieSwitch1,Length=0.001,Units=km,switch=T !numEQ 73011
new line.CTR106232 bus1=BMT142253276.2,bus2=BMT146718772.2,Phases=1,LineCode=tieSwitch1,Length=0.001,Units=km,switch=T !numEQ 73333
new line.CTR106246 bus1=BMT120718497.2,bus2=BMT120718504.2,Phases=1,LineCode=tieSwitch1,Length=0.001,Units=km,switch=T !numEQ 85437
new line.CTR106260 bus1=BMT120717944.1.2.3,bus2=BMT120725266.1.2.3,Phases=3,LineCode=tieSwitch,Length=0.001,Units=km,switch=T !numEQ 84959
new line.CTR106281 bus1=BMT120725532.1.2.3,bus2=BMT120725553.1.2.3,Phases=3,LineCode=tieSwitch,Length=0.001,Units=km,switch=T !numEQ 73334
new line.CTR106288 bus1=BMT120717804.1.2.3,bus2=BMT176461107.1.2.3,Phases=3,LineCode=tieSwitch,Length=0.001,Units=km,switch=T !numEQ 72482
new line.CTR106309 bus1=BMT120703482.1.2.3,bus2=BMT175813660.1.2.3,Phases=3,LineCode=tieSwitch,Length=0.001,Units=km,switch=T !numEQ 85716
new line.CTR106316 bus1=BMT120702768.1.2.3,bus2=BMT167158289.1.2.3,Phases=3,LineCode=tieSwitch,Length=0.001,Units=km,switch=T !numEQ 72541
new line.CTR106323 bus1=BMT120705246.1.2.3,bus2=BMT172696636.1.2.3,Phases=3,LineCode=tieSwitch,Length=0.001,Units=km,switch=T !numEQ 74259
new line.CTR106330 bus1=BMT120703055.1.2.3,bus2=BMT120703118.1.2.3,Phases=3,LineCode=tieSwitch,Length=0.001,Units=km,switch=T !numEQ 15728
new line.CTR106337 bus1=BMT120703146.3,bus2=BMT120707080.3,Phases=1,LineCode=tieSwitch1,Length=0.001,Units=km,switch=T !numEQ 72548
new line.CTR106344 bus1=BMT120703202.3,bus2=BMT120707010.3,Phases=1,LineCode=tieSwitch1,Length=0.001,Units=km,switch=T !numEQ 74265
new line.CTR106358 bus1=BMT154044069.1.2.3,bus2=BMT163225388.1.2.3,Phases=3,LineCode=tieSwitch,Length=0.001,Units=km,switch=T !numEQ 15267
new line.CTR106365 bus1=BMT120703391.1.2.3,bus2=BMT171888800.1.2.3,Phases=3,LineCode=tieSwitch,Length=0.001,Units=km,switch=T !numEQ 85065
new line.CTR106372 bus1=BMT120705141.1,bus2=BMT120706926.1,Phases=1,LineCode=tieSwitch1,Length=0.001,Units=km,switch=T !numEQ 74239
new line.CTR106379 bus1=BMT153130242.1.2.3,bus2=BMT160831284.1.2.3,Phases=3,LineCode=tieSwitch,Length=0.001,Units=km,switch=T !numEQ 74240
new line.CTR106386 bus1=BMT120705239.1.2.3,bus2=BMT172525805.1.2.3,Phases=3,LineCode=tieSwitch,Length=0.001,Units=km,switch=T !numEQ 74257
new line.CTR106393 bus1=BMT120705379.2,bus2=BMT120705834.2,Phases=1,LineCode=tieSwitch1,Length=0.001,Units=km,switch=T !numEQ 74251
new line.CTR106400 bus1=BMT128857488.1,bus2=BMT160921071.1,Phases=1,LineCode=tieSwitch1,Length=0.001,Units=km,switch=T !numEQ 291188
new line.CTR106414 bus1=BMT120703272.2,bus2=BMT120703300.2,Phases=1,LineCode=tieSwitch1,Length=0.001,Units=km,switch=T !numEQ 74262
new line.CTR106421 bus1=BMT120708396.3,bus2=BMT120710363.3,Phases=1,LineCode=tieSwitch1,Length=0.001,Units=km,switch=T !numEQ 72531
new line.CTR106428 bus1=BMT120708452.1.2.3,bus2=BMT176677261.1.2.3,Phases=3,LineCode=tieSwitch,Length=0.001,Units=km,switch=T !numEQ 72532
new line.CTR106435 bus1=BMT120708788.3,bus2=BMT172418112.3,Phases=1,LineCode=tieSwitch1,Length=0.001,Units=km,switch=T !numEQ 73311
new line.CTR106442 bus1=BMT120710251.3,bus2=BMT155909629.3,Phases=1,LineCode=tieSwitch1,Length=0.001,Units=km,switch=T !numEQ 15269
new line.CTR106456 bus1=BMT120729298.1.2.3,bus2=BMT153553710.1.2.3,Phases=3,LineCode=tieSwitch,Length=0.001,Units=km,switch=T !numEQ 91356
new line.CTR106463 bus1=BMT165589268.1.2.3,bus2=BMT166723022.1.2.3,Phases=3,LineCode=tieSwitch,Length=0.001,Units=km,switch=T !numEQ 72672
new line.CTR106470 bus1=BMT120729333.1.2.3,bus2=BMT120741702.1.2.3,Phases=3,LineCode=tieSwitch,Length=0.001,Units=km,switch=T !numEQ 15330
new line.CTR106477 bus1=BMT120729536.1.2.3,bus2=BMT120730271.1.2.3,Phases=3,LineCode=tieSwitch,Length=0.001,Units=km,switch=T !numEQ 72640
new line.CTR106484 bus1=BMT148612319.3,bus2=BMT120729606.3,Phases=1,LineCode=tieSwitch1,Length=0.001,Units=km,switch=T !numEQ 73028
new line.CTR106498 bus1=BMT120730369.3,bus2=BMT156866907.3,Phases=1,LineCode=tieSwitch1,Length=0.001,Units=km,switch=T !numEQ 73409
new line.CTR106505 bus1=BMT120729529.1.2.3,bus2=BMT148612312.1.2.3,Phases=3,LineCode=tieSwitch,Length=0.001,Units=km,switch=T !numEQ 72641
new line.CTR106512 bus1=BMT120729697.2,bus2=BMT120730131.2,Phases=1,LineCode=tieSwitch1,Length=0.001,Units=km,switch=T !numEQ 73110
new line.CTR106519 bus1=BMT120729830.1,bus2=BMT120729970.1,Phases=1,LineCode=tieSwitch1,Length=0.001,Units=km,switch=T !numEQ 73038
new line.CTR106526 bus1=BMT120729886.3,bus2=BMT120729935.3,Phases=1,LineCode=tieSwitch1,Length=0.001,Units=km,switch=T !numEQ 72653
new line.CTR106533 bus1=BMT172637607.1.2.3,bus2=BMT2541098.1.2.3,Phases=3,LineCode=tieSwitch,Length=0.001,Units=km,switch=T !numEQ 72658
open line.CTR106533 term=1
new line.CTR106540 bus1=BMT120730642.2,bus2=BMT120741639.2,Phases=1,LineCode=tieSwitch1,Length=0.001,Units=km,switch=T !numEQ 73067
new line.CTR106547 bus1=BMT120730656.2,bus2=BMT120741625.2,Phases=1,LineCode=tieSwitch1,Length=0.001,Units=km,switch=T !numEQ 72643
new line.CTR106554 bus1=BMT120730677.1,bus2=BMT163072383.1,Phases=1,LineCode=tieSwitch1,Length=0.001,Units=km,switch=T !numEQ 15297
new line.CTR106561 bus1=BMT120730684.1,bus2=BMT120737810.1,Phases=1,LineCode=tieSwitch1,Length=0.001,Units=km,switch=T !numEQ 72666
new line.CTR106568 bus1=BMT120730705.2,bus2=BMT120737768.2,Phases=1,LineCode=tieSwitch1,Length=0.001,Units=km,switch=T !numEQ 72667
new line.CTR106575 bus1=BMT120730740.3,bus2=BMT120737754.3,Phases=1,LineCode=tieSwitch1,Length=0.001,Units=km,switch=T !numEQ 73726
new line.CTR106582 bus1=BMT120730754.1.2.3,bus2=BMT175526858.1.2.3,Phases=3,LineCode=tieSwitch,Length=0.001,Units=km,switch=T !numEQ 73727
new line.CTR106596 bus1=BMT120730845.1,bus2=BMT120737551.1,Phases=1,LineCode=tieSwitch1,Length=0.001,Units=km,switch=T !numEQ 73379
new line.CTR106603 bus1=BMT120730866.1.2.3,bus2=BMT120737530.1.2.3,Phases=3,LineCode=tieSwitch,Length=0.001,Units=km,switch=T !numEQ 72673
new line.CTR106617 bus1=BMT175526871.1.2.3,bus2=BMT175527307.1.2.3,Phases=3,LineCode=tieSwitch,Length=0.001,Units=km,switch=T !numEQ 73383
new line.CTR106631 bus1=BMT120730985.1,bus2=BMT120734709.1,Phases=1,LineCode=tieSwitch1,Length=0.001,Units=km,switch=T !numEQ 72683
new line.CTR106638 bus1=BMT120730992.3,bus2=BMT160571323.3,Phases=1,LineCode=tieSwitch1,Length=0.001,Units=km,switch=T !numEQ 72684
new line.CTR106645 bus1=BMT120731006.1.2.3,bus2=BMT161202989.1.2.3,Phases=3,LineCode=tieSwitch,Length=0.001,Units=km,switch=T !numEQ 72665
new line.CTR106652 bus1=BMT120731055.3,bus2=BMT120734653.3,Phases=1,LineCode=tieSwitch1,Length=0.001,Units=km,switch=T !numEQ 72686
new line.CTR106659 bus1=BMT120731062.1,bus2=BMT120734576.1,Phases=1,LineCode=tieSwitch1,Length=0.001,Units=km,switch=T !numEQ 72687
new line.CTR106666 bus1=BMT120731195.1,bus2=BMT120734562.1,Phases=1,LineCode=tieSwitch1,Length=0.001,Units=km,switch=T !numEQ 72688
new line.CTR106680 bus1=BMT120734240.2,bus2=BMT165139883.2,Phases=1,LineCode=tieSwitch1,Length=0.001,Units=km,switch=T !numEQ 73419
new line.CTR106687 bus1=BMT120731244.1,bus2=BMT120734058.1,Phases=1,LineCode=tieSwitch1,Length=0.001,Units=km,switch=T !numEQ 74507
new line.CTR106694 bus1=BMT120731279.1,bus2=BMT148057264.1,Phases=1,LineCode=tieSwitch1,Length=0.001,Units=km,switch=T !numEQ 73386
new line.CTR106701 bus1=BMT120731286.3,bus2=BMT172061749.3,Phases=1,LineCode=tieSwitch1,Length=0.001,Units=km,switch=T !numEQ 72694
new line.CTR106708 bus1=BMT120731328.1.2.3,bus2=BMT120731335.1.2.3,Phases=3,LineCode=tieSwitch,Length=0.001,Units=km,switch=T !numEQ 72695
new line.CTR106722 bus1=BMT120731363.2,bus2=BMT120733897.2,Phases=1,LineCode=tieSwitch1,Length=0.001,Units=km,switch=T !numEQ 73069
new line.CTR106729 bus1=BMT120731419.1.2.3,bus2=BMT120733722.1.2.3,Phases=3,LineCode=tieSwitch,Length=0.001,Units=km,switch=T !numEQ 72697
new line.CTR106736 bus1=BMT120731433.1.2.3,bus2=BMT120733526.1.2.3,Phases=3,LineCode=tieSwitch,Length=0.001,Units=km,switch=T !numEQ 91385
new line.CTR106743 bus1=BMT120731048.2,bus2=BMT160010290.2,Phases=1,LineCode=tieSwitch1,Length=0.001,Units=km,switch=T !numEQ 72972
new line.CTR106750 bus1=BMT120731524.1.2.3,bus2=BMT171485172.1.2.3,Phases=3,LineCode=tieSwitch,Length=0.001,Units=km,switch=T !numEQ 72698
new line.CTR106757 bus1=BMT120731601.1.2.3,bus2=BMT120731629.1.2.3,Phases=3,LineCode=tieSwitch,Length=0.001,Units=km,switch=T !numEQ 72702
new line.CTR106764 bus1=BMT120731741.2,bus2=BMT176257845.2,Phases=1,LineCode=tieSwitch1,Length=0.001,Units=km,switch=T !numEQ 72975
new line.CTR106771 bus1=BMT120731804.3,bus2=BMT120733218.3,Phases=1,LineCode=tieSwitch1,Length=0.001,Units=km,switch=T !numEQ 15298
new line.CTR106778 bus1=BMT120726792.1.2.3,bus2=BMT120727793.1.2.3,Phases=3,LineCode=tieSwitch,Length=0.001,Units=km,switch=T !numEQ 102343
new line.CTR106785 bus1=BMT120731993.2,bus2=BMT159797171.2,Phases=1,LineCode=tieSwitch1,Length=0.001,Units=km,switch=T !numEQ 74404
new line.CTR106792 bus1=BMT120732042.1,bus2=BMT174637959.1,Phases=1,LineCode=tieSwitch1,Length=0.001,Units=km,switch=T !numEQ 73336
new line.CTR11424 bus1=BMT120738307.2,bus2=BMT169764791.2,Phases=1,LineCode=tieSwitch1,Length=0.001,Units=km,switch=T !numEQ 79899
new line.CTR109655 bus1=BMT168452079.2,bus2=BMT120701060.2,Phases=1,LineCode=tieSwitch1,Length=0.001,Units=km,switch=T !numEQ 119869
new line.CTR109802 bus1=BMT120689573.1.2.3,bus2=BMT163856392.1.2.3,Phases=3,LineCode=tieSwitch,Length=0.001,Units=km,switch=T !numEQ 72537
new line.CTR109816 bus1=BMT120699394.2,bus2=BMT174363011.2,Phases=1,LineCode=tieSwitch1,Length=0.001,Units=km,switch=T !numEQ 72613
new line.CTR109844 bus1=BMT120689559.3,bus2=BMT120702369.3,Phases=1,LineCode=tieSwitch1,Length=0.001,Units=km,switch=T !numEQ 72528
new line.CTR109851 bus1=BMT120689587.1.2.3,bus2=BMT120689608.1.2.3,Phases=3,LineCode=tieSwitch,Length=0.001,Units=km,switch=T !numEQ 91435
new line.CTR109858 bus1=BMT120689650.1.2.3,bus2=BMT120689664.1.2.3,Phases=3,LineCode=tieSwitch,Length=0.001,Units=km,switch=T !numEQ 91436
new line.CTR109865 bus1=BMT120689671.1.2.3,bus2=BMT120700878.1.2.3,Phases=3,LineCode=tieSwitch,Length=0.001,Units=km,switch=T !numEQ 72545
new line.CTR109872 bus1=BMT120689685.1.2.3,bus2=BMT120689692.1.2.3,Phases=3,LineCode=tieSwitch,Length=0.001,Units=km,switch=T !numEQ 91437
new line.CTR109879 bus1=BMT120689811.1,bus2=BMT120700031.1,Phases=1,LineCode=tieSwitch1,Length=0.001,Units=km,switch=T !numEQ 85714
new line.CTR109886 bus1=BMT120689832.1.2.3,bus2=BMT174050658.1.2.3,Phases=3,LineCode=tieSwitch,Length=0.001,Units=km,switch=T !numEQ 91438
new line.CTR109893 bus1=BMT120689867.1.2.3,bus2=BMT174050593.1.2.3,Phases=3,LineCode=tieSwitch,Length=0.001,Units=km,switch=T !numEQ 72605
new line.CTR109907 bus1=BMT120689958.1.2.3,bus2=BMT175968520.1.2.3,Phases=3,LineCode=tieSwitch,Length=0.001,Units=km,switch=T !numEQ 72609
new line.CTR109914 bus1=BMT174607344.1.2.3,bus2=BMT174607605.1.2.3,Phases=3,LineCode=tieSwitch,Length=0.001,Units=km,switch=T !numEQ 72610
new line.CTR109921 bus1=BMT120690168.1.2.3,bus2=BMT141881289.1.2.3,Phases=3,LineCode=tieSwitch,Length=0.001,Units=km,switch=T !numEQ 72614
new line.CTR109928 bus1=BMT120695768.1.2.3,bus2=BMT175230676.1.2.3,Phases=3,LineCode=tieSwitch,Length=0.001,Units=km,switch=T !numEQ 73435
new line.CTR109956 bus1=BMT120696132.2,bus2=BMT120698540.2,Phases=1,LineCode=tieSwitch1,Length=0.001,Units=km,switch=T !numEQ 74218
new line.CTR109963 bus1=BMT120696230.2,bus2=BMT147936835.2,Phases=1,LineCode=tieSwitch1,Length=0.001,Units=km,switch=T !numEQ 72945
new line.CTR109970 bus1=BMT120696447.1.2.3,bus2=BMT120698526.1.2.3,Phases=3,LineCode=tieSwitch,Length=0.001,Units=km,switch=T !numEQ 74216
new line.CTR109977 bus1=BMT120696524.3,bus2=BMT139170210.3,Phases=1,LineCode=tieSwitch1,Length=0.001,Units=km,switch=T !numEQ 74214
new line.CTR109984 bus1=BMT120696538.1,bus2=BMT120698407.1,Phases=1,LineCode=tieSwitch1,Length=0.001,Units=km,switch=T !numEQ 74213
new line.CTR109991 bus1=BMT120696545.3,bus2=BMT135221265.3,Phases=1,LineCode=tieSwitch1,Length=0.001,Units=km,switch=T !numEQ 72619
new line.CTR109998 bus1=BMT120696573.1,bus2=BMT172522560.1,Phases=1,LineCode=tieSwitch1,Length=0.001,Units=km,switch=T !numEQ 74209
new line.CTR110005 bus1=BMT120697154.3,bus2=BMT175307274.3,Phases=1,LineCode=tieSwitch1,Length=0.001,Units=km,switch=T !numEQ 74212
new line.CTR110012 bus1=BMT120697427.3,bus2=BMT168003660.3,Phases=1,LineCode=tieSwitch1,Length=0.001,Units=km,switch=T !numEQ 15300
new line.CTR110019 bus1=BMT120696531.1,bus2=BMT120696622.1,Phases=1,LineCode=tieSwitch1,Length=0.001,Units=km,switch=T !numEQ 74215
new line.CTR110033 bus1=BMT120695915.1.2.3,bus2=BMT167875401.1.2.3,Phases=3,LineCode=tieSwitch,Length=0.001,Units=km,switch=T !numEQ 91298
new line.CTR110047 bus1=BMT120695859.1.2.3,bus2=BMT168083333.1.2.3,Phases=3,LineCode=tieSwitch,Length=0.001,Units=km,switch=T !numEQ 84930
new line.CTR110068 bus1=BMT120690553.1.2.3,bus2=BMT175646893.1.2.3,Phases=3,LineCode=tieSwitch,Length=0.001,Units=km,switch=T !numEQ 84848
new line.CTR110075 bus1=BMT173461075.1.2.3,bus2=BMT120690266.1.2.3,Phases=3,LineCode=tieSwitch,Length=0.001,Units=km,switch=T !numEQ 314975
new line.CTR110082 bus1=BMT120690504.1.2.3,bus2=BMT120695663.1.2.3,Phases=3,LineCode=tieSwitch,Length=0.001,Units=km,switch=T !numEQ 84486
new line.CTR110089 bus1=BMT175223086.1.2.3,bus2=BMT120690532.1.2.3,Phases=3,LineCode=tieSwitch,Length=0.001,Units=km,switch=T !numEQ 73431
new line.CTR110103 bus1=BMT165980018.1.2.3,bus2=BMT120690567.1.2.3,Phases=3,LineCode=tieSwitch,Length=0.001,Units=km,switch=T !numEQ 91289
new line.CTR110138 bus1=BMT120691631.2,bus2=BMT174046815.2,Phases=1,LineCode=tieSwitch1,Length=0.001,Units=km,switch=T !numEQ 74206
new line.CTR110145 bus1=BMT172308269.2,bus2=BMT2544311.2,Phases=1,LineCode=tieSwitch1,Length=0.001,Units=km,switch=T !numEQ 74207
open line.CTR110145 term=1
new line.CTR110152 bus1=BMT172027030.2,bus2=BMT120704357.2,Phases=1,LineCode=tieSwitch1,Length=0.001,Units=km,switch=T !numEQ 75001
new line.CTR110166 bus1=BMT120693724.2,bus2=BMT155278292.2,Phases=1,LineCode=tieSwitch1,Length=0.001,Units=km,switch=T !numEQ 214307
new line.CTR110173 bus1=BMT120693780.3,bus2=BMT172423190.3,Phases=1,LineCode=tieSwitch1,Length=0.001,Units=km,switch=T !numEQ 214311
new line.CTR110180 bus1=BMT120693794.3,bus2=BMT161577489.3,Phases=1,LineCode=tieSwitch1,Length=0.001,Units=km,switch=T !numEQ 72959
new line.CTR110187 bus1=BMT120693808.3,bus2=BMT172119299.3,Phases=1,LineCode=tieSwitch1,Length=0.001,Units=km,switch=T !numEQ 72960
new line.CTR110194 bus1=BMT120694151.3,bus2=BMT147857980.3,Phases=1,LineCode=tieSwitch1,Length=0.001,Units=km,switch=T !numEQ 73019
new line.CTR110201 bus1=BMT120689909.1.2.3,bus2=BMT174408726.1.2.3,Phases=3,LineCode=tieSwitch,Length=0.001,Units=km,switch=T !numEQ 329727
new line.CTR119770 bus1=BMT172738406.1.2.3,bus2=BMT172738411.1.2.3,Phases=3,LineCode=tieSwitch,Length=0.001,Units=km,switch=T !numEQ 74186
new line.CTR119802 bus1=BMT136956348.1.2.3,bus2=BMT136956201.1.2.3,Phases=3,LineCode=tieSwitch,Length=0.001,Units=km,switch=T !numEQ 286812
open line.CTR119802 term=1
new line.CTR121065 bus1=BMT120727191.1,bus2=BMT120727324.1,Phases=1,LineCode=tieSwitch1,Length=0.001,Units=km,switch=T !numEQ 172469
new line.CTR129647 bus1=BMT120702642.2,bus2=BMT120707248.2,Phases=1,LineCode=tieSwitch1,Length=0.001,Units=km,switch=T !numEQ 116354
new line.CTR142289 bus1=BMT120726918.1,bus2=BMT170958739.1,Phases=1,LineCode=tieSwitch1,Length=0.001,Units=km,switch=T !numEQ 72601
new line.CTR142730 bus1=BMT173837873.1,bus2=BMT120698624.1,Phases=1,LineCode=tieSwitch1,Length=0.001,Units=km,switch=T !numEQ 72618
open line.CTR142730 term=1
new line.CTR106799 bus1=BMT120732084.1,bus2=BMT120732238.1,Phases=1,LineCode=tieSwitch1,Length=0.001,Units=km,switch=T !numEQ 73369
new line.CTR106820 bus1=BMT120734793.1,bus2=BMT120736424.1,Phases=1,LineCode=tieSwitch1,Length=0.001,Units=km,switch=T !numEQ 74498
new line.CTR106827 bus1=BMT120734821.1,bus2=BMT176540660.1,Phases=1,LineCode=tieSwitch1,Length=0.001,Units=km,switch=T !numEQ 73391
new line.CTR106834 bus1=BMT120734828.3,bus2=BMT154772156.3,Phases=1,LineCode=tieSwitch1,Length=0.001,Units=km,switch=T !numEQ 72677
new line.CTR106841 bus1=BMT120729368.2,bus2=BMT120741688.2,Phases=1,LineCode=tieSwitch1,Length=0.001,Units=km,switch=T !numEQ 72637
new line.CTR106848 bus1=BMT120734863.1.2.3,bus2=BMT175434149.1.2.3,Phases=3,LineCode=tieSwitch,Length=0.001,Units=km,switch=T !numEQ 73772
new line.CTR106869 bus1=BMT120734933.3,bus2=BMT120736074.3,Phases=1,LineCode=tieSwitch1,Length=0.001,Units=km,switch=T !numEQ 72896
new line.CTR106883 bus1=BMT120738293.1.2.3,bus2=BMT176488619.1.2.3,Phases=3,LineCode=tieSwitch,Length=0.001,Units=km,switch=T !numEQ 79886
new line.CTR106897 bus1=BMT120734996.2,bus2=BMT120735073.2,Phases=1,LineCode=tieSwitch1,Length=0.001,Units=km,switch=T !numEQ 72801
new line.CTR106918 bus1=BMT120737950.1.2.3,bus2=BMT174891261.1.2.3,Phases=3,LineCode=tieSwitch,Length=0.001,Units=km,switch=T !numEQ 72649
new line.CTR106925 bus1=BMT120738104.3,bus2=BMT120741289.3,Phases=1,LineCode=tieSwitch1,Length=0.001,Units=km,switch=T !numEQ 73365
new line.CTR106932 bus1=BMT120738167.1,bus2=BMT120741177.1,Phases=1,LineCode=tieSwitch1,Length=0.001,Units=km,switch=T !numEQ 72885
new line.CTR106939 bus1=BMT120738216.1.2.3,bus2=BMT173083115.1.2.3,Phases=3,LineCode=tieSwitch,Length=0.001,Units=km,switch=T !numEQ 73362
new line.CTR106946 bus1=BMT120738230.3,bus2=BMT141014402.3,Phases=1,LineCode=tieSwitch1,Length=0.001,Units=km,switch=T !numEQ 72661
new line.CTR106953 bus1=BMT120738265.2,bus2=BMT120739854.2,Phases=1,LineCode=tieSwitch1,Length=0.001,Units=km,switch=T !numEQ 73358
new line.CTR106960 bus1=BMT120738349.2,bus2=BMT174267638.2,Phases=1,LineCode=tieSwitch1,Length=0.001,Units=km,switch=T !numEQ 72916
new line.CTR106974 bus1=BMT120741569.3,bus2=BMT120741583.3,Phases=1,LineCode=tieSwitch1,Length=0.001,Units=km,switch=T !numEQ 73071
new line.CTR106995 bus1=BMT120707388.1.2.3,bus2=BMT170436856.1.2.3,Phases=3,LineCode=tieSwitch,Length=0.001,Units=km,switch=T !numEQ 75009
new line.CTR107002 bus1=BMT120707430.1.2.3,bus2=BMT169987431.1.2.3,Phases=3,LineCode=tieSwitch,Length=0.001,Units=km,switch=T !numEQ 85307
new line.CTR107023 bus1=BMT120707472.1.2.3,bus2=BMT173591012.1.2.3,Phases=3,LineCode=tieSwitch,Length=0.001,Units=km,switch=T !numEQ 72512
new line.CTR107030 bus1=BMT120707549.1.2.3,bus2=BMT168337366.1.2.3,Phases=3,LineCode=tieSwitch,Length=0.001,Units=km,switch=T !numEQ 73250
new line.CTR107044 bus1=BMT120710531.1.2.3,bus2=BMT170830475.1.2.3,Phases=3,LineCode=tieSwitch,Length=0.001,Units=km,switch=T !numEQ 72514
new line.CTR107051 bus1=BMT120710601.1.2.3,bus2=BMT174645461.1.2.3,Phases=3,LineCode=tieSwitch,Length=0.001,Units=km,switch=T !numEQ 72750
new line.CTR107058 bus1=BMT120710811.1,bus2=BMT120716439.1,Phases=1,LineCode=tieSwitch1,Length=0.001,Units=km,switch=T !numEQ 72754
new line.CTR107079 bus1=BMT120710937.1.2.3,bus2=BMT172346317.1.2.3,Phases=3,LineCode=tieSwitch,Length=0.001,Units=km,switch=T !numEQ 73319
new line.CTR107086 bus1=BMT120711028.3,bus2=BMT149645171.3,Phases=1,LineCode=tieSwitch1,Length=0.001,Units=km,switch=T !numEQ 72989
new line.CTR107093 bus1=BMT120711126.3,bus2=BMT176670372.3,Phases=1,LineCode=tieSwitch1,Length=0.001,Units=km,switch=T !numEQ 72759
new line.CTR107107 bus1=BMT120707752.1.2.3,bus2=BMT140546207.1.2.3,Phases=3,LineCode=tieSwitch,Length=0.001,Units=km,switch=T !numEQ 85231
new line.CTR107114 bus1=BMT120707717.1.2.3,bus2=BMT173614083.1.2.3,Phases=3,LineCode=tieSwitch,Length=0.001,Units=km,switch=T !numEQ 85228
new line.CTR107121 bus1=BMT120707906.1.2.3,bus2=BMT120708074.1.2.3,Phases=3,LineCode=tieSwitch,Length=0.001,Units=km,switch=T !numEQ 84803
new line.CTR107128 bus1=BMT120708242.1.2.3,bus2=BMT167357557.1.2.3,Phases=3,LineCode=tieSwitch,Length=0.001,Units=km,switch=T !numEQ 15289
new line.CTR107149 bus1=BMT120708179.1.2.3,bus2=BMT142241446.1.2.3,Phases=3,LineCode=tieSwitch,Length=0.001,Units=km,switch=T !numEQ 15292
new line.CTR107177 bus1=BMT120707661.1.2.3,bus2=BMT161753026.1.2.3,Phases=3,LineCode=tieSwitch,Length=0.001,Units=km,switch=T !numEQ 84807
new line.CTR107338 bus1=BMT120696615.1.2.3,bus2=BMT176301708.1.2.3,Phases=3,LineCode=tieSwitch,Length=0.001,Units=km,switch=T !numEQ 74208
new line.CTR108290 bus1=BMT120696153.1.2.3,bus2=BMT170416189.1.2.3,Phases=3,LineCode=tieSwitch,Length=0.001,Units=km,switch=T !numEQ 142364
new line.CTR137256 bus1=BMT120731076.1,bus2=BMT162428309.1,Phases=1,LineCode=tieSwitch1,Length=0.001,Units=km,switch=T !numEQ 131470
new line.CTR153972 bus1=BMT120718644.1.2.3,bus2=BMT169036757.1.2.3,Phases=3,LineCode=tieSwitch,Length=0.001,Units=km,switch=T !numEQ 175146
new line.CTR154672 bus1=BMT120735878.1,bus2=BMT165319883.1,Phases=1,LineCode=tieSwitch1,Length=0.001,Units=km,switch=T !numEQ 213948
new line.CTR154686 bus1=BMT120738433.1,bus2=BMT120739658.1,Phases=1,LineCode=tieSwitch1,Length=0.001,Units=km,switch=T !numEQ 212789
new line.CTR174573 bus1=BMT120728031.2,bus2=BMT120728143.2,Phases=1,LineCode=tieSwitch1,Length=0.001,Units=km,switch=T !numEQ 116725
new line.CTR17465 bus1=BMT120696237.1,bus2=BMT160156155.1,Phases=1,LineCode=tieSwitch1,Length=0.001,Units=km,switch=T !numEQ 74221
new line.CTR174671 bus1=BMT120726722.2,bus2=BMT150374008.2,Phases=1,LineCode=tieSwitch1,Length=0.001,Units=km,switch=T !numEQ 91329
new line.CTR174888 bus1=BMT120696209.2,bus2=BMT167759058.2,Phases=1,LineCode=tieSwitch1,Length=0.001,Units=km,switch=T !numEQ 103752
new line.CTR175259 bus1=BMT120741709.1.2.3,bus2=BMT120741716.1.2.3,Phases=3,LineCode=tieSwitch,Length=0.001,Units=km,switch=T !numEQ 171677
new line.CTR175315 bus1=BMT120718756.1.2.3,bus2=BMT120724237.1.2.3,Phases=3,LineCode=tieSwitch,Length=0.001,Units=km,switch=T !numEQ 171818
new line.CTR175322 bus1=BMT120718763.1.2.3,bus2=BMT175118605.1.2.3,Phases=3,LineCode=tieSwitch,Length=0.001,Units=km,switch=T !numEQ 73119
new line.CTR175329 bus1=BMT120718833.1,bus2=BMT120723740.1,Phases=1,LineCode=tieSwitch1,Length=0.001,Units=km,switch=T !numEQ 73317
new line.CTR110243 bus1=BMT120700374.1,bus2=BMT134588794.1,Phases=1,LineCode=tieSwitch1,Length=0.001,Units=km,switch=T !numEQ 72565
new line.CTR110257 bus1=BMT120689510.3,bus2=BMT120702404.3,Phases=1,LineCode=tieSwitch1,Length=0.001,Units=km,switch=T !numEQ 73382
new line.CTR111909 bus1=BMT120726967.1,bus2=BMT174829121.1,Phases=1,LineCode=tieSwitch1,Length=0.001,Units=km,switch=T !numEQ 173659
new line.CTR125405 bus1=BMT120690336.1.2.3,bus2=BMT120690392.1.2.3,Phases=3,LineCode=tieSwitch,Length=0.001,Units=km,switch=T !numEQ 173973
new line.CTR141414 bus1=BMT120718511.2,bus2=BMT163068356.2,Phases=1,LineCode=tieSwitch1,Length=0.001,Units=km,switch=T !numEQ 91352
new line.CTR141442 bus1=BMT120707465.1.2.3,bus2=BMT120717363.1.2.3,Phases=3,LineCode=tieSwitch,Length=0.001,Units=km,switch=T !numEQ 73458
new line.CTR141771 bus1=BMT120705267.1.2.3,bus2=BMT120706345.1.2.3,Phases=3,LineCode=tieSwitch,Length=0.001,Units=km,switch=T !numEQ 74256
new line.CTR154910 bus1=BMT120718749.1.2.3,bus2=BMT176286198.1.2.3,Phases=3,LineCode=tieSwitch,Length=0.001,Units=km,switch=T !numEQ 119867
new line.CTR154924 bus1=BMT120719204.3,bus2=BMT120721990.3,Phases=1,LineCode=tieSwitch1,Length=0.001,Units=km,switch=T !numEQ 73172
new line.CTR155736 bus1=BMT120728885.1.2.3,bus2=BMT169494413.1.2.3,Phases=3,LineCode=tieSwitch,Length=0.001,Units=km,switch=T !numEQ 174384
new line.CTR155953 bus1=BMT120708683.3,bus2=BMT120709558.3,Phases=1,LineCode=tieSwitch1,Length=0.001,Units=km,switch=T !numEQ 175151
new line.CTR168182 bus1=BMT120718147.1.2.3,bus2=BMT170140488.1.2.3,Phases=3,LineCode=tieSwitch,Length=0.001,Units=km,switch=T !numEQ 84955
new line.CTR168483 bus1=BMT120729403.1.2.3,bus2=BMT120729410.1.2.3,Phases=3,LineCode=tieSwitch,Length=0.001,Units=km,switch=T !numEQ 91378
new line.CTR1687 bus1=BMT120728780.1.2.3,bus2=BMT120729109.1.2.3,Phases=3,LineCode=tieSwitch,Length=0.001,Units=km,switch=T !numEQ 72973
new line.CTR169106 bus1=BMT120700381.1.2.3,bus2=BMT120700388.1.2.3,Phases=3,LineCode=tieSwitch,Length=0.001,Units=km,switch=T !numEQ 85681
new line.CTR169232 bus1=BMT120718903.3,bus2=BMT176128551.3,Phases=1,LineCode=tieSwitch1,Length=0.001,Units=km,switch=T !numEQ 73123
new line.CTR169365 bus1=BMT120712029.2,bus2=BMT172693177.2,Phases=1,LineCode=tieSwitch1,Length=0.001,Units=km,switch=T !numEQ 173267
new line.CTR169491 bus1=BMT120722697.3,bus2=BMT120723012.3,Phases=1,LineCode=tieSwitch1,Length=0.001,Units=km,switch=T !numEQ 173476
new line.CTR169855 bus1=BMT120697371.3,bus2=BMT133896914.3,Phases=1,LineCode=tieSwitch1,Length=0.001,Units=km,switch=T !numEQ 174769
new line.CTR169883 bus1=BMT120706457.1,bus2=BMT160229377.1,Phases=1,LineCode=tieSwitch1,Length=0.001,Units=km,switch=T !numEQ 174774
new line.CTR17584 bus1=BMT120717615.1.2.3,bus2=BMT120725742.1.2.3,Phases=3,LineCode=tieSwitch,Length=0.001,Units=km,switch=T !numEQ 73714
new line.CTR175840 bus1=BMT120732056.1,bus2=BMT120732105.1,Phases=1,LineCode=tieSwitch1,Length=0.001,Units=km,switch=T !numEQ 174743
new line.CTR17591 bus1=BMT120717650.1.2.3,bus2=BMT174942483.1.2.3,Phases=3,LineCode=tieSwitch,Length=0.001,Units=km,switch=T !numEQ 85742
new line.CTR17598 bus1=BMT120717713.1.2.3,bus2=BMT174518319.1.2.3,Phases=3,LineCode=tieSwitch,Length=0.001,Units=km,switch=T !numEQ 72481
new line.CTR175980 bus1=BMT120740428.3,bus2=BMT158442758.3,Phases=1,LineCode=tieSwitch1,Length=0.001,Units=km,switch=T !numEQ 171759
new line.CTR17605 bus1=BMT120725623.1.2.3,bus2=BMT171035754.1.2.3,Phases=3,LineCode=tieSwitch,Length=0.001,Units=km,switch=T !numEQ 283506
new line.CTR176064 bus1=BMT120692807.2,bus2=BMT120692898.2,Phases=1,LineCode=tieSwitch1,Length=0.001,Units=km,switch=T !numEQ 116485
new line.CTR17619 bus1=BMT120717951.1.2.3,bus2=BMT128526500.1.2.3,Phases=3,LineCode=tieSwitch,Length=0.001,Units=km,switch=T !numEQ 91330
new line.CTR17633 bus1=BMT120718091.1.2.3,bus2=BMT120725098.1.2.3,Phases=3,LineCode=tieSwitch,Length=0.001,Units=km,switch=T !numEQ 85728
new line.CTR17640 bus1=BMT120725133.1,bus2=BMT120725168.1,Phases=1,LineCode=tieSwitch1,Length=0.001,Units=km,switch=T !numEQ 91332
new line.CTR17668 bus1=BMT120724951.1.2.3,bus2=BMT163025920.1.2.3,Phases=3,LineCode=tieSwitch,Length=0.001,Units=km,switch=T !numEQ 288393
new line.CTR176827 bus1=BMT120708697.3,bus2=BMT175325763.3,Phases=1,LineCode=tieSwitch1,Length=0.001,Units=km,switch=T !numEQ 126793