new transformer.TRF_1020053 Phases=3,Windings=2,Buses=[BMT179862217.1.2.3 BBT91380027.1.2.3.0],Conns=[delta wye],kvs=[13.800000000 0.22],kvas=[30.000000000 30.000000000],Taps=[1,1.000000000],XHL=3.640000000,%loadloss=1.670000000,%noloadloss=0.433333000
new transformer.TRF_1395696A Phases=1,Windings=3,Buses=[BMT157092140.1 BBT149354976.1.0 BBT149354976.0.2],Conns=[wye wye wye],kvs=[7.967 0.12 0.12],kvas=[10.000000000 10.000000000 10.000000000],Taps=[1,1.000000000,1.000000000],XHL=1.735000000,XHT=1.735000000,XLT=1.388000000,%loadloss=1.800000000,%noloadloss=0.450000000
new transformer.TRF_1411091A Phases=1,Windings=3,Buses=[BMT164181621.1 BBT153074016.1.0 BBT153074016.0.2],Conns=[wye wye wye],kvs=[7.967 0.12 0.12],kvas=[10.000000000 10.000000000 10.000000000],Taps=[1,1.000000000,1.000000000],XHL=1.735000000,XHT=1.735000000,XLT=1.388000000,%loadloss=1.800000000,%noloadloss=0.450000000
new transformer.TRF_1411105A Phases=1,Windings=3,Buses=[BMT179985183.3 BBT153078105.1.0 BBT153078105.0.2],Conns=[wye wye wye],kvs=[7.967 0.12 0.12],kvas=[10.000000000 10.000000000 10.000000000],Taps=[1,1.000000000,1.000000000],XHL=1.735000000,XHT=1.735000000,XLT=1.388000000,%loadloss=1.800000000,%noloadloss=0.450000000
new transformer.TRF_1411381A Phases=1,Windings=3,Buses=[BMT164181137.1 BBT153133709.1.0 BBT153133709.0.2],Conns=[wye wye wye],kvs=[7.967 0.12 0.12],kvas=[10.000000000 10.000000000 10.000000000],Taps=[1,1.000000000,1.000000000],XHL=1.735000000,XHT=1.735000000,XLT=1.388000000,%loadloss=1.800000000,%noloadloss=0.450000000
new transformer.TRF_1411398A Phases=1,Windings=3,Buses=[BMT164181140.1 BBT153135488.1.0 BBT153135488.0.2],Conns=[wye wye wye],kvs=[7.967 0.12 0.12],kvas=[15.000000000 15.000000000 15.000000000],Taps=[1,1.000000000,1.000000000],XHL=1.921000000,XHT=1.921000000,XLT=1.537000000,%loadloss=1.600000000,%noloadloss=0.400000000
new transformer.TRF_1444001A Phases=1,Windings=3,Buses=[BMT175200193.3 BBT160016022.1.0 BBT160016022.0.2],Conns=[wye wye wye],kvs=[7.967 0.12 0.12],kvas=[35.000000000 35.000000000 35.000000000],Taps=[1,1.000000000,1.000000000],XHL=2.139000000,XHT=2.139000000,XLT=1.712000000,%loadloss=1.293000000,%noloadloss=0.342857000
new transformer.TRF_1444006 Phases=3,Windings=2,Buses=[BMT168613440.1.2.3 BBT160016815.1.2.3.0],Conns=[delta wye],kvs=[13.800000000 0.22],kvas=[45.000000000 45.000000000],Taps=[1,1.000000000],XHL=3.700000000,%loadloss=1.520000000,%noloadloss=0.377777000
new transformer.TRF_1444009 Phases=3,Windings=2,Buses=[BMT168613438.1.2.3 BBT160017680.1.2.3.0],Conns=[delta wye],kvs=[13.800000000 0.22],kvas=[75.000000000 75.000000000],Taps=[1,1.000000000],XHL=3.770000000,%loadloss=1.340000000,%noloadloss=0.340000000
new transformer.TRF_1444024 Phases=3,Windings=2,Buses=[BMT168613436.1.2.3 BBT160021664.1.2.3.0],Conns=[delta wye],kvs=[13.800000000 0.22],kvas=[45.000000000 45.000000000],Taps=[1,1.000000000],XHL=3.700000000,%loadloss=1.520000000,%noloadloss=0.377777000
new transformer.TRF_1444232A Phases=1,Windings=3,Buses=[BMT161136696.1 BBT160096112.1.0 BBT160096112.0.2],Conns=[wye wye wye],kvs=[7.967 0.12 0.12],kvas=[10.000000000 10.000000000 10.000000000],Taps=[1,1.000000000,1.000000000],XHL=1.735000000,XHT=1.735000000,XLT=1.388000000,%loadloss=1.800000000,%noloadloss=0.450000000
new transformer.TRF_1458983A Phases=1,Windings=3,Buses=[BMT176432511.1 BBT164133651.1.0 BBT164133651.0.2],Conns=[wye wye wye],kvs=[7.967 0.12 0.12],kvas=[35.000000000 35.000000000 35.000000000],Taps=[1,1.000000000,1.000000000],XHL=2.139000000,XHT=2.139000000,XLT=1.712000000,%loadloss=1.293000000,%noloadloss=0.342857000
new transformer.TRF_1470590A Phases=1,Windings=3,Buses=[BMT175200201.3 BBT166514281.1.0 BBT166514281.0.2],Conns=[wye wye wye],kvs=[7.967 0.12 0.12],kvas=[10.000000000 10.000000000 10.000000000],Taps=[1,1.000000000,1.000000000],XHL=1.735000000,XHT=1.735000000,XLT=1.388000000,%loadloss=1.800000000,%noloadloss=0.450000000
new transformer.TRF_1470823A Phases=1,Windings=3,Buses=[BMT172546917.1 BBT166556225.1.0 BBT166556225.0.2],Conns=[wye wye wye],kvs=[7.967 0.12 0.12],kvas=[10.000000000 10.000000000 10.000000000],Taps=[1,1.000000000,1.000000000],XHL=1.735000000,XHT=1.735000000,XLT=1.388000000,%loadloss=1.800000000,%noloadloss=0.450000000
new transformer.TRF_1491055 Phases=3,Windings=2,Buses=[BMT170143118.1.2.3 BBT170143122.1.2.3.0],Conns=[delta wye],kvs=[13.800000000 0.22],kvas=[75.000000000 75.000000000],Taps=[1,1.000000000],XHL=3.770000000,%loadloss=1.340000000,%noloadloss=0.340000000
new transformer.TRF_1522338 Phases=3,Windings=2,Buses=[BMT177051532.1.2.3 BBT177049866.1.2.3.0],Conns=[delta wye],kvs=[13.800000000 0.22],kvas=[75.000000000 75.000000000],Taps=[1,1.000000000],XHL=3.770000000,%loadloss=1.340000000,%noloadloss=0.340000000
new transformer.TRF_1537624A Phases=1,Windings=3,Buses=[BMT179961158.2 BBT179961159.1.0 BBT179961159.0.2],Conns=[wye wye wye],kvs=[7.967 0.12 0.12],kvas=[35.000000000 35.000000000 35.000000000],Taps=[1,1.000000000,1.000000000],XHL=2.139000000,XHT=2.139000000,XLT=1.712000000,%loadloss=1.293000000,%noloadloss=0.342857000
new transformer.TRF_1537700A Phases=1,Windings=3,Buses=[BMT179985187.3 BBT179982573.1.0 BBT179982573.0.2],Conns=[wye wye wye],kvs=[7.967 0.12 0.12],kvas=[10.000000000 10.000000000 10.000000000],Taps=[1,1.000000000,1.000000000],XHL=1.735000000,XHT=1.735000000,XLT=1.388000000,%loadloss=1.800000000,%noloadloss=0.450000000
new transformer.TRF_20836A Phases=1,Windings=3,Buses=[BMT166532679.3 BBT149713.1.0 BBT149713.0.2],Conns=[wye wye wye],kvs=[7.967 0.12 0.12],kvas=[10.000000000 10.000000000 10.000000000],Taps=[1,1.000000000,1.000000000],XHL=1.735000000,XHT=1.735000000,XLT=1.388000000,%loadloss=1.800000000,%noloadloss=0.450000000
new transformer.TRF_20850A Phases=1,Windings=3,Buses=[BMT167758044.3 BBT149741.1.0 BBT149741.0.2],Conns=[wye wye wye],kvs=[7.967 0.12 0.12],kvas=[10.000000000 10.000000000 10.000000000],Taps=[1,1.000000000,1.000000000],XHL=1.735000000,XHT=1.735000000,XLT=1.388000000,%loadloss=1.800000000,%noloadloss=0.450000000
new transformer.TRF_21312A Phases=1,Windings=3,Buses=[BMT170520708.1 BBT150665.1.0 BBT150665.0.2],Conns=[wye wye wye],kvs=[7.967 0.12 0.12],kvas=[15.000000000 15.000000000 15.000000000],Taps=[1,1.000000000,1.000000000],XHL=1.921000000,XHT=1.921000000,XLT=1.537000000,%loadloss=1.600000000,%noloadloss=0.400000000
new transformer.TRF_21326A Phases=1,Windings=3,Buses=[BMT170520717.1 BBT150693.1.0 BBT150693.0.2],Conns=[wye wye wye],kvs=[7.967 0.12 0.12],kvas=[10.000000000 10.000000000 10.000000000],Taps=[1,1.000000000,1.000000000],XHL=1.735000000,XHT=1.735000000,XLT=1.388000000,%loadloss=1.800000000,%noloadloss=0.450000000
new transformer.TRF_1040899A Phases=1,Windings=3,Buses=[BMT152023122.3 BBT105587668.1.0 BBT105587668.0.2],Conns=[wye wye wye],kvs=[7.967 0.12 0.12],kvas=[15.000000000 15.000000000 15.000000000],Taps=[1,1.000000000,1.000000000],XHL=1.921000000,XHT=1.921000000,XLT=1.537000000,%loadloss=1.600000000,%noloadloss=0.400000000
new transformer.TRF_1040941A Phases=1,Windings=3,Buses=[BMT152023127.3 BBT105624082.1.0 BBT105624082.0.2],Conns=[wye wye wye],kvs=[7.967 0.12 0.12],kvas=[5.000000000 5.000000000 5.000000000],Taps=[1,1.000000000,1.000000000],XHL=1.625000000,XHT=1.625000000,XLT=1.300000000,%loadloss=1.900000000,%noloadloss=0.600000000
new transformer.TRF_1041011A Phases=1,Windings=3,Buses=[BMT179349470.3 BBT105754856.1.0 BBT105754856.0.2],Conns=[wye wye wye],kvs=[7.967 0.12 0.12],kvas=[25.000000000 25.000000000 25.000000000],Taps=[1,1.000000000,1.000000000],XHL=2.058000000,XHT=2.058000000,XLT=1.646000000,%loadloss=1.420000000,%noloadloss=0.320000000
new transformer.TRF_1102744A Phases=1,Windings=3,Buses=[BMT160051698.3 BBT142306126.1.0 BBT142306126.0.2],Conns=[wye wye wye],kvs=[7.967 0.12 0.12],kvas=[10.000000000 10.000000000 10.000000000],Taps=[1,1.000000000,1.000000000],XHL=1.735000000,XHT=1.735000000,XLT=1.388000000,%loadloss=1.800000000,%noloadloss=0.450000000
new transformer.TRF_1408971A Phases=1,Windings=3,Buses=[BMT175953978.1 BBT152602841.1.0 BBT152602841.0.2],Conns=[wye wye wye],kvs=[7.967 0.12 0.12],kvas=[35.000000000 35.000000000 35.000000000],Taps=[1,1.000000000,1.000000000],XHL=2.139000000,XHT=2.139000000,XLT=1.712000000,%loadloss=1.293000000,%noloadloss=0.342857000
new transformer.TRF_1409104A Phases=1,Windings=3,Buses=[BMT170753181.3 BBT152646458.1.0 BBT152646458.0.2],Conns=[wye wye wye],kvs=[7.967 0.12 0.12],kvas=[10.000000000 10.000000000 10.000000000],Taps=[1,1.000000000,1.000000000],XHL=1.735000000,XHT=1.735000000,XLT=1.388000000,%loadloss=1.800000000,%noloadloss=0.450000000
new transformer.TRF_1414424A Phases=1,Windings=3,Buses=[BMT157917953.1 BBT153744607.1.0 BBT153744607.0.2],Conns=[wye wye wye],kvs=[7.967 0.12 0.12],kvas=[10.000000000 10.000000000 10.000000000],Taps=[1,1.000000000,1.000000000],XHL=1.735000000,XHT=1.735000000,XLT=1.388000000,%loadloss=1.800000000,%noloadloss=0.450000000
new transformer.TRF_1414457A Phases=1,Windings=3,Buses=[BMT155055448.3 BBT153752323.1.0 BBT153752323.0.2],Conns=[wye wye wye],kvs=[7.967 0.12 0.12],kvas=[10.000000000 10.000000000 10.000000000],Taps=[1,1.000000000,1.000000000],XHL=1.735000000,XHT=1.735000000,XLT=1.388000000,%loadloss=1.800000000,%noloadloss=0.450000000
new transformer.TRF_1437643 Phases=3,Windings=2,Buses=[BMT178734886.1.2.3 BBT158680592.1.2.3.0],Conns=[delta wye],kvs=[13.800000000 0.22],kvas=[30.000000000 30.000000000],Taps=[1,1.000000000],XHL=3.640000000,%loadloss=1.670000000,%noloadloss=0.433333000
new transformer.TRF_1437656 Phases=3,Windings=2,Buses=[BMT178734888.1.2.3 BBT158682218.1.2.3.0],Conns=[delta wye],kvs=[13.800000000 0.22],kvas=[45.000000000 45.000000000],Taps=[1,1.000000000],XHL=3.700000000,%loadloss=1.520000000,%noloadloss=0.377777000
new transformer.TRF_1438016A Phases=1,Windings=3,Buses=[BMT159377749.2 BBT158750217.1.0 BBT158750217.0.2],Conns=[wye wye wye],kvs=[7.967 0.12 0.12],kvas=[10.000000000 10.000000000 10.000000000],Taps=[1,1.000000000,1.000000000],XHL=1.735000000,XHT=1.735000000,XLT=1.388000000,%loadloss=1.800000000,%noloadloss=0.450000000
new transformer.TRF_1443163A Phases=1,Windings=3,Buses=[BMT164379338.3 BBT159812205.1.0 BBT159812205.0.2],Conns=[wye wye wye],kvs=[7.967 0.12 0.12],kvas=[10.000000000 10.000000000 10.000000000],Taps=[1,1.000000000,1.000000000],XHL=1.735000000,XHT=1.735000000,XLT=1.388000000,%loadloss=1.800000000,%noloadloss=0.450000000
new transformer.TRF_1471866A Phases=1,Windings=3,Buses=[BMT175200203.3 BBT166716771.1.0 BBT166716771.0.2],Conns=[wye wye wye],kvs=[7.967 0.12 0.12],kvas=[25.000000000 25.000000000 25.000000000],Taps=[1,1.000000000,1.000000000],XHL=2.058000000,XHT=2.058000000,XLT=1.646000000,%loadloss=1.420000000,%noloadloss=0.320000000
new transformer.TRF_1482466 Phases=3,Windings=2,Buses=[BMT168598511.1.2.3 BBT168580909.1.2.3.0],Conns=[delta wye],kvs=[13.800000000 0.22],kvas=[75.000000000 75.000000000],Taps=[1,1.000000000],XHL=3.770000000,%loadloss=1.340000000,%noloadloss=0.340000000
new transformer.TRF_1519322 Phases=3,Windings=2,Buses=[BMT176434195.1.2.3 BBT176434196.1.2.3.0],Conns=[delta wye],kvs=[13.800000000 0.22],kvas=[75.000000000 75.000000000],Taps=[1,1.000000000],XHL=3.770000000,%loadloss=1.340000000,%noloadloss=0.340000000
new transformer.TRF_1534741A Phases=1,Windings=3,Buses=[BMT179349469.3 BBT179349360.1.0 BBT179349360.0.2],Conns=[wye wye wye],kvs=[7.967 0.12 0.12],kvas=[25.000000000 25.000000000 25.000000000],Taps=[1,1.000000000,1.000000000],XHL=2.058000000,XHT=2.058000000,XLT=1.646000000,%loadloss=1.420000000,%noloadloss=0.320000000
new transformer.TRF_21452 Phases=3,Windings=2,Buses=[BMT126020290.1.2.3 BBT151337.1.2.3.0],Conns=[delta wye],kvs=[13.800000000 0.22],kvas=[45.000000000 45.000000000],Taps=[1,1.000000000],XHL=3.700000000,%loadloss=1.520000000,%noloadloss=0.377777000
new transformer.TRF_21459 Phases=3,Windings=2,Buses=[BMT126020472.1.2.3 BBT151463.1.2.3.0],Conns=[delta wye],kvs=[13.800000000 0.22],kvas=[45.000000000 45.000000000],Taps=[1,1.000000000],XHL=3.700000000,%loadloss=1.520000000,%noloadloss=0.377777000
new transformer.TRF_21466 Phases=3,Windings=2,Buses=[BMT162578557.1.2.3 BBT151610.1.2.3.0],Conns=[delta wye],kvs=[13.800000000 0.22],kvas=[45.000000000 45.000000000],Taps=[1,1.000000000],XHL=3.700000000,%loadloss=1.520000000,%noloadloss=0.377777000
new transformer.TRF_21473 Phases=3,Windings=2,Buses=[BMT126020297.1.2.3 BBT151736.1.2.3.0],Conns=[delta wye],kvs=[13.800000000 0.22],kvas=[45.000000000 45.000000000],Taps=[1,1.000000000],XHL=3.700000000,%loadloss=1.520000000,%noloadloss=0.377777000
new transformer.TRF_21480 Phases=3,Windings=2,Buses=[BMT162578562.1.2.3 BBT151848.1.2.3.0],Conns=[delta wye],kvs=[13.800000000 0.22],kvas=[45.000000000 45.000000000],Taps=[1,1.000000000],XHL=3.700000000,%loadloss=1.520000000,%noloadloss=0.377777000
new transformer.TRF_21494 Phases=3,Windings=2,Buses=[BMT139080547.1.2.3 BBT151995.1.2.3.0],Conns=[delta wye],kvs=[13.800000000 0.22],kvas=[75.000000000 75.000000000],Taps=[1,1.000000000],XHL=3.770000000,%loadloss=1.340000000,%noloadloss=0.340000000
new transformer.TRF_1064293 Phases=3,Windings=2,Buses=[BMT153484870.1.2.3 BBT130813603.1.2.3.0],Conns=[delta wye],kvs=[13.800000000 0.22],kvas=[30.000000000 30.000000000],Taps=[1,1.000000000],XHL=3.640000000,%loadloss=1.670000000,%noloadloss=0.433333000
new transformer.TRF_1079035 Phases=3,Windings=2,Buses=[BMT176432804.1.2.3 BBT135779907.1.2.3.0],Conns=[delta wye],kvs=[13.800000000 0.22],kvas=[75.000000000 75.000000000],Taps=[1,1.000000000],XHL=3.770000000,%loadloss=1.340000000,%noloadloss=0.340000000
new transformer.TRF_1095625A Phases=1,Windings=3,Buses=[BMT143093402.1 BBT140382666.1.0 BBT140382666.0.2],Conns=[wye wye wye],kvs=[7.967 0.12 0.12],kvas=[10.000000000 10.000000000 10.000000000],Taps=[1,1.000000000,1.000000000],XHL=1.735000000,XHT=1.735000000,XLT=1.388000000,%loadloss=1.800000000,%noloadloss=0.450000000
new transformer.TRF_1396914 Phases=3,Windings=2,Buses=[BMT152496401.1.2.3 BBT149662141.1.2.3.0],Conns=[delta wye],kvs=[13.800000000 0.22],kvas=[30.000000000 30.000000000],Taps=[1,1.000000000],XHL=3.640000000,%loadloss=1.670000000,%noloadloss=0.433333000
new transformer.TRF_1396921 Phases=3,Windings=2,Buses=[BMT152496402.1.2.3 BBT149663165.1.2.3.0],Conns=[delta wye],kvs=[13.800000000 0.22],kvas=[30.000000000 30.000000000],Taps=[1,1.000000000],XHL=3.640000000,%loadloss=1.670000000,%noloadloss=0.433333000
new transformer.TRF_1402340 Phases=3,Windings=2,Buses=[BMT176754280.1.2.3 BBT151013340.1.2.3.0],Conns=[delta wye],kvs=[13.800000000 0.22],kvas=[45.000000000 45.000000000],Taps=[1,1.000000000],XHL=3.700000000,%loadloss=1.520000000,%noloadloss=0.377777000
new transformer.TRF_1407673A Phases=1,Windings=3,Buses=[BMT178747316.1 BBT152317023.1.0 BBT152317023.0.2],Conns=[wye wye wye],kvs=[7.967 0.12 0.12],kvas=[10.000000000 10.000000000 10.000000000],Taps=[1,1.000000000,1.000000000],XHL=1.735000000,XHT=1.735000000,XLT=1.388000000,%loadloss=1.800000000,%noloadloss=0.450000000
new transformer.TRF_1413262A Phases=1,Windings=3,Buses=[BMT163733851.1 BBT153485275.1.0 BBT153485275.0.2],Conns=[wye wye wye],kvs=[7.967 0.12 0.12],kvas=[15.000000000 15.000000000 15.000000000],Taps=[1,1.000000000,1.000000000],XHL=1.921000000,XHT=1.921000000,XLT=1.537000000,%loadloss=1.600000000,%noloadloss=0.400000000
new transformer.TRF_1413263A Phases=1,Windings=3,Buses=[BMT163733850.1 BBT153485323.1.0 BBT153485323.0.2],Conns=[wye wye wye],kvs=[7.967 0.12 0.12],kvas=[15.000000000 15.000000000 15.000000000],Taps=[1,1.000000000,1.000000000],XHL=1.921000000,XHT=1.921000000,XLT=1.537000000,%loadloss=1.600000000,%noloadloss=0.400000000
new transformer.TRF_1434166A Phases=1,Windings=3,Buses=[BMT158027777.3 BBT158027318.1.0 BBT158027318.0.2],Conns=[wye wye wye],kvs=[7.967 0.12 0.12],kvas=[10.000000000 10.000000000 10.000000000],Taps=[1,1.000000000,1.000000000],XHL=1.735000000,XHT=1.735000000,XLT=1.388000000,%loadloss=1.800000000,%noloadloss=0.450000000
new transformer.TRF_1439849 Phases=3,Windings=2,Buses=[BMT159660323.1.2.3 BBT159144710.1.2.3.0],Conns=[delta wye],kvs=[13.800000000 0.22],kvas=[75.000000000 75.000000000],Taps=[1,1.000000000],XHL=3.770000000,%loadloss=1.340000000,%noloadloss=0.340000000
new transformer.TRF_1439859A Phases=1,Windings=3,Buses=[BMT168613486.2 BBT159148128.1.0 BBT159148128.0.2],Conns=[wye wye wye],kvs=[7.967 0.12 0.12],kvas=[10.000000000 10.000000000 10.000000000],Taps=[1,1.000000000,1.000000000],XHL=1.735000000,XHT=1.735000000,XLT=1.388000000,%loadloss=1.800000000,%noloadloss=0.450000000
new transformer.TRF_1479191A Phases=1,Windings=3,Buses=[BMT175200197.3 BBT167983686.1.0 BBT167983686.0.2],Conns=[wye wye wye],kvs=[7.967 0.12 0.12],kvas=[10.000000000 10.000000000 10.000000000],Taps=[1,1.000000000,1.000000000],XHL=1.735000000,XHT=1.735000000,XLT=1.388000000,%loadloss=1.800000000,%noloadloss=0.450000000
new transformer.TRF_1516520A Phases=1,Windings=3,Buses=[BMT175778754.3 BBT175778533.1.0 BBT175778533.0.2],Conns=[wye wye wye],kvs=[7.967 0.12 0.12],kvas=[10.000000000 10.000000000 10.000000000],Taps=[1,1.000000000,1.000000000],XHL=1.735000000,XHT=1.735000000,XLT=1.388000000,%loadloss=1.800000000,%noloadloss=0.450000000
new transformer.TRF_1525398A Phases=1,Windings=3,Buses=[BMT179274904.1 BBT177602851.1.0 BBT177602851.0.2],Conns=[wye wye wye],kvs=[7.967 0.12 0.12],kvas=[10.000000000 10.000000000 10.000000000],Taps=[1,1.000000000,1.000000000],XHL=1.735000000,XHT=1.735000000,XLT=1.388000000,%loadloss=1.800000000,%noloadloss=0.450000000
new transformer.TRF_20654A Phases=1,Windings=3,Buses=[BMT166532681.3 BBT149349.1.0 BBT149349.0.2],Conns=[wye wye wye],kvs=[7.967 0.12 0.12],kvas=[10.000000000 10.000000000 10.000000000],Taps=[1,1.000000000,1.000000000],XHL=1.735000000,XHT=1.735000000,XLT=1.388000000,%loadloss=1.800000000,%noloadloss=0.450000000
new transformer.TRF_21088A Phases=1,Windings=3,Buses=[BMT166532675.3 BBT150217.1.0 BBT150217.0.2],Conns=[wye wye wye],kvs=[7.967 0.12 0.12],kvas=[5.000000000 5.000000000 5.000000000],Taps=[1,1.000000000,1.000000000],XHL=1.625000000,XHT=1.625000000,XLT=1.300000000,%loadloss=1.900000000,%noloadloss=0.600000000
new transformer.TRF_21571 Phases=3,Windings=2,Buses=[BMT126021473.1.2.3 BBT153318.1.2.3.0],Conns=[delta wye],kvs=[13.800000000 0.22],kvas=[45.000000000 45.000000000],Taps=[1,1.000000000],XHL=3.700000000,%loadloss=1.520000000,%noloadloss=0.377777000
new transformer.TRF_21578 Phases=3,Windings=2,Buses=[BMT126020262.1.2.3 BBT153430.1.2.3.0],Conns=[delta wye],kvs=[13.800000000 0.22],kvas=[30.000000000 30.000000000],Taps=[1,1.000000000],XHL=3.640000000,%loadloss=1.670000000,%noloadloss=0.433333000
new transformer.TRF_21585 Phases=3,Windings=2,Buses=[BMT179631084.1.2.3 BBT153577.1.2.3.0],Conns=[delta wye],kvs=[13.800000000 0.22],kvas=[30.000000000 30.000000000],Taps=[1,1.000000000],XHL=3.640000000,%loadloss=1.670000000,%noloadloss=0.433333000
new transformer.TRF_21592 Phases=3,Windings=2,Buses=[BMT179631077.1.2.3 BBT153710.1.2.3.0],Conns=[delta wye],kvs=[13.800000000 0.22],kvas=[30.000000000 30.000000000],Taps=[1,1.000000000],XHL=3.640000000,%loadloss=1.670000000,%noloadloss=0.433333000
new transformer.TRF_21599 Phases=3,Windings=2,Buses=[BMT178862079.1.2.3 BBT153906.1.2.3.0],Conns=[delta wye],kvs=[13.800000000 0.22],kvas=[75.000000000 75.000000000],Taps=[1,1.000000000],XHL=3.770000000,%loadloss=1.340000000,%noloadloss=0.340000000
new transformer.TRF_1107742A Phases=1,Windings=3,Buses=[BMT176550977.2 BBT143695941.1.0 BBT143695941.0.2],Conns=[wye wye wye],kvs=[7.967 0.12 0.12],kvas=[10.000000000 10.000000000 10.000000000],Taps=[1,1.000000000,1.000000000],XHL=1.735000000,XHT=1.735000000,XLT=1.388000000,%loadloss=1.800000000,%noloadloss=0.450000000
new transformer.TRF_1399160A Phases=1,Windings=3,Buses=[BMT176550961.2 BBT150121556.1.0 BBT150121556.0.2],Conns=[wye wye wye],kvs=[7.967 0.12 0.12],kvas=[15.000000000 15.000000000 15.000000000],Taps=[1,1.000000000,1.000000000],XHL=1.921000000,XHT=1.921000000,XLT=1.537000000,%loadloss=1.600000000,%noloadloss=0.400000000
new transformer.TRF_1404915A Phases=1,Windings=3,Buses=[BMT161234495.2 BBT151622849.1.0 BBT151622849.0.2],Conns=[wye wye wye],kvs=[7.967 0.12 0.12],kvas=[15.000000000 15.000000000 15.000000000],Taps=[1,1.000000000,1.000000000],XHL=1.921000000,XHT=1.921000000,XLT=1.537000000,%loadloss=1.600000000,%noloadloss=0.400000000
new transformer.TRF_1425336 Phases=3,Windings=2,Buses=[BMT177051533.1.2.3 BBT156202533.1.2.3.0],Conns=[delta wye],kvs=[13.800000000 0.22],kvas=[45.000000000 45.000000000],Taps=[1,1.000000000],XHL=3.700000000,%loadloss=1.520000000,%noloadloss=0.377777000
new transformer.TRF_1430078 Phases=3,Windings=2,Buses=[BMT176432801.1.2.3 BBT157219546.1.2.3.0],Conns=[delta wye],kvs=[13.800000000 0.22],kvas=[45.000000000 45.000000000],Taps=[1,1.000000000],XHL=3.700000000,%loadloss=1.520000000,%noloadloss=0.377777000
new transformer.TRF_1430354 Phases=3,Windings=2,Buses=[BMT170143119.1.2.3 BBT157277607.1.2.3.0],Conns=[delta wye],kvs=[13.800000000 0.22],kvas=[45.000000000 45.000000000],Taps=[1,1.000000000],XHL=3.700000000,%loadloss=1.520000000,%noloadloss=0.377777000
new transformer.TRF_1430679A Phases=1,Windings=3,Buses=[BMT175200187.3 BBT157364615.1.0 BBT157364615.0.2],Conns=[wye wye wye],kvs=[7.967 0.12 0.12],kvas=[10.000000000 10.000000000 10.000000000],Taps=[1,1.000000000,1.000000000],XHL=1.735000000,XHT=1.735000000,XLT=1.388000000,%loadloss=1.800000000,%noloadloss=0.450000000
new transformer.TRF_1436316A Phases=1,Windings=3,Buses=[BMT175200195.3 BBT158419027.1.0 BBT158419027.0.2],Conns=[wye wye wye],kvs=[7.967 0.12 0.12],kvas=[10.000000000 10.000000000 10.000000000],Taps=[1,1.000000000,1.000000000],XHL=1.735000000,XHT=1.735000000,XLT=1.388000000,%loadloss=1.800000000,%noloadloss=0.450000000
new transformer.TRF_1446688A Phases=1,Windings=3,Buses=[BMT160899915.3 BBT160899621.1.0 BBT160899621.0.2],Conns=[wye wye wye],kvs=[7.967 0.12 0.12],kvas=[10.000000000 10.000000000 10.000000000],Taps=[1,1.000000000,1.000000000],XHL=1.735000000,XHT=1.735000000,XLT=1.388000000,%loadloss=1.800000000,%noloadloss=0.450000000
new transformer.TRF_1457001A Phases=1,Windings=3,Buses=[BMT164379344.3 BBT163678789.1.0 BBT163678789.0.2],Conns=[wye wye wye],kvs=[7.967 0.12 0.12],kvas=[10.000000000 10.000000000 10.000000000],Taps=[1,1.000000000,1.000000000],XHL=1.735000000,XHT=1.735000000,XLT=1.388000000,%loadloss=1.800000000,%noloadloss=0.450000000
new transformer.TRF_1462215A Phases=1,Windings=3,Buses=[BMT179961154.2 BBT164789516.1.0 BBT164789516.0.2],Conns=[wye wye wye],kvs=[7.967 0.12 0.12],kvas=[35.000000000 35.000000000 35.000000000],Taps=[1,1.000000000,1.000000000],XHL=2.139000000,XHT=2.139000000,XLT=1.712000000,%loadloss=1.293000000,%noloadloss=0.342857000
new transformer.TRF_1473562A Phases=1,Windings=3,Buses=[BMT175200191.3 BBT166999153.1.0 BBT166999153.0.2],Conns=[wye wye wye],kvs=[7.967 0.12 0.12],kvas=[10.000000000 10.000000000 10.000000000],Taps=[1,1.000000000,1.000000000],XHL=1.735000000,XHT=1.735000000,XLT=1.388000000,%loadloss=1.800000000,%noloadloss=0.450000000
new transformer.TRF_1494593 Phases=3,Windings=2,Buses=[BMT177049988.1.2.3 BBT170893204.1.2.3.0],Conns=[delta wye],kvs=[13.800000000 0.22],kvas=[150.000000000 150.000000000],Taps=[1,1.000000000],XHL=3.840000000,%loadloss=1.130000000,%noloadloss=0.280000000
new transformer.TRF_20514A Phases=1,Windings=3,Buses=[BMT166532685.3 BBT149069.1.0 BBT149069.0.2],Conns=[wye wye wye],kvs=[7.967 0.12 0.12],kvas=[35.000000000 35.000000000 35.000000000],Taps=[1,1.000000000,1.000000000],XHL=2.139000000,XHT=2.139000000,XLT=1.712000000,%loadloss=1.293000000,%noloadloss=0.342857000
new transformer.TRF_20521A Phases=1,Windings=3,Buses=[BMT166532683.3 BBT149083.1.0 BBT149083.0.2],Conns=[wye wye wye],kvs=[7.967 0.12 0.12],kvas=[10.000000000 10.000000000 10.000000000],Taps=[1,1.000000000,1.000000000],XHL=1.735000000,XHT=1.735000000,XLT=1.388000000,%loadloss=1.800000000,%noloadloss=0.450000000
new transformer.TRF_21018A Phases=1,Windings=3,Buses=[BMT166532677.3 BBT150077.1.0 BBT150077.0.2],Conns=[wye wye wye],kvs=[7.967 0.12 0.12],kvas=[10.000000000 10.000000000 10.000000000],Taps=[1,1.000000000,1.000000000],XHL=1.735000000,XHT=1.735000000,XLT=1.388000000,%loadloss=1.800000000,%noloadloss=0.450000000
new transformer.TRF_21039A Phases=1,Windings=3,Buses=[BMT152023117.3 BBT150119.1.0 BBT150119.0.2],Conns=[wye wye wye],kvs=[7.967 0.12 0.12],kvas=[10.000000000 10.000000000 10.000000000],Taps=[1,1.000000000,1.000000000],XHL=1.735000000,XHT=1.735000000,XLT=1.388000000,%loadloss=1.800000000,%noloadloss=0.450000000
new transformer.TRF_21508 Phases=3,Windings=2,Buses=[BMT162578556.1.2.3 BBT152177.1.2.3.0],Conns=[delta wye],kvs=[13.800000000 0.22],kvas=[75.000000000 75.000000000],Taps=[1,1.000000000],XHL=3.770000000,%loadloss=1.340000000,%noloadloss=0.340000000
new transformer.TRF_21515 Phases=3,Windings=2,Buses=[BMT126020283.1.2.3 BBT152338.1.2.3.0],Conns=[delta wye],kvs=[13.800000000 0.22],kvas=[45.000000000 45.000000000],Taps=[1,1.000000000],XHL=3.700000000,%loadloss=1.520000000,%noloadloss=0.377777000
new transformer.TRF_21529 Phases=3,Windings=2,Buses=[BMT126020437.1.2.3 BBT152485.1.2.3.0],Conns=[delta wye],kvs=[13.800000000 0.22],kvas=[30.000000000 30.000000000],Taps=[1,1.000000000],XHL=3.640000000,%loadloss=1.670000000,%noloadloss=0.433333000
new transformer.TRF_21536 Phases=3,Windings=2,Buses=[BMT179631082.1.2.3 BBT152667.1.2.3.0],Conns=[delta wye],kvs=[13.800000000 0.22],kvas=[30.000000000 30.000000000],Taps=[1,1.000000000],XHL=3.640000000,%loadloss=1.670000000,%noloadloss=0.433333000
new transformer.TRF_21543 Phases=3,Windings=2,Buses=[BMT126020276.1.2.3 BBT152828.1.2.3.0],Conns=[delta wye],kvs=[13.800000000 0.22],kvas=[30.000000000 30.000000000],Taps=[1,1.000000000],XHL=3.640000000,%loadloss=1.670000000,%noloadloss=0.433333000
new transformer.TRF_21550 Phases=3,Windings=2,Buses=[BMT179639720.1.2.3 BBT152912.1.2.3.0],Conns=[delta wye],kvs=[13.800000000 0.22],kvas=[30.000000000 30.000000000],Taps=[1,1.000000000],XHL=3.640000000,%loadloss=1.670000000,%noloadloss=0.433333000
new transformer.TRF_21557 Phases=3,Windings=2,Buses=[BMT179639725.1.2.3 BBT153052.1.2.3.0],Conns=[delta wye],kvs=[13.800000000 0.22],kvas=[30.000000000 30.000000000],Taps=[1,1.000000000],XHL=3.640000000,%loadloss=1.670000000,%noloadloss=0.433333000
new transformer.TRF_1034228A Phases=1,Windings=3,Buses=[BMT163830173.1 BBT100482351.1.0 BBT100482351.0.2],Conns=[wye wye wye],kvs=[7.967 0.12 0.12],kvas=[35.000000000 35.000000000 35.000000000],Taps=[1,1.000000000,1.000000000],XHL=2.139000000,XHT=2.139000000,XLT=1.712000000,%loadloss=1.293000000,%noloadloss=0.342857000
new transformer.TRF_1035173 Phases=3,Windings=2,Buses=[BMT179862219.1.2.3 BBT101256936.1.2.3.0],Conns=[delta wye],kvs=[13.800000000 0.22],kvas=[45.000000000 45.000000000],Taps=[1,1.000000000],XHL=3.700000000,%loadloss=1.520000000,%noloadloss=0.377777000
new transformer.TRF_1062403A Phases=1,Windings=3,Buses=[BMT161234497.3 BBT129902595.1.0 BBT129902595.0.2],Conns=[wye wye wye],kvs=[7.967 0.12 0.12],kvas=[35.000000000 35.000000000 35.000000000],Taps=[1,1.000000000,1.000000000],XHL=2.139000000,XHT=2.139000000,XLT=1.712000000,%loadloss=1.293000000,%noloadloss=0.342857000
new transformer.TRF_1062781 Phases=3,Windings=2,Buses=[BMT159141377.1.2.3 BBT130052465.1.2.3.0],Conns=[delta wye],kvs=[13.800000000 0.22],kvas=[45.000000000 45.000000000],Taps=[1,1.000000000],XHL=3.700000000,%loadloss=1.520000000,%noloadloss=0.377777000
new transformer.TRF_1062914A Phases=1,Windings=3,Buses=[BMT176550976.2 BBT130081620.1.0 BBT130081620.0.2],Conns=[wye wye wye],kvs=[7.967 0.12 0.12],kvas=[15.000000000 15.000000000 15.000000000],Taps=[1,1.000000000,1.000000000],XHL=1.921000000,XHT=1.921000000,XLT=1.537000000,%loadloss=1.600000000,%noloadloss=0.400000000
new transformer.TRF_1086357A Phases=1,Windings=3,Buses=[BMT175200185.3 BBT138020810.1.0 BBT138020810.0.2],Conns=[wye wye wye],kvs=[7.967 0.12 0.12],kvas=[10.000000000 10.000000000 10.000000000],Taps=[1,1.000000000,1.000000000],XHL=1.735000000,XHT=1.735000000,XLT=1.388000000,%loadloss=1.800000000,%noloadloss=0.450000000
new transformer.TRF_1114196 Phases=3,Windings=2,Buses=[BMT179862216.1.2.3 BBT145331666.1.2.3.0],Conns=[delta wye],kvs=[13.800000000 0.22],kvas=[30.000000000 30.000000000],Taps=[1,1.000000000],XHL=3.640000000,%loadloss=1.670000000,%noloadloss=0.433333000
new transformer.TRF_1402781A Phases=1,Windings=3,Buses=[BMT175200200.3 BBT151113321.1.0 BBT151113321.0.2],Conns=[wye wye wye],kvs=[7.967 0.12 0.12],kvas=[10.000000000 10.000000000 10.000000000],Taps=[1,1.000000000,1.000000000],XHL=1.735000000,XHT=1.735000000,XLT=1.388000000,%loadloss=1.800000000,%noloadloss=0.450000000
new transformer.TRF_1418069A Phases=1,Windings=3,Buses=[BMT157911573.2 BBT154660813.1.0 BBT154660813.0.2],Conns=[wye wye wye],kvs=[7.967 0.12 0.12],kvas=[10.000000000 10.000000000 10.000000000],Taps=[1,1.000000000,1.000000000],XHL=1.735000000,XHT=1.735000000,XLT=1.388000000,%loadloss=1.800000000,%noloadloss=0.450000000
new transformer.TRF_1421863A Phases=1,Windings=3,Buses=[BMT160027522.1 BBT155519000.1.0 BBT155519000.0.2],Conns=[wye wye wye],kvs=[7.967 0.12 0.12],kvas=[10.000000000 10.000000000 10.000000000],Taps=[1,1.000000000,1.000000000],XHL=1.735000000,XHT=1.735000000,XLT=1.388000000,%loadloss=1.800000000,%noloadloss=0.450000000
new transformer.TRF_1446458A Phases=1,Windings=3,Buses=[BMT162013656.3 BBT160846203.1.0 BBT160846203.0.2],Conns=[wye wye wye],kvs=[7.967 0.12 0.12],kvas=[25.000000000 25.000000000 25.000000000],Taps=[1,1.000000000,1.000000000],XHL=2.058000000,XHT=2.058000000,XLT=1.646000000,%loadloss=1.420000000,%noloadloss=0.320000000
new transformer.TRF_1524311 Phases=3,Windings=2,Buses=[BMT177408801.1.2.3 BBT177408634.1.2.3.0],Conns=[delta wye],kvs=[13.800000000 0.22],kvas=[75.000000000 75.000000000],Taps=[1,1.000000000],XHL=3.770000000,%loadloss=1.340000000,%noloadloss=0.340000000