new load.3000662817M1 bus1=BMT123747509.1.2.3.0,Phases=3,kv=13.800000000,kW=4.6711,pf=0.92,Vminpu=0.93,Vmaxpu=1.5,model=8,zipv=[0.5,0,0.5,1,0,0,0],daily=MT1_1,status=variable
new load.3004895468M1 bus1=BMT151842134.1.2.3.0,Phases=3,kv=13.800000000,kW=42.13332,pf=0.92,Vminpu=0.93,Vmaxpu=1.5,model=8,zipv=[0.5,0,0.5,1,0,0,0],daily=MT3_1,status=variable
new load.3009002464M1 bus1=BMT123746207.1.2.3.0,Phases=3,kv=13.800000000,kW=10.93578,pf=0.92,Vminpu=0.93,Vmaxpu=1.5,model=8,zipv=[0.5,0,0.5,1,0,0,0],daily=MT3_1,status=variable
new load.3009002465M1 bus1=BMT168523463.1.2.3.0,Phases=3,kv=13.800000000,kW=19.81764,pf=0.92,Vminpu=0.93,Vmaxpu=1.5,model=8,zipv=[0.5,0,0.5,1,0,0,0],daily=MT3_1,status=variable
new load.3009002466M1 bus1=BMT165672840.1.2.3.0,Phases=3,kv=13.800000000,kW=6.19992,pf=0.92,Vminpu=0.93,Vmaxpu=1.5,model=8,zipv=[0.5,0,0.5,1,0,0,0],daily=MT4_1,status=variable
new load.3009002467M1 bus1=BMT165718614.1.2.3.0,Phases=3,kv=13.800000000,kW=1.93748,pf=0.92,Vminpu=0.93,Vmaxpu=1.5,model=8,zipv=[0.5,0,0.5,1,0,0,0],daily=MT4_1,status=variable
new load.3009010080M1 bus1=BMT150577033.1.2.3.0,Phases=3,kv=13.800000000,kW=0.00148,pf=0.92,Vminpu=0.93,Vmaxpu=1.5,model=8,zipv=[0.5,0,0.5,1,0,0,0],daily=MT2_1,status=variable
new load.3009010942M1 bus1=BMT123748692.1.2.3.0,Phases=3,kv=13.800000000,kW=0.38858,pf=0.92,Vminpu=0.93,Vmaxpu=1.5,model=8,zipv=[0.5,0,0.5,1,0,0,0],daily=MT3_1,status=variable
new load.3009012052M1 bus1=BMT123747236.1.2.3.0,Phases=3,kv=13.800000000,kW=6.36792,pf=0.92,Vminpu=0.93,Vmaxpu=1.5,model=8,zipv=[0.5,0,0.5,1,0,0,0],daily=MT5_1,status=variable
new load.3009012228M1 bus1=BMT123746270.1.2.3.0,Phases=3,kv=13.800000000,kW=0.23652,pf=0.92,Vminpu=0.93,Vmaxpu=1.5,model=8,zipv=[0.5,0,0.5,1,0,0,0],daily=MT2_1,status=variable
new load.3009012422M1 bus1=BMT123747222.1.2.3.0,Phases=3,kv=13.800000000,kW=0.88818,pf=0.92,Vminpu=0.93,Vmaxpu=1.5,model=8,zipv=[0.5,0,0.5,1,0,0,0],daily=MT3_1,status=variable
new load.3009012846M1 bus1=BMT150346671.1.2.3.0,Phases=3,kv=13.800000000,kW=3.09996,pf=0.92,Vminpu=0.93,Vmaxpu=1.5,model=8,zipv=[0.5,0,0.5,1,0,0,0],daily=MT4_1,status=variable
new load.3009016634M1 bus1=BMT123749077.1.2.3.0,Phases=3,kv=13.800000000,kW=0.22204,pf=0.92,Vminpu=0.93,Vmaxpu=1.5,model=8,zipv=[0.5,0,0.5,1,0,0,0],daily=MT3_1,status=variable
new load.3009016678M1 bus1=BMT123747495.1.2.3.0,Phases=3,kv=13.800000000,kW=0.77716,pf=0.92,Vminpu=0.93,Vmaxpu=1.5,model=8,zipv=[0.5,0,0.5,1,0,0,0],daily=MT3_1,status=variable
new load.3009019202M1 bus1=BMT123747586.1.2.3.0,Phases=3,kv=13.800000000,kW=4.98236,pf=0.92,Vminpu=0.93,Vmaxpu=1.5,model=8,zipv=[0.5,0,0.5,1,0,0,0],daily=MT5_1,status=variable
new load.3009019432M1 bus1=BMT123748650.1.2.3.0,Phases=3,kv=13.800000000,kW=0.00138,pf=0.92,Vminpu=0.93,Vmaxpu=1.5,model=8,zipv=[0.5,0,0.5,1,0,0,0],daily=MT3_1,status=variable
new load.3009020029M1 bus1=BMT123748706.1.2.3.0,Phases=3,kv=13.800000000,kW=0.00138,pf=0.92,Vminpu=0.93,Vmaxpu=1.5,model=8,zipv=[0.5,0,0.5,1,0,0,0],daily=MT4_1,status=variable
new load.3009021084M1 bus1=BMT152710065.1.2.3.0,Phases=3,kv=13.800000000,kW=0.00138,pf=0.92,Vminpu=0.93,Vmaxpu=1.5,model=8,zipv=[0.5,0,0.5,1,0,0,0],daily=MT3_1,status=variable
new load.3010001144M1 bus1=BMT123746858.1.2.3.0,Phases=3,kv=13.800000000,kW=0.61062,pf=0.92,Vminpu=0.93,Vmaxpu=1.5,model=8,zipv=[0.5,0,0.5,1,0,0,0],daily=MT3_1,status=variable
new load.3010098275M1 bus1=BMT123747180.1.2.3.0,Phases=3,kv=13.800000000,kW=0.00152,pf=0.92,Vminpu=0.93,Vmaxpu=1.5,model=8,zipv=[0.5,0,0.5,1,0,0,0],daily=MT1_1,status=variable
new load.3010292190M1 bus1=BMT123750351.1.2.3.0,Phases=3,kv=13.800000000,kW=14.39828,pf=0.92,Vminpu=0.93,Vmaxpu=1.5,model=8,zipv=[0.5,0,0.5,1,0,0,0],daily=MT1_1,status=variable
new load.3012111921M1 bus1=BMT157917956.1.2.3.0,Phases=3,kv=13.800000000,kW=258.63516,pf=0.92,Vminpu=0.93,Vmaxpu=1.5,model=8,zipv=[0.5,0,0.5,1,0,0,0],daily=MT5_1,status=variable
new load.3012545329M1 bus1=BMT152975211.1.2.3.0,Phases=3,kv=13.800000000,kW=0.5913,pf=0.92,Vminpu=0.93,Vmaxpu=1.5,model=8,zipv=[0.5,0,0.5,1,0,0,0],daily=MT2_1,status=variable
new load.3012613617M1 bus1=BMT157784278.1.2.3.0,Phases=3,kv=13.800000000,kW=16.77914,pf=0.92,Vminpu=0.93,Vmaxpu=1.5,model=8,zipv=[0.5,0,0.5,1,0,0,0],daily=MT1_1,status=variable
new load.3012864253M1 bus1=BMT160029411.1.2.3.0,Phases=3,kv=13.800000000,kW=10.65612,pf=0.92,Vminpu=0.93,Vmaxpu=1.5,model=8,zipv=[0.5,0,0.5,1,0,0,0],daily=MT4_1,status=variable
new load.3013971593M1 bus1=BMT176756448.1.2.3.0,Phases=3,kv=13.800000000,kW=4.23478,pf=0.92,Vminpu=0.93,Vmaxpu=1.5,model=8,zipv=[0.5,0,0.5,1,0,0,0],daily=MT1_1,status=variable
new load.3013971596M1 bus1=BMT176756448.1.2.3.0,Phases=3,kv=13.800000000,kW=2.1174,pf=0.92,Vminpu=0.93,Vmaxpu=1.5,model=8,zipv=[0.5,0,0.5,1,0,0,0],daily=MT1_1,status=variable
new load.3013971620M1 bus1=BMT176756448.1.2.3.0,Phases=3,kv=13.800000000,kW=2.1174,pf=0.92,Vminpu=0.93,Vmaxpu=1.5,model=8,zipv=[0.5,0,0.5,1,0,0,0],daily=MT1_1,status=variable
new load.3013972141M1 bus1=BMT176756349.1.2.3.0,Phases=3,kv=13.800000000,kW=4.23478,pf=0.92,Vminpu=0.93,Vmaxpu=1.5,model=8,zipv=[0.5,0,0.5,1,0,0,0],daily=MT1_1,status=variable
new load.3013972143M1 bus1=BMT176756349.1.2.3.0,Phases=3,kv=13.800000000,kW=4.23478,pf=0.92,Vminpu=0.93,Vmaxpu=1.5,model=8,zipv=[0.5,0,0.5,1,0,0,0],daily=MT1_1,status=variable
new load.3013972153M1 bus1=BMT176756448.1.2.3.0,Phases=3,kv=13.800000000,kW=2.1174,pf=0.92,Vminpu=0.93,Vmaxpu=1.5,model=8,zipv=[0.5,0,0.5,1,0,0,0],daily=MT1_1,status=variable
