new line.SBT_10009950 bus1=BBT145331666.1.2.3.0,bus2=BBT145331673.1.2.3.0,Phases=3,Linecode=BT521_BT521_7_3_1_3,Length=0.000510000,Units=km
new line.SBT_111710IP bus1=BBT201303.3.1.0,bus2=BBT5000111710.3.1.0,Phases=2,Linecode=IP_2,Length=0.002896800,Units=km
new line.SBT_111717IP bus1=BBT201310.2.3.0,bus2=BBT5000111717.2.3.0,Phases=2,Linecode=IP_2,Length=0.003366000,Units=km
new line.SBT_111724IP bus1=BBT201317.1.2.0,bus2=BBT5000111724.1.2.0,Phases=2,Linecode=IP_2,Length=0.005640600,Units=km
new line.SBT_111731IP bus1=BBT201324.2.3.0,bus2=BBT5000111731.2.3.0,Phases=2,Linecode=IP_2,Length=0.005640600,Units=km
new line.SBT_139262 bus1=BBT150385.1.2.0,bus2=BBT150392.1.2.0,Phases=2,Linecode=BT307_BT307_7_2_1_2,Length=0.000510000,Units=km
new line.SBT_139318 bus1=BBT150497.1.2.0,bus2=BBT150504.1.2.0,Phases=2,Linecode=BT307_BT307_7_2_1_2,Length=0.000510000,Units=km
new line.SBT_139325 bus1=BBT150511.1.2.0,bus2=BBT150518.1.2.0,Phases=2,Linecode=BT307_BT307_7_2_1_2,Length=0.000510000,Units=km
new line.SBT_139360 bus1=BBT150581.1.2.0,bus2=BBT150588.1.2.0,Phases=2,Linecode=BT307_BT307_7_2_1_2,Length=0.000510000,Units=km
new line.SBT_139367 bus1=BBT150595.1.2.0,bus2=BBT150602.1.2.0,Phases=2,Linecode=BT307_BT307_7_2_1_2,Length=0.000510000,Units=km
new line.SBT_139395 bus1=BBT150651.1.2.0,bus2=BBT150658.1.2.0,Phases=2,Linecode=BT307_BT307_7_2_1_2,Length=0.000510000,Units=km
new line.SBT_140760 bus1=BBT152149.1.2.3.0,bus2=BBT152156.1.2.3.0,Phases=3,Linecode=BT809_BT809_4_3_4_3,Length=0.031398660,Units=km
new line.SBT_140774 bus1=BBT152198.1.2.3.0,bus2=BBT152184.1.2.3.0,Phases=3,Linecode=BT803_BT803_4_3_4_3,Length=0.042916500,Units=km
new line.SBT_140781 bus1=BBT152198.1.2.3.0,bus2=BBT152191.1.2.3.0,Phases=3,Linecode=BT803_BT803_4_3_4_3,Length=0.041225340,Units=km
new line.SBT_140788 bus1=BBT152212.1.2.3.0,bus2=BBT152219.1.2.3.0,Phases=3,Linecode=BT803_BT803_4_3_4_3,Length=0.030577560,Units=km
new line.SBT_140795 bus1=BBT152226.1.2.3.0,bus2=BBT152198.1.2.3.0,Phases=3,Linecode=BT803_BT803_4_3_4_3,Length=0.034713660,Units=km
new line.SBT_140802 bus1=BBT152226.1.2.3.0,bus2=BBT152212.1.2.3.0,Phases=3,Linecode=BT803_BT803_4_3_4_3,Length=0.032869500,Units=km
new line.SBT_140809 bus1=BBT152226.1.2.3.0,bus2=BBT152289.1.2.3.0,Phases=3,Linecode=BT803_BT803_4_3_4_3,Length=0.032615520,Units=km
new line.SBT_140816 bus1=BBT152240.1.2.3.0,bus2=BBT152226.1.2.3.0,Phases=3,Linecode=BT803_BT803_4_3_4_3,Length=0.036121260,Units=km
new line.SBT_140823 bus1=BBT152254.1.2.3.0,bus2=BBT152205.1.2.3.0,Phases=3,Linecode=BT803_BT803_4_3_4_3,Length=0.033696720,Units=km
new line.SBT_140830 bus1=BBT152254.1.2.3.0,bus2=BBT152240.1.2.3.0,Phases=3,Linecode=BT803_BT803_4_3_4_3,Length=0.033881340,Units=km
new line.SBT_140837 bus1=BBT152254.1.2.3.0,bus2=BBT152317.1.2.3.0,Phases=3,Linecode=BT803_BT803_4_3_4_3,Length=0.033183660,Units=km
new line.SBT_140844 bus1=BBT152261.1.2.3.0,bus2=BBT152247.1.2.3.0,Phases=3,Linecode=BT803_BT803_4_3_4_3,Length=0.037931760,Units=km
new line.SBT_140851 bus1=BBT152268.1.2.3.0,bus2=BBT152254.1.2.3.0,Phases=3,Linecode=BT803_BT803_4_3_4_3,Length=0.021282300,Units=km
new line.SBT_140858 bus1=BBT152275.1.2.3.0,bus2=BBT152261.1.2.3.0,Phases=3,Linecode=BT803_BT803_4_3_4_3,Length=0.038944620,Units=km
new line.SBT_140865 bus1=BBT152282.1.2.3.0,bus2=BBT152268.1.2.3.0,Phases=3,Linecode=BT803_BT803_4_3_4_3,Length=0.025784580,Units=km
new line.SBT_140872 bus1=BBT152177.1.2.3.0,bus2=BBT152282.1.2.3.0,Phases=3,Linecode=BT513_BT513_7_3_1_3,Length=0.000510000,Units=km
new line.SBT_140879 bus1=BBT152282.1.2.3.0,bus2=BBT152296.1.2.3.0,Phases=3,Linecode=BT803_BT803_4_3_4_3,Length=0.028429440,Units=km
new line.SBT_140886 bus1=BBT152289.1.2.3.0,bus2=BBT152324.1.2.3.0,Phases=3,Linecode=BT803_BT803_4_3_4_3,Length=0.035687760,Units=km
new line.SBT_140893 bus1=BBT152296.1.2.3.0,bus2=BBT152310.1.2.3.0,Phases=3,Linecode=BT803_BT803_4_3_4_3,Length=0.027444120,Units=km
new line.SBT_140900 bus1=BBT152303.1.2.3.0,bus2=BBT152233.1.2.3.0,Phases=3,Linecode=BT803_BT803_4_3_4_3,Length=0.040049280,Units=km
new line.SBT_140907 bus1=BBT152303.1.2.3.0,bus2=BBT152275.1.2.3.0,Phases=3,Linecode=BT803_BT803_4_3_4_3,Length=0.033927240,Units=km
new line.SBT_140914 bus1=BBT152303.1.2.3.0,bus2=BBT152331.1.2.3.0,Phases=3,Linecode=BT803_BT803_4_3_4_3,Length=0.032004540,Units=km
new line.SBT_140921 bus1=BBT152310.1.2.3.0,bus2=BBT152303.1.2.3.0,Phases=3,Linecode=BT803_BT803_4_3_4_3,Length=0.006838080,Units=km
new line.SBT_140928 bus1=BBT152359.1.2.3.0,bus2=BBT152345.1.2.3.0,Phases=3,Linecode=BT107_BT107_7_3_1_3,Length=0.034893180,Units=km
new line.SBT_140935 bus1=BBT152359.1.2.3.0,bus2=BBT152352.1.2.3.0,Phases=3,Linecode=BT107_BT107_7_3_1_3,Length=0.028990440,Units=km
new line.SBT_140942 bus1=BBT152359.1.2.3.0,bus2=BBT152366.1.2.3.0,Phases=3,Linecode=BT107_BT107_7_3_1_3,Length=0.029994120,Units=km
new line.SBT_140949 bus1=BBT152380.1.2.3.0,bus2=BBT152359.1.2.3.0,Phases=3,Linecode=BT810_BT810_4_3_4_3,Length=0.034713660,Units=km
new line.SBT_140956 bus1=BBT152387.2.3.0,bus2=BBT152373.2.3.0,Phases=2,Linecode=BT106_BT106_7_2_1_2,Length=0.037766520,Units=km
new line.SBT_140963 bus1=BBT152394.1.2.3.0,bus2=BBT152380.1.2.3.0,Phases=3,Linecode=BT810_BT810_4_3_4_3,Length=0.034788120,Units=km
new line.SBT_141873 bus1=BBT153353.1.2.0,bus2=BBT153339.1.2.0,Phases=2,Linecode=BT810_BT810_4_2_4_2,Length=0.024483060,Units=km
new line.SBT_141880 bus1=BBT153367.1.2.3.0,bus2=BBT153360.1.2.3.0,Phases=3,Linecode=BT106_BT106_7_3_1_3,Length=0.034788120,Units=km
new line.SBT_141887 bus1=BBT153374.3.1.0,bus2=BBT153346.3.1.0,Phases=2,Linecode=BT106_BT106_7_2_1_2,Length=0.035731620,Units=km
new line.SBT_141894 bus1=BBT153374.1.2.3.0,bus2=BBT153367.1.2.3.0,Phases=3,Linecode=BT106_BT106_7_3_1_3,Length=0.033881340,Units=km
new line.SBT_141901 bus1=BBT153374.3.1.0,bus2=BBT153416.3.1.0,Phases=2,Linecode=BT106_BT106_7_2_1_2,Length=0.036917880,Units=km
new line.SBT_141908 bus1=BBT153381.1.2.3.0,bus2=BBT153374.1.2.3.0,Phases=3,Linecode=BT803_BT803_4_3_4_3,Length=0.035804040,Units=km
new line.SBT_141915 bus1=BBT153388.1.2.3.0,bus2=BBT153381.1.2.3.0,Phases=3,Linecode=BT803_BT803_4_3_4_3,Length=0.033696720,Units=km
new line.SBT_141922 bus1=BBT153318.1.2.3.0,bus2=BBT153388.1.2.3.0,Phases=3,Linecode=BT518_BT518_7_3_1_3,Length=0.000510000,Units=km
new line.SBT_141929 bus1=BBT153388.1.2.3.0,bus2=BBT153395.1.2.3.0,Phases=3,Linecode=BT803_BT803_4_3_4_3,Length=0.037931760,Units=km
new line.SBT_141936 bus1=BBT153395.1.2.0,bus2=BBT153353.1.2.0,Phases=2,Linecode=BT810_BT810_4_2_4_2,Length=0.029557560,Units=km
new line.SBT_141943 bus1=BBT153395.1.2.3.0,bus2=BBT153402.1.2.3.0,Phases=3,Linecode=BT810_BT810_4_3_4_3,Length=0.033881340,Units=km
new line.SBT_141950 bus1=BBT153395.1.2.0,bus2=BBT153423.1.2.0,Phases=2,Linecode=BT810_BT810_4_2_4_2,Length=0.040972380,Units=km
new line.SBT_141957 bus1=BBT153402.1.2.3.0,bus2=BBT153409.1.2.3.0,Phases=3,Linecode=BT810_BT810_4_3_4_3,Length=0.032869500,Units=km
new line.SBT_141964 bus1=BBT153451.2.3.0,bus2=BBT153437.2.3.0,Phases=2,Linecode=BT106_BT106_7_2_1_2,Length=0.030729540,Units=km
new line.SBT_141971 bus1=BBT153465.1.2.3.0,bus2=BBT153444.1.2.3.0,Phases=3,Linecode=BT810_BT810_4_3_4_3,Length=0.032869500,Units=km
new line.SBT_141978 bus1=BBT153479.1.2.3.0,bus2=BBT153458.1.2.3.0,Phases=3,Linecode=BT810_BT810_4_3_4_3,Length=0.026676060,Units=km
new line.SBT_141985 bus1=BBT153486.1.2.3.0,bus2=BBT153472.1.2.3.0,Phases=3,Linecode=BT810_BT810_4_3_4_3,Length=0.033881340,Units=km
new line.SBT_141992 bus1=BBT153486.2.3.0,bus2=BBT153451.2.3.0,Phases=2,Linecode=BT107_BT107_7_2_1_2,Length=0.033011280,Units=km
new line.SBT_141999 bus1=BBT153486.1.2.3.0,bus2=BBT153542.1.2.3.0,Phases=3,Linecode=BT810_BT810_4_3_4_3,Length=0.040883640,Units=km
new line.SBT_142006 bus1=BBT153493.1.2.3.0,bus2=BBT153486.1.2.3.0,Phases=3,Linecode=BT810_BT810_4_3_4_3,Length=0.030847860,Units=km
new line.SBT_142013 bus1=BBT153500.1.2.3.0,bus2=BBT153493.1.2.3.0,Phases=3,Linecode=BT810_BT810_4_3_4_3,Length=0.031858680,Units=km
new line.SBT_142020 bus1=BBT153507.1.2.3.0,bus2=BBT153500.1.2.3.0,Phases=3,Linecode=BT810_BT810_4_3_4_3,Length=0.032758320,Units=km
new line.SBT_104164IP bus1=BBT185203.1.2.0,bus2=BBT5000104164.1.2.0,Phases=2,Linecode=IP_2,Length=0.002896800,Units=km
new line.SBT_104171IP bus1=BBT185210.1.2.0,bus2=BBT5000104171.1.2.0,Phases=2,Linecode=IP_2,Length=0.002896800,Units=km
new line.SBT_104178IP bus1=BBT185217.2.3.0,bus2=BBT5000104178.2.3.0,Phases=2,Linecode=IP_2,Length=0.002896800,Units=km
new line.SBT_139612 bus1=BBT150966.1.2.3.0,bus2=BBT150980.1.2.3.0,Phases=3,Linecode=BT108_BT107_7_3_1_3,Length=0.034893180,Units=km
new line.SBT_139619 bus1=BBT150973.1.2.3.0,bus2=BBT150987.1.2.3.0,Phases=3,Linecode=BT810_BT810_4_3_4_3,Length=0.026578140,Units=km
new line.SBT_139626 bus1=BBT150980.1.2.3.0,bus2=BBT150994.1.2.3.0,Phases=3,Linecode=BT107_BT107_7_3_1_3,Length=0.033773220,Units=km
new line.SBT_139633 bus1=BBT150994.1.2.3.0,bus2=BBT151008.1.2.3.0,Phases=3,Linecode=BT107_BT107_7_3_1_3,Length=0.014305500,Units=km
new line.SBT_139640 bus1=BBT151008.1.2.0,bus2=BBT151001.1.2.0,Phases=2,Linecode=BT106_BT106_7_2_1_2,Length=0.004202400,Units=km
new line.SBT_139647 bus1=BBT151008.1.2.0,bus2=BBT151015.1.2.0,Phases=2,Linecode=BT106_BT106_7_2_1_2,Length=0.028828260,Units=km
new line.SBT_139654 bus1=BBT151008.1.2.3.0,bus2=BBT151029.1.2.3.0,Phases=3,Linecode=BT107_BT107_7_3_1_3,Length=0.018458940,Units=km
new line.SBT_139661 bus1=BBT151015.1.2.0,bus2=BBT151022.1.2.0,Phases=2,Linecode=BT106_BT106_7_2_1_2,Length=0.033011280,Units=km
new line.SBT_139668 bus1=BBT151029.1.2.3.0,bus2=BBT151036.1.2.3.0,Phases=3,Linecode=BT107_BT107_7_3_1_3,Length=0.040883640,Units=km
new line.SBT_139675 bus1=BBT151064.1.2.3.0,bus2=BBT151057.1.2.3.0,Phases=3,Linecode=BT810_BT810_4_3_4_3,Length=0.040577640,Units=km
new line.SBT_139682 bus1=BBT151071.1.2.3.0,bus2=BBT151050.1.2.3.0,Phases=3,Linecode=BT810_BT810_4_3_4_3,Length=0.033880320,Units=km
new line.SBT_139689 bus1=BBT151071.1.2.3.0,bus2=BBT151064.1.2.3.0,Phases=3,Linecode=BT810_BT810_4_3_4_3,Length=0.029838060,Units=km
new line.SBT_139696 bus1=BBT151071.1.2.3.0,bus2=BBT151078.1.2.3.0,Phases=3,Linecode=BT810_BT810_4_3_4_3,Length=0.032392140,Units=km
new line.SBT_139703 bus1=BBT151078.1.2.3.0,bus2=BBT151092.1.2.3.0,Phases=3,Linecode=BT810_BT810_4_3_4_3,Length=0.032183040,Units=km
new line.SBT_139710 bus1=BBT151092.1.2.3.0,bus2=BBT151099.1.2.3.0,Phases=3,Linecode=BT810_BT810_4_3_4_3,Length=0.020613180,Units=km
new line.SBT_139717 bus1=BBT151099.1.2.3.0,bus2=BBT151085.1.2.3.0,Phases=3,Linecode=BT107_BT107_7_3_1_3,Length=0.004202400,Units=km
new line.SBT_139724 bus1=BBT151099.1.2.3.0,bus2=BBT151106.1.2.3.0,Phases=3,Linecode=BT107_BT107_7_3_1_3,Length=0.005489640,Units=km
new line.SBT_139731 bus1=BBT151099.1.2.3.0,bus2=BBT151120.1.2.3.0,Phases=3,Linecode=BT810_BT810_4_3_4_3,Length=0.027537960,Units=km
new line.SBT_139738 bus1=BBT151113.1.2.3.0,bus2=BBT151071.1.2.3.0,Phases=3,Linecode=BT108_BT107_7_3_1_3,Length=0.038850780,Units=km
new line.SBT_139745 bus1=BBT151120.1.2.3.0,bus2=BBT3264622.1.2.3.0,Phases=3,Linecode=BT810_BT810_4_3_4_3,Length=0.030576540,Units=km
new line.SBT_139752 bus1=BBT151134.1.2.3.0,bus2=BBT151113.1.2.3.0,Phases=3,Linecode=BT108_BT107_7_3_1_3,Length=0.036917880,Units=km
new line.SBT_139759 bus1=BBT151043.1.2.3.0,bus2=BBT151134.1.2.3.0,Phases=3,Linecode=BT518_BT518_7_3_1_3,Length=0.000510000,Units=km
new line.SBT_139766 bus1=BBT151134.1.2.3.0,bus2=BBT151162.1.2.3.0,Phases=3,Linecode=BT108_BT107_7_3_1_3,Length=0.034788120,Units=km
new line.SBT_139773 bus1=BBT151295.1.2.0,bus2=BBT151260.1.2.0,Phases=2,Linecode=BT106_BT106_7_2_1_2,Length=0.038054160,Units=km
new line.SBT_139780 bus1=BBT151148.1.2.3.0,bus2=BBT151127.1.2.3.0,Phases=3,Linecode=BT810_BT810_4_3_4_3,Length=0.027595080,Units=km
new line.SBT_139787 bus1=BBT151155.1.2.3.0,bus2=BBT151141.1.2.3.0,Phases=3,Linecode=BT107_BT107_7_3_1_3,Length=0.022790880,Units=km
new line.SBT_139794 bus1=BBT151162.1.2.3.0,bus2=BBT151155.1.2.3.0,Phases=3,Linecode=BT107_BT107_7_3_1_3,Length=0.022002420,Units=km
new line.SBT_141152 bus1=BBT152597.3.1.0,bus2=BBT152555.3.1.0,Phases=2,Linecode=BT106_BT106_7_2_1_2,Length=0.037931760,Units=km
new line.SBT_141159 bus1=BBT152597.1.2.3.0,bus2=BBT152583.1.2.3.0,Phases=3,Linecode=BT803_BT803_4_3_4_3,Length=0.030407220,Units=km
new line.SBT_141173 bus1=BBT152604.1.2.3.0,bus2=BBT152597.1.2.3.0,Phases=3,Linecode=BT803_BT803_4_3_4_3,Length=0.037393200,Units=km
new line.SBT_141180 bus1=BBT152611.1.2.3.0,bus2=BBT152604.1.2.3.0,Phases=3,Linecode=BT803_BT803_4_3_4_3,Length=0.042564600,Units=km
new line.SBT_141187 bus1=BBT152485.1.2.3.0,bus2=BBT152611.1.2.3.0,Phases=3,Linecode=BT518_BT518_7_3_1_3,Length=0.000510000,Units=km
new line.SBT_141194 bus1=BBT152611.1.2.3.0,bus2=BBT152625.1.2.3.0,Phases=3,Linecode=BT803_BT803_4_3_4_3,Length=0.034863600,Units=km
new line.SBT_141201 bus1=BBT152618.1.2.3.0,bus2=BBT152590.1.2.3.0,Phases=3,Linecode=BT810_BT810_4_3_4_3,Length=0.032758320,Units=km
new line.SBT_141208 bus1=BBT152625.1.2.3.0,bus2=BBT152632.1.2.3.0,Phases=3,Linecode=BT810_BT810_4_3_4_3,Length=0.004202400,Units=km
new line.SBT_141215 bus1=BBT152632.1.2.3.0,bus2=BBT152618.1.2.3.0,Phases=3,Linecode=BT106_BT106_7_3_1_3,Length=0.004076940,Units=km
new line.SBT_141222 bus1=BBT152632.1.2.3.0,bus2=BBT152639.1.2.3.0,Phases=3,Linecode=BT803_BT803_4_3_4_3,Length=0.027726660,Units=km
new line.SBT_141229 bus1=BBT152632.1.2.3.0,bus2=BBT152660.1.2.3.0,Phases=3,Linecode=BT810_BT810_4_3_4_3,Length=0.029715660,Units=km
new line.SBT_141236 bus1=BBT152639.1.2.3.0,bus2=BBT152646.1.2.3.0,Phases=3,Linecode=BT803_BT803_4_3_4_3,Length=0.033526380,Units=km
new line.SBT_141243 bus1=BBT152646.1.2.3.0,bus2=BBT152653.1.2.3.0,Phases=3,Linecode=BT803_BT803_4_3_4_3,Length=0.031922940,Units=km
new line.SBT_141250 bus1=BBT168552849.1.2.3.0,bus2=BBT152688.1.2.3.0,Phases=3,Linecode=BT810_BT810_4_3_4_3,Length=0.036819960,Units=km
new line.SBT_141257 bus1=BBT152688.1.2.3.0,bus2=BBT169899872.1.2.3.0,Phases=3,Linecode=BT810_BT810_4_3_4_3,Length=0.037834860,Units=km
new line.SBT_141264 bus1=BBT152674.1.2.3.0,bus2=BBT152702.1.2.3.0,Phases=3,Linecode=BT803_BT803_4_3_4_3,Length=0.024546300,Units=km
new line.SBT_141271 bus1=BBT152702.1.2.3.0,bus2=BBT168550122.1.2.3.0,Phases=3,Linecode=BT108_BT107_7_3_1_3,Length=0.024546300,Units=km
new line.SBT_141278 bus1=BBT152702.1.2.3.0,bus2=BBT152723.1.2.3.0,Phases=3,Linecode=BT803_BT803_4_3_4_3,Length=0.008218140,Units=km
new line.SBT_141285 bus1=BBT152702.1.2.3.0,bus2=BBT152709.1.2.3.0,Phases=3,Linecode=BT108_BT107_7_3_1_3,Length=0.013598640,Units=km
new line.SBT_141292 bus1=BBT152709.1.2.3.0,bus2=BBT169899782.1.2.3.0,Phases=3,Linecode=BT108_BT107_7_3_1_3,Length=0.034893180,Units=km
new line.SBT_141299 bus1=BBT152730.1.2.3.0,bus2=BBT152716.1.2.3.0,Phases=3,Linecode=BT108_BT107_7_3_1_3,Length=0.035731620,Units=km
new line.SBT_141306 bus1=BBT152667.1.2.3.0,bus2=BBT152765.1.2.3.0,Phases=3,Linecode=BT518_BT518_7_3_1_3,Length=0.000510000,Units=km
new line.SBT_141313 bus1=BBT152737.1.2.3.0,bus2=BBT152730.1.2.3.0,Phases=3,Linecode=BT108_BT107_7_3_1_3,Length=0.041086620,Units=km
new line.SBT_141320 bus1=BBT152744.1.2.3.0,bus2=BBT152737.1.2.3.0,Phases=3,Linecode=BT108_BT107_7_3_1_3,Length=0.037834860,Units=km
new line.SBT_141327 bus1=BBT152744.1.2.3.0,bus2=BBT152751.1.2.3.0,Phases=3,Linecode=BT108_BT107_7_3_1_3,Length=0.033696720,Units=km
new line.SBT_142587 bus1=BBT154039.1.2.3.0,bus2=BBT154046.1.2.3.0,Phases=3,Linecode=BT803_BT803_4_3_4_3,Length=0.016339380,Units=km
new line.SBT_142594 bus1=BBT154039.1.2.3.0,bus2=BBT154060.1.2.3.0,Phases=3,Linecode=BT810_BT810_4_3_4_3,Length=0.006200580,Units=km
new line.SBT_142601 bus1=BBT154046.1.2.3.0,bus2=BBT154165.1.2.3.0,Phases=3,Linecode=BT803_BT803_4_3_4_3,Length=0.035804040,Units=km
new line.SBT_142608 bus1=BBT154060.1.2.3.0,bus2=BBT154081.1.2.3.0,Phases=3,Linecode=BT810_BT810_4_3_4_3,Length=0.034713660,Units=km
new line.SBT_142615 bus1=BBT154067.1.2.3.0,bus2=BBT154088.1.2.3.0,Phases=3,Linecode=BT810_BT810_4_3_4_3,Length=0.040997880,Units=km
new line.SBT_142622 bus1=BBT154074.1.2.0,bus2=BBT154095.1.2.0,Phases=2,Linecode=BT810_BT810_4_2_4_2,Length=0.035026800,Units=km
new line.SBT_142629 bus1=BBT154095.1.2.0,bus2=BBT154102.1.2.0,Phases=2,Linecode=BT810_BT810_4_2_4_2,Length=0.036748560,Units=km
new line.SBT_139801 bus1=BBT151162.1.2.3.0,bus2=BBT151169.1.2.3.0,Phases=3,Linecode=BT107_BT107_7_3_1_3,Length=0.032183040,Units=km
new line.SBT_139808 bus1=BBT151162.1.2.3.0,bus2=BBT151197.1.2.3.0,Phases=3,Linecode=BT108_BT107_7_3_1_3,Length=0.037766520,Units=km
new line.SBT_139815 bus1=BBT151169.1.2.3.0,bus2=BBT151176.1.2.3.0,Phases=3,Linecode=BT107_BT107_7_3_1_3,Length=0.026986140,Units=km
new line.SBT_139822 bus1=BBT151176.1.2.3.0,bus2=BBT151183.1.2.3.0,Phases=3,Linecode=BT107_BT107_7_3_1_3,Length=0.033386640,Units=km
new line.SBT_139829 bus1=BBT151183.1.2.3.0,bus2=BBT151148.1.2.3.0,Phases=3,Linecode=BT810_BT810_4_3_4_3,Length=0.026500620,Units=km
new line.SBT_139836 bus1=BBT151183.1.2.3.0,bus2=BBT151190.1.2.3.0,Phases=3,Linecode=BT107_BT107_7_3_1_3,Length=0.035380740,Units=km
new line.SBT_139843 bus1=BBT151183.1.2.3.0,bus2=BBT151204.1.2.3.0,Phases=3,Linecode=BT810_BT810_4_3_4_3,Length=0.037766520,Units=km
new line.SBT_139850 bus1=BBT151225.1.2.3.0,bus2=BBT151218.1.2.3.0,Phases=3,Linecode=BT107_BT107_7_3_1_3,Length=0.033880320,Units=km
new line.SBT_139857 bus1=BBT151225.1.2.3.0,bus2=BBT151232.1.2.3.0,Phases=3,Linecode=BT107_BT107_7_3_1_3,Length=0.037379940,Units=km
new line.SBT_139864 bus1=BBT151239.1.2.3.0,bus2=BBT151225.1.2.3.0,Phases=3,Linecode=BT810_BT810_4_3_4_3,Length=0.039210840,Units=km
new line.SBT_139871 bus1=BBT151246.1.2.3.0,bus2=BBT151239.1.2.3.0,Phases=3,Linecode=BT810_BT810_4_3_4_3,Length=0.034788120,Units=km
new line.SBT_139878 bus1=BBT151267.1.2.3.0,bus2=BBT3274709.1.2.3.0,Phases=3,Linecode=BT108_BT108_7_3_1_3,Length=0.031182420,Units=km
new line.SBT_139885 bus1=BBT151211.1.2.3.0,bus2=BBT151267.1.2.3.0,Phases=3,Linecode=BT518_BT518_7_3_1_3,Length=0.000510000,Units=km
new line.SBT_139892 bus1=BBT151267.1.2.3.0,bus2=BBT151274.1.2.3.0,Phases=3,Linecode=BT108_BT108_7_3_1_3,Length=0.033386640,Units=km
new line.SBT_139899 bus1=BBT151274.1.2.3.0,bus2=BBT151281.1.2.3.0,Phases=3,Linecode=BT108_BT108_7_3_1_3,Length=0.028990440,Units=km
new line.SBT_139906 bus1=BBT151281.1.2.3.0,bus2=BBT151246.1.2.3.0,Phases=3,Linecode=BT810_BT810_4_3_4_3,Length=0.034713660,Units=km
new line.SBT_139913 bus1=BBT151281.1.2.3.0,bus2=BBT151288.1.2.3.0,Phases=3,Linecode=BT107_BT107_7_3_1_3,Length=0.033183660,Units=km
new line.SBT_139920 bus1=BBT151281.1.2.3.0,bus2=BBT151302.1.2.3.0,Phases=3,Linecode=BT810_BT810_4_3_4_3,Length=0.038944620,Units=km
new line.SBT_139927 bus1=BBT151288.1.2.3.0,bus2=BBT151295.1.2.3.0,Phases=3,Linecode=BT107_BT107_7_3_1_3,Length=0.031182420,Units=km
new line.SBT_139934 bus1=BBT151288.1.2.0,bus2=BBT151253.1.2.0,Phases=2,Linecode=BT106_BT106_7_2_1_2,Length=0.035905020,Units=km
new line.SBT_139941 bus1=BBT151309.1.2.0,bus2=BBT151316.1.2.0,Phases=2,Linecode=BT307_BT307_7_2_1_2,Length=0.000510000,Units=km
new line.SBT_139955 bus1=BBT151351.1.2.3.0,bus2=BBT151358.1.2.3.0,Phases=3,Linecode=BT107_BT107_7_3_1_3,Length=0.005096940,Units=km
new line.SBT_139962 bus1=BBT151358.1.2.3.0,bus2=BBT151407.1.2.3.0,Phases=3,Linecode=BT810_BT810_4_3_4_3,Length=0.027819480,Units=km
new line.SBT_139969 bus1=BBT151365.1.2.3.0,bus2=BBT151351.1.2.3.0,Phases=3,Linecode=BT803_BT803_4_3_4_3,Length=0.027819480,Units=km
new line.SBT_139976 bus1=BBT151379.1.2.3.0,bus2=BBT151365.1.2.3.0,Phases=3,Linecode=BT803_BT803_4_3_4_3,Length=0.028190760,Units=km
new line.SBT_139983 bus1=BBT151386.1.2.3.0,bus2=BBT151379.1.2.3.0,Phases=3,Linecode=BT803_BT803_4_3_4_3,Length=0.026986140,Units=km
new line.SBT_139990 bus1=BBT151337.1.2.3.0,bus2=BBT151386.1.2.3.0,Phases=3,Linecode=BT521_BT521_7_3_1_3,Length=0.000510000,Units=km
new line.SBT_141334 bus1=BBT152765.1.2.3.0,bus2=BBT152744.1.2.3.0,Phases=3,Linecode=BT803_BT803_4_3_4_3,Length=0.026676060,Units=km
new line.SBT_141341 bus1=BBT152751.1.2.3.0,bus2=BBT152758.1.2.3.0,Phases=3,Linecode=BT108_BT107_7_3_1_3,Length=0.036917880,Units=km
new line.SBT_141348 bus1=BBT152765.1.2.3.0,bus2=BBT152772.1.2.3.0,Phases=3,Linecode=BT803_BT803_4_3_4_3,Length=0.021500580,Units=km
new line.SBT_141355 bus1=BBT152772.1.2.3.0,bus2=BBT152786.1.2.3.0,Phases=3,Linecode=BT803_BT803_4_3_4_3,Length=0.007420500,Units=km
new line.SBT_141362 bus1=BBT152786.1.2.3.0,bus2=BBT152779.1.2.3.0,Phases=3,Linecode=BT107_BT107_7_3_1_3,Length=0.027688920,Units=km
new line.SBT_141369 bus1=BBT152786.1.2.3.0,bus2=BBT152793.1.2.3.0,Phases=3,Linecode=BT107_BT107_7_3_1_3,Length=0.008153880,Units=km
new line.SBT_141376 bus1=BBT152786.1.2.3.0,bus2=BBT152821.1.2.3.0,Phases=3,Linecode=BT803_BT803_4_3_4_3,Length=0.016307760,Units=km
new line.SBT_141383 bus1=BBT152793.1.2.3.0,bus2=BBT152800.1.2.3.0,Phases=3,Linecode=BT107_BT107_7_3_1_3,Length=0.023531400,Units=km
new line.SBT_141390 bus1=BBT152800.1.2.3.0,bus2=BBT152807.1.2.3.0,Phases=3,Linecode=BT107_BT107_7_3_1_3,Length=0.028701780,Units=km
new line.SBT_141397 bus1=BBT152807.1.2.3.0,bus2=BBT152814.1.2.3.0,Phases=3,Linecode=BT107_BT107_7_3_1_3,Length=0.027595080,Units=km
new line.SBT_141404 bus1=BBT152842.1.2.3.0,bus2=BBT152835.1.2.3.0,Phases=3,Linecode=BT810_BT810_4_3_4_3,Length=0.039210840,Units=km
new line.SBT_141411 bus1=BBT152856.1.2.3.0,bus2=BBT152849.1.2.3.0,Phases=3,Linecode=BT803_BT803_4_3_4_3,Length=0.038677380,Units=km
new line.SBT_141418 bus1=BBT152863.1.2.3.0,bus2=BBT152856.1.2.3.0,Phases=3,Linecode=BT803_BT803_4_3_4_3,Length=0.032230980,Units=km
new line.SBT_141425 bus1=BBT152828.1.2.3.0,bus2=BBT152863.1.2.3.0,Phases=3,Linecode=BT307_BT307_7_3_1_3,Length=0.000510000,Units=km
new line.SBT_141432 bus1=BBT152863.1.2.3.0,bus2=BBT152870.1.2.3.0,Phases=3,Linecode=BT803_BT803_4_3_4_3,Length=0.031645500,Units=km
new line.SBT_141439 bus1=BBT152870.1.2.3.0,bus2=BBT152842.1.2.3.0,Phases=3,Linecode=BT810_BT810_4_3_4_3,Length=0.043001160,Units=km
new line.SBT_141446 bus1=BBT152870.1.2.3.0,bus2=BBT152877.1.2.3.0,Phases=3,Linecode=BT803_BT803_4_3_4_3,Length=0.030948840,Units=km
new line.SBT_141453 bus1=BBT152870.1.2.3.0,bus2=BBT152898.1.2.3.0,Phases=3,Linecode=BT810_BT810_4_3_4_3,Length=0.036193680,Units=km
new line.SBT_141460 bus1=BBT152877.1.2.3.0,bus2=BBT152884.1.2.3.0,Phases=3,Linecode=BT803_BT803_4_3_4_3,Length=0.032230980,Units=km
new line.SBT_141467 bus1=BBT152884.1.2.3.0,bus2=BBT152891.1.2.3.0,Phases=3,Linecode=BT803_BT803_4_3_4_3,Length=0.032230980,Units=km
new line.SBT_141474 bus1=BBT152926.1.2.3.0,bus2=BBT152919.1.2.3.0,Phases=3,Linecode=BT810_BT810_4_3_4_3,Length=0.029715660,Units=km
new line.SBT_141481 bus1=BBT152947.1.2.3.0,bus2=BBT152940.1.2.3.0,Phases=3,Linecode=BT803_BT803_4_3_4_3,Length=0.034788120,Units=km
new line.SBT_141488 bus1=BBT152947.1.2.3.0,bus2=BBT152926.1.2.3.0,Phases=3,Linecode=BT810_BT810_4_3_4_3,Length=0.024227040,Units=km
new line.SBT_141495 bus1=BBT152947.1.2.3.0,bus2=BBT152961.1.2.3.0,Phases=3,Linecode=BT810_BT810_4_3_4_3,Length=0.008218140,Units=km
new line.SBT_141502 bus1=BBT152954.1.2.3.0,bus2=BBT152947.1.2.3.0,Phases=3,Linecode=BT803_BT803_4_3_4_3,Length=0.006200580,Units=km
new line.SBT_141509 bus1=BBT152961.1.2.3.0,bus2=BBT153038.1.2.3.0,Phases=3,Linecode=BT810_BT810_4_3_4_3,Length=0.030998820,Units=km
new line.SBT_141516 bus1=BBT152968.1.2.3.0,bus2=BBT152954.1.2.3.0,Phases=3,Linecode=BT803_BT803_4_3_4_3,Length=0.034788120,Units=km
new line.SBT_142776 bus1=BBT154235.1.2.3.0,bus2=BBT154242.1.2.3.0,Phases=3,Linecode=BT106_BT106_7_3_1_3,Length=0.036819960,Units=km
new line.SBT_142783 bus1=BBT154242.1.2.3.0,bus2=BBT154249.1.2.3.0,Phases=3,Linecode=BT106_BT106_7_3_1_3,Length=0.036819960,Units=km
new line.SBT_142790 bus1=BBT154256.2.3.0,bus2=BBT154270.2.3.0,Phases=2,Linecode=BT106_BT106_7_2_1_2,Length=0.040972380,Units=km
new line.SBT_142797 bus1=BBT154298.1.2.3.0,bus2=BBT154284.1.2.3.0,Phases=3,Linecode=BT809_BT809_4_3_4_3,Length=0.038744700,Units=km
new line.SBT_142804 bus1=BBT154305.1.2.3.0,bus2=BBT154291.1.2.3.0,Phases=3,Linecode=BT809_BT809_4_3_4_3,Length=0.036819960,Units=km
new line.SBT_142811 bus1=BBT154326.1.2.3.0,bus2=BBT154319.1.2.3.0,Phases=3,Linecode=BT803_BT803_4_3_4_3,Length=0.032869500,Units=km
new line.SBT_142818 bus1=BBT154326.1.2.3.0,bus2=BBT154298.1.2.3.0,Phases=3,Linecode=BT809_BT809_4_3_4_3,Length=0.026500620,Units=km
new line.SBT_111745IP bus1=BBT201338.2.3.0,bus2=BBT5000111745.2.3.0,Phases=2,Linecode=IP_2,Length=0.002896800,Units=km
new line.SBT_111752IP bus1=BBT201345.3.1.0,bus2=BBT5000111752.3.1.0,Phases=2,Linecode=IP_2,Length=0.002896800,Units=km
new line.SBT_111759IP bus1=BBT201352.1.2.0,bus2=BBT5000111759.1.2.0,Phases=2,Linecode=IP_2,Length=0.002896800,Units=km
new line.SBT_111766IP bus1=BBT201359.3.1.0,bus2=BBT5000111766.3.1.0,Phases=2,Linecode=IP_2,Length=0.002896800,Units=km
new line.SBT_138793 bus1=BBT149517.1.2.0,bus2=BBT149524.1.2.0,Phases=2,Linecode=BT307_BT307_7_2_1_2,Length=0.000510000,Units=km
new line.SBT_138856 bus1=BBT149643.1.2.0,bus2=BBT149650.1.2.0,Phases=2,Linecode=BT307_BT307_7_2_1_2,Length=0.000510000,Units=km
new line.SBT_138891 bus1=BBT149713.1.2.0,bus2=BBT149720.1.2.0,Phases=2,Linecode=BT307_BT307_7_2_1_2,Length=0.000510000,Units=km
new line.SBT_138905 bus1=BBT149741.1.2.0,bus2=BBT149748.1.2.0,Phases=2,Linecode=BT307_BT307_7_2_1_2,Length=0.000510000,Units=km
new line.SBT_140375 bus1=BBT151778.1.2.3.0,bus2=BBT151820.1.2.3.0,Phases=3,Linecode=BT107_BT107_7_3_1_3,Length=0.042393240,Units=km
new line.SBT_140382 bus1=BBT151785.1.2.3.0,bus2=BBT151778.1.2.3.0,Phases=3,Linecode=BT108_BT108_7_3_1_3,Length=0.023794560,Units=km
new line.SBT_140389 bus1=BBT151792.1.2.3.0,bus2=BBT151785.1.2.3.0,Phases=3,Linecode=BT108_BT108_7_3_1_3,Length=0.030847860,Units=km
new line.SBT_140396 bus1=BBT151736.1.2.3.0,bus2=BBT151792.1.2.3.0,Phases=3,Linecode=BT518_BT518_7_3_1_3,Length=0.000510000,Units=km
new line.SBT_140403 bus1=BBT151792.1.2.3.0,bus2=BBT151799.1.2.3.0,Phases=3,Linecode=BT108_BT108_7_3_1_3,Length=0.033011280,Units=km
new line.SBT_140410 bus1=BBT151799.1.2.3.0,bus2=BBT151757.1.2.3.0,Phases=3,Linecode=BT810_BT810_4_3_4_3,Length=0.030729540,Units=km
new line.SBT_140417 bus1=BBT151799.1.2.3.0,bus2=BBT151806.1.2.3.0,Phases=3,Linecode=BT108_BT108_7_3_1_3,Length=0.033183660,Units=km
new line.SBT_140424 bus1=BBT151799.1.2.3.0,bus2=BBT151827.1.2.3.0,Phases=3,Linecode=BT107_BT107_7_3_1_3,Length=0.037834860,Units=km
new line.SBT_140431 bus1=BBT151806.1.2.3.0,bus2=BBT151813.1.2.3.0,Phases=3,Linecode=BT108_BT108_7_3_1_3,Length=0.038054160,Units=km
new line.SBT_140438 bus1=BBT151813.1.2.3.0,bus2=BBT3290389.1.2.3.0,Phases=3,Linecode=BT803_BT803_4_3_4_3,Length=0.031858680,Units=km
new line.SBT_140445 bus1=BBT151827.1.2.3.0,bus2=BBT151834.1.2.3.0,Phases=3,Linecode=BT107_BT107_7_3_1_3,Length=0.035804040,Units=km
new line.SBT_140452 bus1=BBT151834.1.2.3.0,bus2=BBT151841.1.2.3.0,Phases=3,Linecode=BT107_BT107_7_3_1_3,Length=0.033773220,Units=km
new line.SBT_140459 bus1=BBT152891.1.2.3.0,bus2=BBT152905.1.2.3.0,Phases=3,Linecode=BT810_BT810_4_3_4_3,Length=0.026578140,Units=km
new line.SBT_140466 bus1=BBT151862.1.2.3.0,bus2=BBT151855.1.2.3.0,Phases=3,Linecode=BT107_BT106_7_3_1_3,Length=0.028774200,Units=km
new line.SBT_140473 bus1=BBT151862.1.2.3.0,bus2=BBT151869.1.2.3.0,Phases=3,Linecode=BT803_BT803_4_3_4_3,Length=0.033881340,Units=km
new line.SBT_140480 bus1=BBT151869.1.2.3.0,bus2=BBT151876.1.2.3.0,Phases=3,Linecode=BT803_BT803_4_3_4_3,Length=0.033881340,Units=km
new line.SBT_140487 bus1=BBT151876.1.2.3.0,bus2=BBT151883.1.2.3.0,Phases=3,Linecode=BT803_BT803_4_3_4_3,Length=0.032869500,Units=km
new line.SBT_140494 bus1=BBT151890.1.2.3.0,bus2=BBT151862.1.2.3.0,Phases=3,Linecode=BT803_BT803_4_3_4_3,Length=0.024483060,Units=km
new line.SBT_140501 bus1=BBT151897.1.2.3.0,bus2=BBT151890.1.2.3.0,Phases=3,Linecode=BT803_BT803_4_3_4_3,Length=0.029715660,Units=km
new line.SBT_140508 bus1=BBT151848.1.2.3.0,bus2=BBT151897.1.2.3.0,Phases=3,Linecode=BT521_BT521_7_3_1_3,Length=0.000510000,Units=km
new line.SBT_140515 bus1=BBT151897.1.2.3.0,bus2=BBT151946.1.2.3.0,Phases=3,Linecode=BT803_BT803_4_3_4_3,Length=0.033011280,Units=km
new line.SBT_140529 bus1=BBT151911.1.2.3.0,bus2=BBT151904.1.2.3.0,Phases=3,Linecode=BT803_BT803_4_3_4_3,Length=0.030847860,Units=km
new line.SBT_140536 bus1=BBT151918.1.2.3.0,bus2=BBT151911.1.2.3.0,Phases=3,Linecode=BT803_BT803_4_3_4_3,Length=0.030847860,Units=km
new line.SBT_140543 bus1=BBT151925.1.2.3.0,bus2=BBT151918.1.2.3.0,Phases=3,Linecode=BT106_BT106_7_3_1_3,Length=0.036035580,Units=km
new line.SBT_140550 bus1=BBT151932.1.2.3.0,bus2=BBT151925.1.2.3.0,Phases=3,Linecode=BT803_BT803_4_3_4_3,Length=0.038204100,Units=km
new line.SBT_140557 bus1=BBT151939.1.2.3.0,bus2=BBT151932.1.2.3.0,Phases=3,Linecode=BT803_BT803_4_3_4_3,Length=0.035804040,Units=km
new line.SBT_140564 bus1=BBT151946.1.2.3.0,bus2=BBT151939.1.2.3.0,Phases=3,Linecode=BT803_BT803_4_3_4_3,Length=0.036035580,Units=km
new line.SBT_141698 bus1=BBT153143.1.2.3.0,bus2=BBT153150.1.2.3.0,Phases=3,Linecode=BT810_BT810_4_3_4_3,Length=0.035687760,Units=km
new line.SBT_141705 bus1=BBT153178.1.2.3.0,bus2=BBT153164.1.2.3.0,Phases=3,Linecode=BT803_BT803_4_3_4_3,Length=0.035687760,Units=km
new line.SBT_141712 bus1=BBT153192.1.2.3.0,bus2=BBT153171.1.2.3.0,Phases=3,Linecode=BT106_BT106_7_3_1_3,Length=0.033881340,Units=km
new line.SBT_141726 bus1=BBT153206.1.2.3.0,bus2=BBT153178.1.2.3.0,Phases=3,Linecode=BT803_BT803_4_3_4_3,Length=0.026500620,Units=km
new line.SBT_141740 bus1=BBT153920.1.2.3.0,bus2=BBT153206.1.2.3.0,Phases=3,Linecode=BT803_BT803_4_3_4_3,Length=0.010243860,Units=km
new line.SBT_141747 bus1=BBT153220.1.2.3.0,bus2=BBT153213.1.2.3.0,Phases=3,Linecode=BT810_BT810_4_3_4_3,Length=0.026676060,Units=km
new line.SBT_141754 bus1=BBT153234.1.2.3.0,bus2=BBT153220.1.2.3.0,Phases=3,Linecode=BT108_BT107_7_3_1_3,Length=0.031661820,Units=km
new line.SBT_141761 bus1=BBT153241.1.2.3.0,bus2=BBT153192.1.2.3.0,Phases=3,Linecode=BT106_BT106_7_3_1_3,Length=0.018374280,Units=km
new line.SBT_141768 bus1=BBT153241.1.2.3.0,bus2=BBT153234.1.2.3.0,Phases=3,Linecode=BT108_BT107_7_3_1_3,Length=0.007207320,Units=km