new loadshape.c3013971593 npts=24,interval=1.0,mult=(0.001 0.001 0.001 0.001 0.001 0.001 0.001 0.244 0.942 1.906 2.743 3.216 3.279 3.33 3.03 2.397 1.767 0.908 0.228 0.001 0.001 0.001 0.001 0.001 0.001)
new generator.3013971593 bus1=BMT180448473.1.2.3,Phases=3,kv=13.800000000,kW=286.021505376,pf=0.92,model=1,daily=c3013971593,status=Variable
new loadshape.c3013971596 npts=24,interval=1.0,mult=(0.001 0.001 0.001 0.001 0.001 0.001 0.001 0.244 0.942 1.906 2.743 3.216 3.279 3.33 3.03 2.397 1.767 0.908 0.228 0.001 0.001 0.001 0.001 0.001 0.001)
new generator.3013971596 bus1=BMT180448473.1.2.3,Phases=3,kv=13.800000000,kW=278.494623656,pf=0.92,model=1,daily=c3013971596,status=Variable
new loadshape.c3013971620 npts=24,interval=1.0,mult=(0.001 0.001 0.001 0.001 0.001 0.001 0.001 0.244 0.942 1.906 2.743 3.216 3.279 3.33 3.03 2.397 1.767 0.908 0.228 0.001 0.001 0.001 0.001 0.001 0.001)
new generator.3013971620 bus1=BMT180448473.1.2.3,Phases=3,kv=13.800000000,kW=130.779569892,pf=0.92,model=1,daily=c3013971620,status=Variable
new loadshape.c3013972141 npts=24,interval=1.0,mult=(0.001 0.001 0.001 0.001 0.001 0.001 0.001 0.244 0.942 1.906 2.743 3.216 3.279 3.33 3.03 2.397 1.767 0.908 0.228 0.001 0.001 0.001 0.001 0.001 0.001)
new generator.3013972141 bus1=BMT176753985.1.2.3,Phases=3,kv=13.800000000,kW=282.258064516,pf=0.92,model=1,daily=c3013972141,status=Variable
new loadshape.c3013972143 npts=24,interval=1.0,mult=(0.001 0.001 0.001 0.001 0.001 0.001 0.001 0.244 0.942 1.906 2.743 3.216 3.279 3.33 3.03 2.397 1.767 0.908 0.228 0.001 0.001 0.001 0.001 0.001 0.001)
new generator.3013972143 bus1=BMT176753985.1.2.3,Phases=3,kv=13.800000000,kW=269.086021505,pf=0.92,model=1,daily=c3013972143,status=Variable
