new line.RBT_10135188 bus1=BBT154627.1.2.3.0,bus2=RML3010135188.1.2.3.0,Phases=3,Linecode=CABBTG06_4_3_3,Length=0.016500000,Units=km
new line.RBT_10135198 bus1=BBT153934.2.3.0,bus2=RML3010135198.2.3.0,Phases=2,Linecode=CABBT811_4_2_2,Length=0.016500000,Units=km
new line.RBT_10135212 bus1=BBT3745102.3.1.0,bus2=RML3010135212.3.1.0,Phases=2,Linecode=CABBTG05_4_2_2,Length=0.016500000,Units=km
new line.RBT_10135218 bus1=BBT151799.1.0,bus2=RML3010135218.1.0,Phases=1,Linecode=CABBTG02_4_1_1,Length=0.016500000,Units=km
new line.RBT_10135232 bus1=BBT155089.2.3.0,bus2=RML3010135232.2.3.0,Phases=2,Linecode=CABBTG05_4_2_2,Length=0.016500000,Units=km
new line.RBT_10135313 bus1=BBT151239.2.3.0,bus2=RML3010135313.2.3.0,Phases=2,Linecode=CABBTG05_4_2_2,Length=0.016500000,Units=km
new line.RBT_10135315 bus1=BBT155138.2.3.0,bus2=RML3010135315.2.3.0,Phases=2,Linecode=CABBTG05_4_2_2,Length=0.016500000,Units=km
new line.RBT_10135320 bus1=BBT5036084.1.2.0,bus2=RML3010135320.1.2.0,Phases=2,Linecode=CABBTG05_4_2_2,Length=0.016500000,Units=km
new line.RBT_10135328 bus1=BBT154606.2.3.0,bus2=RML3010135328.2.3.0,Phases=2,Linecode=CABBTG05_4_2_2,Length=0.016500000,Units=km
new line.RBT_10135342 bus1=BBT4314888.1.2.0,bus2=RML3010135342.1.2.0,Phases=2,Linecode=CABBTG05_4_2_2,Length=0.016500000,Units=km
new line.RBT_10135345 bus1=BBT4313460.1.2.0,bus2=RML3010135345.1.2.0,Phases=2,Linecode=CABBTG05_4_2_2,Length=0.016500000,Units=km
new line.RBT_10135357 bus1=BBT150924.1.2.0,bus2=RML3010135357.1.2.0,Phases=2,Linecode=CABBTG05_4_2_2,Length=0.016500000,Units=km
new line.RBT_10135379 bus1=BBT151344.1.2.0,bus2=RML3010135379.1.2.0,Phases=2,Linecode=CABBTG05_4_2_2,Length=0.016500000,Units=km
new line.RBT_10135392 bus1=BBT154438.1.2.0,bus2=RML3010135392.1.2.0,Phases=2,Linecode=CABBTG05_4_2_2,Length=0.016500000,Units=km
new line.RBT_10135394 bus1=BBT169899872.1.2.0,bus2=RML3010135394.1.2.0,Phases=2,Linecode=CABBTG05_4_2_2,Length=0.016500000,Units=km
new line.RBT_10135423 bus1=BBT152996.1.2.0,bus2=RML3010135423.1.2.0,Phases=2,Linecode=CABBTG05_4_2_2,Length=0.016500000,Units=km
new line.RBT_10135427 bus1=BBT153759.3.0,bus2=RML3010135427.3.0,Phases=1,Linecode=CABBTG02_4_1_1,Length=0.016500000,Units=km
new line.RBT_10135433 bus1=BBT153612.3.0,bus2=RML3010135433.3.0,Phases=1,Linecode=CABBTG02_4_1_1,Length=0.016500000,Units=km
new line.RBT_10135436 bus1=BBT153626.3.0,bus2=RML3010135436.3.0,Phases=1,Linecode=CABBTG02_4_1_1,Length=0.016500000,Units=km
new line.RBT_10137293 bus1=BBT149664274.1.0,bus2=RML3010137293.1.0,Phases=1,Linecode=CABBTG02_4_1_1,Length=0.014000000,Units=km
new line.RBT_10137309 bus1=BBT152625.1.0,bus2=RML3010137309.1.0,Phases=1,Linecode=CABBTG02_4_1_1,Length=0.016500000,Units=km
new line.RBT_10218004 bus1=BBT154991.3.1.0,bus2=RML3010218004.3.1.0,Phases=2,Linecode=CABBTG05_4_2_2,Length=0.016500000,Units=km
new line.RBT_10218009 bus1=BBT3745109.3.1.0,bus2=RML3010218009.3.1.0,Phases=2,Linecode=CABBTG05_4_2_2,Length=0.016500000,Units=km
new line.RBT_10218014 bus1=BBT152877.2.0,bus2=RML3010218014.2.0,Phases=1,Linecode=CABBTG02_4_1_1,Length=0.016500000,Units=km
new line.RBT_10218016 bus1=BBT151918.2.3.0,bus2=RML3010218016.2.3.0,Phases=2,Linecode=CABBTG05_4_2_2,Length=0.016500000,Units=km
new line.RBT_10218021 bus1=BBT4313460.1.2.0,bus2=RML3010218021.1.2.0,Phases=2,Linecode=CABBTG05_4_2_2,Length=0.016500000,Units=km
new line.RBT_10218024 bus1=BBT151414.1.0,bus2=RML3010218024.1.0,Phases=1,Linecode=CABBTG02_4_1_1,Length=0.016500000,Units=km
new line.RBT_10218027 bus1=BBT151267.2.0,bus2=RML3010218027.2.0,Phases=1,Linecode=CABBTG02_4_1_1,Length=0.016500000,Units=km
new line.RBT_10218028 bus1=BBT151148.2.0,bus2=RML3010218028.2.0,Phases=1,Linecode=CABBTG02_4_1_1,Length=0.016500000,Units=km
new line.RBT_10218030 bus1=BBT3576178.3.1.0,bus2=RML3010218030.3.1.0,Phases=2,Linecode=CABBTG05_4_2_2,Length=0.016500000,Units=km
new line.RBT_10218033 bus1=BBT150377934.3.0,bus2=RML3010218033.3.0,Phases=1,Linecode=CABBTG02_4_1_1,Length=0.016500000,Units=km
new line.RBT_10218040 bus1=BBT152989.2.3.0,bus2=RML3010218040.2.3.0,Phases=2,Linecode=CABBTG05_4_2_2,Length=0.016500000,Units=km
new line.RBT_10218047 bus1=BBT153605.3.0,bus2=RML3010218047.3.0,Phases=1,Linecode=CABBTG02_4_1_1,Length=0.016500000,Units=km
new line.RBT_10218051 bus1=BBT153626.3.0,bus2=RML3010218051.3.0,Phases=1,Linecode=CABBTG02_4_1_1,Length=0.016500000,Units=km
new line.RBT_10218056 bus1=BBT153738.3.1.0,bus2=RML3010218056.3.1.0,Phases=2,Linecode=CABBTG05_4_2_2,Length=0.016500000,Units=km
new line.RBT_10218057 bus1=BBT154732.3.1.0,bus2=RML3010218057.3.1.0,Phases=2,Linecode=CABBTG05_4_2_2,Length=0.016500000,Units=km
new line.RBT_10218064 bus1=BBT5530879.1.2.0,bus2=RML3010218064.1.2.0,Phases=2,Linecode=CABBTG05_4_2_2,Length=0.016500000,Units=km
new line.RBT_10219604 bus1=BBT149664159.2.0,bus2=RML3010219604.2.0,Phases=1,Linecode=CABBTG02_4_1_1,Length=0.016500000,Units=km
new line.RBT_10219787 bus1=BBT149664163.1.0,bus2=RML3010219787.1.0,Phases=1,Linecode=CABBTG02_4_1_1,Length=0.016500000,Units=km
new line.RBT_10248698 bus1=BBT151589.1.2.0,bus2=RML3010248698.1.2.0,Phases=2,Linecode=CABBTG05_4_2_2,Length=0.016500000,Units=km
new line.RBT_10279322 bus1=BBT151622850.1.2.0,bus2=RML3010279322.1.2.0,Phases=2,Linecode=CABBT808_4_2_2,Length=0.018000000,Units=km
new line.RBT_10280558 bus1=BBT151641738.1.2.0,bus2=RML3010280558.1.2.0,Phases=2,Linecode=CABBTG05_4_2_2,Length=0.024000000,Units=km
new line.RBT_10376953 bus1=BBT151617.1.2.0,bus2=RML3010376953.1.2.0,Phases=2,Linecode=CABBTG05_4_2_2,Length=0.016500000,Units=km
new line.RBT_10405041 bus1=BBT153752509.1.2.0,bus2=RML3010405041.1.2.0,Phases=2,Linecode=CABBTG05_4_2_2,Length=0.016500000,Units=km
new line.RBT_10434873 bus1=BBT153388.1.2.3.0,bus2=RML3010434873.1.2.3.0,Phases=3,Linecode=CABBTG06_4_3_3,Length=0.016500000,Units=km
new line.RBT_10435528 bus1=BBT15528951.1.2.0,bus2=RML3010435528.1.2.0,Phases=2,Linecode=CABBTG05_4_2_2,Length=0.016500000,Units=km
new line.RBT_10467138 bus1=BBT154879.1.2.3.0,bus2=RML3010467138.1.2.3.0,Phases=3,Linecode=CABBTG06_4_3_3,Length=0.016500000,Units=km
new line.RBT_10467139 bus1=BBT149664273.1.2.3.0,bus2=RML3010467139.1.2.3.0,Phases=3,Linecode=CABBTG06_4_3_3,Length=0.016500000,Units=km
new line.RBT_10467226 bus1=BBT154998.3.1.0,bus2=RML3010467226.3.1.0,Phases=2,Linecode=CABBTG05_4_2_2,Length=0.016500000,Units=km
new line.RBT_10467496 bus1=BBT5542674.1.2.0,bus2=RML3010467496.1.2.0,Phases=2,Linecode=CABBTG05_4_2_2,Length=0.020000000,Units=km
new line.RBT_10494561 bus1=BBT151771.1.2.3.0,bus2=RML3010494561.1.2.3.0,Phases=3,Linecode=CABBTG06_4_3_3,Length=0.016500000,Units=km
new line.RBT_10555824 bus1=BBT155096.1.2.0,bus2=RML3010555824.1.2.0,Phases=2,Linecode=CABBTG05_4_2_2,Length=0.013000000,Units=km
new line.RBT_10555826 bus1=BBT149663558.2.0,bus2=RML3010555826.2.0,Phases=1,Linecode=CABBTG02_4_1_1,Length=0.028000000,Units=km
new line.RBT_10557082 bus1=BBT149663304.3.0,bus2=RML3010557082.3.0,Phases=1,Linecode=CABBTG02_4_1_1,Length=0.016000000,Units=km
new line.RBT_10557474 bus1=BBT157219547.1.2.3.0,bus2=RML3010557474.1.2.3.0,Phases=3,Linecode=CABBTG12_4_3_3,Length=0.030000000,Units=km
new line.RBT_10558807 bus1=BBT157277608.1.2.3.0,bus2=RML3010558807.1.2.3.0,Phases=3,Linecode=CABBTG12_4_3_3,Length=0.030000000,Units=km
new line.RBT_10619715 bus1=BBT156202534.1.2.3.0,bus2=RML3010619715.1.2.3.0,Phases=3,Linecode=CABBTG06_4_3_3,Length=0.010000000,Units=km
new line.RBT_10051389 bus1=BBT154410.2.3.0,bus2=RML3010051389.2.3.0,Phases=2,Linecode=CABBTG05_4_2_2,Length=0.016500000,Units=km
new line.RBT_10053878 bus1=BBT148538128.1.2.0,bus2=RML3010053878.1.2.0,Phases=2,Linecode=CABBTG05_4_2_2,Length=0.030000000,Units=km
new line.RBT_10093550 bus1=BBT153808.1.2.0,bus2=RML3010093550.1.2.0,Phases=2,Linecode=CABBTG05_4_2_2,Length=0.016500000,Units=km
new line.RBT_10093557 bus1=BBT153850.1.0,bus2=RML3010093557.1.0,Phases=1,Linecode=CABBTG02_4_1_1,Length=0.016500000,Units=km
new line.RBT_10093564 bus1=BBT4788018.1.2.0,bus2=RML3010093564.1.2.0,Phases=2,Linecode=CABBTG05_4_2_2,Length=0.016500000,Units=km
new line.RBT_10093576 bus1=BBT153381.1.2.0,bus2=RML3010093576.1.2.0,Phases=2,Linecode=CABBTG05_4_2_2,Length=0.016500000,Units=km
new line.RBT_10093601 bus1=BBT150910.1.2.0,bus2=RML3010093601.1.2.0,Phases=2,Linecode=CABBTG05_4_2_2,Length=0.016500000,Units=km
new line.RBT_10093611 bus1=BBT151036.1.0,bus2=RML3010093611.1.0,Phases=1,Linecode=CABBTG02_4_1_1,Length=0.016500000,Units=km
new line.RBT_10093893 bus1=BBT149354977.1.2.0,bus2=RML3010093893.1.2.0,Phases=2,Linecode=CABBTG05_4_2_2,Length=0.019000000,Units=km
new line.RBT_10095866 bus1=BBT153633.1.2.0,bus2=RML3010095866.1.2.0,Phases=2,Linecode=CABBTG05_4_2_2,Length=0.016500000,Units=km
new line.RBT_10095872 bus1=BBT151827.1.0,bus2=RML3010095872.1.0,Phases=1,Linecode=CABBTG02_4_1_1,Length=0.016500000,Units=km
new line.RBT_10095874 bus1=BBT151344.1.0,bus2=RML3010095874.1.0,Phases=1,Linecode=CABBTG02_4_1_1,Length=0.016500000,Units=km
new line.RBT_10121855 bus1=BBT152751.3.1.0,bus2=RML3010121855.3.1.0,Phases=2,Linecode=CABBTG05_4_2_2,Length=0.025000000,Units=km
new line.RBT_10122773 bus1=BBT154746.2.3.0,bus2=RML3010122773.2.3.0,Phases=2,Linecode=CABBTG05_4_2_2,Length=0.020000000,Units=km
new line.RBT_10188720 bus1=BBT412640.1.2.0,bus2=RML3010188720.1.2.0,Phases=2,Linecode=CABBTG05_4_2_2,Length=0.016500000,Units=km
new line.RBT_10188724 bus1=BBT413438.1.2.0,bus2=RML3010188724.1.2.0,Phases=2,Linecode=CABBTG05_4_2_2,Length=0.016500000,Units=km
new line.RBT_10235255 bus1=BBT151013341.1.2.3.0,bus2=RML3010235255.1.2.3.0,Phases=3,Linecode=CABBTG06_4_3_3,Length=0.016500000,Units=km
new line.RBT_10260563 bus1=BBT4787668.1.2.0,bus2=RML3010260563.1.2.0,Phases=2,Linecode=CABBTG05_4_2_2,Length=0.016500000,Units=km
new line.RBT_10294910 bus1=BBT5542618.1.0,bus2=RML3010294910.1.0,Phases=1,Linecode=CABBTG02_4_1_1,Length=0.016500000,Units=km
new line.RBT_10324203 bus1=BBT152317024.1.2.0,bus2=RML3010324203.1.2.0,Phases=2,Linecode=CABBTG05_4_2_2,Length=0.010000000,Units=km
new line.RBT_10324700 bus1=BBT151407.2.0,bus2=RML3010324700.2.0,Phases=1,Linecode=CABBTG02_4_1_1,Length=0.016500000,Units=km
new line.RBT_10370001 bus1=BBT153093984.1.2.0,bus2=RML3010370001.1.2.0,Phases=2,Linecode=CABBTG05_4_2_2,Length=0.019000000,Units=km
new line.RBT_10372232 bus1=BBT153133710.1.2.0,bus2=RML3010372232.1.2.0,Phases=2,Linecode=CABBTG05_4_2_2,Length=0.016500000,Units=km
new line.RBT_10372280 bus1=BBT153135489.1.2.0,bus2=RML3010372280.1.2.0,Phases=2,Linecode=CABBTG05_4_2_2,Length=0.016500000,Units=km
new line.RBT_10399251 bus1=BBT152562.3.1.0,bus2=RML3010399251.3.1.0,Phases=2,Linecode=CABBTG05_4_2_2,Length=0.016500000,Units=km
new line.RBT_10399270 bus1=BBT153074017.1.2.0,bus2=RML3010399270.1.2.0,Phases=2,Linecode=CABBTG05_4_2_2,Length=0.016500000,Units=km
new line.RBT_10427459 bus1=BBT154564.3.0,bus2=RML3010427459.3.0,Phases=1,Linecode=CABBTG02_4_1_1,Length=0.016500000,Units=km
new line.RBT_10428408 bus1=BBT153941.1.2.3.0,bus2=RML3010428408.1.2.3.0,Phases=3,Linecode=CABBTG06_4_3_3,Length=0.016500000,Units=km
new line.RBT_10428493 bus1=BBT152562.3.1.0,bus2=RML3010428493.3.1.0,Phases=2,Linecode=CABBTG05_4_2_2,Length=0.016500000,Units=km
new line.RBT_10428579 bus1=BBT152961.1.2.0,bus2=RML3010428579.1.2.0,Phases=2,Linecode=CABBTG05_4_2_2,Length=0.016500000,Units=km
new line.RBT_10438048 bus1=BBT153591.1.2.3.0,bus2=RML3010438048.1.2.3.0,Phases=3,Linecode=CABBTG10_4_3_3,Length=0.016500000,Units=km
new line.RBT_10438049 bus1=BBT154823.1.2.0,bus2=RML3010438049.1.2.0,Phases=2,Linecode=CABBTG13_4_2_2,Length=0.016500000,Units=km
new line.RBT_10440730 bus1=BBT152962731.1.2.0,bus2=RML3010440730.1.2.0,Phases=2,Linecode=CABBTG05_4_2_2,Length=0.016500000,Units=km
new line.RBT_10469925 bus1=BBT155068513.1.2.0,bus2=RML3010469925.1.2.0,Phases=2,Linecode=CABBTG05_4_2_2,Length=0.024000000,Units=km
new line.RBT_10656159 bus1=BBT3282248.1.2.0,bus2=RML3010656159.1.2.0,Phases=2,Linecode=CABBTG05_4_2_2,Length=0.016500000,Units=km
new line.RBT_10656161 bus1=BBT153255.1.2.0,bus2=RML3010656161.1.2.0,Phases=2,Linecode=CABBTG05_4_2_2,Length=0.016500000,Units=km
new line.RBT_10656162 bus1=BBT153626.1.2.3.0,bus2=RML3010656162.1.2.3.0,Phases=3,Linecode=CABBTG06_4_3_3,Length=0.016500000,Units=km
new line.RBT_10730719 bus1=BBT160096113.1.2.0,bus2=RML3010730719.1.2.0,Phases=2,Linecode=CABBTG05_4_2_2,Length=0.025000000,Units=km
new line.RBT_10760945 bus1=BBT164133652.1.2.0,bus2=RML3010760945.1.2.0,Phases=2,Linecode=CABBT807_4_2_2,Length=0.020000000,Units=km
new line.RBT_10795813 bus1=BBT155236.1.0,bus2=RML3010795813.1.0,Phases=1,Linecode=CABBTG02_4_1_1,Length=0.010000000,Units=km
new line.RBT_10795816 bus1=BBT154529.1.2.0,bus2=RML3010795816.1.2.0,Phases=2,Linecode=CABBTG05_4_2_2,Length=0.010000000,Units=km
new line.RBT_10795819 bus1=BBT154522.1.2.3.0,bus2=RML3010795819.1.2.3.0,Phases=3,Linecode=CABBTG06_4_3_3,Length=0.010000000,Units=km
new line.RBT_10795827 bus1=BBT154270.2.3.0,bus2=RML3010795827.2.3.0,Phases=2,Linecode=CABBTG05_4_2_2,Length=0.015000000,Units=km
new line.RBT_10795837 bus1=BBT153787.1.2.0,bus2=RML3010795837.1.2.0,Phases=2,Linecode=CABBTG05_4_2_2,Length=0.010000000,Units=km
new line.RBT_10795842 bus1=BBT3055966.1.2.0,bus2=RML3010795842.1.2.0,Phases=2,Linecode=CABBTG05_4_2_2,Length=0.015000000,Units=km
new line.RBT_10795851 bus1=BBT3055959.1.2.0,bus2=RML3010795851.1.2.0,Phases=2,Linecode=CABBTG05_4_2_2,Length=0.015000000,Units=km
new line.RBT_10795857 bus1=BBT151484.1.2.0,bus2=RML3010795857.1.2.0,Phases=2,Linecode=CABBTG05_4_2_2,Length=0.010000000,Units=km
new line.RBT_10795862 bus1=BBT160018013.1.2.3.0,bus2=RML3010795862.1.2.3.0,Phases=3,Linecode=CABBTG06_4_3_3,Length=0.014000000,Units=km
new line.RBT_10795864 bus1=BBT160016032.1.2.0,bus2=RML3010795864.1.2.0,Phases=2,Linecode=CABBTG05_4_2_2,Length=0.013000000,Units=km
new line.RBT_10795901 bus1=BBT160017008.1.2.0,bus2=RML3010795901.1.2.0,Phases=2,Linecode=CABBTG05_4_2_2,Length=0.015000000,Units=km
new line.RBT_10795906 bus1=BBT160016033.1.2.0,bus2=RML3010795906.1.2.0,Phases=2,Linecode=CABBTG05_4_2_2,Length=0.010000000,Units=km
new line.RBT_10795926 bus1=BBT151274.1.2.0,bus2=RML3010795926.1.2.0,Phases=2,Linecode=CABBTG05_4_2_2,Length=0.013000000,Units=km
new line.RBT_10795928 bus1=BBT3055945.1.2.0,bus2=RML3010795928.1.2.0,Phases=2,Linecode=CABBTG05_4_2_2,Length=0.010000000,Units=km
new line.RBT_10795929 bus1=BBT151386.1.2.0,bus2=RML3010795929.1.2.0,Phases=2,Linecode=CABBTG05_4_2_2,Length=0.010000000,Units=km
new line.RBT_10795930 bus1=BBT151386.2.3.0,bus2=RML3010795930.2.3.0,Phases=2,Linecode=CABBTG05_4_2_2,Length=0.010000000,Units=km
new line.RBT_10795932 bus1=BBT152317.2.0,bus2=RML3010795932.2.0,Phases=1,Linecode=CABBTG02_4_1_1,Length=0.010000000,Units=km
new line.RBT_10795935 bus1=BBT153164.2.3.0,bus2=RML3010795935.2.3.0,Phases=2,Linecode=CABBTG05_4_2_2,Length=0.015000000,Units=km
new line.RBT_10076015 bus1=BBT145331673.1.2.3.0,bus2=RML3010076015.1.2.3.0,Phases=3,Linecode=CABBT809_4_3_3,Length=0.016500000,Units=km
new line.RBT_10139176 bus1=BBT154935.1.2.3.0,bus2=RML3010139176.1.2.3.0,Phases=3,Linecode=CABBTG06_4_3_3,Length=0.016500000,Units=km
new line.RBT_10194197 bus1=BBT150126.1.2.0,bus2=RML3010194197.1.2.0,Phases=2,Linecode=CABBTG05_4_2_2,Length=0.016500000,Units=km
new line.RBT_10224701 bus1=BBT149664164.3.0,bus2=RML3010224701.3.0,Phases=1,Linecode=CABBTG02_4_1_1,Length=0.016500000,Units=km
new line.RBT_10241529 bus1=BBT3945239.1.2.0,bus2=RML3010241529.1.2.0,Phases=2,Linecode=CABBTG05_4_2_2,Length=0.016500000,Units=km
new line.RBT_10242029 bus1=BBT151113322.1.2.0,bus2=RML3010242029.1.2.0,Phases=2,Linecode=CABBTG05_4_2_2,Length=0.016500000,Units=km
new line.RBT_10298669 bus1=BBT4787682.1.2.0,bus2=RML3010298669.1.2.0,Phases=2,Linecode=CABBTG05_4_2_2,Length=0.016500000,Units=km
new line.RBT_10343079 bus1=BBT152646459.1.2.0,bus2=RML3010343079.1.2.0,Phases=2,Linecode=CABBT811_4_2_2,Length=0.016500000,Units=km
new line.RBT_10345338 bus1=BBT101256943.1.2.3.0,bus2=RML3010345338.1.2.3.0,Phases=3,Linecode=CABBTG06_4_3_3,Length=0.016500000,Units=km
new line.RBT_10345345 bus1=BBT151029.2.3.0,bus2=RML3010345345.2.3.0,Phases=2,Linecode=CABBTG05_4_2_2,Length=0.016500000,Units=km
new line.RBT_10345367 bus1=BBT149663166.1.0,bus2=RML3010345367.1.0,Phases=1,Linecode=CABBTG02_4_1_1,Length=0.016500000,Units=km
new line.RBT_10345371 bus1=BBT149664164.1.0,bus2=RML3010345371.1.0,Phases=1,Linecode=CABBTG02_4_1_1,Length=0.016500000,Units=km
new line.RBT_10345372 bus1=BBT151176.2.3.0,bus2=RML3010345372.2.3.0,Phases=2,Linecode=CABBTG05_4_2_2,Length=0.016500000,Units=km
new line.RBT_10345373 bus1=BBT151148.1.2.0,bus2=RML3010345373.1.2.0,Phases=2,Linecode=CABBTG05_4_2_2,Length=0.016500000,Units=km
new line.RBT_10373795 bus1=BBT4107387.1.2.0,bus2=RML3010373795.1.2.0,Phases=2,Linecode=CABBTG05_4_2_2,Length=0.016500000,Units=km
new line.RBT_10408171 bus1=BBT153135489.1.2.0,bus2=RML3010408171.1.2.0,Phases=2,Linecode=CABBTG05_4_2_2,Length=0.016500000,Units=km
new line.RBT_10408868 bus1=BBT154641.1.2.3.0,bus2=RML3010408868.1.2.3.0,Phases=3,Linecode=CABBTG06_4_3_3,Length=0.016500000,Units=km
new line.RBT_10410542 bus1=BBT4313509.1.2.0,bus2=RML3010410542.1.2.0,Phases=2,Linecode=CABBTG05_4_2_2,Length=0.016500000,Units=km
new line.RBT_10410543 bus1=BBT149662142.1.2.0,bus2=RML3010410543.1.2.0,Phases=2,Linecode=CABBTG05_4_2_2,Length=0.016500000,Units=km
new line.RBT_10410552 bus1=BBT4787724.1.0,bus2=RML3010410552.1.0,Phases=1,Linecode=CABBTG02_4_1_1,Length=0.016500000,Units=km
new line.RBT_10410558 bus1=BBT154445.1.2.0,bus2=RML3010410558.1.2.0,Phases=2,Linecode=CABBTG05_4_2_2,Length=0.016500000,Units=km
new line.RBT_10443414 bus1=BBT154468014.1.2.0,bus2=RML3010443414.1.2.0,Phases=2,Linecode=CABBTG05_4_2_2,Length=0.030000000,Units=km
new line.RBT_10474474 bus1=BBT152394.1.2.0,bus2=RML3010474474.1.2.0,Phases=2,Linecode=CABBTG05_4_2_2,Length=0.016500000,Units=km
new line.RBT_10474494 bus1=BBT3745116.3.1.0,bus2=RML3010474494.3.1.0,Phases=2,Linecode=CABBTG05_4_2_2,Length=0.016500000,Units=km
new line.RBT_10546665 bus1=BBT4917805.1.2.3.0,bus2=RML3010546665.1.2.3.0,Phases=3,Linecode=CABBTG12_4_3_3,Length=0.016500000,Units=km
new line.RBT_10631523 bus1=BBT159144711.1.2.3.0,bus2=RML3010631523.1.2.3.0,Phases=3,Linecode=CABBTG08_4_3_3,Length=0.015000000,Units=km
new line.RBT_10663850 bus1=BBT155068513.1.2.0,bus2=RML3010663850.1.2.0,Phases=2,Linecode=CABBTG05_4_2_2,Length=0.015000000,Units=km
new line.RBT_10664991 bus1=BBT151400.1.0,bus2=RML3010664991.1.0,Phases=1,Linecode=CABBTG02_4_1_1,Length=0.016500000,Units=km
new line.RBT_10664993 bus1=BBT159558626.1.2.0,bus2=RML3010664993.1.2.0,Phases=2,Linecode=CABBTG05_4_2_2,Length=0.016500000,Units=km
new line.RBT_10665847 bus1=BBT155047.3.1.0,bus2=RML3010665847.3.1.0,Phases=2,Linecode=CABBTG05_4_2_2,Length=0.016500000,Units=km
new line.RBT_10766837 bus1=BBT149664272.1.0,bus2=RML3010766837.1.0,Phases=1,Linecode=CABBTG02_4_1_1,Length=0.020000000,Units=km
new line.RBT_10766972 bus1=BBT160017008.1.2.3.0,bus2=RML3010766972.1.2.3.0,Phases=3,Linecode=CABBTG06_4_3_3,Length=0.020000000,Units=km
new line.RBT_10767058 bus1=BBT152856.1.2.0,bus2=RML3010767058.1.2.0,Phases=2,Linecode=CABBTG05_4_2_2,Length=0.020000000,Units=km
new line.RBT_10831930 bus1=BBT164789517.1.2.0,bus2=RML3010831930.1.2.0,Phases=2,Linecode=CABBTG05_4_2_2,Length=0.016500000,Units=km
new line.RBT_10833263 bus1=BBT152317.1.2.0,bus2=RML3010833263.1.2.0,Phases=2,Linecode=CABBTG05_4_2_2,Length=0.016500000,Units=km
new line.RBT_10833265 bus1=BBT155131.1.2.0,bus2=RML3010833265.1.2.0,Phases=2,Linecode=CABBTG05_4_2_2,Length=0.016500000,Units=km
new line.RBT_10872805 bus1=BBT179983220.1.2.0,bus2=RML3010872805.1.2.0,Phases=2,Linecode=CABBTG05_4_2_2,Length=0.022000000,Units=km
new line.RBT_10873231 bus1=BBT151568.1.2.0,bus2=RML3010873231.1.2.0,Phases=2,Linecode=CABBTG05_4_2_2,Length=0.022000000,Units=km
new line.RBT_10873237 bus1=BBT153983.1.2.0,bus2=RML3010873237.1.2.0,Phases=2,Linecode=CABBTG05_4_2_2,Length=0.022000000,Units=km
new line.RBT_10873341 bus1=BBT3745102.3.0,bus2=RML3010873341.3.0,Phases=1,Linecode=CABBTG02_4_1_1,Length=0.020000000,Units=km
new line.RBT_10873388 bus1=BBT151743.2.0,bus2=RML3010873388.2.0,Phases=1,Linecode=CABBTG02_4_1_1,Length=0.022000000,Units=km
new line.RBT_10873494 bus1=BBT155250.1.2.3.0,bus2=RML3010873494.1.2.3.0,Phases=3,Linecode=CABBTG06_4_3_3,Length=0.030000000,Units=km
new line.RBT_10873496 bus1=BBT151869.2.3.0,bus2=RML3010873496.2.3.0,Phases=2,Linecode=CABBTG05_4_2_2,Length=0.022000000,Units=km
new line.RBT_10873500 bus1=BBT149663590.1.0,bus2=RML3010873500.1.0,Phases=1,Linecode=CABBTG02_4_1_1,Length=0.022000000,Units=km
new line.RBT_10873502 bus1=BBT155117.1.2.3.0,bus2=RML3010873502.1.2.3.0,Phases=3,Linecode=CABBTG06_4_3_3,Length=0.025000000,Units=km
new line.RBT_10873519 bus1=BBT152506.3.1.0,bus2=RML3010873519.3.1.0,Phases=2,Linecode=CABBTG05_4_2_2,Length=0.025000000,Units=km
new line.RBT_10873548 bus1=BBT5542674.1.2.0,bus2=RML3010873548.1.2.0,Phases=2,Linecode=CABBTG05_4_2_2,Length=0.025000000,Units=km
new line.RBT_10901962 bus1=BBT160017765.1.2.0,bus2=RML3010901962.1.2.0,Phases=2,Linecode=CABBTG05_4_2_2,Length=0.016500000,Units=km
new line.RBT_10969397 bus1=BBT167983687.1.2.0,bus2=RML3010969397.1.2.0,Phases=2,Linecode=CABBTG05_4_2_2,Length=0.030000000,Units=km
new line.RBT_10969451 bus1=BBT170143123.1.2.3.0,bus2=RML3010969451.1.2.3.0,Phases=3,Linecode=CABBTG06_4_3_3,Length=0.016500000,Units=km
new line.RBT_11002067 bus1=BBT153135489.1.2.0,bus2=RML3011002067.1.2.0,Phases=2,Linecode=CABBTG05_4_2_2,Length=0.020000000,Units=km
new line.RBT_11002068 bus1=BBT151694.1.0,bus2=RML3011002068.1.0,Phases=1,Linecode=CABBTG02_4_1_1,Length=0.020000000,Units=km
new line.RBT_11031069 bus1=BBT151246.3.1.0,bus2=RML3011031069.3.1.0,Phases=2,Linecode=CABBT811_4_2_2,Length=0.010000000,Units=km
new line.RBT_11034439 bus1=BBT149664159.1.2.0,bus2=RML3011034439.1.2.0,Phases=2,Linecode=CABBTG05_4_2_2,Length=0.010000000,Units=km
new line.RBT_11074398 bus1=BBT154648.1.2.0,bus2=RML3011074398.1.2.0,Phases=2,Linecode=CABBT811_4_2_2,Length=0.024000000,Units=km
new line.RBT_11134224 bus1=BBT160096113.1.2.0,bus2=RML3011134224.1.2.0,Phases=2,Linecode=CABBTG05_4_2_2,Length=0.016500000,Units=km
new line.RBT_10621516 bus1=BBT150917.3.0,bus2=RML3010621516.3.0,Phases=1,Linecode=CABBTG02_4_1_1,Length=0.016500000,Units=km
new line.RBT_10622230 bus1=BBT151869.1.2.0,bus2=RML3010622230.1.2.0,Phases=2,Linecode=CABBTG05_4_2_2,Length=0.016500000,Units=km
new line.RBT_10651242 bus1=BBT151428.1.0,bus2=RML3010651242.1.0,Phases=1,Linecode=CABBTG02_4_1_1,Length=0.016500000,Units=km
new line.RBT_10652681 bus1=BBT151057.1.0,bus2=RML3010652681.1.0,Phases=1,Linecode=CABBTG02_4_1_1,Length=0.016500000,Units=km
new line.RBT_10652683 bus1=BBT151022.2.0,bus2=RML3010652683.2.0,Phases=1,Linecode=CABBTG02_4_1_1,Length=0.016500000,Units=km
new line.RBT_10652685 bus1=BBT4778820.1.0,bus2=RML3010652685.1.0,Phases=1,Linecode=CABBTG02_4_1_1,Length=0.016500000,Units=km
new line.RBT_10652688 bus1=BBT150938.1.2.3.0,bus2=RML3010652688.1.2.3.0,Phases=3,Linecode=CABBTG06_4_3_3,Length=0.016500000,Units=km
new line.RBT_10652691 bus1=BBT153542.2.3.0,bus2=RML3010652691.2.3.0,Phases=2,Linecode=CABBTG05_4_2_2,Length=0.016500000,Units=km
new line.RBT_10652695 bus1=BBT151169.1.2.0,bus2=RML3010652695.1.2.0,Phases=2,Linecode=CABBTG05_4_2_2,Length=0.016500000,Units=km
new line.RBT_10652698 bus1=BBT146849329.1.2.0,bus2=RML3010652698.1.2.0,Phases=2,Linecode=CABBTG05_4_2_2,Length=0.016500000,Units=km
new line.RBT_10652720 bus1=BBT174486.1.2.0,bus2=RML3010652720.1.2.0,Phases=2,Linecode=CABBTG05_4_2_2,Length=0.016500000,Units=km
new line.RBT_10652723 bus1=BBT151183.2.3.0,bus2=RML3010652723.2.3.0,Phases=2,Linecode=CABBTG05_4_2_2,Length=0.016500000,Units=km
new line.RBT_10652726 bus1=BBT4778827.1.0,bus2=RML3010652726.1.0,Phases=1,Linecode=CABBTG02_4_1_1,Length=0.016500000,Units=km
new line.RBT_10652727 bus1=BBT151183.1.0,bus2=RML3010652727.1.0,Phases=1,Linecode=CABBTG02_4_1_1,Length=0.016500000,Units=km
new line.RBT_10652729 bus1=BBT174486.1.2.0,bus2=RML3010652729.1.2.0,Phases=2,Linecode=CABBTG05_4_2_2,Length=0.016500000,Units=km
new line.RBT_10652732 bus1=BBT4778799.1.2.0,bus2=RML3010652732.1.2.0,Phases=2,Linecode=CABBTG05_4_2_2,Length=0.016500000,Units=km
new line.RBT_10652734 bus1=BBT152359.1.2.0,bus2=RML3010652734.1.2.0,Phases=2,Linecode=CABBTG05_4_2_2,Length=0.016500000,Units=km
new line.RBT_10652736 bus1=BBT149664164.1.0,bus2=RML3010652736.1.0,Phases=1,Linecode=CABBTG02_4_1_1,Length=0.016500000,Units=km
new line.RBT_10652737 bus1=BBT149664160.3.1.0,bus2=RML3010652737.3.1.0,Phases=2,Linecode=CABBTG05_4_2_2,Length=0.016500000,Units=km
new line.RBT_10652738 bus1=BBT153133710.1.2.0,bus2=RML3010652738.1.2.0,Phases=2,Linecode=CABBTG05_4_2_2,Length=0.016500000,Units=km
new line.RBT_10652745 bus1=BBT149663558.1.0,bus2=RML3010652745.1.0,Phases=1,Linecode=CABBTG02_4_1_1,Length=0.016500000,Units=km
new line.RBT_10652747 bus1=BBT149664160.1.0,bus2=RML3010652747.1.0,Phases=1,Linecode=CABBTG02_4_1_1,Length=0.016500000,Units=km
new line.RBT_10652752 bus1=BBT149664164.1.2.0,bus2=RML3010652752.1.2.0,Phases=2,Linecode=CABBTG05_4_2_2,Length=0.016500000,Units=km
new line.RBT_10652755 bus1=BBT154403.1.0,bus2=RML3010652755.1.0,Phases=1,Linecode=CABBTG02_4_1_1,Length=0.016500000,Units=km
new line.RBT_10652759 bus1=BBT151288.1.0,bus2=RML3010652759.1.0,Phases=1,Linecode=CABBTG02_4_1_1,Length=0.016500000,Units=km
new line.RBT_10652762 bus1=BBT3282262.3.1.0,bus2=RML3010652762.3.1.0,Phases=2,Linecode=CABBTG05_4_2_2,Length=0.016500000,Units=km
new line.RBT_10652765 bus1=BBT155061.1.2.0,bus2=RML3010652765.1.2.0,Phases=2,Linecode=CABBTG05_4_2_2,Length=0.016500000,Units=km
new line.RBT_10666505 bus1=BBT159558582.1.2.0,bus2=RML3010666505.1.2.0,Phases=2,Linecode=CABBTG05_4_2_2,Length=0.016500000,Units=km
new line.RBT_10670917 bus1=BBT151918.1.2.0,bus2=RML3010670917.1.2.0,Phases=2,Linecode=CABBTG05_4_2_2,Length=0.016500000,Units=km
new line.RBT_10670919 bus1=BBT152534.3.1.0,bus2=RML3010670919.3.1.0,Phases=2,Linecode=CABBTG05_4_2_2,Length=0.016500000,Units=km
new line.RBT_10721171 bus1=BBT154424.1.2.3.0,bus2=RML3010721171.1.2.3.0,Phases=3,Linecode=CABBTG06_4_3_3,Length=0.020000000,Units=km
new line.RBT_10721425 bus1=BBT151932.1.2.0,bus2=RML3010721425.1.2.0,Phases=2,Linecode=CABBTG05_4_2_2,Length=0.016500000,Units=km
new line.RBT_10721428 bus1=BBT151582.1.2.3.0,bus2=RML3010721428.1.2.3.0,Phases=3,Linecode=CABBTG06_4_3_3,Length=0.016500000,Units=km
new line.RBT_10750076 bus1=BBT4313502.1.2.0,bus2=RML3010750076.1.2.0,Phases=2,Linecode=CABBTG05_4_2_2,Length=0.015000000,Units=km
new line.RBT_10750518 bus1=BBT153133710.1.2.0,bus2=RML3010750518.1.2.0,Phases=2,Linecode=CABBTG05_4_2_2,Length=0.015000000,Units=km
new line.RBT_10753498 bus1=BBT158750218.1.2.0,bus2=RML3010753498.1.2.0,Phases=2,Linecode=CABBTG05_4_2_2,Length=0.016500000,Units=km
new line.RBT_10753499 bus1=BBT150980.1.2.0,bus2=RML3010753499.1.2.0,Phases=2,Linecode=CABBTG05_4_2_2,Length=0.016500000,Units=km
new line.RBT_10753501 bus1=BBT153381.1.2.0,bus2=RML3010753501.1.2.0,Phases=2,Linecode=CABBTG05_4_2_2,Length=0.016500000,Units=km
new line.RBT_10824360 bus1=BBT163678790.1.2.0,bus2=RML3010824360.1.2.0,Phases=2,Linecode=CABBT811_4_2_2,Length=0.016500000,Units=km
new line.RBT_10824362 bus1=BBT179983220.1.2.0,bus2=RML3010824362.1.2.0,Phases=2,Linecode=CABBT811_4_2_2,Length=0.016500000,Units=km
new line.RBT_10824363 bus1=BBT162635989.1.2.0,bus2=RML3010824363.1.2.0,Phases=2,Linecode=CABBT811_4_2_2,Length=0.016500000,Units=km
new line.RBT_10824366 bus1=BBT159812206.1.2.0,bus2=RML3010824366.1.2.0,Phases=2,Linecode=CABBT811_4_2_2,Length=0.016500000,Units=km
new line.RBT_10824370 bus1=BBT160846204.1.2.0,bus2=RML3010824370.1.2.0,Phases=2,Linecode=CABBTG05_4_2_2,Length=0.016500000,Units=km
new line.RBT_10887540 bus1=BBT166999154.1.2.0,bus2=RML3010887540.1.2.0,Phases=2,Linecode=CABBTG05_4_2_2,Length=0.020000000,Units=km
new line.RBT_10887546 bus1=BBT156545.1.2.0,bus2=RML3010887546.1.2.0,Phases=2,Linecode=CABBTG05_4_2_2,Length=0.020000000,Units=km
new line.RBT_10887554 bus1=BBT166716772.1.2.0,bus2=RML3010887554.1.2.0,Phases=2,Linecode=CABBTG05_4_2_2,Length=0.020000000,Units=km
new line.RBT_10887557 bus1=BBT146830821.1.2.0,bus2=RML3010887557.1.2.0,Phases=2,Linecode=CABBTG05_4_2_2,Length=0.020000000,Units=km
new line.RBT_10887564 bus1=BBT159558577.1.2.0,bus2=RML3010887564.1.2.0,Phases=2,Linecode=CABBTG05_4_2_2,Length=0.020000000,Units=km
new line.RBT_10888743 bus1=BBT4313523.1.0,bus2=RML3010888743.1.0,Phases=1,Linecode=CABBTG02_4_1_1,Length=0.016500000,Units=km
new line.RBT_10914367 bus1=BBT167739470.1.2.0,bus2=RML3010914367.1.2.0,Phases=2,Linecode=CABBTG05_4_2_2,Length=0.022000000,Units=km
new line.RBT_11053440 bus1=BBT151582.3.1.0,bus2=RML3011053440.3.1.0,Phases=2,Linecode=CABBT811_4_2_2,Length=0.018000000,Units=km
new line.RBT_11111593 bus1=BBT3745102.3.1.0,bus2=RML3011111593.3.1.0,Phases=2,Linecode=CABBTG05_4_2_2,Length=0.020000000,Units=km
new line.RBT_11138237 bus1=BBT160018013.1.2.0,bus2=RML3011138237.1.2.0,Phases=2,Linecode=CABBT811_4_2_2,Length=0.015000000,Units=km
new line.RBT_11138462 bus1=BBT4313509.1.0,bus2=RML3011138462.1.0,Phases=1,Linecode=CABBT802_4_1_1,Length=0.018000000,Units=km
new line.RBT_11169040 bus1=BBT153759.1.0,bus2=RML3011169040.1.0,Phases=1,Linecode=CABBTG02_4_1_1,Length=0.016500000,Units=km
new line.RBT_11217783 bus1=BBT177049867.1.2.3.0,bus2=RML3011217783.1.2.3.0,Phases=3,Linecode=CABBTG06_4_3_3,Length=0.016500000,Units=km
new line.RBT_11286883 bus1=BBT149663244.1.2.0,bus2=RML3011286883.1.2.0,Phases=2,Linecode=CABBTG05_4_2_2,Length=0.016500000,Units=km
new line.RBT_10041146 bus1=BBT153934.1.2.0,bus2=RML3010041146.1.2.0,Phases=2,Linecode=CABBTG05_4_2_2,Length=0.016500000,Units=km
new line.RBT_10041151 bus1=BBT153213.1.2.0,bus2=RML3010041151.1.2.0,Phases=2,Linecode=CABBTG05_4_2_2,Length=0.016500000,Units=km
new line.RBT_10041153 bus1=BBT153381.1.2.0,bus2=RML3010041153.1.2.0,Phases=2,Linecode=CABBTG05_4_2_2,Length=0.016500000,Units=km
new line.RBT_10041209 bus1=BBT153913.1.2.0,bus2=RML3010041209.1.2.0,Phases=2,Linecode=CABBTG04_4_2_2,Length=0.016500000,Units=km