! manter este comentario para compatibilidade do C#
new circuit.alimNVN08 bus1=BMT123745241,basekv=13.800000000,pu=1.040000000,r1=0,x1=0.0001

