new line.SMT_1032042 bus1=BMT2239297B.3,bus2=BMT126022257.3,Phases=1,Linecode=CAB202_3_1_1,Length=0.232092950,Units=km
new line.SMT_1032070 bus1=BMT126022110.3,bus2=BMT2239332B.3,Phases=1,Linecode=CAB202_3_1_1,Length=0.111748420,Units=km
new line.SMT_1032077 bus1=BMT179862220.2,bus2=BMT179862221.2,Phases=1,Linecode=CAB202_3_1_1,Length=0.122356450,Units=km
new line.SMT_1032084 bus1=BMT179862220.1.2.3,bus2=BMT126020003.1.2.3,Phases=3,Linecode=CAB203_3_3_3,Length=0.107720540,Units=km
new line.SMT_1032098 bus1=BMT2239339B.3,bus2=BMT126022117.3,Phases=1,Linecode=CAB202_3_1_1,Length=0.024988410,Units=km
new line.SMT_1032126 bus1=BMT179862222.3,bus2=BMT179862223.3,Phases=1,Linecode=CAB103_3_1_1,Length=0.044084480,Units=km
new line.SMT_1032133 bus1=BMT179862222.1.2.3,bus2=BMT2239374B.1.2.3,Phases=3,Linecode=CAB203_3_3_3,Length=0.104806690,Units=km
new line.SMT_1032140 bus1=BMT2239374B.1.2.3,bus2=BMT179862224.1.2.3,Phases=3,Linecode=CAB203_3_3_3,Length=0.117373110,Units=km
new line.SMT_1032168 bus1=BMT126020045.1.2.3,bus2=BMT179862227.1.2.3,Phases=3,Linecode=CAB203_3_3_3,Length=0.120961640,Units=km
new line.SMT_1032182 bus1=BMT179862227.3,bus2=BMT2239465B.3,Phases=1,Linecode=CAB202_3_1_1,Length=0.101211090,Units=km
new line.SMT_1032210 bus1=BMT126021704.3,bus2=BMT2239423B.3,Phases=1,Linecode=CAB202_3_1_1,Length=0.129434530,Units=km
new line.SMT_1032217 bus1=BMT137904561.3,bus2=BMT137904568.3,Phases=1,Linecode=CAB202_3_1_1,Length=0.324531180,Units=km
new line.SMT_1032224 bus1=BMT2239423B.3,bus2=BMT126021711.3,Phases=1,Linecode=CAB202_3_1_1,Length=0.034046090,Units=km
new line.SMT_1032231 bus1=BMT137904568.3,bus2=BMT137904575.3,Phases=1,Linecode=CAB202_3_1_1,Length=0.069432450,Units=km
new line.SMT_1032238 bus1=BMT137904568.3,bus2=BMT2239437B.3,Phases=1,Linecode=CAB202_3_1_1,Length=0.055324770,Units=km
new line.SMT_1032245 bus1=BMT2239437B.3,bus2=BMT137904582.3,Phases=1,Linecode=CAB202_3_1_1,Length=0.118772970,Units=km
new line.SMT_1032252 bus1=BMT137904596.3,bus2=BMT2239451B.3,Phases=1,Linecode=CAB102_3_1_1,Length=0.038642600,Units=km
new line.SMT_1032259 bus1=BMT137904596.3,bus2=BMT2239458B.3,Phases=1,Linecode=CAB202_3_1_1,Length=0.092288750,Units=km
new line.SMT_1032266 bus1=BMT137904596.3,bus2=BMT4185045B.3,Phases=1,Linecode=CAB202_3_1_1,Length=0.098765880,Units=km
new line.SMT_1032273 bus1=BMT2239451B.3,bus2=BMT137904603.3,Phases=1,Linecode=CAB102_3_1_1,Length=0.039309200,Units=km
new line.SMT_1032287 bus1=BMT2239465B.3,bus2=BMT179862228.3,Phases=1,Linecode=CAB202_3_1_1,Length=0.111812050,Units=km
new line.SMT_1032294 bus1=BMT126020066.1.2.3,bus2=BMT126020073.1.2.3,Phases=3,Linecode=CAB203_3_3_3,Length=0.121393920,Units=km
new line.SMT_1032322 bus1=BMT126021655.3,bus2=BMT126021662.3,Phases=1,Linecode=CAB202_3_1_1,Length=0.035554020,Units=km
new line.SMT_1032329 bus1=BMT126021655.3,bus2=BMT2239500B.3,Phases=1,Linecode=CAB202_3_1_1,Length=0.083382570,Units=km
new line.SMT_1032343 bus1=BMT126021669.3,bus2=BMT126021676.3,Phases=1,Linecode=CAB102_3_1_1,Length=0.059063790,Units=km
new line.SMT_1032364 bus1=BMT176434190.1,bus2=BMT176434191.1,Phases=1,Linecode=CAB102_3_1_1,Length=0.053831990,Units=km
new line.SMT_1032588 bus1=BMT165863448.1.2.3,bus2=BMT165863449.1.2.3,Phases=3,Linecode=CAB102_3_3_3,Length=0.176010680,Units=km
new line.SMT_1032595 bus1=BMT165863448.1.2.3,bus2=BMT2239682B.1.2.3,Phases=3,Linecode=CAB203_3_3_3,Length=0.178587190,Units=km
new line.SMT_1032609 bus1=BMT2239689B.1.2.3,bus2=BMT2239696B.1.2.3,Phases=3,Linecode=CAB203_3_3_3,Length=0.164826950,Units=km
new line.SMT_1032616 bus1=BMT2239696B.1.2.3,bus2=BMT165863450.1.2.3,Phases=3,Linecode=CAB203_3_3_3,Length=0.124804690,Units=km
new line.SMT_1032623 bus1=BMT165863450.2,bus2=BMT165863451.2,Phases=1,Linecode=CAB202_3_1_1,Length=0.123508860,Units=km
new line.SMT_1032644 bus1=BMT165863452.2,bus2=BMT165863453.2,Phases=1,Linecode=CAB103_3_1_1,Length=0.020806000,Units=km
new line.SMT_1032651 bus1=BMT165863452.1.2.3,bus2=BMT165863454.1.2.3,Phases=3,Linecode=CAB203_3_3_3,Length=0.086375200,Units=km
new line.SMT_1032658 bus1=BMT165863454.2,bus2=BMT165863456.2,Phases=1,Linecode=CAB103_3_1_1,Length=0.025230810,Units=km
new line.SMT_1032665 bus1=BMT165863454.1.2.3,bus2=BMT2239731B.1.2.3,Phases=3,Linecode=CAB203_3_3_3,Length=0.021385740,Units=km
new line.SMT_1032672 bus1=BMT165863454.2,bus2=BMT165863457.2,Phases=1,Linecode=CAB103_3_1_1,Length=0.012483600,Units=km
new line.SMT_1032679 bus1=BMT2239731B.1.2.3,bus2=BMT126020738.1.2.3,Phases=3,Linecode=CAB203_3_3_3,Length=0.137122650,Units=km
new line.SMT_1032686 bus1=BMT126020738.1.2.3,bus2=BMT164176943.1.2.3,Phases=3,Linecode=CAB203_3_3_3,Length=0.082218040,Units=km
new line.SMT_1032693 bus1=BMT126021130.2,bus2=BMT126021137.2,Phases=1,Linecode=CAB103_3_1_1,Length=0.027453820,Units=km
new line.SMT_1032700 bus1=BMT164176952.2,bus2=BMT164176953.2,Phases=1,Linecode=CAB202_3_1_1,Length=0.095795470,Units=km
new line.SMT_1032707 bus1=BMT164176943.1.2.3,bus2=BMT2239766B.1.2.3,Phases=3,Linecode=CAB203_3_3_3,Length=0.093818900,Units=km
new line.SMT_1032714 bus1=BMT164176943.2,bus2=BMT164177137.2,Phases=1,Linecode=CABA06_3_1_1,Length=0.042435150,Units=km
new line.SMT_1032721 bus1=BMT126021137.2,bus2=BMT126021144.2,Phases=1,Linecode=CAB103_3_1_1,Length=0.028258790,Units=km
new line.SMT_1032728 bus1=BMT126021137.2,bus2=BMT126021151.2,Phases=1,Linecode=CAB103_3_1_1,Length=0.031674610,Units=km
new line.SMT_1032735 bus1=BMT164176953.2,bus2=BMT164176954.2,Phases=1,Linecode=CAB103_3_1_1,Length=0.067323570,Units=km
new line.SMT_1032742 bus1=BMT164176953.2,bus2=BMT164176955.2,Phases=1,Linecode=CAB103_3_1_1,Length=0.038825410,Units=km
new line.SMT_1032770 bus1=BMT175778753.1.2.3,bus2=BMT2239787B.1.2.3,Phases=3,Linecode=CAB103_3_3_3,Length=0.047045800,Units=km
new line.SMT_1032777 bus1=BMT2239787B.1.2.3,bus2=BMT2239794B.1.2.3,Phases=3,Linecode=CAB103_3_3_3,Length=0.038641590,Units=km
new line.SMT_1032798 bus1=BMT165650846.3,bus2=BMT165650847.3,Phases=1,Linecode=CAB103_3_1_1,Length=0.068098240,Units=km
new line.SMT_1032805 bus1=BMT126020836.1.2.3,bus2=BMT2239815B.1.2.3,Phases=3,Linecode=CAB103_3_3_3,Length=0.036388280,Units=km
new line.SMT_1032812 bus1=BMT2239815B.1.2.3,bus2=BMT126020843.1.2.3,Phases=3,Linecode=CAB103_3_3_3,Length=0.031301920,Units=km
new line.SMT_1032819 bus1=BMT126020843.1,bus2=BMT164181602.1,Phases=1,Linecode=CAB103_3_1_1,Length=0.040381820,Units=km
new line.SMT_1032826 bus1=BMT126020990.2,bus2=BMT126020997.2,Phases=1,Linecode=CAB103_3_1_1,Length=0.078906250,Units=km
new line.SMT_1032833 bus1=BMT2239829B.2,bus2=BMT164177141.2,Phases=1,Linecode=CAB103_3_1_1,Length=0.060762610,Units=km
new line.SMT_1032847 bus1=BMT126021795.1.2.3,bus2=BMT126021802.1.2.3,Phases=3,Linecode=CAB202_3_3_3,Length=0.129692080,Units=km
new line.SMT_1032854 bus1=BMT2239843B.3,bus2=BMT126022096.3,Phases=1,Linecode=CAB202_3_1_1,Length=0.118423510,Units=km
new line.SMT_1088574 bus1=BMT175944606.1,bus2=BMT4487158B.1,Phases=1,Linecode=CAB202_3_1_1,Length=0.134216880,Units=km
new line.SMT_1088581 bus1=BMT2273051B.1,bus2=BMT2273058B.1,Phases=1,Linecode=CAB202_3_1_1,Length=0.071468610,Units=km
new line.SMT_1088588 bus1=BMT2273058B.1,bus2=BMT175944607.1,Phases=1,Linecode=CAB202_3_1_1,Length=0.078734550,Units=km
new line.SMT_1088595 bus1=BMT175944607.1,bus2=BMT4487186B.1,Phases=1,Linecode=CAB202_3_1_1,Length=0.299991210,Units=km
new line.SMT_1088602 bus1=BMT175944607.1,bus2=BMT4487508B.1,Phases=1,Linecode=CAB202_3_1_1,Length=0.035112650,Units=km
new line.SMT_1088609 bus1=BMT175944609.1,bus2=BMT175944610.1,Phases=1,Linecode=CAB103_3_1_1,Length=0.079513260,Units=km
new line.SMT_1088616 bus1=BMT2273079B.1,bus2=BMT2273086B.1,Phases=1,Linecode=CAB202_3_1_1,Length=0.070225300,Units=km
new line.SMT_1088630 bus1=BMT2273086B.1,bus2=BMT4487557B.1,Phases=1,Linecode=CAB202_3_1_1,Length=0.104146150,Units=km
new line.SMT_1088637 bus1=BMT2273093B.1,bus2=BMT123749903.1,Phases=1,Linecode=CAB202_3_1_1,Length=0.060875730,Units=km
new line.SMT_1088644 bus1=BMT123749903.1,bus2=BMT4471296B.1,Phases=1,Linecode=CAB202_3_1_1,Length=0.128259900,Units=km
new line.SMT_1088651 bus1=BMT178747309.1,bus2=BMT4488320B.1,Phases=1,Linecode=CAB202_3_1_1,Length=0.127082240,Units=km
new line.SMT_1088658 bus1=BMT178747310.1,bus2=BMT2273226B.1,Phases=1,Linecode=CAB202_3_1_1,Length=0.101445410,Units=km
new line.SMT_1088665 bus1=BMT178747310.1,bus2=BMT4488397B.1,Phases=1,Linecode=CAB202_3_1_1,Length=0.146041960,Units=km
new line.SMT_1088672 bus1=BMT175944612.1,bus2=BMT175944613.1,Phases=1,Linecode=CAB202_3_1_1,Length=0.107018590,Units=km
new line.SMT_1088679 bus1=BMT175944612.1,bus2=BMT4471373B.1,Phases=1,Linecode=CAB202_3_1_1,Length=0.158122570,Units=km
new line.SMT_1088686 bus1=BMT123749924.1,bus2=BMT175944614.1,Phases=1,Linecode=CAB202_3_1_1,Length=0.052693720,Units=km
new line.SMT_1088693 bus1=BMT123749924.1,bus2=BMT4471380B.1,Phases=1,Linecode=CAB202_3_1_1,Length=0.151218210,Units=km
new line.SMT_1088700 bus1=BMT123750050.1,bus2=BMT4471527B.1,Phases=1,Linecode=CAB202_3_1_1,Length=0.318575210,Units=km
new line.SMT_1088707 bus1=BMT123750057.1,bus2=BMT4471534B.1,Phases=1,Linecode=CAB202_3_1_1,Length=0.155965210,Units=km
new line.SMT_1088714 bus1=BMT123750057.1,bus2=BMT4471555B.1,Phases=1,Linecode=CAB202_3_1_1,Length=0.108503290,Units=km
new line.SMT_1088721 bus1=BMT175944615.1,bus2=BMT175944616.1,Phases=1,Linecode=CAB202_3_1_1,Length=0.098785070,Units=km
new line.SMT_1088728 bus1=BMT175944615.1,bus2=BMT4471401B.1,Phases=1,Linecode=CAB202_3_1_1,Length=0.119522390,Units=km
new line.SMT_1088735 bus1=BMT175944617.1,bus2=BMT175944618.1,Phases=1,Linecode=CAB202_3_1_1,Length=0.082167540,Units=km
new line.SMT_1088742 bus1=BMT175944617.1,bus2=BMT175944619.1,Phases=1,Linecode=CAB202_3_1_1,Length=0.156500510,Units=km
new line.SMT_1088749 bus1=BMT175944619.1,bus2=BMT175944620.1,Phases=1,Linecode=CAB202_3_1_1,Length=0.055693420,Units=km
new line.SMT_1088756 bus1=BMT175944619.1,bus2=BMT2273163B.1,Phases=1,Linecode=CAB202_3_1_1,Length=0.120812160,Units=km
new line.SMT_1088763 bus1=BMT2273163B.1,bus2=BMT175944621.1,Phases=1,Linecode=CAB202_3_1_1,Length=0.146047010,Units=km
new line.SMT_1088770 bus1=BMT175944859.1,bus2=BMT175944860.1,Phases=1,Linecode=CAB208_3_3_1,Length=0.314794780,Units=km
new line.SMT_1088777 bus1=BMT175944859.1,bus2=BMT4471478B.1,Phases=1,Linecode=CAB202_3_1_1,Length=0.120533400,Units=km
new line.SMT_1088784 bus1=BMT175944860.1,bus2=BMT175944862.1,Phases=1,Linecode=CAB202_3_1_1,Length=0.138866920,Units=km
new line.SMT_1088798 bus1=BMT123750064.1,bus2=BMT4471541B.1,Phases=1,Linecode=CAB202_3_1_1,Length=0.137893280,Units=km
new line.SMT_1088805 bus1=BMT123750064.1,bus2=BMT4488621B.1,Phases=1,Linecode=CAB202_3_1_1,Length=0.145034990,Units=km
new line.SMT_1088812 bus1=BMT123750085.1,bus2=BMT123750092.1,Phases=1,Linecode=CAB202_3_1_1,Length=0.167704440,Units=km
new line.SMT_1088819 bus1=BMT132695161.1,bus2=BMT4489111B.1,Phases=1,Linecode=CAB202_3_1_1,Length=0.120983860,Units=km
new line.SMT_1088826 bus1=BMT123750092.1,bus2=BMT123750099.1,Phases=1,Linecode=CAB103_3_1_1,Length=0.014904570,Units=km
new line.SMT_1088833 bus1=BMT123750092.1,bus2=BMT123750106.1,Phases=1,Linecode=CAB202_3_1_1,Length=0.198775070,Units=km
new line.SMT_1088840 bus1=BMT132695175.1,bus2=BMT132695182.1,Phases=1,Linecode=CAB103_3_1_1,Length=0.058962790,Units=km
new line.SMT_1088847 bus1=BMT132695175.1,bus2=BMT132695189.1,Phases=1,Linecode=CAB202_3_1_1,Length=0.084025940,Units=km
new line.SMT_1088854 bus1=BMT132695189.1,bus2=BMT132695196.1,Phases=1,Linecode=CAB202_3_1_1,Length=0.079000180,Units=km
new line.SMT_1088861 bus1=BMT132695189.1,bus2=BMT132695203.1,Phases=1,Linecode=CAB202_3_1_1,Length=0.097162000,Units=km
new line.SMT_1088875 bus1=BMT2273226B.1,bus2=BMT4488334B.1,Phases=1,Linecode=CAB202_3_1_1,Length=0.160424360,Units=km
new line.SMT_1088882 bus1=BMT178747315.1,bus2=BMT123750204.1,Phases=1,Linecode=CAB202_3_1_1,Length=0.129020430,Units=km
new line.SMT_1088889 bus1=BMT178747317.1,bus2=BMT178747318.1,Phases=1,Linecode=CAB103_3_1_1,Length=0.012113940,Units=km
new line.SMT_1088896 bus1=BMT178747317.1,bus2=BMT123750225.1,Phases=1,Linecode=CAB202_3_1_1,Length=0.133629060,Units=km
new line.SMT_1088903 bus1=BMT175926275.1,bus2=BMT4487585B.1,Phases=1,Linecode=CAB202_3_1_1,Length=0.275419930,Units=km
new line.SMT_1088910 bus1=BMT175926275.1,bus2=BMT4487599B.1,Phases=1,Linecode=CAB202_3_1_1,Length=0.096672150,Units=km
new line.SMT_1088917 bus1=BMT175926275.1,bus2=BMT4487900B.1,Phases=1,Linecode=CAB202_3_1_1,Length=0.132478670,Units=km
new line.SMT_1088924 bus1=BMT175926278.1,bus2=BMT175926279.1,Phases=1,Linecode=CAB102_3_1_1,Length=0.054713720,Units=km
new line.SMT_1088931 bus1=BMT175926278.1,bus2=BMT4488103B.1,Phases=1,Linecode=CAB202_3_1_1,Length=0.140394040,Units=km
new line.SMT_1088938 bus1=BMT123749609.2,bus2=BMT123749616.2,Phases=1,Linecode=CAB202_3_1_1,Length=0.087020590,Units=km
new line.SMT_1088945 bus1=BMT123749616.2,bus2=BMT4470421B.2,Phases=1,Linecode=CAB202_3_1_1,Length=0.063561320,Units=km
new line.SMT_1088952 bus1=BMT123749616.2,bus2=BMT4470442B.2,Phases=1,Linecode=CAB202_3_1_1,Length=0.101444400,Units=km
new line.SMT_1088959 bus1=BMT123749630.2,bus2=BMT123749637.2,Phases=1,Linecode=CAB202_3_1_1,Length=0.075894430,Units=km
new line.SMT_1088966 bus1=BMT123749630.2,bus2=BMT4470449B.2,Phases=1,Linecode=CAB202_3_1_1,Length=0.142780670,Units=km
new line.SMT_1088973 bus1=BMT123749637.2,bus2=BMT123749651.2,Phases=1,Linecode=CAB202_3_1_1,Length=0.146896420,Units=km
new line.SMT_1088980 bus1=BMT123749637.2,bus2=BMT2273296B.2,Phases=1,Linecode=CAB202_3_1_1,Length=0.087284200,Units=km
new line.SMT_1031475 bus1=BMT126023223.1,bus2=BMT2238968B.1,Phases=1,Linecode=CAB202_3_1_1,Length=0.054956120,Units=km
new line.SMT_1031482 bus1=BMT126023223.1,bus2=BMT126023237.1,Phases=1,Linecode=CAB202_3_1_1,Length=0.116593390,Units=km
new line.SMT_1031489 bus1=BMT2238968B.1,bus2=BMT126023230.1,Phases=1,Linecode=CAB202_3_1_1,Length=0.101428240,Units=km
new line.SMT_1031496 bus1=BMT126023237.1,bus2=BMT126023244.1,Phases=1,Linecode=CAB102_3_1_1,Length=0.058675950,Units=km
new line.SMT_1031503 bus1=BMT126023230.1,bus2=BMT126023251.1,Phases=1,Linecode=CAB102_3_1_1,Length=0.022408870,Units=km
new line.SMT_1031517 bus1=BMT165796383.1.2.3,bus2=BMT2239073B.1.2.3,Phases=3,Linecode=CAB203_3_3_3,Length=0.112389770,Units=km
new line.SMT_1031524 bus1=BMT164379323.3,bus2=BMT164379324.3,Phases=1,Linecode=CAB202_3_1_1,Length=0.174969370,Units=km
new line.SMT_1031531 bus1=BMT164379324.3,bus2=BMT164379325.3,Phases=1,Linecode=CAB102_3_1_1,Length=0.056246900,Units=km
new line.SMT_1031545 bus1=BMT164379326.3,bus2=BMT164379327.3,Phases=1,Linecode=CAB202_3_1_1,Length=0.093210880,Units=km
new line.SMT_1031552 bus1=BMT164379326.3,bus2=BMT126023076.3,Phases=1,Linecode=CAB202_3_1_1,Length=0.139267890,Units=km
new line.SMT_1031566 bus1=BMT164379328.3,bus2=BMT164379329.3,Phases=1,Linecode=CAB202_3_1_1,Length=0.110210190,Units=km
new line.SMT_1031573 bus1=BMT164379329.3,bus2=BMT164379331.3,Phases=1,Linecode=CAB102_3_1_1,Length=0.058588080,Units=km
new line.SMT_1031580 bus1=BMT164379329.3,bus2=BMT2239031B.3,Phases=1,Linecode=CAB202_3_1_1,Length=0.206732860,Units=km
new line.SMT_1031601 bus1=BMT153752587.3,bus2=BMT2239045B.3,Phases=1,Linecode=CAB202_3_1_1,Length=0.131187890,Units=km
new line.SMT_1031608 bus1=BMT2239045B.3,bus2=BMT164379334.3,Phases=1,Linecode=CAB202_3_1_1,Length=0.132455440,Units=km
new line.SMT_1031615 bus1=BMT164379336.3,bus2=BMT164379337.3,Phases=1,Linecode=CAB202_3_1_1,Length=0.124376450,Units=km
new line.SMT_1031629 bus1=BMT164379339.3,bus2=BMT164379340.3,Phases=1,Linecode=CAB103_3_1_1,Length=0.078881000,Units=km
new line.SMT_1031636 bus1=BMT164379339.3,bus2=BMT164379341.3,Phases=1,Linecode=CAB202_3_1_1,Length=0.349873090,Units=km
new line.SMT_1031643 bus1=BMT164379341.3,bus2=BMT164379342.3,Phases=1,Linecode=CAB202_3_1_1,Length=0.129093150,Units=km
new line.SMT_1031650 bus1=BMT164379341.3,bus2=BMT2992049B.3,Phases=1,Linecode=CAB103_3_1_1,Length=0.039475850,Units=km
new line.SMT_1031671 bus1=BMT165796387.3,bus2=BMT165796389.3,Phases=1,Linecode=CAB202_3_1_1,Length=0.063830990,Units=km
new line.SMT_1031685 bus1=BMT126022971.1.2.3,bus2=BMT126022978.1.2.3,Phases=3,Linecode=CAB202_3_3_3,Length=0.141504030,Units=km
new line.SMT_1031692 bus1=BMT126022978.3,bus2=BMT126022985.3,Phases=1,Linecode=CAB102_3_1_1,Length=0.029268790,Units=km
new line.SMT_1031699 bus1=BMT126022978.1.2.3,bus2=BMT126022992.1.2.3,Phases=3,Linecode=CAB202_3_3_3,Length=0.113239180,Units=km
new line.SMT_1031713 bus1=BMT126022992.2,bus2=BMT126022999.2,Phases=1,Linecode=CAB202_3_1_1,Length=0.085095530,Units=km
new line.SMT_1031720 bus1=BMT126022999.2,bus2=BMT126023013.2,Phases=1,Linecode=CAB102_3_1_1,Length=0.035796420,Units=km
new line.SMT_1031741 bus1=BMT126019779.1.2.3,bus2=BMT126019786.1.2.3,Phases=3,Linecode=CAB203_3_3_3,Length=0.038629470,Units=km
new line.SMT_1031748 bus1=BMT126019786.1.2.3,bus2=BMT5265502.1.2.3,Phases=3,Linecode=CAB204_3_3_3,Length=0.120321300,Units=km
new line.SMT_1031755 bus1=BMT126019786.1.2.3,bus2=BMT126019793.1.2.3,Phases=3,Linecode=CAB203_3_3_3,Length=0.118254840,Units=km
new line.SMT_1031776 bus1=BMT159141369.1.2.3,bus2=BMT159141370.1.2.3,Phases=3,Linecode=CAB203_3_3_3,Length=0.120523300,Units=km
new line.SMT_1031783 bus1=BMT159141370.3,bus2=BMT159141372.3,Phases=1,Linecode=CAB103_3_1_1,Length=0.080764650,Units=km
new line.SMT_1031804 bus1=BMT159141374.1.2.3,bus2=BMT159141378.1.2.3,Phases=3,Linecode=CAB203_3_3_3,Length=0.115852050,Units=km
new line.SMT_1031818 bus1=BMT159141378.1.2.3,bus2=BMT159141380.1.2.3,Phases=3,Linecode=CAB203_3_3_3,Length=0.114894570,Units=km
new line.SMT_1031853 bus1=BMT126022936.3,bus2=BMT126022943.3,Phases=1,Linecode=CAB103_3_1_1,Length=0.083955240,Units=km
new line.SMT_1031860 bus1=BMT126022936.3,bus2=BMT126022950.3,Phases=1,Linecode=CAB202_3_1_1,Length=0.104829920,Units=km
new line.SMT_1031881 bus1=BMT161732020.1,bus2=BMT2239206B.1,Phases=1,Linecode=CAB202_3_1_1,Length=0.083225010,Units=km
new line.SMT_1031895 bus1=BMT126019898.1.2.3,bus2=BMT161732023.1.2.3,Phases=3,Linecode=CAB203_3_3_3,Length=0.042388690,Units=km
new line.SMT_1031902 bus1=BMT2239206B.1,bus2=BMT2239213B.1,Phases=1,Linecode=CAB202_3_1_1,Length=0.058475970,Units=km
new line.SMT_1031923 bus1=BMT161732023.1.2.3,bus2=BMT161732024.1.2.3,Phases=3,Linecode=CAB103_3_3_3,Length=0.018962750,Units=km
new line.SMT_1031930 bus1=BMT161732023.1.2.3,bus2=BMT126019926.1.2.3,Phases=3,Linecode=CAB203_3_3_3,Length=0.075119760,Units=km
new line.SMT_1031937 bus1=BMT179862212.1.2.3,bus2=BMT126019940.1.2.3,Phases=3,Linecode=CAB203_3_3_3,Length=0.117463000,Units=km
new line.SMT_1031951 bus1=BMT126022173.3,bus2=BMT3373318B.3,Phases=1,Linecode=CAB202_3_1_1,Length=0.159143680,Units=km
new line.SMT_1031958 bus1=BMT126022124.1,bus2=BMT2239311B.1,Phases=1,Linecode=CAB202_3_1_1,Length=0.100969700,Units=km
new line.SMT_1031972 bus1=BMT2239255B.3,bus2=BMT126022180.3,Phases=1,Linecode=CAB202_3_1_1,Length=0.107213520,Units=km
new line.SMT_1031979 bus1=BMT126022180.3,bus2=BMT126022187.3,Phases=1,Linecode=CAB103_3_1_1,Length=0.015173230,Units=km
new line.SMT_1031986 bus1=BMT126022180.3,bus2=BMT126022194.3,Phases=1,Linecode=CAB202_3_1_1,Length=0.147702400,Units=km
new line.SMT_1032000 bus1=BMT126022201.3,bus2=BMT126022215.3,Phases=1,Linecode=CAB202_3_1_1,Length=0.145377380,Units=km
new line.SMT_1032007 bus1=BMT126022222.3,bus2=BMT126022229.3,Phases=1,Linecode=CAB103_3_1_1,Length=0.015958000,Units=km
new line.SMT_1032021 bus1=BMT126022215.3,bus2=BMT2239290B.3,Phases=1,Linecode=CAB202_3_1_1,Length=0.145503630,Units=km
new line.SMT_1032035 bus1=BMT2239290B.3,bus2=BMT126022250.3,Phases=1,Linecode=CAB202_3_1_1,Length=0.096091400,Units=km
new line.SMT_12145373 bus1=BMT157092136.1,bus2=BMT157092137.1,Phases=1,Linecode=CAB202_3_1_1,Length=0.048711290,Units=km
new line.SMT_12145374 bus1=BMT157092137.1,bus2=BMT157092138.1,Phases=1,Linecode=CAB202_3_1_1,Length=0.012196760,Units=km
new line.SMT_12145378 bus1=BMT157092137.1,bus2=BMT8741015B.1,Phases=1,Linecode=CAB202_3_1_1,Length=0.066410530,Units=km
new line.SMT_12145379 bus1=BMT8741015B.1,bus2=BMT157092139.1,Phases=1,Linecode=CAB202_3_1_1,Length=0.030962560,Units=km
new line.SMT_12145380 bus1=BMT157092139.1,bus2=BMT157092140.1,Phases=1,Linecode=CAB103_3_1_1,Length=0.041493830,Units=km
new line.SMT_1032868 bus1=BMT126022047.1,bus2=BMT3677223B.1,Phases=1,Linecode=CAB202_3_1_1,Length=0.110825280,Units=km
new line.SMT_1032889 bus1=BMT176551081.2,bus2=BMT176551082.2,Phases=1,Linecode=CAB102_3_1_1,Length=0.050463640,Units=km
new line.SMT_1032924 bus1=BMT176550980.2,bus2=BMT3353879B.2,Phases=1,Linecode=CAB202_3_1_1,Length=0.121786810,Units=km
new line.SMT_1032938 bus1=BMT176550965.2,bus2=BMT2952429B.2,Phases=1,Linecode=CAB202_3_1_1,Length=0.067741710,Units=km
new line.SMT_1032952 bus1=BMT176550957.2,bus2=BMT176550958.2,Phases=1,Linecode=CAB202_3_1_1,Length=0.031303940,Units=km
new line.SMT_1032973 bus1=BMT176550959.2,bus2=BMT176550960.2,Phases=1,Linecode=CAB202_3_1_1,Length=0.143033170,Units=km
new line.SMT_1032980 bus1=BMT176550960.2,bus2=BMT176550962.2,Phases=1,Linecode=CAB202_3_1_1,Length=0.013160300,Units=km
new line.SMT_1032987 bus1=BMT176550960.2,bus2=BMT2239927B.2,Phases=1,Linecode=CAB202_3_1_1,Length=0.442357780,Units=km
new line.SMT_1032994 bus1=BMT176550960.2,bus2=BMT126021928.2,Phases=1,Linecode=CAB202_3_1_1,Length=0.114654190,Units=km
new line.SMT_1033001 bus1=BMT2239927B.2,bus2=BMT176550963.2,Phases=1,Linecode=CAB202_3_1_1,Length=0.070367710,Units=km
new line.SMT_1033008 bus1=BMT126022131.1,bus2=BMT126022138.1,Phases=1,Linecode=CAB103_3_1_1,Length=0.039413230,Units=km
new line.SMT_1033015 bus1=BMT126022131.1,bus2=BMT126022145.1,Phases=1,Linecode=CAB202_3_1_1,Length=0.069579910,Units=km
new line.SMT_1033022 bus1=BMT126022145.1,bus2=BMT126022152.1,Phases=1,Linecode=CAB103_3_1_1,Length=0.038364850,Units=km
new line.SMT_1033057 bus1=BMT167619958.2,bus2=BMT167619959.2,Phases=1,Linecode=CAB102_3_1_1,Length=0.031433220,Units=km
new line.SMT_1033071 bus1=BMT170520698.1,bus2=BMT170520699.1,Phases=1,Linecode=CAB202_3_1_1,Length=0.117854880,Units=km
new line.SMT_1033085 bus1=BMT154947825.3,bus2=BMT154947827.3,Phases=1,Linecode=CAB202_3_1_1,Length=0.118728530,Units=km
new line.SMT_1033099 bus1=BMT154947828.3,bus2=BMT154947829.3,Phases=1,Linecode=CAB102_3_1_1,Length=0.045873190,Units=km
new line.SMT_1033113 bus1=BMT166532671.3,bus2=BMT126022355.3,Phases=1,Linecode=CAB202_3_1_1,Length=0.154463340,Units=km
new line.SMT_1033134 bus1=BMT2240011B.3,bus2=BMT166532674.3,Phases=1,Linecode=CAB202_3_1_1,Length=0.155971270,Units=km
new line.SMT_1033141 bus1=BMT2240018B.3,bus2=BMT2240025B.3,Phases=1,Linecode=CAB202_3_1_1,Length=0.197006560,Units=km
new line.SMT_1033148 bus1=BMT2240025B.3,bus2=BMT152023131.3,Phases=1,Linecode=CAB202_3_1_1,Length=0.131697940,Units=km
new line.SMT_1033155 bus1=BMT166532674.3,bus2=BMT166532675.3,Phases=1,Linecode=CAB102_3_1_1,Length=0.024409680,Units=km
new line.SMT_1033176 bus1=BMT166532676.3,bus2=BMT166532677.3,Phases=1,Linecode=CAB102_3_1_1,Length=0.027453820,Units=km
new line.SMT_1033204 bus1=BMT2240060B.3,bus2=BMT126022600.3,Phases=1,Linecode=CAB202_3_1_1,Length=0.126183340,Units=km
new line.SMT_1033218 bus1=BMT166532678.3,bus2=BMT166532679.3,Phases=1,Linecode=CAB103_3_1_1,Length=0.016273120,Units=km
new line.SMT_1033225 bus1=BMT166532678.3,bus2=BMT3115487B.3,Phases=1,Linecode=CAB202_3_1_1,Length=0.121724190,Units=km
new line.SMT_1033260 bus1=BMT166532680.3,bus2=BMT166532681.3,Phases=1,Linecode=CAB202_3_1_1,Length=0.107510460,Units=km
new line.SMT_1033274 bus1=BMT166532682.3,bus2=BMT166532683.3,Phases=1,Linecode=CAB102_3_1_1,Length=0.018553700,Units=km
new line.SMT_1033288 bus1=BMT166532684.3,bus2=BMT166532685.3,Phases=1,Linecode=CAB102_3_1_1,Length=0.059601110,Units=km
new line.SMT_1033295 bus1=BMT166532684.3,bus2=BMT126022474.3,Phases=1,Linecode=CAB202_3_1_1,Length=0.084631940,Units=km
new line.SMT_1033309 bus1=BMT152023103.3,bus2=BMT2240130B.3,Phases=1,Linecode=CAB202_3_1_1,Length=0.048324460,Units=km
new line.SMT_1033323 bus1=BMT2240130B.3,bus2=BMT2240137B.3,Phases=1,Linecode=CAB202_3_1_1,Length=0.225810750,Units=km
new line.SMT_1033337 bus1=BMT152023104.3,bus2=BMT152023105.3,Phases=1,Linecode=CAB103_3_1_1,Length=0.048713310,Units=km
new line.SMT_1033344 bus1=BMT152023104.3,bus2=BMT2240151B.3,Phases=1,Linecode=CAB202_3_1_1,Length=0.105273310,Units=km
new line.SMT_1033358 bus1=BMT2240158B.3,bus2=BMT2240165B.3,Phases=1,Linecode=CAB202_3_1_1,Length=0.077252880,Units=km
new line.SMT_1033365 bus1=BMT2240165B.3,bus2=BMT166532686.3,Phases=1,Linecode=CAB202_3_1_1,Length=0.074774340,Units=km
new line.SMT_1033372 bus1=BMT166532686.3,bus2=BMT166532687.3,Phases=1,Linecode=CAB202_3_1_1,Length=0.061094900,Units=km
new line.SMT_1033386 bus1=BMT166532689.3,bus2=BMT166532691.3,Phases=1,Linecode=CAB103_3_1_1,Length=0.021192830,Units=km
new line.SMT_1033393 bus1=BMT167758041.3,bus2=BMT167758042.3,Phases=1,Linecode=CAB102_3_1_1,Length=0.042589680,Units=km
new line.SMT_1033414 bus1=BMT167758043.3,bus2=BMT167758044.3,Phases=1,Linecode=CAB102_3_1_1,Length=0.075501540,Units=km
new line.SMT_1033421 bus1=BMT167758043.3,bus2=BMT167758045.3,Phases=1,Linecode=CAB102_3_1_1,Length=0.076279240,Units=km
new line.SMT_1033442 bus1=BMT152023116.3,bus2=BMT152023117.3,Phases=1,Linecode=CAB102_3_1_1,Length=0.075979270,Units=km
new line.SMT_1033449 bus1=BMT170520701.1,bus2=BMT170520703.1,Phases=1,Linecode=CAB202_3_1_1,Length=0.103247250,Units=km
new line.SMT_1033456 bus1=BMT170520701.1,bus2=BMT170520704.1,Phases=1,Linecode=CAB202_3_1_1,Length=0.142626140,Units=km
new line.SMT_1033470 bus1=BMT170520704.1,bus2=BMT170520717.1,Phases=1,Linecode=CAB102_3_1_1,Length=0.049298100,Units=km
new line.SMT_1033491 bus1=BMT170520705.1,bus2=BMT170520706.1,Phases=1,Linecode=CAB202_3_1_1,Length=0.129061840,Units=km
new line.SMT_1033498 bus1=BMT170520707.1,bus2=BMT170520708.1,Phases=1,Linecode=CAB102_3_1_1,Length=0.050552520,Units=km
new line.SMT_1033505 bus1=BMT170520706.1,bus2=BMT170520709.1,Phases=1,Linecode=CAB202_3_1_1,Length=0.293822130,Units=km
new line.SMT_1033512 bus1=BMT170520706.1,bus2=BMT170520710.1,Phases=1,Linecode=CAB202_3_1_1,Length=0.253754420,Units=km
new line.SMT_1033519 bus1=BMT170520710.1,bus2=BMT170520711.1,Phases=1,Linecode=CAB102_3_1_1,Length=0.083399740,Units=km
new line.SMT_1033533 bus1=BMT2240270B.1,bus2=BMT170520712.1,Phases=1,Linecode=CAB202_3_1_1,Length=0.066156010,Units=km
new line.SMT_1033540 bus1=BMT170520712.1,bus2=BMT170520713.1,Phases=1,Linecode=CAB103_3_1_1,Length=0.007883050,Units=km
new line.SMT_1033561 bus1=BMT126022950.3,bus2=BMT126022957.3,Phases=1,Linecode=CAB203_3_1_1,Length=0.076470130,Units=km
new line.SMT_12214225 bus1=BMT153484870.1.2.3,bus2=BMT3519296B.1.2.3,Phases=3,Linecode=CAB204_3_3_3,Length=0.107736700,Units=km
new line.SMT_12214344 bus1=BMT8311106B.1.2.3,bus2=BMT151847420.1.2.3,Phases=3,Linecode=CAB204_3_3_3,Length=0.057806340,Units=km
new line.SMT_12214345 bus1=BMT151847195.1.2.3,bus2=BMT179709720.1.2.3,Phases=3,Linecode=CAB202_3_3_3,Length=0.030747430,Units=km
new line.SMT_12251581 bus1=BMT4826413B.1,bus2=BMT164181137.1,Phases=1,Linecode=CAB202_3_1_1,Length=0.038772890,Units=km
new line.SMT_12251582 bus1=BMT164181138.1,bus2=BMT164181137.1,Phases=1,Linecode=CAB202_3_1_1,Length=0.042912880,Units=km
new line.SMT_12251658 bus1=BMT164181138.1,bus2=BMT164181140.1,Phases=1,Linecode=CAB103_3_1_1,Length=0.055249020,Units=km
new line.SMT_12290559 bus1=BMT179639716.1.2.3,bus2=BMT179639715.1.2.3,Phases=3,Linecode=CABA06_3_3_3,Length=0.034447060,Units=km
new line.SMT_12293049 bus1=BMT157917955.1.2.3,bus2=BMT8873937B.1.2.3,Phases=3,Linecode=CAB401_3_3_3,Length=0.004162210,Units=km
new line.SMT_12293235 bus1=BMT157103295.1.2.3,bus2=BMT156247277.1.2.3,Phases=3,Linecode=CABA08_3_3_3,Length=0.022412910,Units=km
new line.SMT_12293239 bus1=BMT157080788.1.2.3,bus2=BMT157080789.1.2.3,Phases=3,Linecode=CAB611_3_3_3,Length=0.044149120,Units=km
new line.SMT_12293295 bus1=BMT177764538.1.2.3,bus2=BMT177764540.1.2.3,Phases=3,Linecode=CAB103_3_3_3,Length=0.033853180,Units=km
new line.SMT_12293296 bus1=BMT177764540.1.2.3,bus2=BMT8895237B.1.2.3,Phases=3,Linecode=CAB202_3_3_3,Length=0.183294800,Units=km
new line.SMT_12293297 bus1=BMT8895237B.1.2.3,bus2=BMT8895238B.1.2.3,Phases=3,Linecode=CAB202_3_3_3,Length=0.109680950,Units=km
new line.SMT_12293299 bus1=BMT8895238B.1.2.3,bus2=BMT8895239B.1.2.3,Phases=3,Linecode=CAB202_3_3_3,Length=0.113100810,Units=km
new line.SMT_12293300 bus1=BMT8895239B.1.2.3,bus2=BMT8895240B.1.2.3,Phases=3,Linecode=CAB202_3_3_3,Length=0.122326150,Units=km
new line.SMT_12293301 bus1=BMT8895240B.1.2.3,bus2=BMT8895241B.1.2.3,Phases=3,Linecode=CAB202_3_3_3,Length=0.130149610,Units=km
new line.SMT_12293302 bus1=BMT8895241B.1.2.3,bus2=BMT8895242B.1.2.3,Phases=3,Linecode=CAB202_3_3_3,Length=0.118364930,Units=km
new line.SMT_12293303 bus1=BMT8895242B.1.2.3,bus2=BMT8895243B.1.2.3,Phases=3,Linecode=CAB202_3_3_3,Length=0.120530370,Units=km
new line.SMT_12293304 bus1=BMT8895243B.1.2.3,bus2=BMT8895244B.1.2.3,Phases=3,Linecode=CAB202_3_3_3,Length=0.129510280,Units=km
new line.SMT_12293305 bus1=BMT8895244B.1.2.3,bus2=BMT8895245B.1.2.3,Phases=3,Linecode=CAB202_3_3_3,Length=0.130392010,Units=km
new line.SMT_12293306 bus1=BMT8895245B.1.2.3,bus2=BMT8895246B.1.2.3,Phases=3,Linecode=CAB202_3_3_3,Length=0.134374440,Units=km
new line.SMT_12293307 bus1=BMT8895246B.1.2.3,bus2=BMT8895247B.1.2.3,Phases=3,Linecode=CAB202_3_3_3,Length=0.135341010,Units=km
new line.SMT_12293308 bus1=BMT8895247B.1.2.3,bus2=BMT8895248B.1.2.3,Phases=3,Linecode=CAB202_3_3_3,Length=0.142369600,Units=km
new line.SMT_12293309 bus1=BMT8895248B.1.2.3,bus2=BMT8895249B.1.2.3,Phases=3,Linecode=CAB202_3_3_3,Length=0.156523740,Units=km
new line.SMT_12293310 bus1=BMT8895249B.1.2.3,bus2=BMT177764541.1.2.3,Phases=3,Linecode=CAB202_3_3_3,Length=0.135262230,Units=km
new line.SMT_12293311 bus1=BMT177764541.1.2.3,bus2=BMT8895251B.1.2.3,Phases=3,Linecode=CAB202_3_3_3,Length=0.092090790,Units=km
new line.SMT_12293312 bus1=BMT8895251B.1.2.3,bus2=BMT8895252B.1.2.3,Phases=3,Linecode=CAB202_3_3_3,Length=0.071039360,Units=km