new load.BT_3000138183_M1 bus1=RML1000240741.1.0,Phases=1,kv=0.127,kW=0.82534,pf=0.92,Vminpu=0.92,Vmaxpu=1.5,model=8,zipv=[0.5,0,0.5,1,0,0,0],daily=RES1_2,status=variable
new load.BT_3000138186_M1 bus1=RML1000240727.2.3.0,Phases=2,kv=0.22,kW=2.47926,pf=0.92,Vminpu=0.92,Vmaxpu=1.5,model=8,zipv=[0.5,0,0.5,1,0,0,0],daily=RES1_2,status=variable
new load.BT_3000138187_M1 bus1=RML1011159841.1.2.0,Phases=2,kv=0.22,kW=0.38808,pf=0.92,Vminpu=0.92,Vmaxpu=1.5,model=8,zipv=[0.5,0,0.5,1,0,0,0],daily=RES1_2,status=variable
new load.BT_3000138188_M1 bus1=RML1000240419.2.0,Phases=1,kv=0.127,kW=1.91722,pf=0.92,Vminpu=0.92,Vmaxpu=1.5,model=8,zipv=[0.5,0,0.5,1,0,0,0],daily=RES1_2,status=variable
new load.BT_3000138189_M1 bus1=RML1000240426.2.0,Phases=1,kv=0.127,kW=1.657,pf=0.92,Vminpu=0.92,Vmaxpu=1.5,model=8,zipv=[0.5,0,0.5,1,0,0,0],daily=RES1_2,status=variable
new load.BT_3000138190_M1 bus1=RML1000241056.2.3.0,Phases=2,kv=0.22,kW=3.235,pf=0.92,Vminpu=0.92,Vmaxpu=1.5,model=8,zipv=[0.5,0,0.5,1,0,0,0],daily=RES1_2,status=variable
new load.BT_3000138191_M1 bus1=RML1000240818.2.0,Phases=1,kv=0.127,kW=0.0098,pf=0.92,Vminpu=0.92,Vmaxpu=1.5,model=8,zipv=[0.5,0,0.5,1,0,0,0],daily=RES1_2,status=variable
new load.BT_3000138192_M1 bus1=RML1000240755.2.0,Phases=1,kv=0.127,kW=1.09196,pf=0.92,Vminpu=0.92,Vmaxpu=1.5,model=8,zipv=[0.5,0,0.5,1,0,0,0],daily=RES1_2,status=variable
new load.BT_3000138193_M1 bus1=RML1000240762.3.1.0,Phases=2,kv=0.22,kW=3.93732,pf=0.92,Vminpu=0.92,Vmaxpu=1.5,model=8,zipv=[0.5,0,0.5,1,0,0,0],daily=RES1_2,status=variable
new load.BT_3000138194_M1 bus1=RML1000240783.1.0,Phases=1,kv=0.127,kW=0.9995,pf=0.92,Vminpu=0.92,Vmaxpu=1.5,model=8,zipv=[0.5,0,0.5,1,0,0,0],daily=RES1_2,status=variable
new load.BT_3000138195_M1 bus1=RML1000240776.2.0,Phases=1,kv=0.127,kW=1.51128,pf=0.92,Vminpu=0.92,Vmaxpu=1.5,model=8,zipv=[0.5,0,0.5,1,0,0,0],daily=RES1_2,status=variable
new load.BT_3000138196_M1 bus1=RML1000240790.2.3.0,Phases=2,kv=0.22,kW=0.0098,pf=0.92,Vminpu=0.92,Vmaxpu=1.5,model=8,zipv=[0.5,0,0.5,1,0,0,0],daily=RES1_2,status=variable
new load.BT_3000138199_M1 bus1=RML1000241063.1.2.0,Phases=2,kv=0.22,kW=1.58616,pf=0.92,Vminpu=0.92,Vmaxpu=1.5,model=8,zipv=[0.5,0,0.5,1,0,0,0],daily=RES1_2,status=variable
new load.BT_3000138201_M1 bus1=RML1000242330.3.1.0,Phases=2,kv=0.22,kW=0.0026,pf=0.92,Vminpu=0.92,Vmaxpu=1.5,model=8,zipv=[0.5,0,0.5,1,0,0,0],daily=COM1_5,status=variable
new load.BT_3000138202_M1 bus1=RML1000241140.3.1.0,Phases=2,kv=0.22,kW=1.5292,pf=0.92,Vminpu=0.92,Vmaxpu=1.5,model=8,zipv=[0.5,0,0.5,1,0,0,0],daily=RES1_2,status=variable
new load.BT_3000138204_M1 bus1=RML1000242449.2.3.0,Phases=2,kv=0.22,kW=1.97746,pf=0.92,Vminpu=0.92,Vmaxpu=1.5,model=8,zipv=[0.5,0,0.5,1,0,0,0],daily=RES1_2,status=variable
new load.BT_3000138205_M1 bus1=RML1000242421.1.2.0,Phases=2,kv=0.22,kW=0.0098,pf=0.92,Vminpu=0.92,Vmaxpu=1.5,model=8,zipv=[0.5,0,0.5,1,0,0,0],daily=RES1_2,status=variable
new load.BT_3000138206_M1 bus1=RML1000242442.2.0,Phases=1,kv=0.127,kW=0.0098,pf=0.92,Vminpu=0.92,Vmaxpu=1.5,model=8,zipv=[0.5,0,0.5,1,0,0,0],daily=RES1_2,status=variable
new load.BT_3000138207_M1 bus1=RML1000242414.3.0,Phases=1,kv=0.127,kW=0.42046,pf=0.92,Vminpu=0.92,Vmaxpu=1.5,model=8,zipv=[0.5,0,0.5,1,0,0,0],daily=RES1_2,status=variable
new load.BT_3000138208_M1 bus1=RML1000242400.3.0,Phases=1,kv=0.127,kW=2.61786,pf=0.92,Vminpu=0.92,Vmaxpu=1.5,model=8,zipv=[0.5,0,0.5,1,0,0,0],daily=RES1_2,status=variable
new load.BT_3000138209_M1 bus1=RML1000242365.2.3.0,Phases=2,kv=0.22,kW=1.3824,pf=0.92,Vminpu=0.92,Vmaxpu=1.5,model=8,zipv=[0.5,0,0.5,1,0,0,0],daily=RES1_2,status=variable
new load.BT_3000138210_M1 bus1=RML1000242015.3.0,Phases=1,kv=0.127,kW=0.48604,pf=0.92,Vminpu=0.92,Vmaxpu=1.5,model=8,zipv=[0.5,0,0.5,1,0,0,0],daily=RES1_2,status=variable
new load.BT_3000138212_M1 bus1=RML1000241973.2.3.0,Phases=2,kv=0.22,kW=1.0733,pf=0.92,Vminpu=0.92,Vmaxpu=1.5,model=8,zipv=[0.5,0,0.5,1,0,0,0],daily=RES1_2,status=variable
new load.BT_3000138214_M1 bus1=RML1000241987.1.0,Phases=1,kv=0.127,kW=1.2085,pf=0.92,Vminpu=0.92,Vmaxpu=1.5,model=8,zipv=[0.5,0,0.5,1,0,0,0],daily=RES1_2,status=variable
new load.BT_3000138215_M1 bus1=RML1000241994.1.0,Phases=1,kv=0.127,kW=0.8024,pf=0.92,Vminpu=0.92,Vmaxpu=1.5,model=8,zipv=[0.5,0,0.5,1,0,0,0],daily=RES1_2,status=variable
new load.BT_3000138216_M1 bus1=RML1000241945.2.0,Phases=1,kv=0.127,kW=0.84206,pf=0.92,Vminpu=0.92,Vmaxpu=1.5,model=8,zipv=[0.5,0,0.5,1,0,0,0],daily=RES1_2,status=variable
new load.BT_3000138217_M1 bus1=RML1000241938.3.1.0,Phases=2,kv=0.22,kW=1.05746,pf=0.92,Vminpu=0.92,Vmaxpu=1.5,model=8,zipv=[0.5,0,0.5,1,0,0,0],daily=RES1_2,status=variable
new load.BT_3000138218_M1 bus1=RML1000241931.2.0,Phases=1,kv=0.127,kW=0.45866,pf=0.92,Vminpu=0.92,Vmaxpu=1.5,model=8,zipv=[0.5,0,0.5,1,0,0,0],daily=RES1_2,status=variable
new load.BT_3000138219_M1 bus1=RML1000241924.3.1.0,Phases=2,kv=0.22,kW=0.61002,pf=0.92,Vminpu=0.92,Vmaxpu=1.5,model=8,zipv=[0.5,0,0.5,1,0,0,0],daily=RES1_2,status=variable
new load.BT_3000138220_M1 bus1=RML1000241917.3.1.0,Phases=2,kv=0.22,kW=1.57364,pf=0.92,Vminpu=0.92,Vmaxpu=1.5,model=8,zipv=[0.5,0,0.5,1,0,0,0],daily=RES1_2,status=variable
new load.BT_3000138221_M1 bus1=RML1000241889.2.0,Phases=1,kv=0.127,kW=0.99206,pf=0.92,Vminpu=0.92,Vmaxpu=1.5,model=8,zipv=[0.5,0,0.5,1,0,0,0],daily=RES1_2,status=variable
new load.BT_3000138222_M1 bus1=RML1000241882.3.1.0,Phases=2,kv=0.22,kW=2.44364,pf=0.92,Vminpu=0.92,Vmaxpu=1.5,model=8,zipv=[0.5,0,0.5,1,0,0,0],daily=RES1_2,status=variable
new load.BT_3000138223_M1 bus1=RML1000241735.2.3.0,Phases=2,kv=0.22,kW=1.89122,pf=0.92,Vminpu=0.92,Vmaxpu=1.5,model=8,zipv=[0.5,0,0.5,1,0,0,0],daily=RES1_2,status=variable
new load.BT_3000138224_M1 bus1=RML1000240902.3.1.0,Phases=2,kv=0.22,kW=2.99044,pf=0.92,Vminpu=0.92,Vmaxpu=1.5,model=8,zipv=[0.5,0,0.5,1,0,0,0],daily=RES1_2,status=variable
new load.BT_3000138225_M1 bus1=RML1000241742.3.0,Phases=1,kv=0.127,kW=0.57554,pf=0.92,Vminpu=0.92,Vmaxpu=1.5,model=8,zipv=[0.5,0,0.5,1,0,0,0],daily=RES1_2,status=variable
new load.BT_3000138226_M1 bus1=RML1000241805.2.0,Phases=1,kv=0.127,kW=1.6414,pf=0.92,Vminpu=0.92,Vmaxpu=1.5,model=8,zipv=[0.5,0,0.5,1,0,0,0],daily=RES1_2,status=variable
new load.BT_3000138227_M1 bus1=RML1000241784.2.0,Phases=1,kv=0.127,kW=1.51242,pf=0.92,Vminpu=0.92,Vmaxpu=1.5,model=8,zipv=[0.5,0,0.5,1,0,0,0],daily=RES1_2,status=variable
new load.BT_3000138228_M1 bus1=RML1000240923.3.0,Phases=1,kv=0.127,kW=2.40746,pf=0.92,Vminpu=0.92,Vmaxpu=1.5,model=8,zipv=[0.5,0,0.5,1,0,0,0],daily=RES1_2,status=variable
new load.BT_3000138229_M1 bus1=RML1000240930.2.0,Phases=1,kv=0.127,kW=0.3716,pf=0.92,Vminpu=0.92,Vmaxpu=1.5,model=8,zipv=[0.5,0,0.5,1,0,0,0],daily=RES1_2,status=variable
new load.BT_3000138231_M1 bus1=RML1000242512.1.2.0,Phases=2,kv=0.22,kW=2.39906,pf=0.92,Vminpu=0.92,Vmaxpu=1.5,model=8,zipv=[0.5,0,0.5,1,0,0,0],daily=RES1_2,status=variable
new load.BT_3000138232_M1 bus1=RML1000242547.3.1.0,Phases=2,kv=0.22,kW=1.09688,pf=0.92,Vminpu=0.92,Vmaxpu=1.5,model=8,zipv=[0.5,0,0.5,1,0,0,0],daily=RES1_2,status=variable
new load.BT_3000138233_M1 bus1=RML1000242540.3.1.0,Phases=2,kv=0.22,kW=0.7151,pf=0.92,Vminpu=0.92,Vmaxpu=1.5,model=8,zipv=[0.5,0,0.5,1,0,0,0],daily=RES1_2,status=variable
new load.BT_3000138234_M1 bus1=RML1000242554.3.0,Phases=1,kv=0.127,kW=1.01692,pf=0.92,Vminpu=0.92,Vmaxpu=1.5,model=8,zipv=[0.5,0,0.5,1,0,0,0],daily=RES1_2,status=variable
new load.BT_3000138235_M1 bus1=RML1000240916.1.2.0,Phases=2,kv=0.22,kW=0.2675,pf=0.92,Vminpu=0.92,Vmaxpu=1.5,model=8,zipv=[0.5,0,0.5,1,0,0,0],daily=RES1_2,status=variable
new load.BT_3000138237_M1 bus1=RML1000242708.3.0,Phases=1,kv=0.127,kW=0.07592,pf=0.92,Vminpu=0.92,Vmaxpu=1.5,model=8,zipv=[0.5,0,0.5,1,0,0,0],daily=RES1_2,status=variable
new load.BT_3000138238_M1 bus1=RML1000242694.2.0,Phases=1,kv=0.127,kW=1.93806,pf=0.92,Vminpu=0.92,Vmaxpu=1.5,model=8,zipv=[0.5,0,0.5,1,0,0,0],daily=RES1_2,status=variable
new load.BT_3000138239_M1 bus1=RML1000241728.3.0,Phases=1,kv=0.127,kW=0.2357,pf=0.92,Vminpu=0.92,Vmaxpu=1.5,model=8,zipv=[0.5,0,0.5,1,0,0,0],daily=COM1_5,status=variable
new load.BT_3000138240_M1 bus1=RML1000242470.1.0,Phases=1,kv=0.127,kW=1.43634,pf=0.92,Vminpu=0.92,Vmaxpu=1.5,model=8,zipv=[0.5,0,0.5,1,0,0,0],daily=RES1_2,status=variable
new load.BT_3000138241_M1 bus1=RML1000242526.3.0,Phases=1,kv=0.127,kW=1.59876,pf=0.92,Vminpu=0.92,Vmaxpu=1.5,model=8,zipv=[0.5,0,0.5,1,0,0,0],daily=RES1_2,status=variable
new load.BT_3000138242_M1 bus1=RML1010746902.1.0,Phases=1,kv=0.127,kW=2.90174,pf=0.92,Vminpu=0.92,Vmaxpu=1.5,model=8,zipv=[0.5,0,0.5,1,0,0,0],daily=RES1_2,status=variable
new load.BT_3000138243_M1 bus1=RML1000242715.1.0,Phases=1,kv=0.127,kW=3.26424,pf=0.92,Vminpu=0.92,Vmaxpu=1.5,model=8,zipv=[0.5,0,0.5,1,0,0,0],daily=RES1_2,status=variable
new load.BT_3000138244_M1 bus1=RML1000242736.3.0,Phases=1,kv=0.127,kW=1.2391,pf=0.92,Vminpu=0.92,Vmaxpu=1.5,model=8,zipv=[0.5,0,0.5,1,0,0,0],daily=RES1_2,status=variable
new load.BT_3000138245_M1 bus1=RML1000242729.2.0,Phases=1,kv=0.127,kW=1.3719,pf=0.92,Vminpu=0.92,Vmaxpu=1.5,model=8,zipv=[0.5,0,0.5,1,0,0,0],daily=RES1_2,status=variable
new load.BT_3000138247_M1 bus1=RML1000241819.1.2.0,Phases=2,kv=0.22,kW=1.18758,pf=0.92,Vminpu=0.92,Vmaxpu=1.5,model=8,zipv=[0.5,0,0.5,1,0,0,0],daily=RES1_2,status=variable
new load.BT_3000138248_M1 bus1=RML1000241833.2.0,Phases=1,kv=0.127,kW=1.27296,pf=0.92,Vminpu=0.92,Vmaxpu=1.5,model=8,zipv=[0.5,0,0.5,1,0,0,0],daily=RES1_2,status=variable
new load.BT_3000138249_M1 bus1=RML1000241840.3.0,Phases=1,kv=0.127,kW=1.82458,pf=0.92,Vminpu=0.92,Vmaxpu=1.5,model=8,zipv=[0.5,0,0.5,1,0,0,0],daily=RES1_2,status=variable
new load.BT_3000138250_M1 bus1=RML1000241847.1.0,Phases=1,kv=0.127,kW=0.35286,pf=0.92,Vminpu=0.92,Vmaxpu=1.5,model=8,zipv=[0.5,0,0.5,1,0,0,0],daily=RES1_2,status=variable
new load.BT_3000138251_M1 bus1=RML1000241854.3.0,Phases=1,kv=0.127,kW=2.06704,pf=0.92,Vminpu=0.92,Vmaxpu=1.5,model=8,zipv=[0.5,0,0.5,1,0,0,0],daily=RES1_2,status=variable
new load.BT_3000138252_M1 bus1=RML1000241861.2.0,Phases=1,kv=0.127,kW=0.32056,pf=0.92,Vminpu=0.92,Vmaxpu=1.5,model=8,zipv=[0.5,0,0.5,1,0,0,0],daily=RES1_2,status=variable
new load.BT_3000138253_M1 bus1=RML1000241896.2.0,Phases=1,kv=0.127,kW=1.5133,pf=0.92,Vminpu=0.92,Vmaxpu=1.5,model=8,zipv=[0.5,0,0.5,1,0,0,0],daily=RES1_2,status=variable
new load.BT_3000138254_M1 bus1=RML1000241903.1.0,Phases=1,kv=0.127,kW=0.75582,pf=0.92,Vminpu=0.92,Vmaxpu=1.5,model=8,zipv=[0.5,0,0.5,1,0,0,0],daily=RES1_2,status=variable
new load.BT_3000138255_M1 bus1=RML1000241910.2.3.0,Phases=2,kv=0.22,kW=1.30832,pf=0.92,Vminpu=0.92,Vmaxpu=1.5,model=8,zipv=[0.5,0,0.5,1,0,0,0],daily=RES1_2,status=variable
new load.BT_3000138256_M1 bus1=RML1000242029.2.0,Phases=1,kv=0.127,kW=1.4084,pf=0.92,Vminpu=0.92,Vmaxpu=1.5,model=8,zipv=[0.5,0,0.5,1,0,0,0],daily=RES1_2,status=variable
new load.BT_3000138257_M1 bus1=RML1000242498.3.0,Phases=1,kv=0.127,kW=1.10528,pf=0.92,Vminpu=0.92,Vmaxpu=1.5,model=8,zipv=[0.5,0,0.5,1,0,0,0],daily=RES1_2,status=variable
new load.BT_3000138258_M1 bus1=RML1000242561.3.0,Phases=1,kv=0.127,kW=1.20232,pf=0.92,Vminpu=0.92,Vmaxpu=1.5,model=8,zipv=[0.5,0,0.5,1,0,0,0],daily=RES1_2,status=variable
new load.BT_3000138259_M1 bus1=RML1000240937.2.3.0,Phases=2,kv=0.22,kW=2.01188,pf=0.92,Vminpu=0.92,Vmaxpu=1.5,model=8,zipv=[0.5,0,0.5,1,0,0,0],daily=RES1_2,status=variable
new load.BT_3000138260_M1 bus1=RML1000242617.3.0,Phases=1,kv=0.127,kW=1.67162,pf=0.92,Vminpu=0.92,Vmaxpu=1.5,model=8,zipv=[0.5,0,0.5,1,0,0,0],daily=RES1_2,status=variable
new load.BT_3000138261_M1 bus1=RML1000242645.3.0,Phases=1,kv=0.127,kW=1.24694,pf=0.92,Vminpu=0.92,Vmaxpu=1.5,model=8,zipv=[0.5,0,0.5,1,0,0,0],daily=RES1_2,status=variable
new load.BT_3000138262_M1 bus1=RML1000242652.1.2.0,Phases=2,kv=0.22,kW=1.74026,pf=0.92,Vminpu=0.92,Vmaxpu=1.5,model=8,zipv=[0.5,0,0.5,1,0,0,0],daily=RES1_2,status=variable
new load.BT_3000138263_M1 bus1=RML1000242659.2.0,Phases=1,kv=0.127,kW=1.4197,pf=0.92,Vminpu=0.92,Vmaxpu=1.5,model=8,zipv=[0.5,0,0.5,1,0,0,0],daily=RES1_2,status=variable
new load.BT_3000138264_M1 bus1=RML1000242673.1.0,Phases=1,kv=0.127,kW=1.41138,pf=0.92,Vminpu=0.92,Vmaxpu=1.5,model=8,zipv=[0.5,0,0.5,1,0,0,0],daily=RES1_2,status=variable
new load.BT_3000138265_M1 bus1=RML1000242680.3.0,Phases=1,kv=0.127,kW=0.0098,pf=0.92,Vminpu=0.92,Vmaxpu=1.5,model=8,zipv=[0.5,0,0.5,1,0,0,0],daily=RES1_2,status=variable
new load.BT_3000138266_M1 bus1=RML1000242603.1.2.0,Phases=2,kv=0.22,kW=0.97314,pf=0.92,Vminpu=0.92,Vmaxpu=1.5,model=8,zipv=[0.5,0,0.5,1,0,0,0],daily=RES1_2,status=variable
new load.BT_3000138267_M1 bus1=RML1000242666.3.0,Phases=1,kv=0.127,kW=0.87656,pf=0.92,Vminpu=0.92,Vmaxpu=1.5,model=8,zipv=[0.5,0,0.5,1,0,0,0],daily=RES1_2,status=variable
new load.BT_3000138268_M1 bus1=RML1000242589.1.0,Phases=1,kv=0.127,kW=0.14466,pf=0.92,Vminpu=0.92,Vmaxpu=1.5,model=8,zipv=[0.5,0,0.5,1,0,0,0],daily=RES1_2,status=variable
new load.BT_3000138269_M1 bus1=RML1000242638.2.0,Phases=1,kv=0.127,kW=1.66628,pf=0.92,Vminpu=0.92,Vmaxpu=1.5,model=8,zipv=[0.5,0,0.5,1,0,0,0],daily=RES1_2,status=variable
new load.BT_3000138270_M1 bus1=RML1000242624.1.0,Phases=1,kv=0.127,kW=1.27926,pf=0.92,Vminpu=0.92,Vmaxpu=1.5,model=8,zipv=[0.5,0,0.5,1,0,0,0],daily=RES1_2,status=variable
new load.BT_3000138271_M1 bus1=RML1000242610.1.2.0,Phases=2,kv=0.22,kW=1.18006,pf=0.92,Vminpu=0.92,Vmaxpu=1.5,model=8,zipv=[0.5,0,0.5,1,0,0,0],daily=RES1_2,status=variable
new load.BT_3000138272_M1 bus1=RML1000242582.1.2.0,Phases=2,kv=0.22,kW=0.87324,pf=0.92,Vminpu=0.92,Vmaxpu=1.5,model=8,zipv=[0.5,0,0.5,1,0,0,0],daily=RES1_2,status=variable
new load.BT_3000138273_M1 bus1=RML1000242575.2.0,Phases=1,kv=0.127,kW=1.13968,pf=0.92,Vminpu=0.92,Vmaxpu=1.5,model=8,zipv=[0.5,0,0.5,1,0,0,0],daily=RES1_2,status=variable
new load.BT_3000138274_M1 bus1=RML1000243569.3.0,Phases=1,kv=0.127,kW=1.8786,pf=0.92,Vminpu=0.92,Vmaxpu=1.5,model=8,zipv=[0.5,0,0.5,1,0,0,0],daily=RES1_2,status=variable
new load.BT_3000138275_M1 bus1=RML1000243576.1.2.0,Phases=2,kv=0.22,kW=1.88702,pf=0.92,Vminpu=0.92,Vmaxpu=1.5,model=8,zipv=[0.5,0,0.5,1,0,0,0],daily=RES1_2,status=variable
new load.BT_3000138276_M1 bus1=RML1000243590.1.0,Phases=1,kv=0.127,kW=1.26052,pf=0.92,Vminpu=0.92,Vmaxpu=1.5,model=8,zipv=[0.5,0,0.5,1,0,0,0],daily=RES1_2,status=variable
new load.BT_3000138277_M1 bus1=RML1000243597.2.0,Phases=1,kv=0.127,kW=1.04504,pf=0.92,Vminpu=0.92,Vmaxpu=1.5,model=8,zipv=[0.5,0,0.5,1,0,0,0],daily=RES1_2,status=variable
new load.BT_3000138278_M1 bus1=RML1000243611.3.0,Phases=1,kv=0.127,kW=1.06166,pf=0.92,Vminpu=0.92,Vmaxpu=1.5,model=8,zipv=[0.5,0,0.5,1,0,0,0],daily=RES1_2,status=variable
new load.BT_3000138279_M1 bus1=RML1000243583.1.2.0,Phases=2,kv=0.22,kW=1.18032,pf=0.92,Vminpu=0.92,Vmaxpu=1.5,model=8,zipv=[0.5,0,0.5,1,0,0,0],daily=RES1_2,status=variable
new load.BT_3000138280_M1 bus1=RML1000242043.1.2.0,Phases=2,kv=0.22,kW=0.7017,pf=0.92,Vminpu=0.92,Vmaxpu=1.5,model=8,zipv=[0.5,0,0.5,1,0,0,0],daily=RES1_2,status=variable
new load.BT_3000138281_M1 bus1=RML1000241952.3.0,Phases=1,kv=0.127,kW=0.43614,pf=0.92,Vminpu=0.92,Vmaxpu=1.5,model=8,zipv=[0.5,0,0.5,1,0,0,0],daily=RES1_2,status=variable
new load.BT_3000138282_M1 bus1=RML1000242001.2.0,Phases=1,kv=0.127,kW=0.0098,pf=0.92,Vminpu=0.92,Vmaxpu=1.5,model=8,zipv=[0.5,0,0.5,1,0,0,0],daily=RES1_2,status=variable
new load.BT_3000138283_M1 bus1=RML1000242001.2.0,Phases=1,kv=0.127,kW=2.17744,pf=0.92,Vminpu=0.92,Vmaxpu=1.5,model=8,zipv=[0.5,0,0.5,1,0,0,0],daily=RES1_2,status=variable
new load.BT_3000138284_M1 bus1=RML1000241966.3.0,Phases=1,kv=0.127,kW=0.98786,pf=0.92,Vminpu=0.92,Vmaxpu=1.5,model=8,zipv=[0.5,0,0.5,1,0,0,0],daily=RES1_2,status=variable
new load.BT_3000138287_M1 bus1=RML1000242358.1.0,Phases=1,kv=0.127,kW=0.0479,pf=0.92,Vminpu=0.92,Vmaxpu=1.5,model=8,zipv=[0.5,0,0.5,1,0,0,0],daily=RES1_2,status=variable
new load.BT_3000138288_M1 bus1=RML1000242393.2.0,Phases=1,kv=0.127,kW=2.13166,pf=0.92,Vminpu=0.92,Vmaxpu=1.5,model=8,zipv=[0.5,0,0.5,1,0,0,0],daily=RES1_2,status=variable
new load.BT_3000138289_M1 bus1=RML1000242386.1.0,Phases=1,kv=0.127,kW=1.20536,pf=0.92,Vminpu=0.92,Vmaxpu=1.5,model=8,zipv=[0.5,0,0.5,1,0,0,0],daily=RES1_2,status=variable
new load.BT_3000138290_M1 bus1=RML1000242407.2.3.0,Phases=2,kv=0.22,kW=2.89876,pf=0.92,Vminpu=0.92,Vmaxpu=1.5,model=8,zipv=[0.5,0,0.5,1,0,0,0],daily=RES1_2,status=variable
new load.BT_3000138292_M1 bus1=RML1000242428.3.1.0,Phases=2,kv=0.22,kW=4.69192,pf=0.92,Vminpu=0.92,Vmaxpu=1.5,model=8,zipv=[0.5,0,0.5,1,0,0,0],daily=RES1_2,status=variable
new load.BT_3000138295_M1 bus1=RML1010135423.1.2.0,Phases=2,kv=0.22,kW=0.77438,pf=0.92,Vminpu=0.92,Vmaxpu=1.5,model=8,zipv=[0.5,0,0.5,1,0,0,0],daily=RES1_2,status=variable
new load.BT_3000138296_M1 bus1=RML1000243891.2.3.0,Phases=2,kv=0.22,kW=0.5265,pf=0.92,Vminpu=0.92,Vmaxpu=1.5,model=8,zipv=[0.5,0,0.5,1,0,0,0],daily=RES1_2,status=variable
new load.BT_3000138297_M1 bus1=RML1000243905.3.1.0,Phases=2,kv=0.22,kW=0.0416,pf=0.92,Vminpu=0.92,Vmaxpu=1.5,model=8,zipv=[0.5,0,0.5,1,0,0,0],daily=RES1_2,status=variable
new load.BT_3000138298_M1 bus1=RML1000243912.1.2.0,Phases=2,kv=0.22,kW=1.71846,pf=0.92,Vminpu=0.92,Vmaxpu=1.5,model=8,zipv=[0.5,0,0.5,1,0,0,0],daily=RES1_2,status=variable
new load.BT_3000138299_M1 bus1=RML1000244017.2.0,Phases=1,kv=0.127,kW=0.0098,pf=0.92,Vminpu=0.92,Vmaxpu=1.5,model=8,zipv=[0.5,0,0.5,1,0,0,0],daily=RES1_2,status=variable
new load.BT_3000138300_M1 bus1=RML1000243723.1.0,Phases=1,kv=0.127,kW=1.42478,pf=0.92,Vminpu=0.92,Vmaxpu=1.5,model=8,zipv=[0.5,0,0.5,1,0,0,0],daily=RES1_2,status=variable
new load.BT_3000138301_M1 bus1=RML1000243702.2.3.0,Phases=2,kv=0.22,kW=0.0098,pf=0.92,Vminpu=0.92,Vmaxpu=1.5,model=8,zipv=[0.5,0,0.5,1,0,0,0],daily=RES1_2,status=variable
new load.BT_3000138302_M1 bus1=RML1000243681.2.0,Phases=1,kv=0.127,kW=0.0098,pf=0.92,Vminpu=0.92,Vmaxpu=1.5,model=8,zipv=[0.5,0,0.5,1,0,0,0],daily=RES1_2,status=variable
new load.BT_3000138303_M1 bus1=RML1010795837.1.2.0,Phases=2,kv=0.22,kW=1.66014,pf=0.92,Vminpu=0.92,Vmaxpu=1.5,model=8,zipv=[0.5,0,0.5,1,0,0,0],daily=RES1_2,status=variable
new load.BT_3000138304_M1 bus1=RML1000243653.1.0,Phases=1,kv=0.127,kW=1.51566,pf=0.92,Vminpu=0.92,Vmaxpu=1.5,model=8,zipv=[0.5,0,0.5,1,0,0,0],daily=RES1_2,status=variable
new load.BT_3000138305_M1 bus1=RML1000243625.3.0,Phases=1,kv=0.127,kW=0.2998,pf=0.92,Vminpu=0.92,Vmaxpu=1.5,model=8,zipv=[0.5,0,0.5,1,0,0,0],daily=RES1_2,status=variable
new load.BT_3000138307_M1 bus1=RML1000243618.1.0,Phases=1,kv=0.127,kW=0.0098,pf=0.92,Vminpu=0.92,Vmaxpu=1.5,model=8,zipv=[0.5,0,0.5,1,0,0,0],daily=RES1_2,status=variable
new load.BT_3000138308_M1 bus1=RML1000243527.2.0,Phases=1,kv=0.127,kW=0.99898,pf=0.92,Vminpu=0.92,Vmaxpu=1.5,model=8,zipv=[0.5,0,0.5,1,0,0,0],daily=RES1_2,status=variable
new load.BT_3000138309_M1 bus1=RML1000243513.2.0,Phases=1,kv=0.127,kW=1.4239,pf=0.92,Vminpu=0.92,Vmaxpu=1.5,model=8,zipv=[0.5,0,0.5,1,0,0,0],daily=RES1_2,status=variable
new load.BT_3000138310_M1 bus1=RML1000243471.2.0,Phases=1,kv=0.127,kW=0.0098,pf=0.92,Vminpu=0.92,Vmaxpu=1.5,model=8,zipv=[0.5,0,0.5,1,0,0,0],daily=RES1_2,status=variable
new load.BT_3000138312_M1 bus1=RML1010095866.1.2.0,Phases=2,kv=0.22,kW=1.15018,pf=0.92,Vminpu=0.92,Vmaxpu=1.5,model=8,zipv=[0.5,0,0.5,1,0,0,0],daily=RES1_2,status=variable
new load.BT_3000138313_M1 bus1=RML1000243485.3.0,Phases=1,kv=0.127,kW=0.637,pf=0.92,Vminpu=0.92,Vmaxpu=1.5,model=8,zipv=[0.5,0,0.5,1,0,0,0],daily=RES1_2,status=variable
new load.BT_3000138314_M1 bus1=RML1000243464.2.3.0,Phases=2,kv=0.22,kW=1.21182,pf=0.92,Vminpu=0.92,Vmaxpu=1.5,model=8,zipv=[0.5,0,0.5,1,0,0,0],daily=RES1_2,status=variable
new load.BT_3000138315_M1 bus1=RML1000243457.1.0,Phases=1,kv=0.127,kW=0.8067,pf=0.92,Vminpu=0.92,Vmaxpu=1.5,model=8,zipv=[0.5,0,0.5,1,0,0,0],daily=RES1_2,status=variable
new load.BT_3000138316_M1 bus1=RML1000243443.1.0,Phases=1,kv=0.127,kW=0.88786,pf=0.92,Vminpu=0.92,Vmaxpu=1.5,model=8,zipv=[0.5,0,0.5,1,0,0,0],daily=RES1_2,status=variable
new load.BT_3000138318_M1 bus1=RML1000243415.2.0,Phases=1,kv=0.127,kW=0.70048,pf=0.92,Vminpu=0.92,Vmaxpu=1.5,model=8,zipv=[0.5,0,0.5,1,0,0,0],daily=RES1_2,status=variable
new load.BT_3000138319_M1 bus1=RML1000243408.2.3.0,Phases=2,kv=0.22,kW=0.95344,pf=0.92,Vminpu=0.92,Vmaxpu=1.5,model=8,zipv=[0.5,0,0.5,1,0,0,0],daily=RES1_2,status=variable
new load.BT_3000138320_M1 bus1=RML1000243394.1.2.3.0,Phases=3,kv=0.22,kW=1.5415,pf=0.92,Vminpu=0.92,Vmaxpu=1.5,model=8,zipv=[0.5,0,0.5,1,0,0,0],daily=RES1_2,status=variable
new load.BT_3000138321_M1 bus1=RML154394660.1.2.0,Phases=2,kv=0.24,kW=0.0098,pf=0.92,Vminpu=0.92,Vmaxpu=1.5,model=8,zipv=[0.5,0,0.5,1,0,0,0],daily=RES1_2,status=variable
new load.BT_3000138322_M1 bus1=RML1000243555.1.2.3.0,Phases=3,kv=0.22,kW=0.0098,pf=0.92,Vminpu=0.92,Vmaxpu=1.5,model=8,zipv=[0.5,0,0.5,1,0,0,0],daily=RES1_2,status=variable
new load.BT_3000138323_M1 bus1=RML1000243555.1.2.3.0,Phases=3,kv=0.22,kW=0.0026,pf=0.92,Vminpu=0.92,Vmaxpu=1.5,model=8,zipv=[0.5,0,0.5,1,0,0,0],daily=COM1_5,status=variable
new load.BT_3000138324_M1 bus1=RML1010922347.1.2.0,Phases=2,kv=0.22,kW=0.19464,pf=0.92,Vminpu=0.92,Vmaxpu=1.5,model=8,zipv=[0.5,0,0.5,1,0,0,0],daily=RES1_2,status=variable
new load.BT_3000138325_M1 bus1=RML1000243429.3.0,Phases=1,kv=0.127,kW=0.0098,pf=0.92,Vminpu=0.92,Vmaxpu=1.5,model=8,zipv=[0.5,0,0.5,1,0,0,0],daily=RES1_2,status=variable
new load.BT_3000138326_M1 bus1=RML1000243450.2.0,Phases=1,kv=0.127,kW=0.89302,pf=0.92,Vminpu=0.92,Vmaxpu=1.5,model=8,zipv=[0.5,0,0.5,1,0,0,0],daily=RES1_2,status=variable
new load.BT_3000138327_M1 bus1=RML3133855.1.2.0,Phases=2,kv=0.24,kW=0.0026,pf=0.92,Vminpu=0.92,Vmaxpu=1.5,model=8,zipv=[0.5,0,0.5,1,0,0,0],daily=COM1_5,status=variable
new load.BT_3000138328_M1 bus1=RML1000243548.2.3.0,Phases=2,kv=0.22,kW=4.5531,pf=0.92,Vminpu=0.92,Vmaxpu=1.5,model=8,zipv=[0.5,0,0.5,1,0,0,0],daily=RES1_2,status=variable
new load.BT_3000138329_M1 bus1=RML1000243492.1.2.0,Phases=2,kv=0.22,kW=0.0098,pf=0.92,Vminpu=0.92,Vmaxpu=1.5,model=8,zipv=[0.5,0,0.5,1,0,0,0],daily=RES1_2,status=variable
new load.BT_3000138330_M1 bus1=RML1000243499.1.2.0,Phases=2,kv=0.22,kW=0.62036,pf=0.92,Vminpu=0.92,Vmaxpu=1.5,model=8,zipv=[0.5,0,0.5,1,0,0,0],daily=RES1_2,status=variable
new load.BT_3000138331_M1 bus1=RML1000243506.2.0,Phases=1,kv=0.127,kW=0.65364,pf=0.92,Vminpu=0.92,Vmaxpu=1.5,model=8,zipv=[0.5,0,0.5,1,0,0,0],daily=RES1_2,status=variable
new load.BT_3000138332_M1 bus1=RML1010135427.3.0,Phases=1,kv=0.127,kW=0.0098,pf=0.92,Vminpu=0.92,Vmaxpu=1.5,model=8,zipv=[0.5,0,0.5,1,0,0,0],daily=RES1_2,status=variable
new load.BT_3000138333_M1 bus1=RML1000243639.1.0,Phases=1,kv=0.127,kW=0.49664,pf=0.92,Vminpu=0.92,Vmaxpu=1.5,model=8,zipv=[0.5,0,0.5,1,0,0,0],daily=RES1_2,status=variable
new load.BT_3000138334_M1 bus1=RML1000243884.1.2.0,Phases=2,kv=0.22,kW=0.98146,pf=0.92,Vminpu=0.92,Vmaxpu=1.5,model=8,zipv=[0.5,0,0.5,1,0,0,0],daily=RES1_2,status=variable
new load.BT_3000138335_M1 bus1=RML1010093557.1.0,Phases=1,kv=0.127,kW=0.10814,pf=0.92,Vminpu=0.92,Vmaxpu=1.5,model=8,zipv=[0.5,0,0.5,1,0,0,0],daily=RES1_2,status=variable
new load.BT_3000138336_M1 bus1=RML1000243849.3.0,Phases=1,kv=0.127,kW=0.5173,pf=0.92,Vminpu=0.92,Vmaxpu=1.5,model=8,zipv=[0.5,0,0.5,1,0,0,0],daily=RES1_2,status=variable
new load.BT_3000138337_M1 bus1=RML1000243758.3.1.0,Phases=2,kv=0.22,kW=0.98566,pf=0.92,Vminpu=0.92,Vmaxpu=1.5,model=8,zipv=[0.5,0,0.5,1,0,0,0],daily=RES1_2,status=variable
new load.BT_3000138338_M1 bus1=RML1000243744.2.0,Phases=1,kv=0.127,kW=0.4611,pf=0.92,Vminpu=0.92,Vmaxpu=1.5,model=8,zipv=[0.5,0,0.5,1,0,0,0],daily=RES1_2,status=variable
new load.BT_3000138339_M1 bus1=RML1000243765.2.0,Phases=1,kv=0.127,kW=0.61826,pf=0.92,Vminpu=0.92,Vmaxpu=1.5,model=8,zipv=[0.5,0,0.5,1,0,0,0],daily=RES1_2,status=variable
new load.BT_3000138340_M1 bus1=RML1000243772.2.0,Phases=1,kv=0.127,kW=1.1004,pf=0.92,Vminpu=0.92,Vmaxpu=1.5,model=8,zipv=[0.5,0,0.5,1,0,0,0],daily=RES1_2,status=variable
new load.BT_3000138341_M1 bus1=RML1000243786.3.0,Phases=1,kv=0.127,kW=0.06584,pf=0.92,Vminpu=0.92,Vmaxpu=1.5,model=8,zipv=[0.5,0,0.5,1,0,0,0],daily=RES1_2,status=variable
new load.BT_3000138342_M1 bus1=RML1000243800.1.0,Phases=1,kv=0.127,kW=0.73376,pf=0.92,Vminpu=0.92,Vmaxpu=1.5,model=8,zipv=[0.5,0,0.5,1,0,0,0],daily=RES1_2,status=variable
new load.BT_3000138343_M1 bus1=RML1000243835.1.0,Phases=1,kv=0.127,kW=1.07218,pf=0.92,Vminpu=0.92,Vmaxpu=1.5,model=8,zipv=[0.5,0,0.5,1,0,0,0],daily=RES1_2,status=variable
new load.BT_3000138344_M1 bus1=RML1000243660.2.3.0,Phases=2,kv=0.22,kW=2.2826,pf=0.92,Vminpu=0.92,Vmaxpu=1.5,model=8,zipv=[0.5,0,0.5,1,0,0,0],daily=RES1_2,status=variable
new load.BT_3000138345_M1 bus1=RML1000243674.2.0,Phases=1,kv=0.127,kW=0.36748,pf=0.92,Vminpu=0.92,Vmaxpu=1.5,model=8,zipv=[0.5,0,0.5,1,0,0,0],daily=RES1_2,status=variable
new load.BT_3000138347_M1 bus1=RML1000243695.2.3.0,Phases=2,kv=0.22,kW=0.82664,pf=0.92,Vminpu=0.92,Vmaxpu=1.5,model=8,zipv=[0.5,0,0.5,1,0,0,0],daily=RES1_2,status=variable
new load.BT_3000138348_M1 bus1=RML1000243709.2.0,Phases=1,kv=0.127,kW=0.0098,pf=0.92,Vminpu=0.92,Vmaxpu=1.5,model=8,zipv=[0.5,0,0.5,1,0,0,0],daily=RES1_2,status=variable
new load.BT_3000138349_M1 bus1=RML1000243716.3.0,Phases=1,kv=0.127,kW=1.6864,pf=0.92,Vminpu=0.92,Vmaxpu=1.5,model=8,zipv=[0.5,0,0.5,1,0,0,0],daily=RES1_2,status=variable
new load.BT_3000138350_M1 bus1=RML1000244073.1.0,Phases=1,kv=0.127,kW=0.65048,pf=0.92,Vminpu=0.92,Vmaxpu=1.5,model=8,zipv=[0.5,0,0.5,1,0,0,0],daily=RES1_2,status=variable
new load.BT_3000138351_M1 bus1=RML1000244059.3.0,Phases=1,kv=0.127,kW=0.6651,pf=0.92,Vminpu=0.92,Vmaxpu=1.5,model=8,zipv=[0.5,0,0.5,1,0,0,0],daily=RES1_2,status=variable
new load.BT_3000138352_M1 bus1=RML1000244213.1.0,Phases=1,kv=0.127,kW=1.21884,pf=0.92,Vminpu=0.92,Vmaxpu=1.5,model=8,zipv=[0.5,0,0.5,1,0,0,0],daily=RES1_2,status=variable
new load.BT_3000138353_M1 bus1=RML1000244241.1.0,Phases=1,kv=0.127,kW=0.0098,pf=0.92,Vminpu=0.92,Vmaxpu=1.5,model=8,zipv=[0.5,0,0.5,1,0,0,0],daily=RES1_2,status=variable
new load.BT_3000138354_M1 bus1=RML1000244255.2.0,Phases=1,kv=0.127,kW=0.0098,pf=0.92,Vminpu=0.92,Vmaxpu=1.5,model=8,zipv=[0.5,0,0.5,1,0,0,0],daily=RES1_2,status=variable
new load.BT_3000138355_M1 bus1=RML1000244269.2.0,Phases=1,kv=0.127,kW=0.42572,pf=0.92,Vminpu=0.92,Vmaxpu=1.5,model=8,zipv=[0.5,0,0.5,1,0,0,0],daily=RES1_2,status=variable
new load.BT_3000138356_M1 bus1=RML1000244290.3.1.0,Phases=2,kv=0.22,kW=0.93366,pf=0.92,Vminpu=0.92,Vmaxpu=1.5,model=8,zipv=[0.5,0,0.5,1,0,0,0],daily=RES1_2,status=variable
new load.BT_3000138357_M1 bus1=RML1000245305.3.1.0,Phases=2,kv=0.22,kW=2.78208,pf=0.92,Vminpu=0.92,Vmaxpu=1.5,model=8,zipv=[0.5,0,0.5,1,0,0,0],daily=RES1_2,status=variable
new load.BT_3000138358_M1 bus1=RML1000245319.3.1.0,Phases=2,kv=0.22,kW=0.86614,pf=0.92,Vminpu=0.92,Vmaxpu=1.5,model=8,zipv=[0.5,0,0.5,1,0,0,0],daily=RES1_2,status=variable
new load.BT_3000138359_M1 bus1=RML1000244248.1.2.0,Phases=2,kv=0.22,kW=1.23426,pf=0.92,Vminpu=0.92,Vmaxpu=1.5,model=8,zipv=[0.5,0,0.5,1,0,0,0],daily=RES1_2,status=variable
new load.BT_3000138360_M1 bus1=RML1000244283.2.0,Phases=1,kv=0.127,kW=1.2866,pf=0.92,Vminpu=0.92,Vmaxpu=1.5,model=8,zipv=[0.5,0,0.5,1,0,0,0],daily=RES1_2,status=variable
new load.BT_3000138361_M1 bus1=RML1000245298.3.1.0,Phases=2,kv=0.22,kW=2.64232,pf=0.92,Vminpu=0.92,Vmaxpu=1.5,model=8,zipv=[0.5,0,0.5,1,0,0,0],daily=RES1_2,status=variable
new load.BT_3000138362_M1 bus1=RML1000244066.1.2.0,Phases=2,kv=0.22,kW=3.38272,pf=0.92,Vminpu=0.92,Vmaxpu=1.5,model=8,zipv=[0.5,0,0.5,1,0,0,0],daily=RES1_2,status=variable
new load.BT_3000138363_M1 bus1=RML1000244199.3.0,Phases=1,kv=0.127,kW=2.77698,pf=0.92,Vminpu=0.92,Vmaxpu=1.5,model=8,zipv=[0.5,0,0.5,1,0,0,0],daily=RES1_2,status=variable
new load.BT_3000138364_M1 bus1=RML1000244234.3.0,Phases=1,kv=0.127,kW=0.98138,pf=0.92,Vminpu=0.92,Vmaxpu=1.5,model=8,zipv=[0.5,0,0.5,1,0,0,0],daily=RES1_2,status=variable
new load.BT_3000138365_M1 bus1=RML1000245487.1.2.0,Phases=2,kv=0.22,kW=2.34942,pf=0.92,Vminpu=0.92,Vmaxpu=1.5,model=8,zipv=[0.5,0,0.5,1,0,0,0],daily=RES1_2,status=variable
new load.BT_3000138366_M1 bus1=RML1000245494.2.0,Phases=1,kv=0.127,kW=0.43014,pf=0.92,Vminpu=0.92,Vmaxpu=1.5,model=8,zipv=[0.5,0,0.5,1,0,0,0],daily=RES1_2,status=variable
new load.BT_3000138367_M1 bus1=RML1000245508.2.0,Phases=1,kv=0.127,kW=0.0098,pf=0.92,Vminpu=0.92,Vmaxpu=1.5,model=8,zipv=[0.5,0,0.5,1,0,0,0],daily=RES1_2,status=variable
new load.BT_3000138368_M1 bus1=RML1000245515.2.0,Phases=1,kv=0.127,kW=3.66118,pf=0.92,Vminpu=0.92,Vmaxpu=1.5,model=8,zipv=[0.5,0,0.5,1,0,0,0],daily=RES1_2,status=variable
new load.BT_3000138369_M1 bus1=RML1000245522.2.0,Phases=1,kv=0.127,kW=0.07172,pf=0.92,Vminpu=0.92,Vmaxpu=1.5,model=8,zipv=[0.5,0,0.5,1,0,0,0],daily=RES1_2,status=variable
new load.BT_3000138370_M1 bus1=RML1000245564.3.0,Phases=1,kv=0.127,kW=2.84002,pf=0.92,Vminpu=0.92,Vmaxpu=1.5,model=8,zipv=[0.5,0,0.5,1,0,0,0],daily=RES1_2,status=variable
new load.BT_3000138371_M1 bus1=RML1000245585.3.0,Phases=1,kv=0.127,kW=2.14398,pf=0.92,Vminpu=0.92,Vmaxpu=1.5,model=8,zipv=[0.5,0,0.5,1,0,0,0],daily=RES1_2,status=variable
new load.BT_3000138372_M1 bus1=RML1000245571.1.0,Phases=1,kv=0.127,kW=0.88754,pf=0.92,Vminpu=0.92,Vmaxpu=1.5,model=8,zipv=[0.5,0,0.5,1,0,0,0],daily=RES1_2,status=variable
new load.BT_3000138373_M1 bus1=RML1000245403.3.0,Phases=1,kv=0.127,kW=0.0098,pf=0.92,Vminpu=0.92,Vmaxpu=1.5,model=8,zipv=[0.5,0,0.5,1,0,0,0],daily=RES1_2,status=variable
new load.BT_3000138375_M1 bus1=RML1000245340.2.0,Phases=1,kv=0.127,kW=1.1635,pf=0.92,Vminpu=0.92,Vmaxpu=1.5,model=8,zipv=[0.5,0,0.5,1,0,0,0],daily=RES1_2,status=variable
new load.BT_3000138376_M1 bus1=RML1000245354.1.0,Phases=1,kv=0.127,kW=0.74338,pf=0.92,Vminpu=0.92,Vmaxpu=1.5,model=8,zipv=[0.5,0,0.5,1,0,0,0],daily=RES1_2,status=variable
new load.BT_3000138377_M1 bus1=RML1000245347.3.0,Phases=1,kv=0.127,kW=2.53686,pf=0.92,Vminpu=0.92,Vmaxpu=1.5,model=8,zipv=[0.5,0,0.5,1,0,0,0],daily=RES1_2,status=variable
new load.BT_3000138378_M1 bus1=RML1000245333.3.0,Phases=1,kv=0.127,kW=1.81162,pf=0.92,Vminpu=0.92,Vmaxpu=1.5,model=8,zipv=[0.5,0,0.5,1,0,0,0],daily=RES1_2,status=variable