new line.RBT_10043259 bus1=BBT531185.2.3.0,bus2=RML1010043259.2.3.0,Phases=2,Linecode=CABBTG05_4_2_2,Length=0.029000000,Units=km
new line.RBT_10043270 bus1=BBT6040843.2.0,bus2=RML1010043270.2.0,Phases=1,Linecode=CABBTG02_4_1_1,Length=0.029000000,Units=km
new line.RBT_10043276 bus1=BBT6044161.2.0,bus2=RML1010043276.2.0,Phases=1,Linecode=CABBTG02_4_1_1,Length=0.029000000,Units=km
new line.RBT_10043287 bus1=BBT5092693.1.2.0,bus2=RML1010043287.1.2.0,Phases=2,Linecode=CABBTG04_4_2_2,Length=0.017000000,Units=km
new line.RBT_10043289 bus1=BBT5093141.1.2.0,bus2=RML1010043289.1.2.0,Phases=2,Linecode=CABBTG04_4_2_2,Length=0.029000000,Units=km
new line.RBT_10043326 bus1=BBT45263292.1.2.0,bus2=RML1010043326.1.2.0,Phases=2,Linecode=CABBTG04_4_2_2,Length=0.029000000,Units=km
new line.RBT_10043492 bus1=BBT538906.1.2.0,bus2=RML1010043492.1.2.0,Phases=2,Linecode=CABBTG04_4_2_2,Length=0.017000000,Units=km
new line.RBT_10043501 bus1=BBT532333.1.2.0,bus2=RML1010043501.1.2.0,Phases=2,Linecode=CABBTG05_4_2_2,Length=0.029000000,Units=km
new line.RBT_10043531 bus1=BBT512411.1.0,bus2=RML1010043531.1.0,Phases=1,Linecode=CABBTG02_4_1_1,Length=0.029000000,Units=km
new line.RBT_10043535 bus1=BBT3291439.1.0,bus2=RML1010043535.1.0,Phases=1,Linecode=CABBTG02_4_1_1,Length=0.017000000,Units=km
new line.RBT_10043536 bus1=BBT141530162.1.0,bus2=RML1010043536.1.0,Phases=1,Linecode=CABBTG02_4_1_1,Length=0.029000000,Units=km
new line.RBT_10044220 bus1=BBT512733.2.0,bus2=RML1010044220.2.0,Phases=1,Linecode=CABBTG01_4_1_1,Length=0.017000000,Units=km
new line.RBT_10044236 bus1=BBT512390.1.0,bus2=RML1010044236.1.0,Phases=1,Linecode=CABBTG02_4_1_1,Length=0.029000000,Units=km
new line.RBT_10044398 bus1=BBT5093288.1.2.0,bus2=RML1010044398.1.2.0,Phases=2,Linecode=CABBTG05_4_2_2,Length=0.017000000,Units=km
new line.RBT_10044399 bus1=BBT3402123.1.2.0,bus2=RML1010044399.1.2.0,Phases=2,Linecode=CABBTG05_4_2_2,Length=0.017000000,Units=km
new line.RBT_10044402 bus1=BBT536869.1.2.0,bus2=RML1010044402.1.2.0,Phases=2,Linecode=CABBTG05_4_2_2,Length=0.017000000,Units=km
new line.RBT_10044405 bus1=BBT664703.2.0,bus2=RML1010044405.2.0,Phases=1,Linecode=CABBTG01_4_1_1,Length=0.029000000,Units=km
new line.RBT_10044408 bus1=BBT528462.2.0,bus2=RML1010044408.2.0,Phases=1,Linecode=CABBTG01_4_1_1,Length=0.029000000,Units=km
new line.RBT_10044530 bus1=BBT667174.3.1.0,bus2=RML1010044530.3.1.0,Phases=2,Linecode=CABBTG05_4_2_2,Length=0.029000000,Units=km
new line.RBT_10044538 bus1=BBT538395.2.3.0,bus2=RML1010044538.2.3.0,Phases=2,Linecode=CABBTG05_4_2_2,Length=0.029000000,Units=km
new line.RBT_10044542 bus1=BBT669680.1.0,bus2=RML1010044542.1.0,Phases=1,Linecode=CABBTG01_4_1_1,Length=0.029000000,Units=km
new line.RBT_10044545 bus1=BBT533600.1.2.0,bus2=RML1010044545.1.2.0,Phases=2,Linecode=CABBTG05_4_2_2,Length=0.029000000,Units=km
new line.RBT_10044548 bus1=BBT530842.2.0,bus2=RML1010044548.2.0,Phases=1,Linecode=CABBTG01_4_1_1,Length=0.029000000,Units=km
new line.RBT_10044556 bus1=BBT533621.2.3.0,bus2=RML1010044556.2.3.0,Phases=2,Linecode=CABBTG05_4_2_2,Length=0.029000000,Units=km
new line.RBT_10044557 bus1=BBT530527.1.2.3.0,bus2=RML1010044557.1.2.3.0,Phases=3,Linecode=CABBTG06_4_3_3,Length=0.029000000,Units=km
new line.RBT_10044564 bus1=BBT534664.2.3.0,bus2=RML1010044564.2.3.0,Phases=2,Linecode=CABBTG05_4_2_2,Length=0.029000000,Units=km
new line.RBT_10074361 bus1=BBT533978.1.2.3.0,bus2=RML1010074361.1.2.3.0,Phases=3,Linecode=CABBTG07_4_3_3,Length=0.029000000,Units=km
new line.RBT_10119641 bus1=BBT8959409.1.0,bus2=RML1010119641.1.0,Phases=1,Linecode=CABBTG02_4_1_1,Length=0.029000000,Units=km
new line.RBT_10119647 bus1=BBT527860.2.0,bus2=RML1010119647.2.0,Phases=1,Linecode=CABBTG01_4_1_1,Length=0.029000000,Units=km
new line.RBT_10119657 bus1=BBT8973185.1.0,bus2=RML1010119657.1.0,Phases=1,Linecode=CABBTG02_4_1_1,Length=0.029000000,Units=km
new line.RBT_10119666 bus1=BBT8962489.1.0,bus2=RML1010119666.1.0,Phases=1,Linecode=CABBTG02_4_1_1,Length=0.029000000,Units=km
new line.RBT_10119670 bus1=BBT665060.2.0,bus2=RML1010119670.2.0,Phases=1,Linecode=CABBTG01_4_1_1,Length=0.029000000,Units=km
new line.RBT_10120599 bus1=BBT3633907.1.2.0,bus2=RML1010120599.1.2.0,Phases=2,Linecode=CABBTG05_4_2_2,Length=0.012000000,Units=km
new line.RBT_10120639 bus1=BBT5093995.1.2.0,bus2=RML1010120639.1.2.0,Phases=2,Linecode=CABBTG05_4_2_2,Length=0.020000000,Units=km
new line.RBT_10120714 bus1=BBT6040689.1.2.0,bus2=RML1010120714.1.2.0,Phases=2,Linecode=CABBTG05_4_2_2,Length=0.010000000,Units=km
new line.RBT_10120730 bus1=BBT8973332.1.0,bus2=RML1010120730.1.0,Phases=1,Linecode=CABBTG02_4_1_1,Length=0.029000000,Units=km
new line.RBT_10120734 bus1=BBT5932903.1.0,bus2=RML1010120734.1.0,Phases=1,Linecode=CABBTG02_4_1_1,Length=0.029000000,Units=km
new line.RBT_10120897 bus1=BBT534790.1.2.0,bus2=RML1010120897.1.2.0,Phases=2,Linecode=CABBTG05_4_2_2,Length=0.010000000,Units=km
new line.RBT_10052132 bus1=BBT527384.1.2.0,bus2=RML1010052132.1.2.0,Phases=2,Linecode=CABBTG05_4_2_2,Length=0.029000000,Units=km
new line.RBT_10052456 bus1=BBT531122.1.2.0,bus2=RML1010052456.1.2.0,Phases=2,Linecode=CABBTG04_4_2_2,Length=0.015000000,Units=km
new line.RBT_10052942 bus1=BBT147944234.1.0,bus2=RML1010052942.1.0,Phases=1,Linecode=CABBTG01_4_1_1,Length=0.012000000,Units=km
new line.RBT_10052959 bus1=BBT36340868.1.2.0,bus2=RML1010052959.1.2.0,Phases=2,Linecode=CABBTG04_4_2_2,Length=0.019000000,Units=km
new line.RBT_10053114 bus1=BBT45263348.1.0,bus2=RML1010053114.1.0,Phases=1,Linecode=CABBTG01_4_1_1,Length=0.030000000,Units=km
new line.RBT_10053120 bus1=BBT45263306.1.0,bus2=RML1010053120.1.0,Phases=1,Linecode=CABBTG02_4_1_1,Length=0.014000000,Units=km
new line.RBT_10142133 bus1=BBT132610447.2.0,bus2=RML1010142133.2.0,Phases=1,Linecode=CABBTG02_4_1_1,Length=0.029000000,Units=km
new line.RBT_10143099 bus1=BBT528910.1.2.0,bus2=RML1010143099.1.2.0,Phases=2,Linecode=CABBTG05_4_2_2,Length=0.020000000,Units=km
new line.RBT_10143126 bus1=BBT531682.1.2.0,bus2=RML1010143126.1.2.0,Phases=2,Linecode=CABBTG05_4_2_2,Length=0.014000000,Units=km
new line.RBT_10203028 bus1=BBT150502582.1.2.3.0,bus2=RML1010203028.1.2.3.0,Phases=3,Linecode=CABBTG06_4_3_3,Length=0.029000000,Units=km
new line.RBT_10203031 bus1=BBT150502583.3.1.0,bus2=RML1010203031.3.1.0,Phases=2,Linecode=CABBTG05_4_2_2,Length=0.029000000,Units=km
new line.RBT_10203032 bus1=BBT150502583.1.2.0,bus2=RML1010203032.1.2.0,Phases=2,Linecode=CABBTG05_4_2_2,Length=0.029000000,Units=km
new line.RBT_10203115 bus1=BBT532452.2.3.0,bus2=RML1010203115.2.3.0,Phases=2,Linecode=CABBTG05_4_2_2,Length=0.029000000,Units=km
new line.RBT_10203122 bus1=BBT531430.3.0,bus2=RML1010203122.3.0,Phases=1,Linecode=CABBTG02_4_1_1,Length=0.029000000,Units=km
new line.RBT_10203174 bus1=BBT150261747.2.0,bus2=RML1010203174.2.0,Phases=1,Linecode=CABBTG02_4_1_1,Length=0.017000000,Units=km
new line.RBT_10203180 bus1=BBT5093120.2.0,bus2=RML1010203180.2.0,Phases=1,Linecode=CABBTG02_4_1_1,Length=0.029000000,Units=km
new line.RBT_10203189 bus1=BBT529862.2.0,bus2=RML1010203189.2.0,Phases=1,Linecode=CABBTG02_4_1_1,Length=0.029000000,Units=km
new line.RBT_10203259 bus1=BBT529862.2.0,bus2=RML1010203259.2.0,Phases=1,Linecode=CABBTG02_4_1_1,Length=0.029000000,Units=km
new line.RBT_10203268 bus1=BBT532284.2.3.0,bus2=RML1010203268.2.3.0,Phases=2,Linecode=CABBTG05_4_2_2,Length=0.029000000,Units=km
new line.RBT_10203277 bus1=BBT672886.2.3.0,bus2=RML1010203277.2.3.0,Phases=2,Linecode=CABBTG05_4_2_2,Length=0.029000000,Units=km
new line.RBT_10203337 bus1=BBT669561.2.3.0,bus2=RML1010203337.2.3.0,Phases=2,Linecode=CABBTG05_4_2_2,Length=0.029000000,Units=km
new line.RBT_10203348 bus1=BBT535406.3.1.0,bus2=RML1010203348.3.1.0,Phases=2,Linecode=CABBTG05_4_2_2,Length=0.029000000,Units=km
new line.RBT_10203364 bus1=BBT6040647.3.0,bus2=RML1010203364.3.0,Phases=1,Linecode=CABBTG02_4_1_1,Length=0.029000000,Units=km
new line.RBT_10203371 bus1=BBT535959.1.2.0,bus2=RML1010203371.1.2.0,Phases=2,Linecode=CABBTG05_4_2_2,Length=0.029000000,Units=km
new line.RBT_10203380 bus1=BBT5093981.1.2.0,bus2=RML1010203380.1.2.0,Phases=2,Linecode=CABBTG05_4_2_2,Length=0.017000000,Units=km
new line.RBT_10203401 bus1=BBT145794954.3.0,bus2=RML1010203401.3.0,Phases=1,Linecode=CABBTG02_4_1_1,Length=0.029000000,Units=km
new line.RBT_10203409 bus1=BBT145794954.3.1.0,bus2=RML1010203409.3.1.0,Phases=2,Linecode=CABBTG04_4_2_2,Length=0.029000000,Units=km
new line.RBT_10203417 bus1=BBT145794975.1.2.0,bus2=RML1010203417.1.2.0,Phases=2,Linecode=CABBTG05_4_2_2,Length=0.029000000,Units=km
new line.RBT_10203421 bus1=BBT145794982.1.0,bus2=RML1010203421.1.0,Phases=1,Linecode=CABBTG02_4_1_1,Length=0.029000000,Units=km
new line.RBT_10203431 bus1=BBT528742.1.0,bus2=RML1010203431.1.0,Phases=1,Linecode=CABBTG02_4_1_1,Length=0.029000000,Units=km
new line.RBT_10203440 bus1=BBT8961936.1.0,bus2=RML1010203440.1.0,Phases=1,Linecode=CABBTG02_4_1_1,Length=0.029000000,Units=km
new line.RBT_10203447 bus1=BBT8969538.2.0,bus2=RML1010203447.2.0,Phases=1,Linecode=CABBTG02_4_1_1,Length=0.029000000,Units=km
new line.RBT_10203475 bus1=BBT535210.1.2.3.0,bus2=RML1010203475.1.2.3.0,Phases=3,Linecode=CABBTG06_4_3_3,Length=0.029000000,Units=km
new line.RBT_10203492 bus1=BBT535371.3.1.0,bus2=RML1010203492.3.1.0,Phases=2,Linecode=CABBTG05_4_2_2,Length=0.029000000,Units=km
new line.RBT_10203502 bus1=BBT138350482.3.0,bus2=RML1010203502.3.0,Phases=1,Linecode=CABBTG02_4_1_1,Length=0.029000000,Units=km
new line.RBT_10203513 bus1=BBT532207.2.0,bus2=RML1010203513.2.0,Phases=1,Linecode=CABBTG02_4_1_1,Length=0.029000000,Units=km
new line.RBT_10203520 bus1=BBT8972492.2.0,bus2=RML1010203520.2.0,Phases=1,Linecode=CABBTG02_4_1_1,Length=0.029000000,Units=km
new line.RBT_10203522 bus1=BBT8972492.2.0,bus2=RML1010203522.2.0,Phases=1,Linecode=CABBTG02_4_1_1,Length=0.029000000,Units=km
new line.RBT_10203529 bus1=BBT3746768.2.0,bus2=RML1010203529.2.0,Phases=1,Linecode=CABBTG02_4_1_1,Length=0.029000000,Units=km
new line.RBT_10203555 bus1=BBT45263278.1.2.0,bus2=RML1010203555.1.2.0,Phases=2,Linecode=CABBTG05_4_2_2,Length=0.029000000,Units=km
new line.RBT_10203556 bus1=BBT45263278.1.2.0,bus2=RML1010203556.1.2.0,Phases=2,Linecode=CABBTG05_4_2_2,Length=0.029000000,Units=km
new line.RBT_10203628 bus1=BBT672676.1.0,bus2=RML1010203628.1.0,Phases=1,Linecode=CABBTG02_4_1_1,Length=0.029000000,Units=km
new line.RBT_10203631 bus1=BBT672662.1.2.0,bus2=RML1010203631.1.2.0,Phases=2,Linecode=CABBTG05_4_2_2,Length=0.029000000,Units=km
new line.RBT_10203635 bus1=BBT6044525.1.0,bus2=RML1010203635.1.0,Phases=1,Linecode=CABBTG02_4_1_1,Length=0.017000000,Units=km
new line.RBT_10203637 bus1=BBT6044525.1.0,bus2=RML1010203637.1.0,Phases=1,Linecode=CABBTG02_4_1_1,Length=0.017000000,Units=km
new line.RBT_10203647 bus1=BBT6044007.1.0,bus2=RML1010203647.1.0,Phases=1,Linecode=CABBTG02_4_1_1,Length=0.029000000,Units=km
new line.RBT_10203664 bus1=BBT6044049.1.0,bus2=RML1010203664.1.0,Phases=1,Linecode=CABBTG02_4_1_1,Length=0.029000000,Units=km
new line.RBT_10203669 bus1=BBT671206.1.0,bus2=RML1010203669.1.0,Phases=1,Linecode=CABBTG02_4_1_1,Length=0.029000000,Units=km
new line.RBT_10203682 bus1=BBT3743247.2.3.0,bus2=RML1010203682.2.3.0,Phases=2,Linecode=CABBTG05_4_2_2,Length=0.029000000,Units=km
new line.RBT_10203700 bus1=BBT535434.3.1.0,bus2=RML1010203700.3.1.0,Phases=2,Linecode=CABBTG05_4_2_2,Length=0.029000000,Units=km
new line.RBT_10203729 bus1=BBT92158063.1.0,bus2=RML1010203729.1.0,Phases=1,Linecode=CABBTG02_4_1_1,Length=0.029000000,Units=km
new line.RBT_10203738 bus1=BBT532382.1.0,bus2=RML1010203738.1.0,Phases=1,Linecode=CABBTG02_4_1_1,Length=0.029000000,Units=km
new line.RBT_10203770 bus1=BBT532361.3.0,bus2=RML1010203770.3.0,Phases=1,Linecode=CABBTG02_4_1_1,Length=0.029000000,Units=km
new line.RBT_10203780 bus1=BBT531836.3.0,bus2=RML1010203780.3.0,Phases=1,Linecode=CABBTG02_4_1_1,Length=0.029000000,Units=km
new line.RBT_10203788 bus1=BBT527846.1.0,bus2=RML1010203788.1.0,Phases=1,Linecode=CABBTG02_4_1_1,Length=0.029000000,Units=km
new line.RBT_10203809 bus1=BBT8961824.1.0,bus2=RML1010203809.1.0,Phases=1,Linecode=CABBTG02_4_1_1,Length=0.029000000,Units=km
new line.RBT_10203816 bus1=BBT92159029.1.2.0,bus2=RML1010203816.1.2.0,Phases=2,Linecode=CABBTG05_4_2_2,Length=0.029000000,Units=km
new line.RBT_10203821 bus1=BBT92159106.2.0,bus2=RML1010203821.2.0,Phases=1,Linecode=CABBTG02_4_1_1,Length=0.029000000,Units=km
new line.RBT_10203828 bus1=BBT92159218.2.0,bus2=RML1010203828.2.0,Phases=1,Linecode=CABBTG02_4_1_1,Length=0.029000000,Units=km
new line.RBT_10203844 bus1=BBT528238.3.0,bus2=RML1010203844.3.0,Phases=1,Linecode=CABBTG02_4_1_1,Length=0.029000000,Units=km
new line.RBT_10203895 bus1=BBT8959409.2.0,bus2=RML1010203895.2.0,Phases=1,Linecode=CABBTG02_4_1_1,Length=0.029000000,Units=km
new line.RBT_10203897 bus1=BBT5932826.2.0,bus2=RML1010203897.2.0,Phases=1,Linecode=CABBTG02_4_1_1,Length=0.029000000,Units=km
new line.RBT_10203902 bus1=BBT534230.2.0,bus2=RML1010203902.2.0,Phases=1,Linecode=CABBTG02_4_1_1,Length=0.029000000,Units=km
new line.RBT_10203907 bus1=BBT533705.2.0,bus2=RML1010203907.2.0,Phases=1,Linecode=CABBTG02_4_1_1,Length=0.029000000,Units=km
new line.RBT_10203912 bus1=BBT533628.2.3.0,bus2=RML1010203912.2.3.0,Phases=2,Linecode=CABBTG05_4_2_2,Length=0.029000000,Units=km
new line.RBT_10203931 bus1=BBT527741.1.2.0,bus2=RML1010203931.1.2.0,Phases=2,Linecode=CABBTG05_4_2_2,Length=0.029000000,Units=km
new line.RBT_10203942 bus1=BBT8965856.2.0,bus2=RML1010203942.2.0,Phases=1,Linecode=CABBTG02_4_1_1,Length=0.029000000,Units=km
new line.RBT_10203948 bus1=BBT8966962.2.0,bus2=RML1010203948.2.0,Phases=1,Linecode=CABBTG02_4_1_1,Length=0.029000000,Units=km
new line.RBT_10203957 bus1=BBT8959948.2.0,bus2=RML1010203957.2.0,Phases=1,Linecode=CABBTG02_4_1_1,Length=0.029000000,Units=km
new line.RBT_10203964 bus1=BBT45643133.2.0,bus2=RML1010203964.2.0,Phases=1,Linecode=CABBTG02_4_1_1,Length=0.029000000,Units=km
new line.RBT_10203970 bus1=BBT531521.1.2.0,bus2=RML1010203970.1.2.0,Phases=2,Linecode=CABBTG05_4_2_2,Length=0.029000000,Units=km
new line.RBT_10203971 bus1=BBT141530162.1.2.0,bus2=RML1010203971.1.2.0,Phases=2,Linecode=CABBTG05_4_2_2,Length=0.029000000,Units=km
new line.RBT_10203977 bus1=BBT8965863.1.0,bus2=RML1010203977.1.0,Phases=1,Linecode=CABBTG02_4_1_1,Length=0.029000000,Units=km
new line.RBT_10203980 bus1=BBT528623.3.0,bus2=RML1010203980.3.0,Phases=1,Linecode=CABBTG02_4_1_1,Length=0.029000000,Units=km
new line.RBT_10203981 bus1=BBT147944234.2.0,bus2=RML1010203981.2.0,Phases=1,Linecode=CABBTG02_4_1_1,Length=0.029000000,Units=km
new line.RBT_10054990 bus1=BBT8964981.1.0,bus2=RML1010054990.1.0,Phases=1,Linecode=CABBTG02_4_1_1,Length=0.009000000,Units=km
new line.RBT_10055058 bus1=BBT672851.1.0,bus2=RML1010055058.1.0,Phases=1,Linecode=CABBTG02_4_1_1,Length=0.015000000,Units=km
new line.RBT_10055100 bus1=BBT45263096.1.2.0,bus2=RML1010055100.1.2.0,Phases=2,Linecode=CABBTG05_4_2_2,Length=0.010000000,Units=km
new line.RBT_10055105 bus1=BBT531941.1.2.0,bus2=RML1010055105.1.2.0,Phases=2,Linecode=CABBTG04_4_2_2,Length=0.013000000,Units=km
new line.RBT_10055116 bus1=BBT535910.3.1.0,bus2=RML1010055116.3.1.0,Phases=2,Linecode=CABBTG04_4_2_2,Length=0.006000000,Units=km
new line.RBT_10055124 bus1=BBT5932819.1.0,bus2=RML1010055124.1.0,Phases=1,Linecode=CABBTG02_4_1_1,Length=0.012000000,Units=km
new line.RBT_10055127 bus1=BBT145794975.1.2.0,bus2=RML1010055127.1.2.0,Phases=2,Linecode=CABBTG04_4_2_2,Length=0.029000000,Units=km
new line.RBT_10055130 bus1=BBT533593.2.3.0,bus2=RML1010055130.2.3.0,Phases=2,Linecode=CABBTG04_4_2_2,Length=0.015000000,Units=km
new line.RBT_10055544 bus1=BBT5093904.2.3.0,bus2=RML1010055544.2.3.0,Phases=2,Linecode=CABBTG05_4_2_2,Length=0.008000000,Units=km
new line.RBT_10055545 bus1=BBT5932742.1.0,bus2=RML1010055545.1.0,Phases=1,Linecode=CABBTG02_4_1_1,Length=0.015000000,Units=km
new line.RBT_10055546 bus1=BBT5932952.1.0,bus2=RML1010055546.1.0,Phases=1,Linecode=CABBTG02_4_1_1,Length=0.012000000,Units=km
new line.RBT_10055701 bus1=BBT145794954.1.0,bus2=RML1010055701.1.0,Phases=1,Linecode=CABBTG01_4_1_1,Length=0.029000000,Units=km
new line.RBT_10055896 bus1=BBT5093064.1.2.0,bus2=RML1010055896.1.2.0,Phases=2,Linecode=CABBTG05_4_2_2,Length=0.010000000,Units=km
new line.RBT_10055914 bus1=BBT5932896.1.0,bus2=RML1010055914.1.0,Phases=1,Linecode=CABBTG01_4_1_1,Length=0.010000000,Units=km
new line.RBT_10055916 bus1=BBT5092707.1.2.0,bus2=RML1010055916.1.2.0,Phases=2,Linecode=CABBTG04_4_2_2,Length=0.012000000,Units=km
new line.RBT_10055923 bus1=BBT5093687.1.2.0,bus2=RML1010055923.1.2.0,Phases=2,Linecode=CABBTG04_4_2_2,Length=0.029000000,Units=km
new line.RBT_10055999 bus1=BBT529519.2.0,bus2=RML1010055999.2.0,Phases=1,Linecode=CABBTG02_4_1_1,Length=0.020000000,Units=km
new line.RBT_10144237 bus1=BBT6043650.2.0,bus2=RML1010144237.2.0,Phases=1,Linecode=CABBTG02_4_1_1,Length=0.024000000,Units=km
new line.RBT_10144799 bus1=BBT506202.1.2.0,bus2=RML1010144799.1.2.0,Phases=2,Linecode=CABBTG05_4_2_2,Length=0.029000000,Units=km
new line.RBT_10145978 bus1=BBT97714285.1.2.0,bus2=RML1010145978.1.2.0,Phases=2,Linecode=CABBTG05_4_2_2,Length=0.017000000,Units=km
new line.RBT_10200807 bus1=BBT505866.1.0,bus2=RML1010200807.1.0,Phases=1,Linecode=CABBTG02_4_1_1,Length=0.017000000,Units=km
new line.RBT_10200948 bus1=BBT505866.1.0,bus2=RML1010200948.1.0,Phases=1,Linecode=CABBTG02_4_1_1,Length=0.020000000,Units=km
new line.RBT_10200952 bus1=BBT505866.2.0,bus2=RML1010200952.2.0,Phases=1,Linecode=CABBTG02_4_1_1,Length=0.017000000,Units=km
new line.RBT_10228835 bus1=BBT512089.1.0,bus2=RML1010228835.1.0,Phases=1,Linecode=CABBTG02_4_1_1,Length=0.017000000,Units=km
new line.RBT_10229006 bus1=BBT535756.1.2.3.0,bus2=RML1010229006.1.2.3.0,Phases=3,Linecode=CABBTG06_4_3_3,Length=0.029000000,Units=km
new line.RBT_10229013 bus1=BBT535756.1.2.3.0,bus2=RML1010229013.1.2.3.0,Phases=3,Linecode=CABBTG06_4_3_3,Length=0.029000000,Units=km
new line.RBT_10229105 bus1=BBT512635.2.0,bus2=RML1010229105.2.0,Phases=1,Linecode=CABBTG02_4_1_1,Length=0.029000000,Units=km
new line.RBT_10229122 bus1=BBT3179929.1.0,bus2=RML1010229122.1.0,Phases=1,Linecode=CABBTG02_4_1_1,Length=0.029000000,Units=km
new line.RBT_10229206 bus1=BBT3290375.1.0,bus2=RML1010229206.1.0,Phases=1,Linecode=CABBTG02_4_1_1,Length=0.017000000,Units=km
new line.RBT_10229211 bus1=BBT3290375.2.0,bus2=RML1010229211.2.0,Phases=1,Linecode=CABBTG02_4_1_1,Length=0.017000000,Units=km
new line.RBT_10229222 bus1=BBT3291439.1.0,bus2=RML1010229222.1.0,Phases=1,Linecode=CABBTG02_4_1_1,Length=0.017000000,Units=km
new line.RBT_10229225 bus1=BBT3291439.1.0,bus2=RML1010229225.1.0,Phases=1,Linecode=CABBTG02_4_1_1,Length=0.017000000,Units=km
new line.RBT_10229228 bus1=BBT3291439.2.0,bus2=RML1010229228.2.0,Phases=1,Linecode=CABBTG02_4_1_1,Length=0.017000000,Units=km
new line.RBT_10229343 bus1=BBT116012054.1.0,bus2=RML1010229343.1.0,Phases=1,Linecode=CABBTG02_4_1_1,Length=0.017000000,Units=km
new line.RBT_10229352 bus1=BBT3508726.1.2.0,bus2=RML1010229352.1.2.0,Phases=2,Linecode=CABBTG05_4_2_2,Length=0.017000000,Units=km
new line.RBT_10231108 bus1=BBT531409.1.0,bus2=RML1010231108.1.0,Phases=1,Linecode=CABBTG02_4_1_1,Length=0.029000000,Units=km
new line.RBT_10231116 bus1=BBT539620.1.2.0,bus2=RML1010231116.1.2.0,Phases=2,Linecode=CABBTG05_4_2_2,Length=0.017000000,Units=km
new line.RBT_10231124 bus1=BBT6044077.3.1.0,bus2=RML1010231124.3.1.0,Phases=2,Linecode=CABBTG05_4_2_2,Length=0.029000000,Units=km
new line.RBT_10039347 bus1=BBT512719.1.2.0,bus2=RML1010039347.1.2.0,Phases=2,Linecode=CABBTG05_4_2_2,Length=0.017000000,Units=km
new line.RBT_10068504 bus1=BBT5932889.2.0,bus2=RML1010068504.2.0,Phases=1,Linecode=CABBTG02_4_1_1,Length=0.012000000,Units=km
new line.RBT_10068527 bus1=BBT8961936.1.0,bus2=RML1010068527.1.0,Phases=1,Linecode=CABBTG01_4_1_1,Length=0.012000000,Units=km
new line.RBT_10068540 bus1=BBT8972485.1.0,bus2=RML1010068540.1.0,Phases=1,Linecode=CABBTG01_4_1_1,Length=0.016000000,Units=km
new line.RBT_10068546 bus1=BBT145794975.1.0,bus2=RML1010068546.1.0,Phases=1,Linecode=CABBTG01_4_1_1,Length=0.015000000,Units=km
new line.RBT_10068891 bus1=BBT8972478.1.2.0,bus2=RML1010068891.1.2.0,Phases=2,Linecode=CABBTG05_4_2_2,Length=0.015000000,Units=km
new line.RBT_10068899 bus1=BBT146009161.1.0,bus2=RML1010068899.1.0,Phases=1,Linecode=CABBTG02_4_1_1,Length=0.015000000,Units=km
new line.RBT_10068965 bus1=BBT145794975.2.3.0,bus2=RML1010068965.2.3.0,Phases=2,Linecode=CABBTG05_4_2_2,Length=0.029000000,Units=km
new line.RBT_10068969 bus1=BBT5560160.3.1.0,bus2=RML1010068969.3.1.0,Phases=2,Linecode=CABBTG05_4_2_2,Length=0.010000000,Units=km
new line.RBT_10069003 bus1=BBT530317.2.0,bus2=RML1010069003.2.0,Phases=1,Linecode=CABBTG02_4_1_1,Length=0.029000000,Units=km
new line.RBT_10069004 bus1=BBT6043524.3.1.0,bus2=RML1010069004.3.1.0,Phases=2,Linecode=CABBTG05_4_2_2,Length=0.029000000,Units=km
new line.RBT_10069035 bus1=BBT5093666.1.0,bus2=RML1010069035.1.0,Phases=1,Linecode=CABBTG02_4_1_1,Length=0.025000000,Units=km
new line.RBT_10069087 bus1=BBT538633.1.0,bus2=RML1010069087.1.0,Phases=1,Linecode=CABBTG02_4_1_1,Length=0.010000000,Units=km
new line.RBT_10092560 bus1=BBT530037.1.2.3.0,bus2=RML1010092560.1.2.3.0,Phases=3,Linecode=CABBTG10_4_3_3,Length=0.017000000,Units=km
new line.RBT_10121191 bus1=BBT5092469.1.0,bus2=RML1010121191.1.0,Phases=1,Linecode=CABBTG02_4_1_1,Length=0.007000000,Units=km
new line.RBT_10121256 bus1=BBT3658673.1.0,bus2=RML1010121256.1.0,Phases=1,Linecode=CABBTG02_4_1_1,Length=0.008000000,Units=km
new line.RBT_10121425 bus1=BBT6044014.1.2.0,bus2=RML1010121425.1.2.0,Phases=2,Linecode=CABBTG05_4_2_2,Length=0.029000000,Units=km
new line.RBT_10121535 bus1=BBT8980171.1.0,bus2=RML1010121535.1.0,Phases=1,Linecode=CABBTG01_4_1_1,Length=0.018000000,Units=km
new line.RBT_10121610 bus1=BBT5092483.1.2.0,bus2=RML1010121610.1.2.0,Phases=2,Linecode=CABBTG05_4_2_2,Length=0.017000000,Units=km
new line.RBT_10121615 bus1=BBT533502.3.0,bus2=RML1010121615.3.0,Phases=1,Linecode=CABBTG01_4_1_1,Length=0.013000000,Units=km
new line.RBT_10121620 bus1=BBT145794954.2.3.0,bus2=RML1010121620.2.3.0,Phases=2,Linecode=CABBTG05_4_2_2,Length=0.008000000,Units=km
new line.RBT_10121630 bus1=BBT5092497.1.0,bus2=RML1010121630.1.0,Phases=1,Linecode=CABBTG02_4_1_1,Length=0.017000000,Units=km
new line.RBT_10121645 bus1=BBT3743394.2.0,bus2=RML1010121645.2.0,Phases=1,Linecode=CABBTG02_4_1_1,Length=0.013000000,Units=km
new line.RBT_10121647 bus1=BBT536715.1.2.0,bus2=RML1010121647.1.2.0,Phases=2,Linecode=CABBTG05_4_2_2,Length=0.010000000,Units=km
new line.RBT_10121965 bus1=BBT665263.1.2.0,bus2=RML1010121965.1.2.0,Phases=2,Linecode=CABBTG04_4_2_2,Length=0.015000000,Units=km
new line.RBT_10122839 bus1=BBT5092476.1.0,bus2=RML1010122839.1.0,Phases=1,Linecode=CABBTG02_4_1_1,Length=0.007000000,Units=km
new line.RBT_10123718 bus1=BBT530772.1.0,bus2=RML1010123718.1.0,Phases=1,Linecode=CABBTG02_4_1_1,Length=0.029000000,Units=km
new line.RBT_10123725 bus1=BBT538710.1.0,bus2=RML1010123725.1.0,Phases=1,Linecode=CABBTG02_4_1_1,Length=0.008000000,Units=km
new line.RBT_10123735 bus1=BBT665354.1.0,bus2=RML1010123735.1.0,Phases=1,Linecode=CABBTG02_4_1_1,Length=0.015000000,Units=km
new line.RBT_10180606 bus1=BBT535889.3.1.0,bus2=RML1010180606.3.1.0,Phases=2,Linecode=CABBTG05_4_2_2,Length=0.029000000,Units=km
new line.RBT_10240573 bus1=BBT533992.1.2.3.0,bus2=RML1010240573.1.2.3.0,Phases=3,Linecode=CABBTG06_4_3_3,Length=0.029000000,Units=km
new line.RBT_10240577 bus1=BBT82755572.1.2.0,bus2=RML1010240577.1.2.0,Phases=2,Linecode=CABBTG04_4_2_2,Length=0.017000000,Units=km
new line.RBT_10242419 bus1=BBT3290375.1.0,bus2=RML1010242419.1.0,Phases=1,Linecode=CABBTG02_4_1_1,Length=0.017000000,Units=km
new line.RBT_10242432 bus1=BBT3290375.1.0,bus2=RML1010242432.1.0,Phases=1,Linecode=CABBTG02_4_1_1,Length=0.017000000,Units=km
new line.RBT_10242671 bus1=BBT532298.3.0,bus2=RML1010242671.3.0,Phases=1,Linecode=CABBTG02_4_1_1,Length=0.029000000,Units=km
new line.RBT_10242672 bus1=BBT532298.1.2.3.0,bus2=RML1010242672.1.2.3.0,Phases=3,Linecode=CABBTG06_4_3_3,Length=0.029000000,Units=km
new line.RBT_10242676 bus1=BBT531535.2.0,bus2=RML1010242676.2.0,Phases=1,Linecode=CABBTG02_4_1_1,Length=0.029000000,Units=km
new line.RBT_10061896 bus1=BBT8972898.1.0,bus2=RML1010061896.1.0,Phases=1,Linecode=CABBTG01_4_1_1,Length=0.014000000,Units=km
new line.RBT_10061901 bus1=BBT538472.1.0,bus2=RML1010061901.1.0,Phases=1,Linecode=CABBTG01_4_1_1,Length=0.008000000,Units=km
new line.RBT_10135898 bus1=BBT512397.1.2.0,bus2=RML1010135898.1.2.0,Phases=2,Linecode=CABBTG05_4_2_2,Length=0.017000000,Units=km
new line.RBT_10135978 bus1=BBT512334.1.2.0,bus2=RML1010135978.1.2.0,Phases=2,Linecode=CABBTG04_4_2_2,Length=0.029000000,Units=km
new line.RBT_10137468 bus1=BBT535133.2.3.0,bus2=RML1010137468.2.3.0,Phases=2,Linecode=CABBTG05_4_2_2,Length=0.017000000,Units=km
new line.RBT_10137477 bus1=BBT539809.1.0,bus2=RML1010137477.1.0,Phases=1,Linecode=CABBTG02_4_1_1,Length=0.029000000,Units=km
new line.RBT_10139490 bus1=BBT532970.1.2.3.0,bus2=RML1010139490.1.2.3.0,Phases=3,Linecode=CABBTG06_4_3_3,Length=0.029000000,Units=km
new line.RBT_10162556 bus1=BBT672851.1.2.0,bus2=RML1010162556.1.2.0,Phases=2,Linecode=CABBTG05_4_2_2,Length=0.029000000,Units=km
new line.RBT_10162558 bus1=BBT672851.1.2.0,bus2=RML1010162558.1.2.0,Phases=2,Linecode=CABBTG05_4_2_2,Length=0.029000000,Units=km
new line.RBT_10162560 bus1=BBT532235.1.2.3.0,bus2=RML1010162560.1.2.3.0,Phases=3,Linecode=CABBTG06_4_3_3,Length=0.029000000,Units=km
new line.RBT_10163314 bus1=BBT6044427.1.0,bus2=RML1010163314.1.0,Phases=1,Linecode=CABBTG01_4_1_1,Length=0.029000000,Units=km
new line.RBT_10219822 bus1=BBT150823888.1.2.0,bus2=RML1010219822.1.2.0,Phases=2,Linecode=CABBTG05_4_2_2,Length=0.017000000,Units=km
new line.RBT_10220028 bus1=BBT533019.2.3.0,bus2=RML1010220028.2.3.0,Phases=2,Linecode=CABBTG05_4_2_2,Length=0.029000000,Units=km
new line.RBT_10220633 bus1=BBT5092700.1.0,bus2=RML1010220633.1.0,Phases=1,Linecode=CABBTG02_4_1_1,Length=0.017000000,Units=km
new line.RBT_10220916 bus1=BBT5093547.1.2.0,bus2=RML1010220916.1.2.0,Phases=2,Linecode=CABBTG05_4_2_2,Length=0.017000000,Units=km
new line.RBT_10221080 bus1=BBT131186024.1.0,bus2=RML1010221080.1.0,Phases=1,Linecode=CABBTG02_4_1_1,Length=0.029000000,Units=km
new line.RBT_10245599 bus1=BBT512754.2.0,bus2=RML1010245599.2.0,Phases=1,Linecode=CABBTG02_4_1_1,Length=0.017000000,Units=km
new line.RBT_10245601 bus1=BBT537604.1.2.3.0,bus2=RML1010245601.1.2.3.0,Phases=3,Linecode=CABBTG06_4_3_3,Length=0.010000000,Units=km
new line.RBT_10245603 bus1=BBT150822571.1.2.0,bus2=RML1010245603.1.2.0,Phases=2,Linecode=CABBTG05_4_2_2,Length=0.017000000,Units=km
new line.RBT_10245606 bus1=BBT6044518.2.0,bus2=RML1010245606.2.0,Phases=1,Linecode=CABBTG02_4_1_1,Length=0.017000000,Units=km
new line.RBT_10245608 bus1=BBT150826769.1.2.3.0,bus2=RML1010245608.1.2.3.0,Phases=3,Linecode=CABBTG12_4_3_3,Length=0.017000000,Units=km
new line.RBT_10245659 bus1=BBT150824248.1.2.0,bus2=RML1010245659.1.2.0,Phases=2,Linecode=CABBTG05_4_2_2,Length=0.017000000,Units=km
new line.RBT_10273788 bus1=BBT5093967.2.3.0,bus2=RML1010273788.2.3.0,Phases=2,Linecode=CABBTG05_4_2_2,Length=0.029000000,Units=km
new line.RBT_10273794 bus1=BBT535224.3.1.0,bus2=RML1010273794.3.1.0,Phases=2,Linecode=CABBTG05_4_2_2,Length=0.029000000,Units=km
new line.RBT_10273803 bus1=BBT533495.3.1.0,bus2=RML1010273803.3.1.0,Phases=2,Linecode=CABBTG05_4_2_2,Length=0.029000000,Units=km
new line.RBT_10273809 bus1=BBT6044000.1.2.0,bus2=RML1010273809.1.2.0,Phases=2,Linecode=CABBTG05_4_2_2,Length=0.029000000,Units=km
new line.RBT_10273815 bus1=BBT6044049.1.2.0,bus2=RML1010273815.1.2.0,Phases=2,Linecode=CABBTG05_4_2_2,Length=0.029000000,Units=km
new line.RBT_10273818 bus1=BBT665039.1.2.3.0,bus2=RML1010273818.1.2.3.0,Phases=3,Linecode=CABBTG06_4_3_3,Length=0.029000000,Units=km
new line.RBT_10273821 bus1=BBT665102.1.0,bus2=RML1010273821.1.0,Phases=1,Linecode=CABBTG02_4_1_1,Length=0.029000000,Units=km
new line.RBT_10273825 bus1=BBT8965478.1.0,bus2=RML1010273825.1.0,Phases=1,Linecode=CABBTG02_4_1_1,Length=0.029000000,Units=km
new line.RBT_10273828 bus1=BBT528637.2.0,bus2=RML1010273828.2.0,Phases=1,Linecode=CABBTG02_4_1_1,Length=0.029000000,Units=km
new line.RBT_10273841 bus1=BBT665466.2.0,bus2=RML1010273841.2.0,Phases=1,Linecode=CABBTG02_4_1_1,Length=0.029000000,Units=km
new line.RBT_10273861 bus1=BBT528987.3.0,bus2=RML1010273861.3.0,Phases=1,Linecode=CABBTG02_4_1_1,Length=0.029000000,Units=km
new line.RBT_10273867 bus1=BBT533768.3.0,bus2=RML1010273867.3.0,Phases=1,Linecode=CABBTG02_4_1_1,Length=0.029000000,Units=km
new line.RBT_10273870 bus1=BBT537044.2.3.0,bus2=RML1010273870.2.3.0,Phases=2,Linecode=CABBTG05_4_2_2,Length=0.029000000,Units=km
new line.RBT_10333811 bus1=BBT6044427.1.0,bus2=RML1010333811.1.0,Phases=1,Linecode=CABBTG02_4_1_1,Length=0.029000000,Units=km
new line.RBT_10370121 bus1=BBT535448.1.2.0,bus2=RML1010370121.1.2.0,Phases=2,Linecode=CABBTG05_4_2_2,Length=0.029000000,Units=km
new line.RBT_10231137 bus1=BBT532284.3.1.0,bus2=RML1010231137.3.1.0,Phases=2,Linecode=CABBTG05_4_2_2,Length=0.029000000,Units=km
new line.RBT_10231140 bus1=BBT3462344.3.0,bus2=RML1010231140.3.0,Phases=1,Linecode=CABBTG02_4_1_1,Length=0.029000000,Units=km
new line.RBT_10231153 bus1=BBT533131.3.1.0,bus2=RML1010231153.3.1.0,Phases=2,Linecode=CABBTG05_4_2_2,Length=0.029000000,Units=km
new line.RBT_10231176 bus1=BBT8964967.1.0,bus2=RML1010231176.1.0,Phases=1,Linecode=CABBTG02_4_1_1,Length=0.029000000,Units=km
new line.RBT_10231195 bus1=BBT3742869.2.0,bus2=RML1010231195.2.0,Phases=1,Linecode=CABBTG02_4_1_1,Length=0.029000000,Units=km
new line.RBT_10231199 bus1=BBT538612.3.0,bus2=RML1010231199.3.0,Phases=1,Linecode=CABBTG02_4_1_1,Length=0.029000000,Units=km
new line.RBT_10231205 bus1=BBT671157.2.0,bus2=RML1010231205.2.0,Phases=1,Linecode=CABBTG02_4_1_1,Length=0.029000000,Units=km
new line.RBT_10231206 bus1=BBT3743268.2.3.0,bus2=RML1010231206.2.3.0,Phases=2,Linecode=CABBTG05_4_2_2,Length=0.029000000,Units=km
new line.RBT_10231218 bus1=BBT535574.1.2.0,bus2=RML1010231218.1.2.0,Phases=2,Linecode=CABBTG05_4_2_2,Length=0.017000000,Units=km