new line.SMT_1126857 bus1=BMT121682096.1.2.3,bus2=BMT121682103.1.2.3,Phases=3,Linecode=CAB107_3_3_3,Length=0.013998000,Units=km
new line.SMT_1199447 bus1=BMT179497275.1.2.3,bus2=BMT2340559B.1.2.3,Phases=3,Linecode=CAB207_3_3_3,Length=0.097924000,Units=km
new line.SMT_1199461 bus1=BMT179497279.1.2.3,bus2=BMT179497280.1.2.3,Phases=3,Linecode=CAB102_3_3_3,Length=0.035221000,Units=km
new line.SMT_1199475 bus1=BMT121682467.1.2.3,bus2=BMT158385042.1.2.3,Phases=3,Linecode=CAB207_3_3_3,Length=0.051961000,Units=km
new line.SMT_1199482 bus1=BMT121682467.1.2.3,bus2=BMT121682481.1.2.3,Phases=3,Linecode=CAB107_3_3_3,Length=0.019310000,Units=km
new line.SMT_1199489 bus1=BMT158385043.1.2.3,bus2=BMT20372615.1.2.3,Phases=3,Linecode=CAB104_3_3_3,Length=0.079060000,Units=km
new line.SMT_1199496 bus1=BMT158385043.1.2.3,bus2=BMT158385044.1.2.3,Phases=3,Linecode=CAB202_3_3_3,Length=0.085428000,Units=km
new line.SMT_1199503 bus1=BMT2340587B.1.2.3,bus2=BMT3652450B.1.2.3,Phases=3,Linecode=CAB107_3_3_3,Length=0.052829000,Units=km
new line.SMT_1199510 bus1=BMT179962436.1.2.3,bus2=BMT2340601B.1.2.3,Phases=3,Linecode=CAB207_3_3_3,Length=0.075576000,Units=km
new line.SMT_1199517 bus1=BMT2340601B.1.2.3,bus2=BMT3652464B.1.2.3,Phases=3,Linecode=CAB207_3_3_3,Length=0.083278000,Units=km
new line.SMT_1199524 bus1=BMT179962437.1.2.3,bus2=BMT3652499B.1.2.3,Phases=3,Linecode=CAB207_3_3_3,Length=0.088667000,Units=km
new line.SMT_1199531 bus1=BMT179962437.3,bus2=BMT3653157B.3,Phases=1,Linecode=CAB102_3_1_1,Length=0.046520000,Units=km
new line.SMT_1199538 bus1=BMT2340615B.1.2.3,bus2=BMT3652534B.1.2.3,Phases=3,Linecode=CAB207_3_3_3,Length=0.128238000,Units=km
new line.SMT_1199545 bus1=BMT2340622B.1.2.3,bus2=BMT3652576B.1.2.3,Phases=3,Linecode=CAB207_3_3_3,Length=0.135356000,Units=km
new line.SMT_1199552 bus1=BMT121683006.1.2.3,bus2=BMT179962439.1.2.3,Phases=3,Linecode=CAB207_3_3_3,Length=0.117606000,Units=km
new line.SMT_1199573 bus1=BMT179962439.1.2.3,bus2=BMT3652604B.1.2.3,Phases=3,Linecode=CAB207_3_3_3,Length=0.121172000,Units=km
new line.SMT_1199580 bus1=BMT121689334.1.2.3,bus2=BMT121689341.1.2.3,Phases=3,Linecode=CAB102_3_3_3,Length=0.067993000,Units=km
new line.SMT_1199587 bus1=BMT179962444.1.2.3,bus2=BMT121683076.1.2.3,Phases=3,Linecode=CAB207_3_3_3,Length=0.116473000,Units=km
new line.SMT_1199594 bus1=BMT179962444.1,bus2=BMT121683083.1,Phases=1,Linecode=CAB202_3_1_1,Length=0.028595000,Units=km
new line.SMT_1199601 bus1=BMT121689173.3,bus2=BMT121689180.3,Phases=1,Linecode=CAB102_3_1_1,Length=0.054136000,Units=km
new line.SMT_1199608 bus1=BMT121683076.1.2.3,bus2=BMT4330260B.1.2.3,Phases=3,Linecode=CAB207_3_3_3,Length=0.109857000,Units=km
new line.SMT_1199615 bus1=BMT121689257.1,bus2=BMT121689264.1,Phases=1,Linecode=CAB102_3_1_1,Length=0.073155000,Units=km
new line.SMT_1199622 bus1=BMT121689264.1,bus2=BMT121689271.1,Phases=1,Linecode=CAB102_3_1_1,Length=0.073155000,Units=km
new line.SMT_1199629 bus1=BMT121689264.1,bus2=BMT2340678B.1,Phases=1,Linecode=CAB202_3_1_1,Length=0.180274000,Units=km
new line.SMT_1199650 bus1=BMT179962445.1.2.3,bus2=BMT4330309B.1.2.3,Phases=3,Linecode=CAB207_3_3_3,Length=0.109086000,Units=km
new line.SMT_1199657 bus1=BMT121689180.3,bus2=BMT121689187.3,Phases=1,Linecode=CAB102_3_1_1,Length=0.054906000,Units=km
new line.SMT_1199664 bus1=BMT121689180.3,bus2=BMT2340699B.3,Phases=1,Linecode=CAB202_3_1_1,Length=0.055432000,Units=km
new line.SMT_1199671 bus1=BMT2340699B.3,bus2=BMT2340706B.3,Phases=1,Linecode=CAB202_3_1_1,Length=0.119024000,Units=km
new line.SMT_1199678 bus1=BMT2340706B.3,bus2=BMT121689194.3,Phases=1,Linecode=CAB202_3_1_1,Length=0.142772000,Units=km
new line.SMT_1199685 bus1=BMT121689194.3,bus2=BMT121689201.3,Phases=1,Linecode=CAB102_3_1_1,Length=0.065788000,Units=km
new line.SMT_1199692 bus1=BMT121689194.3,bus2=BMT121689208.3,Phases=1,Linecode=CAB202_3_1_1,Length=0.136827000,Units=km
new line.SMT_1199699 bus1=BMT121689208.3,bus2=BMT121689215.3,Phases=1,Linecode=CAB102_3_1_1,Length=0.044768000,Units=km
new line.SMT_1199706 bus1=BMT121689208.3,bus2=BMT121689222.3,Phases=1,Linecode=CAB102_3_1_1,Length=0.029149000,Units=km
new line.SMT_1199713 bus1=BMT2340727B.1.2.3,bus2=BMT179962446.1.2.3,Phases=3,Linecode=CAB207_3_3_3,Length=0.117757000,Units=km
new line.SMT_1199720 bus1=BMT2340734B.1.2.3,bus2=BMT179962448.1.2.3,Phases=3,Linecode=CAB207_3_3_3,Length=0.126478000,Units=km
new line.SMT_1199734 bus1=BMT2340755B.1.2.3,bus2=BMT4330435B.1.2.3,Phases=3,Linecode=CAB207_3_3_3,Length=0.126113000,Units=km
new line.SMT_1199762 bus1=BMT2340776B.1.2.3,bus2=BMT4330274B.1.2.3,Phases=3,Linecode=CAB207_3_3_3,Length=0.057926000,Units=km
new line.SMT_1199769 bus1=BMT159370867.3,bus2=BMT159370868.3,Phases=1,Linecode=CAB202_3_1_1,Length=0.088387000,Units=km
new line.SMT_1199776 bus1=BMT121683160.1.2.3,bus2=BMT4330302B.1.2.3,Phases=3,Linecode=CAB207_3_3_3,Length=0.064390000,Units=km
new line.SMT_1199783 bus1=BMT2340790B.1.2.3,bus2=BMT2340797B.1.2.3,Phases=3,Linecode=CAB207_3_3_3,Length=0.075988000,Units=km
new line.SMT_1199790 bus1=BMT2340797B.1.2.3,bus2=BMT2340811B.1.2.3,Phases=3,Linecode=CAB207_3_3_3,Length=0.147599000,Units=km
new line.SMT_1199797 bus1=BMT121690979.1.2.3,bus2=BMT121690986.1.2.3,Phases=3,Linecode=CAB102_3_3_3,Length=0.030587000,Units=km
new line.SMT_1199804 bus1=BMT2340811B.1.2.3,bus2=BMT4330463B.1.2.3,Phases=3,Linecode=CAB207_3_3_3,Length=0.096724000,Units=km
new line.SMT_1199811 bus1=BMT2340818B.1.2.3,bus2=BMT4330484B.1.2.3,Phases=3,Linecode=CAB207_3_3_3,Length=0.121169000,Units=km
new line.SMT_1199818 bus1=BMT2340825B.1.2.3,bus2=BMT4330498B.1.2.3,Phases=3,Linecode=CAB207_3_3_3,Length=0.118123000,Units=km
new line.SMT_1199832 bus1=BMT121683167.1.2.3,bus2=BMT4330533B.1.2.3,Phases=3,Linecode=CAB207_3_3_3,Length=0.148519000,Units=km
new line.SMT_1199839 bus1=BMT121689481.3,bus2=BMT121689488.3,Phases=1,Linecode=CAB102_3_1_1,Length=0.014762000,Units=km
new line.SMT_1199846 bus1=BMT121689481.1.2.3,bus2=BMT4079919B.1.2.3,Phases=3,Linecode=CAB107_3_3_3,Length=0.064830000,Units=km
new line.SMT_1199853 bus1=BMT2340846B.1.2.3,bus2=BMT121690755.1.2.3,Phases=3,Linecode=CAB202_3_3_3,Length=0.095318000,Units=km
new line.SMT_1199860 bus1=BMT121690755.2,bus2=BMT121690762.2,Phases=1,Linecode=CAB102_3_1_1,Length=0.044284000,Units=km
new line.SMT_1199888 bus1=BMT121690776.1.2.3,bus2=BMT2340895B.1.2.3,Phases=3,Linecode=CAB202_3_3_3,Length=0.114763000,Units=km
new line.SMT_1199902 bus1=BMT140604209.2,bus2=BMT140604216.2,Phases=1,Linecode=CAB202_3_1_1,Length=0.139250000,Units=km
new line.SMT_1199923 bus1=BMT140604223.2,bus2=BMT140604230.2,Phases=1,Linecode=CAB102_3_1_1,Length=0.070162000,Units=km
new line.SMT_1199930 bus1=BMT2340895B.1.2.3,bus2=BMT3213515B.1.2.3,Phases=3,Linecode=CAB202_3_3_3,Length=0.115773000,Units=km
new line.SMT_1199937 bus1=BMT121690930.1.2.3,bus2=BMT121690937.1.2.3,Phases=3,Linecode=CAB102_3_3_3,Length=0.045167000,Units=km
new line.SMT_1199944 bus1=BMT121690783.1.2.3,bus2=BMT3213529B.1.2.3,Phases=3,Linecode=CAB202_3_3_3,Length=0.238154000,Units=km
new line.SMT_1199958 bus1=BMT156673338.2,bus2=BMT2340923B.2,Phases=1,Linecode=CAB202_3_1_1,Length=0.107756000,Units=km
new line.SMT_1199965 bus1=BMT121690797.1.2.3,bus2=BMT121690818.1.2.3,Phases=3,Linecode=CAB202_3_3_3,Length=0.141005000,Units=km
new line.SMT_1199979 bus1=BMT121690895.2,bus2=BMT121690902.2,Phases=1,Linecode=CAB202_3_1_1,Length=0.330719000,Units=km
new line.SMT_1199993 bus1=BMT121690902.2,bus2=BMT121690909.2,Phases=1,Linecode=CAB102_3_1_1,Length=0.053588000,Units=km
new line.SMT_1200000 bus1=BMT121690902.2,bus2=BMT2340958B.2,Phases=1,Linecode=CAB202_3_1_1,Length=0.086292000,Units=km
new line.SMT_1200007 bus1=BMT156673339.2,bus2=BMT156673340.2,Phases=1,Linecode=CAB102_3_1_1,Length=0.010768000,Units=km
new line.SMT_1200014 bus1=BMT156673339.2,bus2=BMT156673341.2,Phases=1,Linecode=CAB202_3_1_1,Length=0.199275000,Units=km
new line.SMT_1200021 bus1=BMT156673341.2,bus2=BMT156673342.2,Phases=1,Linecode=CAB102_3_1_1,Length=0.075672000,Units=km
new line.SMT_1200042 bus1=BMT121690916.2,bus2=BMT121690923.2,Phases=1,Linecode=CAB102_3_1_1,Length=0.039803000,Units=km
new line.SMT_1200049 bus1=BMT121683174.1,bus2=BMT121683181.1,Phases=1,Linecode=CAB102_3_1_1,Length=0.044677000,Units=km
new line.SMT_1200056 bus1=BMT121683174.1.2.3,bus2=BMT4330540B.1.2.3,Phases=3,Linecode=CAB207_3_3_3,Length=0.129250000,Units=km
new line.SMT_1200119 bus1=BMT178999287.3,bus2=BMT178999289.3,Phases=1,Linecode=CAB202_3_1_1,Length=0.148493000,Units=km
new line.SMT_1200140 bus1=BMT121689082.3,bus2=BMT121689089.3,Phases=1,Linecode=CAB202_3_1_1,Length=0.053251000,Units=km
new line.SMT_1200147 bus1=BMT121688963.3,bus2=BMT178999290.3,Phases=1,Linecode=CAB202_3_1_1,Length=0.110653000,Units=km
new line.SMT_1200182 bus1=BMT121688977.3,bus2=BMT178999291.3,Phases=1,Linecode=CAB102_3_1_1,Length=0.077911000,Units=km
new line.SMT_1200189 bus1=BMT121683188.1.2.3,bus2=BMT121683195.1.2.3,Phases=3,Linecode=CAB202_3_3_3,Length=0.110990000,Units=km
new line.SMT_1200196 bus1=BMT121683188.1.2.3,bus2=BMT121683202.1.2.3,Phases=3,Linecode=CAB207_3_3_3,Length=0.123848000,Units=km
new line.SMT_1200203 bus1=BMT121683209.1.2.3,bus2=BMT121683216.1.2.3,Phases=3,Linecode=CAB102_3_3_3,Length=0.062162000,Units=km
new line.SMT_1200210 bus1=BMT121683209.1.2.3,bus2=BMT3466082B.1.2.3,Phases=3,Linecode=CAB207_3_3_3,Length=0.118566000,Units=km
new line.SMT_1200217 bus1=BMT121683223.3,bus2=BMT121683230.3,Phases=1,Linecode=CAB102_3_1_1,Length=0.037567000,Units=km
new line.SMT_1200224 bus1=BMT121683223.1.2.3,bus2=BMT2341063B.1.2.3,Phases=3,Linecode=CAB207_3_3_3,Length=0.053222000,Units=km
new line.SMT_1200231 bus1=BMT2341063B.1.2.3,bus2=BMT4330505B.1.2.3,Phases=3,Linecode=CAB207_3_3_3,Length=0.105054000,Units=km
new line.SMT_1200238 bus1=BMT176528662.1.2.3,bus2=BMT176528663.1.2.3,Phases=3,Linecode=CAB102_3_3_3,Length=0.052788000,Units=km
new line.SMT_1200245 bus1=BMT176528662.1.2.3,bus2=BMT4330568B.1.2.3,Phases=3,Linecode=CAB207_3_3_3,Length=0.134969000,Units=km
new line.SMT_1200252 bus1=BMT2341077B.1.2.3,bus2=BMT4330589B.1.2.3,Phases=3,Linecode=CAB207_3_3_3,Length=0.116747000,Units=km
new line.SMT_1200259 bus1=BMT2341084B.1.2.3,bus2=BMT4330666B.1.2.3,Phases=3,Linecode=CAB207_3_3_3,Length=0.115364000,Units=km
new line.SMT_1200266 bus1=BMT2341091B.1.2.3,bus2=BMT2968991B.1.2.3,Phases=3,Linecode=CAB207_3_3_3,Length=0.121610000,Units=km
new line.SMT_1200280 bus1=BMT121683265.1.2.3,bus2=BMT4080682B.1.2.3,Phases=3,Linecode=CAB207_3_3_3,Length=0.111796000,Units=km
new line.SMT_1200294 bus1=BMT121689544.1.2.3,bus2=BMT176528666.1.2.3,Phases=3,Linecode=CAB207_3_3_3,Length=0.111760000,Units=km
new line.SMT_1200301 bus1=BMT176528667.1.2.3,bus2=BMT121683342.1.2.3,Phases=3,Linecode=CAB207_3_3_3,Length=0.115986000,Units=km
new line.SMT_1200308 bus1=BMT161939854.1,bus2=BMT161939855.1,Phases=1,Linecode=CAB202_3_1_1,Length=0.162781000,Units=km
new line.SMT_1201827 bus1=BMT151057760.3,bus2=BMT2342071B.3,Phases=1,Linecode=CAB202_3_1_1,Length=0.115405000,Units=km
new line.SMT_1201834 bus1=BMT151057760.3,bus2=BMT151057762.3,Phases=1,Linecode=CAB202_3_1_1,Length=0.182439000,Units=km
new line.SMT_1201848 bus1=BMT151057762.3,bus2=BMT151057763.3,Phases=1,Linecode=CAB202_3_1_1,Length=0.079239000,Units=km
new line.SMT_1201862 bus1=BMT151057763.3,bus2=BMT151057779.3,Phases=1,Linecode=CAB102_3_1_1,Length=0.064745000,Units=km
new line.SMT_1201869 bus1=BMT151057764.3,bus2=BMT151057765.3,Phases=1,Linecode=CAB102_3_1_1,Length=0.060911000,Units=km
new line.SMT_1201890 bus1=BMT151057767.3,bus2=BMT151057769.3,Phases=1,Linecode=CAB102_3_1_1,Length=0.047790000,Units=km
new line.SMT_1201932 bus1=BMT166411380.1,bus2=BMT166411381.1,Phases=1,Linecode=CAB102_3_1_1,Length=0.061604000,Units=km
new line.SMT_1201953 bus1=BMT121688711.1.2.3,bus2=BMT121688718.1.2.3,Phases=3,Linecode=CAB202_3_3_3,Length=0.161512000,Units=km
new line.SMT_1201960 bus1=BMT171782085.2,bus2=BMT2342155B.2,Phases=1,Linecode=CAB202_3_1_1,Length=0.108976000,Units=km
new line.SMT_1201974 bus1=BMT121688767.2,bus2=BMT121688774.2,Phases=1,Linecode=CAB202_3_1_1,Length=0.079904000,Units=km
new line.SMT_1201995 bus1=BMT121688774.2,bus2=BMT121688781.2,Phases=1,Linecode=CAB102_3_1_1,Length=0.074653000,Units=km
new line.SMT_1202016 bus1=BMT171782086.2,bus2=BMT171782087.2,Phases=1,Linecode=CAB102_3_1_1,Length=0.080080000,Units=km
new line.SMT_1202023 bus1=BMT121687360.3,bus2=BMT121687367.3,Phases=1,Linecode=CAB102_3_1_1,Length=0.074652000,Units=km
new line.SMT_1202044 bus1=BMT121687374.3,bus2=BMT121687381.3,Phases=1,Linecode=CAB102_3_1_1,Length=0.066049000,Units=km
new line.SMT_1202100 bus1=BMT147066399.1,bus2=BMT147066406.1,Phases=1,Linecode=CAB102_3_1_1,Length=0.076673000,Units=km
new line.SMT_1202135 bus1=BMT147066427.1,bus2=BMT147066434.1,Phases=1,Linecode=CAB102_3_1_1,Length=0.040597000,Units=km
new line.SMT_1202142 bus1=BMT147066427.1.2.3,bus2=BMT147066441.1.2.3,Phases=3,Linecode=CAB202_3_3_3,Length=0.131511000,Units=km
new line.SMT_1202156 bus1=BMT147066441.2,bus2=BMT121687276.2,Phases=1,Linecode=CAB202_3_1_1,Length=0.151225000,Units=km
new line.SMT_1202177 bus1=BMT121687318.2,bus2=BMT121687325.2,Phases=1,Linecode=CAB102_3_1_1,Length=0.061595000,Units=km
new line.SMT_1202198 bus1=BMT121686891.3,bus2=BMT121686898.3,Phases=1,Linecode=CAB102_3_1_1,Length=0.049180000,Units=km
new line.SMT_1202240 bus1=BMT121683468.1.2.3,bus2=BMT121683475.1.2.3,Phases=3,Linecode=CAB203_3_3_3,Length=0.115569000,Units=km
new line.SMT_1202247 bus1=BMT121683468.1.2.3,bus2=BMT121683482.1.2.3,Phases=3,Linecode=CAB204_3_3_3,Length=0.121620000,Units=km
new line.SMT_1202275 bus1=BMT121683510.1,bus2=BMT121683517.1,Phases=1,Linecode=CAB103_3_1_1,Length=0.077907000,Units=km
new line.SMT_1202317 bus1=BMT121686807.1,bus2=BMT121686814.1,Phases=1,Linecode=CAB102_3_1_1,Length=0.078527000,Units=km
new line.SMT_1202324 bus1=BMT121686807.1,bus2=BMT121686821.1,Phases=1,Linecode=CAB102_3_1_1,Length=0.043034000,Units=km
new line.SMT_1202331 bus1=BMT121686807.1,bus2=BMT121686828.1,Phases=1,Linecode=CAB102_3_1_1,Length=0.073532000,Units=km
new line.SMT_1202380 bus1=BMT121683552.3,bus2=BMT121683566.3,Phases=1,Linecode=CAB102_3_1_1,Length=0.041388000,Units=km
new line.SMT_1202387 bus1=BMT121683552.1.2.3,bus2=BMT121683573.1.2.3,Phases=3,Linecode=CAB204_3_3_3,Length=0.095103000,Units=km
new line.SMT_1202394 bus1=BMT121683573.1,bus2=BMT121683580.1,Phases=1,Linecode=CAB102_3_1_1,Length=0.075984000,Units=km
new line.SMT_1202408 bus1=BMT121683587.1.2.3,bus2=BMT121683594.1.2.3,Phases=3,Linecode=CAB202_3_3_3,Length=0.175771000,Units=km
new line.SMT_1202415 bus1=BMT121683587.1.2.3,bus2=BMT121683601.1.2.3,Phases=3,Linecode=CAB204_3_3_3,Length=0.120181000,Units=km
new line.SMT_1202429 bus1=BMT121683601.3,bus2=BMT121683608.3,Phases=1,Linecode=CAB102_3_1_1,Length=0.071400000,Units=km
new line.SMT_1202457 bus1=BMT121683622.3,bus2=BMT121683636.3,Phases=1,Linecode=CAB102_3_1_1,Length=0.039650000,Units=km
new line.SMT_1202464 bus1=BMT121683622.1.2.3,bus2=BMT3803825B.1.2.3,Phases=3,Linecode=CAB204_3_3_3,Length=0.076672000,Units=km
new line.SMT_1202485 bus1=BMT121683650.1.2.3,bus2=BMT3803818B.1.2.3,Phases=3,Linecode=CAB204_3_3_3,Length=0.074228000,Units=km
new line.SMT_1202492 bus1=BMT121686695.1,bus2=BMT2342701B.1,Phases=1,Linecode=CAB202_3_1_1,Length=0.131445000,Units=km
new line.SMT_1202499 bus1=BMT121686695.1,bus2=BMT121686709.1,Phases=1,Linecode=CAB202_3_1_1,Length=0.120297000,Units=km
new line.SMT_1202513 bus1=BMT121683657.1.2.3,bus2=BMT4595224B.1.2.3,Phases=3,Linecode=CAB204_3_3_3,Length=0.119484000,Units=km
new line.SMT_1202520 bus1=BMT121683888.1.2.3,bus2=BMT121683895.1.2.3,Phases=3,Linecode=CAB204_3_3_3,Length=0.078469000,Units=km
new line.SMT_1202527 bus1=BMT172447759.2,bus2=BMT172447760.2,Phases=1,Linecode=CAB202_3_1_1,Length=0.130230000,Units=km
new line.SMT_1202534 bus1=BMT121686520.2,bus2=BMT172448609.2,Phases=1,Linecode=CAB202_3_1_1,Length=0.129615000,Units=km
new line.SMT_1202548 bus1=BMT172447760.2,bus2=BMT3075209B.2,Phases=1,Linecode=CAB202_3_1_1,Length=0.123272000,Units=km
new line.SMT_1202590 bus1=BMT172447767.2,bus2=BMT172447768.2,Phases=1,Linecode=CAB202_3_1_1,Length=0.052616000,Units=km
new line.SMT_1202604 bus1=BMT172447768.2,bus2=BMT172447771.2,Phases=1,Linecode=CAB102_3_1_1,Length=0.018023000,Units=km
new line.SMT_1202611 bus1=BMT172447768.2,bus2=BMT172447772.2,Phases=1,Linecode=CAB102_3_1_1,Length=0.014996000,Units=km
new line.SMT_1202625 bus1=BMT172447769.2,bus2=BMT172447770.2,Phases=1,Linecode=CAB103_3_1_1,Length=0.076822000,Units=km
new line.SMT_1202639 bus1=BMT121684231.1.2.3,bus2=BMT121684238.1.2.3,Phases=3,Linecode=CAB103_3_3_3,Length=0.007278000,Units=km
new line.SMT_1202646 bus1=BMT121684231.1.2.3,bus2=BMT409315B.1.2.3,Phases=3,Linecode=CAB103_3_3_3,Length=0.027287000,Units=km
new line.SMT_1202653 bus1=BMT121684231.1.2.3,bus2=BMT409322B.1.2.3,Phases=3,Linecode=CAB103_3_3_3,Length=0.006323000,Units=km
new line.SMT_1202660 bus1=BMT121684266.1.2.3,bus2=BMT408839B.1.2.3,Phases=3,Linecode=CAB103_3_3_3,Length=0.029266000,Units=km
new line.SMT_1202667 bus1=BMT121684266.1.2.3,bus2=BMT121684280.1.2.3,Phases=3,Linecode=CAB103_3_3_3,Length=0.040038000,Units=km
new line.SMT_1202674 bus1=BMT121684266.1.2.3,bus2=BMT408895B.1.2.3,Phases=3,Linecode=CAB103_3_3_3,Length=0.010047000,Units=km
new line.SMT_1202730 bus1=BMT150827240.1.2.3,bus2=BMT150827241.1.2.3,Phases=3,Linecode=CAB202_3_3_3,Length=0.060389000,Units=km
new line.SMT_1202737 bus1=BMT2342596B.1.2.3,bus2=BMT4260904B.1.2.3,Phases=3,Linecode=CABA06_3_3_3,Length=0.042095000,Units=km
new line.SMT_1202744 bus1=BMT152313762.1.2.3,bus2=BMT152313763.1.2.3,Phases=3,Linecode=CABA06_3_3_3,Length=0.047114000,Units=km
new line.SMT_1202758 bus1=BMT150827241.1.2.3,bus2=BMT150827242.1.2.3,Phases=3,Linecode=CAB202_3_3_3,Length=0.061080000,Units=km
new line.SMT_1202765 bus1=BMT150827241.1.2.3,bus2=BMT150827243.1.2.3,Phases=3,Linecode=CAB202_3_3_3,Length=0.011399000,Units=km
new line.SMT_1202772 bus1=BMT177894458.1.2.3,bus2=BMT515015B.1.2.3,Phases=3,Linecode=CAB203_3_3_3,Length=0.089169000,Units=km
new line.SMT_1202779 bus1=BMT149938776.1.2.3,bus2=BMT3055007B.1.2.3,Phases=3,Linecode=CABA06_3_3_3,Length=0.028010000,Units=km
new line.SMT_1202786 bus1=BMT177894463.1.2.3,bus2=BMT177894464.1.2.3,Phases=3,Linecode=CAB202_3_3_3,Length=0.105726000,Units=km
new line.SMT_1202800 bus1=BMT121685799.1.2.3,bus2=BMT121685806.1.2.3,Phases=3,Linecode=CAB103_3_3_3,Length=0.049634000,Units=km
new line.SMT_1202807 bus1=BMT121685988.1.2.3,bus2=BMT121685995.1.2.3,Phases=3,Linecode=CAB103_3_3_3,Length=0.022797000,Units=km
new line.SMT_1202814 bus1=BMT121685988.1.2.3,bus2=BMT416322B.1.2.3,Phases=3,Linecode=CAB103_3_3_3,Length=0.016120000,Units=km
new line.SMT_1202821 bus1=BMT121685988.1.2.3,bus2=BMT416329B.1.2.3,Phases=3,Linecode=CAB103_3_3_3,Length=0.010814000,Units=km
new line.SMT_1202828 bus1=BMT121686380.1.2.3,bus2=BMT121686415.1.2.3,Phases=3,Linecode=CAB104_3_3_3,Length=0.064455000,Units=km
new line.SMT_1202835 bus1=BMT167797624.1.2.3,bus2=BMT410442B.1.2.3,Phases=3,Linecode=CAB103_3_3_3,Length=0.004999000,Units=km
new line.SMT_1202842 bus1=BMT167797624.1.2.3,bus2=BMT167797626.1.2.3,Phases=3,Linecode=CAB102_3_3_3,Length=0.004999000,Units=km
new line.SMT_1202849 bus1=BMT167797624.1.2.3,bus2=BMT410477B.1.2.3,Phases=3,Linecode=CAB103_3_3_3,Length=0.022016000,Units=km
new line.SMT_1202856 bus1=BMT167797629.1.2.3,bus2=BMT409259B.1.2.3,Phases=3,Linecode=CAB103_3_3_3,Length=0.006081000,Units=km
new line.SMT_1202863 bus1=BMT167797629.1.2.3,bus2=BMT409273B.1.2.3,Phases=3,Linecode=CAB103_3_3_3,Length=0.007278000,Units=km
new line.SMT_1202870 bus1=BMT167797629.1.2.3,bus2=BMT409301B.1.2.3,Phases=3,Linecode=CAB103_3_3_3,Length=0.035217000,Units=km
new line.SMT_1202877 bus1=BMT160211850.1.2.3,bus2=BMT160211851.1.2.3,Phases=3,Linecode=CAB103_3_3_3,Length=0.026012000,Units=km
new line.SMT_1202884 bus1=BMT160211850.1.2.3,bus2=BMT410792B.1.2.3,Phases=3,Linecode=CAB103_3_3_3,Length=0.006707000,Units=km
new line.SMT_1202891 bus1=BMT160211850.1.2.3,bus2=BMT410820B.1.2.3,Phases=3,Linecode=CAB103_3_3_3,Length=0.009053000,Units=km
new line.SMT_1202898 bus1=BMT138368549.1.2.3,bus2=BMT410862B.1.2.3,Phases=3,Linecode=CAB103_3_3_3,Length=0.035345000,Units=km
new line.SMT_1202905 bus1=BMT138368549.1.2.3,bus2=BMT410869B.1.2.3,Phases=3,Linecode=CAB103_3_3_3,Length=0.007278000,Units=km
new line.SMT_1202912 bus1=BMT138368549.1.2.3,bus2=BMT410925B.1.2.3,Phases=3,Linecode=CAB103_3_3_3,Length=0.023015000,Units=km
new line.SMT_1202919 bus1=BMT2342701B.1,bus2=BMT121686702.1,Phases=1,Linecode=CAB202_3_1_1,Length=0.130346000,Units=km
new line.SMT_1202926 bus1=BMT121683699.1.2.3,bus2=BMT121683706.1.2.3,Phases=3,Linecode=CAB202_3_3_3,Length=0.093031000,Units=km
new line.SMT_1202933 bus1=BMT121683783.2,bus2=BMT121683790.2,Phases=1,Linecode=CAB202_3_1_1,Length=0.104778000,Units=km
new line.SMT_1202940 bus1=BMT121683706.2,bus2=BMT121683713.2,Phases=1,Linecode=CAB202_3_1_1,Length=0.071288000,Units=km
new line.SMT_1202954 bus1=BMT121683790.2,bus2=BMT121683797.2,Phases=1,Linecode=CAB102_3_1_1,Length=0.072545000,Units=km
new line.SMT_1203010 bus1=BMT121683720.2,bus2=BMT121683727.2,Phases=1,Linecode=CAB102_3_1_1,Length=0.040101000,Units=km
new line.SMT_1203017 bus1=BMT121683720.1.2.3,bus2=BMT121683734.1.2.3,Phases=3,Linecode=CAB202_3_3_3,Length=0.102930000,Units=km
new line.SMT_1203031 bus1=BMT148720299.1.2.3,bus2=BMT2342771B.1.2.3,Phases=3,Linecode=CAB202_3_3_3,Length=0.130995000,Units=km
new line.SMT_1203038 bus1=BMT2342771B.1.2.3,bus2=BMT2986211B.1.2.3,Phases=3,Linecode=CAB202_3_3_3,Length=0.080406000,Units=km
new line.SMT_1203066 bus1=BMT2342792B.1.2.3,bus2=BMT121686877.1.2.3,Phases=3,Linecode=CAB202_3_3_3,Length=0.071848000,Units=km
new line.SMT_12162334 bus1=BMT151193790.1.2.3,bus2=BMT121685596.1.2.3,Phases=3,Linecode=CABA06_3_3_3,Length=0.022993000,Units=km
new line.SMT_12162344 bus1=BMT2342561B.1.2.3,bus2=BMT173950536.1.2.3,Phases=3,Linecode=CAB202_3_3_3,Length=0.072923000,Units=km
new line.SMT_12162370 bus1=BMT3055007B.1.2.3,bus2=BMT173950545.1.2.3,Phases=3,Linecode=CABA06_3_3_3,Length=0.029991000,Units=km
new line.SMT_12162371 bus1=BMT173950545.1.2.3,bus2=BMT173950546.1.2.3,Phases=3,Linecode=CABA06_3_3_3,Length=0.022993000,Units=km
new line.SMT_12162378 bus1=BMT8758827B.1.2.3,bus2=BMT173950540.1.2.3,Phases=3,Linecode=CABA06_3_3_3,Length=0.040100000,Units=km
new line.SMT_12162379 bus1=BMT173950540.1.2.3,bus2=BMT8758821B.1.2.3,Phases=3,Linecode=CABA06_3_3_3,Length=0.008060000,Units=km
new line.SMT_12162380 bus1=BMT173950540.1.2.3,bus2=BMT173950542.1.2.3,Phases=3,Linecode=CABA06_3_3_3,Length=0.038041000,Units=km
new line.SMT_12162381 bus1=BMT173950543.1.2.3,bus2=BMT8758852B.1.2.3,Phases=3,Linecode=CABA06_3_3_3,Length=0.036114000,Units=km
new line.SMT_12162382 bus1=BMT8758821B.1.2.3,bus2=BMT8758820B.1.2.3,Phases=3,Linecode=CABA06_3_3_3,Length=0.037002000,Units=km
new line.SMT_12162383 bus1=BMT8758820B.1.2.3,bus2=BMT8758819B.1.2.3,Phases=3,Linecode=CABA06_3_3_3,Length=0.039040000,Units=km
new line.SMT_12162387 bus1=BMT8758852B.1.2.3,bus2=BMT8758854B.1.2.3,Phases=3,Linecode=CABA06_3_3_3,Length=0.025311000,Units=km
new line.SMT_12162388 bus1=BMT8758854B.1.2.3,bus2=BMT8758855B.1.2.3,Phases=3,Linecode=CABA06_3_3_3,Length=0.012996000,Units=km
new line.SMT_12162389 bus1=BMT8758854B.1.2.3,bus2=BMT173950544.1.2.3,Phases=3,Linecode=CABA06_3_3_3,Length=0.020019000,Units=km
new line.SMT_12162392 bus1=BMT173950544.1.2.3,bus2=BMT8758858B.1.2.3,Phases=3,Linecode=CABA06_3_3_3,Length=0.033051000,Units=km
new line.SMT_12162393 bus1=BMT8758858B.1.2.3,bus2=BMT173950545.1.2.3,Phases=3,Linecode=CABA06_3_3_3,Length=0.032131000,Units=km
new line.SMT_12162396 bus1=BMT8758819B.1.2.3,bus2=BMT173950541.1.2.3,Phases=3,Linecode=CABA06_3_3_3,Length=0.038002000,Units=km
new line.SMT_12162397 bus1=BMT173950541.1.2.3,bus2=BMT8758816B.1.2.3,Phases=3,Linecode=CABA06_3_3_3,Length=0.040100000,Units=km
new line.SMT_12162398 bus1=BMT8758816B.1.2.3,bus2=BMT150822237.1.2.3,Phases=3,Linecode=CABA06_3_3_3,Length=0.041097000,Units=km
new line.SMT_12162401 bus1=BMT151193783.1.2.3,bus2=BMT151193784.1.2.3,Phases=3,Linecode=CABA06_3_3_3,Length=0.032053000,Units=km
new line.SMT_12162402 bus1=BMT151193784.1.2.3,bus2=BMT8758882B.1.2.3,Phases=3,Linecode=CABA06_3_3_3,Length=0.025013000,Units=km
new line.SMT_12162403 bus1=BMT151193784.1.2.3,bus2=BMT8758883B.1.2.3,Phases=3,Linecode=CABA06_3_3_3,Length=0.009997000,Units=km
new line.SMT_12162404 bus1=BMT8758883B.1.2.3,bus2=BMT151193785.1.2.3,Phases=3,Linecode=CABA06_3_3_3,Length=0.035004000,Units=km
new line.SMT_12162405 bus1=BMT151193784.1.2.3,bus2=BMT8758813B.1.2.3,Phases=3,Linecode=CABA06_3_3_3,Length=0.006998000,Units=km
new line.SMT_12162407 bus1=BMT8758813B.1.2.3,bus2=BMT8758812B.1.2.3,Phases=3,Linecode=CABA06_3_3_3,Length=0.037844000,Units=km
new line.SMT_12162417 bus1=BMT8758812B.1.2.3,bus2=BMT8209172B.1.2.3,Phases=3,Linecode=CABA06_3_3_3,Length=0.031771000,Units=km
new line.SMT_12162419 bus1=BMT151193785.1.2.3,bus2=BMT8758890B.1.2.3,Phases=3,Linecode=CABA06_3_3_3,Length=0.034005000,Units=km
new line.SMT_12162420 bus1=BMT8758890B.1.2.3,bus2=BMT151193787.1.2.3,Phases=3,Linecode=CABA06_3_3_3,Length=0.007998000,Units=km
new line.SMT_12162421 bus1=BMT121685519.1.2.3,bus2=BMT151193789.1.2.3,Phases=3,Linecode=CABA06_3_3_3,Length=0.020094000,Units=km
new line.SMT_12162426 bus1=BMT151193787.1.2.3,bus2=BMT8758901B.1.2.3,Phases=3,Linecode=CABA06_3_3_3,Length=0.022993000,Units=km
new line.SMT_12162427 bus1=BMT8758901B.1.2.3,bus2=BMT8758902B.1.2.3,Phases=3,Linecode=CABA06_3_3_3,Length=0.024993000,Units=km
new line.SMT_12162428 bus1=BMT8758902B.1.2.3,bus2=BMT8758903B.1.2.3,Phases=3,Linecode=CABA06_3_3_3,Length=0.024993000,Units=km
new line.SMT_12162429 bus1=BMT8758903B.1.2.3,bus2=BMT151193788.1.2.3,Phases=3,Linecode=CABA06_3_3_3,Length=0.007998000,Units=km
new line.SMT_12162430 bus1=BMT151193788.1.2.3,bus2=BMT8758906B.1.2.3,Phases=3,Linecode=CABA06_3_3_3,Length=0.007998000,Units=km
new line.SMT_12162431 bus1=BMT8758906B.1.2.3,bus2=BMT8758907B.1.2.3,Phases=3,Linecode=CABA06_3_3_3,Length=0.029060000,Units=km
new line.SMT_12162434 bus1=BMT151193787.1.2.3,bus2=BMT8758900B.1.2.3,Phases=3,Linecode=CABA06_3_3_3,Length=0.035004000,Units=km
new line.SMT_12162435 bus1=BMT8758894B.1.2.3,bus2=BMT151193789.1.2.3,Phases=3,Linecode=CABA06_3_3_3,Length=0.028063000,Units=km
new line.SMT_12162447 bus1=BMT8758907B.1.2.3,bus2=BMT151193790.1.2.3,Phases=3,Linecode=CABA06_3_3_3,Length=0.027287000,Units=km
new line.SMT_12162474 bus1=BMT151193788.1.2.3,bus2=BMT151193791.1.2.3,Phases=3,Linecode=CABA06_3_3_3,Length=0.030991000,Units=km
new line.SMT_12162475 bus1=BMT151193791.1.2.3,bus2=BMT8758943B.1.2.3,Phases=3,Linecode=CABA06_3_3_3,Length=0.041036000,Units=km
new line.SMT_12162476 bus1=BMT8758943B.1.2.3,bus2=BMT8758944B.1.2.3,Phases=3,Linecode=CABA06_3_3_3,Length=0.039447000,Units=km
new line.SMT_12162477 bus1=BMT8758944B.1.2.3,bus2=BMT8758945B.1.2.3,Phases=3,Linecode=CABA06_3_3_3,Length=0.035004000,Units=km
new line.SMT_12162478 bus1=BMT8758945B.1.2.3,bus2=BMT151193792.1.2.3,Phases=3,Linecode=CABA06_3_3_3,Length=0.036003000,Units=km
new line.SMT_12162485 bus1=BMT151193788.1.2.3,bus2=BMT8758948B.1.2.3,Phases=3,Linecode=CABA06_3_3_3,Length=0.021994000,Units=km
new line.SMT_1203542 bus1=BMT2343100B.1.2.3,bus2=BMT2343107B.1.2.3,Phases=3,Linecode=CAB202_3_3_3,Length=0.137852000,Units=km
new line.SMT_1203584 bus1=BMT2343128B.1.2.3,bus2=BMT169405881.1.2.3,Phases=3,Linecode=CAB102_3_3_3,Length=0.017489000,Units=km
new line.SMT_1203619 bus1=BMT121690538.3,bus2=BMT121690545.3,Phases=1,Linecode=CAB202_3_1_1,Length=0.104035000,Units=km
new line.SMT_1203647 bus1=BMT121690440.3,bus2=BMT161879031.3,Phases=1,Linecode=CAB202_3_1_1,Length=0.168315000,Units=km
new line.SMT_1203654 bus1=BMT121690461.3,bus2=BMT2343177B.3,Phases=1,Linecode=CAB202_3_1_1,Length=0.141955000,Units=km
new line.SMT_1203661 bus1=BMT161879031.3,bus2=BMT161879032.3,Phases=1,Linecode=CAB102_3_1_1,Length=0.024181000,Units=km
new line.SMT_1203668 bus1=BMT2343177B.3,bus2=BMT2343184B.3,Phases=1,Linecode=CAB202_3_1_1,Length=0.143018000,Units=km
new line.SMT_1203682 bus1=BMT121690468.3,bus2=BMT121690475.3,Phases=1,Linecode=CAB102_3_1_1,Length=0.081035000,Units=km
new line.SMT_1203703 bus1=BMT121690482.3,bus2=BMT121690489.3,Phases=1,Linecode=CAB202_3_1_1,Length=0.141119000,Units=km
new line.SMT_1203752 bus1=BMT121689698.1.2.3,bus2=BMT121689705.1.2.3,Phases=3,Linecode=CAB103_3_3_3,Length=0.028224000,Units=km
new line.SMT_1203759 bus1=BMT2343233B.3,bus2=BMT3189792B.3,Phases=1,Linecode=CAB202_3_1_1,Length=0.082075000,Units=km
new line.SMT_1203766 bus1=BMT2343240B.3,bus2=BMT121689845.3,Phases=1,Linecode=CAB202_3_1_1,Length=0.108718000,Units=km
new line.SMT_1203801 bus1=BMT2343261B.1,bus2=BMT2343268B.1,Phases=1,Linecode=CAB202_3_1_1,Length=0.090224000,Units=km
new line.SMT_1203829 bus1=BMT2343296B.1.2.3,bus2=BMT3081642B.1.2.3,Phases=3,Linecode=CAB204_3_3_3,Length=0.077817000,Units=km
new line.SMT_1203836 bus1=BMT2343296B.1.2.3,bus2=BMT178733202.1.2.3,Phases=3,Linecode=CAB204_3_3_3,Length=0.068397000,Units=km
new line.SMT_1203892 bus1=BMT179499341.2,bus2=BMT179499345.2,Phases=1,Linecode=CAB102_3_1_1,Length=0.043282000,Units=km
new line.SMT_1203906 bus1=BMT2343338B.2,bus2=BMT179499346.2,Phases=1,Linecode=CAB202_3_1_1,Length=0.138266000,Units=km
new line.SMT_1204011 bus1=BMT121682509.1.2.3,bus2=BMT2343422B.1.2.3,Phases=3,Linecode=CAB202_3_3_3,Length=0.113153000,Units=km
new line.SMT_1204025 bus1=BMT2343422B.1.2.3,bus2=BMT121682516.1.2.3,Phases=3,Linecode=CAB202_3_3_3,Length=0.116273000,Units=km
new line.SMT_1204046 bus1=BMT121682523.2,bus2=BMT121682530.2,Phases=1,Linecode=CAB103_3_1_1,Length=0.076384000,Units=km
new line.SMT_1204053 bus1=BMT121682523.1.2.3,bus2=BMT121682537.1.2.3,Phases=3,Linecode=CAB202_3_3_3,Length=0.122892000,Units=km
new line.SMT_1204074 bus1=BMT121682719.1.2.3,bus2=BMT121682726.1.2.3,Phases=3,Linecode=CAB202_3_3_3,Length=0.115859000,Units=km
new line.SMT_1204088 bus1=BMT121682789.1.2.3,bus2=BMT121682796.1.2.3,Phases=3,Linecode=CAB102_3_3_3,Length=0.049487000,Units=km