! manter este comentario para compatibilidade do C#
new circuit.alimFRUU14 bus1=BMT121682096,basekv=13.800000000,pu=1.040000000,r1=0,x1=0.0001

