new line.SBT_10068659 bus1=BBT147040975.1.2.3.0,bus2=BBT147040982.1.2.3.0,Phases=3,Linecode=BT514_BT514_7_3_1_3,Length=0.000500000,Units=km
new line.SBT_1555425IP bus1=BBT664752.3.1.0,bus2=BBT5001555425.3.1.0,Phases=2,Linecode=IP_2,Length=0.002840000,Units=km
new line.SBT_1837287IP bus1=BBT3742757.1.2.0,bus2=BBT5001837287.1.2.0,Phases=2,Linecode=IP_2,Length=0.002840000,Units=km
new line.SBT_1837462IP bus1=BBT3742701.3.1.0,bus2=BBT5001837462.3.1.0,Phases=2,Linecode=IP_2,Length=0.005530000,Units=km
new line.SBT_1837469IP bus1=BBT3742792.1.2.0,bus2=BBT5001837469.1.2.0,Phases=2,Linecode=IP_2,Length=0.005530000,Units=km
new line.SBT_1837476IP bus1=BBT3742799.3.1.0,bus2=BBT5001837476.3.1.0,Phases=2,Linecode=IP_2,Length=0.005530000,Units=km
new line.SBT_1837483IP bus1=BBT3742806.1.2.0,bus2=BBT5001837483.1.2.0,Phases=2,Linecode=IP_2,Length=0.005530000,Units=km
new line.SBT_1837490IP bus1=BBT3742813.2.3.0,bus2=BBT5001837490.2.3.0,Phases=2,Linecode=IP_2,Length=0.005530000,Units=km
new line.SBT_1837497IP bus1=BBT3742820.3.1.0,bus2=BBT5001837497.3.1.0,Phases=2,Linecode=IP_2,Length=0.005530000,Units=km
new line.SBT_1837504IP bus1=BBT3742827.1.2.0,bus2=BBT5001837504.1.2.0,Phases=2,Linecode=IP_2,Length=0.005530000,Units=km
new line.SBT_1837511IP bus1=BBT3742834.2.3.0,bus2=BBT5001837511.2.3.0,Phases=2,Linecode=IP_2,Length=0.005530000,Units=km
new line.SBT_1837518IP bus1=BBT3742848.2.3.0,bus2=BBT5001837518.2.3.0,Phases=2,Linecode=IP_2,Length=0.005530000,Units=km
new line.SBT_1837525IP bus1=BBT3742855.3.1.0,bus2=BBT5001837525.3.1.0,Phases=2,Linecode=IP_2,Length=0.005530000,Units=km
new line.SBT_1837532IP bus1=BBT3742841.3.1.0,bus2=BBT5001837532.3.1.0,Phases=2,Linecode=IP_2,Length=0.005530000,Units=km
new line.SBT_1837539IP bus1=BBT3742890.1.2.0,bus2=BBT5001837539.1.2.0,Phases=2,Linecode=IP_2,Length=0.005530000,Units=km
new line.SBT_1837546IP bus1=BBT3742862.2.3.0,bus2=BBT5001837546.2.3.0,Phases=2,Linecode=IP_2,Length=0.005530000,Units=km
new line.SBT_1837553IP bus1=BBT3742911.3.1.0,bus2=BBT5001837553.3.1.0,Phases=2,Linecode=IP_2,Length=0.005530000,Units=km
new line.SBT_1837560IP bus1=BBT3742904.3.1.0,bus2=BBT5001837560.3.1.0,Phases=2,Linecode=IP_2,Length=0.005530000,Units=km
new line.SBT_1837567IP bus1=BBT3742883.2.3.0,bus2=BBT5001837567.2.3.0,Phases=2,Linecode=IP_2,Length=0.005530000,Units=km
new line.SBT_1837574IP bus1=BBT3742883.1.2.0,bus2=BBT5001837574.1.2.0,Phases=2,Linecode=IP_2,Length=0.005530000,Units=km
new line.SBT_1837581IP bus1=BBT3742876.3.1.0,bus2=BBT5001837581.3.1.0,Phases=2,Linecode=IP_2,Length=0.005530000,Units=km
new line.SBT_1837588IP bus1=BBT3742869.2.3.0,bus2=BBT5001837588.2.3.0,Phases=2,Linecode=IP_2,Length=0.005530000,Units=km
new line.SBT_1837595IP bus1=BBT3742946.1.2.0,bus2=BBT5001837595.1.2.0,Phases=2,Linecode=IP_2,Length=0.005530000,Units=km
new line.SBT_1837602IP bus1=BBT3742953.2.3.0,bus2=BBT5001837602.2.3.0,Phases=2,Linecode=IP_2,Length=0.005530000,Units=km
new line.SBT_1837609IP bus1=BBT3742974.3.1.0,bus2=BBT5001837609.3.1.0,Phases=2,Linecode=IP_2,Length=0.005530000,Units=km
new line.SBT_1837616IP bus1=BBT3742981.2.3.0,bus2=BBT5001837616.2.3.0,Phases=2,Linecode=IP_2,Length=0.005530000,Units=km
new line.SBT_1837623IP bus1=BBT3742995.1.2.0,bus2=BBT5001837623.1.2.0,Phases=2,Linecode=IP_2,Length=0.005530000,Units=km
new line.SBT_1837630IP bus1=BBT3743002.2.3.0,bus2=BBT5001837630.2.3.0,Phases=2,Linecode=IP_2,Length=0.005530000,Units=km
new line.SBT_1837637IP bus1=BBT3742939.2.3.0,bus2=BBT5001837637.2.3.0,Phases=2,Linecode=IP_2,Length=0.005530000,Units=km
new line.SBT_1837644IP bus1=BBT3742932.3.1.0,bus2=BBT5001837644.3.1.0,Phases=2,Linecode=IP_2,Length=0.005530000,Units=km
new line.SBT_1837651IP bus1=BBT3742925.2.3.0,bus2=BBT5001837651.2.3.0,Phases=2,Linecode=IP_2,Length=0.005530000,Units=km
new line.SBT_1837658IP bus1=BBT3743177.3.1.0,bus2=BBT5001837658.3.1.0,Phases=2,Linecode=IP_2,Length=0.005530000,Units=km
new line.SBT_1837665IP bus1=BBT3743184.2.3.0,bus2=BBT5001837665.2.3.0,Phases=2,Linecode=IP_2,Length=0.005530000,Units=km
new line.SBT_1837672IP bus1=BBT3743079.2.3.0,bus2=BBT5001837672.2.3.0,Phases=2,Linecode=IP_2,Length=0.005530000,Units=km
new line.SBT_1837679IP bus1=BBT3743072.2.3.0,bus2=BBT5001837679.2.3.0,Phases=2,Linecode=IP_2,Length=0.005530000,Units=km
new line.SBT_1837686IP bus1=BBT3743212.3.1.0,bus2=BBT5001837686.3.1.0,Phases=2,Linecode=IP_2,Length=0.005530000,Units=km
new line.SBT_1837693IP bus1=BBT3743219.2.3.0,bus2=BBT5001837693.2.3.0,Phases=2,Linecode=IP_2,Length=0.005530000,Units=km
new line.SBT_1837700IP bus1=BBT3743198.1.2.0,bus2=BBT5001837700.1.2.0,Phases=2,Linecode=IP_2,Length=0.005530000,Units=km
new line.SBT_1837707IP bus1=BBT3743191.3.1.0,bus2=BBT5001837707.3.1.0,Phases=2,Linecode=IP_2,Length=0.005530000,Units=km
new line.SBT_1837714IP bus1=BBT3743058.2.3.0,bus2=BBT5001837714.2.3.0,Phases=2,Linecode=IP_2,Length=0.005530000,Units=km
new line.SBT_1837721IP bus1=BBT3743051.1.2.0,bus2=BBT5001837721.1.2.0,Phases=2,Linecode=IP_2,Length=0.005530000,Units=km
new line.SBT_1837728IP bus1=BBT3743044.3.1.0,bus2=BBT5001837728.3.1.0,Phases=2,Linecode=IP_2,Length=0.005530000,Units=km
new line.SBT_1837735IP bus1=BBT3743037.2.3.0,bus2=BBT5001837735.2.3.0,Phases=2,Linecode=IP_2,Length=0.005530000,Units=km
new line.SBT_1837742IP bus1=BBT3743030.1.2.0,bus2=BBT5001837742.1.2.0,Phases=2,Linecode=IP_2,Length=0.005530000,Units=km
new line.SBT_1837749IP bus1=BBT3743023.3.1.0,bus2=BBT5001837749.3.1.0,Phases=2,Linecode=IP_2,Length=0.005530000,Units=km
new line.SBT_1837756IP bus1=BBT3743016.2.3.0,bus2=BBT5001837756.2.3.0,Phases=2,Linecode=IP_2,Length=0.005530000,Units=km
new line.SBT_1837763IP bus1=BBT3743065.1.2.0,bus2=BBT5001837763.1.2.0,Phases=2,Linecode=IP_2,Length=0.005530000,Units=km
new line.SBT_1837770IP bus1=BBT5941464.3.1.0,bus2=BBT5001837770.3.1.0,Phases=2,Linecode=IP_2,Length=0.005530000,Units=km
new line.SBT_1837777IP bus1=BBT3743233.2.3.0,bus2=BBT5001837777.2.3.0,Phases=2,Linecode=IP_2,Length=0.005530000,Units=km
new line.SBT_1837784IP bus1=BBT3743240.1.2.0,bus2=BBT5001837784.1.2.0,Phases=2,Linecode=IP_2,Length=0.005530000,Units=km
new line.SBT_1837791IP bus1=BBT3743247.3.1.0,bus2=BBT5001837791.3.1.0,Phases=2,Linecode=IP_2,Length=0.005530000,Units=km
new line.SBT_1837798IP bus1=BBT3743254.2.3.0,bus2=BBT5001837798.2.3.0,Phases=2,Linecode=IP_2,Length=0.005530000,Units=km
new line.SBT_1837805IP bus1=BBT3743226.1.2.0,bus2=BBT5001837805.1.2.0,Phases=2,Linecode=IP_2,Length=0.005530000,Units=km
new line.SBT_1837812IP bus1=BBT3743268.3.1.0,bus2=BBT5001837812.3.1.0,Phases=2,Linecode=IP_2,Length=0.005530000,Units=km
new line.SBT_1837819IP bus1=BBT3743380.1.2.0,bus2=BBT5001837819.1.2.0,Phases=2,Linecode=IP_2,Length=0.005530000,Units=km
new line.SBT_1837826IP bus1=BBT3743261.2.3.0,bus2=BBT5001837826.2.3.0,Phases=2,Linecode=IP_2,Length=0.005530000,Units=km
new line.SBT_1837833IP bus1=BBT3743387.3.1.0,bus2=BBT5001837833.3.1.0,Phases=2,Linecode=IP_2,Length=0.005530000,Units=km
new line.SBT_1837840IP bus1=BBT3743394.2.3.0,bus2=BBT5001837840.2.3.0,Phases=2,Linecode=IP_2,Length=0.005530000,Units=km
new line.SBT_1837847IP bus1=BBT3743359.2.3.0,bus2=BBT5001837847.2.3.0,Phases=2,Linecode=IP_2,Length=0.005530000,Units=km
new line.SBT_1837854IP bus1=BBT3743352.3.1.0,bus2=BBT5001837854.3.1.0,Phases=2,Linecode=IP_2,Length=0.005530000,Units=km
new line.SBT_1837861IP bus1=BBT3743345.2.3.0,bus2=BBT5001837861.2.3.0,Phases=2,Linecode=IP_2,Length=0.005530000,Units=km
new line.SBT_1838099IP bus1=BBT672641.3.1.0,bus2=BBT5001838099.3.1.0,Phases=2,Linecode=IP_2,Length=0.005530000,Units=km
new line.SBT_1838106IP bus1=BBT3746285.3.1.0,bus2=BBT5001838106.3.1.0,Phases=2,Linecode=IP_2,Length=0.002840000,Units=km
new line.SBT_1838113IP bus1=BBT3746285.3.1.0,bus2=BBT5001838113.3.1.0,Phases=2,Linecode=IP_2,Length=0.002840000,Units=km
new line.SBT_1838120IP bus1=BBT3746292.2.3.0,bus2=BBT5001838120.2.3.0,Phases=2,Linecode=IP_2,Length=0.002840000,Units=km
new line.SBT_1838127IP bus1=BBT3746453.1.2.0,bus2=BBT5001838127.1.2.0,Phases=2,Linecode=IP_2,Length=0.002840000,Units=km
new line.SBT_1838134IP bus1=BBT3746453.1.2.0,bus2=BBT5001838134.1.2.0,Phases=2,Linecode=IP_2,Length=0.002840000,Units=km
new line.SBT_1838141IP bus1=BBT3746516.2.3.0,bus2=BBT5001838141.2.3.0,Phases=2,Linecode=IP_2,Length=0.002840000,Units=km
new line.SBT_1838148IP bus1=BBT3746488.1.2.0,bus2=BBT5001838148.1.2.0,Phases=2,Linecode=IP_2,Length=0.002840000,Units=km
new line.SBT_1838155IP bus1=BBT3746523.2.3.0,bus2=BBT5001838155.2.3.0,Phases=2,Linecode=IP_2,Length=0.002840000,Units=km
new line.SBT_10035899 bus1=BBT90150736.1.2.3.0,bus2=BBT146009154.1.2.3.0,Phases=3,Linecode=BT803_BT803_4_3_4_3,Length=0.032006000,Units=km
new line.SBT_10035906 bus1=BBT146009154.1.2.3.0,bus2=BBT146009161.1.2.3.0,Phases=3,Linecode=BT803_BT803_4_3_4_3,Length=0.031007000,Units=km
new line.SBT_10035941 bus1=BBT146009798.1.2.3.0,bus2=BBT535581.1.2.3.0,Phases=3,Linecode=BT518_BT518_7_3_1_3,Length=0.000500000,Units=km
new line.SBT_1742752IP bus1=BBT504697.3.1.0,bus2=BBT5001742752.3.1.0,Phases=2,Linecode=IP_2,Length=0.002180000,Units=km
new line.SBT_1742899IP bus1=BBT3395060.3.1.0,bus2=BBT5001742899.3.1.0,Phases=2,Linecode=IP_2,Length=0.002180000,Units=km
new line.SBT_1744551IP bus1=BBT3398938.1.2.0,bus2=BBT5001744551.1.2.0,Phases=2,Linecode=IP_2,Length=0.002840000,Units=km
new line.SBT_1744558IP bus1=BBT3398931.2.3.0,bus2=BBT5001744558.2.3.0,Phases=2,Linecode=IP_2,Length=0.002840000,Units=km
new line.SBT_1744565IP bus1=BBT3398924.3.1.0,bus2=BBT5001744565.3.1.0,Phases=2,Linecode=IP_2,Length=0.002840000,Units=km
new line.SBT_1744901IP bus1=BBT665123.3.1.0,bus2=BBT5001744901.3.1.0,Phases=2,Linecode=IP_2,Length=0.002840000,Units=km
new line.SBT_1744908IP bus1=BBT665102.3.1.0,bus2=BBT5001744908.3.1.0,Phases=2,Linecode=IP_2,Length=0.002840000,Units=km
new line.SBT_1744915IP bus1=BBT665074.3.1.0,bus2=BBT5001744915.3.1.0,Phases=2,Linecode=IP_2,Length=0.002840000,Units=km
new line.SBT_1744929IP bus1=BBT3399575.3.1.0,bus2=BBT5001744929.3.1.0,Phases=2,Linecode=IP_2,Length=0.002960000,Units=km
new line.SBT_1744936IP bus1=BBT536834.1.2.0,bus2=BBT5001744936.1.2.0,Phases=2,Linecode=IP_2,Length=0.002840000,Units=km
new line.SBT_1744943IP bus1=BBT3399673.1.2.0,bus2=BBT5001744943.1.2.0,Phases=2,Linecode=IP_2,Length=0.002840000,Units=km
new line.SBT_1744957IP bus1=BBT537002.3.1.0,bus2=BBT5001744957.3.1.0,Phases=2,Linecode=IP_2,Length=0.005530000,Units=km
new line.SBT_1744964IP bus1=BBT669694.1.2.0,bus2=BBT5001744964.1.2.0,Phases=2,Linecode=IP_2,Length=0.002960000,Units=km
new line.SBT_1744971IP bus1=BBT669701.1.2.0,bus2=BBT5001744971.1.2.0,Phases=2,Linecode=IP_2,Length=0.005530000,Units=km
new line.SBT_1744978IP bus1=BBT528980.3.1.0,bus2=BBT5001744978.3.1.0,Phases=2,Linecode=IP_2,Length=0.002960000,Units=km
new line.SBT_1744999IP bus1=BBT530310.3.1.0,bus2=BBT5001744999.3.1.0,Phases=2,Linecode=IP_2,Length=0.002180000,Units=km
new line.SBT_1745090IP bus1=BBT527951.1.2.0,bus2=BBT5001745090.1.2.0,Phases=2,Linecode=IP_2,Length=0.002840000,Units=km
new line.SBT_1745097IP bus1=BBT527972.1.2.0,bus2=BBT5001745097.1.2.0,Phases=2,Linecode=IP_2,Length=0.002840000,Units=km
new line.SBT_1745104IP bus1=BBT528049.1.2.0,bus2=BBT5001745104.1.2.0,Phases=2,Linecode=IP_2,Length=0.002840000,Units=km
new line.SBT_1745139IP bus1=BBT527888.2.3.0,bus2=BBT5001745139.2.3.0,Phases=2,Linecode=IP_2,Length=0.002840000,Units=km
new line.SBT_1745146IP bus1=BBT528112.1.2.0,bus2=BBT5001745146.1.2.0,Phases=2,Linecode=IP_2,Length=0.002840000,Units=km
new line.SBT_1745153IP bus1=BBT533229.3.1.0,bus2=BBT5001745153.3.1.0,Phases=2,Linecode=IP_2,Length=0.005530000,Units=km
new line.SBT_1745202IP bus1=BBT528777.2.3.0,bus2=BBT5001745202.2.3.0,Phases=2,Linecode=IP_2,Length=0.002840000,Units=km
new line.SBT_1807950IP bus1=BBT3633928.1.2.0,bus2=BBT5001807950.1.2.0,Phases=2,Linecode=IP_2,Length=0.005530000,Units=km
new line.SBT_1807957IP bus1=BBT3633921.1.2.0,bus2=BBT5001807957.1.2.0,Phases=2,Linecode=IP_2,Length=0.005530000,Units=km
new line.SBT_1807964IP bus1=BBT3633914.1.2.0,bus2=BBT5001807964.1.2.0,Phases=2,Linecode=IP_2,Length=0.005530000,Units=km
new line.SBT_1807971IP bus1=BBT3633907.1.2.0,bus2=BBT5001807971.1.2.0,Phases=2,Linecode=IP_2,Length=0.005530000,Units=km
new line.SBT_1808055IP bus1=BBT3634306.1.2.0,bus2=BBT5001808055.1.2.0,Phases=2,Linecode=IP_2,Length=0.002840000,Units=km
new line.SBT_18778497 bus1=BBT150820442.1.2.3.0,bus2=BBT150820443.1.2.3.0,Phases=3,Linecode=BT513_BT513_7_3_1_3,Length=0.000500000,Units=km
new line.SBT_18778498 bus1=BBT150820595.1.2.3.0,bus2=BBT150820596.1.2.3.0,Phases=3,Linecode=BT513_BT513_7_3_1_3,Length=0.000500000,Units=km
new line.SBT_18778499 bus1=BBT150820665.1.2.3.0,bus2=BBT150820666.1.2.3.0,Phases=3,Linecode=BT513_BT513_7_3_1_3,Length=0.000500000,Units=km
new line.SBT_18778500 bus1=BBT150820855.1.2.3.0,bus2=BBT150820856.1.2.3.0,Phases=3,Linecode=BT513_BT513_7_3_1_3,Length=0.000500000,Units=km
new line.SBT_18778501 bus1=BBT150820908.1.2.3.0,bus2=BBT150820910.1.2.3.0,Phases=3,Linecode=BT507_BT507_7_3_1_3,Length=0.000500000,Units=km
new line.SBT_18778505 bus1=BBT150820910.1.2.3.0,bus2=BBT150821530.1.2.3.0,Phases=3,Linecode=BT803_BT803_4_3_4_3,Length=0.030991000,Units=km
new line.SBT_18778506 bus1=BBT150820910.1.2.3.0,bus2=BBT150821541.1.2.3.0,Phases=3,Linecode=BT206_BT206_7_3_1_3,Length=0.041036000,Units=km
new line.SBT_18778507 bus1=BBT150821530.1.2.3.0,bus2=BBT150821585.1.2.3.0,Phases=3,Linecode=BT803_BT803_4_3_4_3,Length=0.007998000,Units=km
new line.SBT_18778508 bus1=BBT150821585.1.2.3.0,bus2=BBT150821592.1.2.3.0,Phases=3,Linecode=BT803_BT803_4_3_4_3,Length=0.029060000,Units=km
new line.SBT_18778509 bus1=BBT150821592.1.2.3.0,bus2=BBT150821602.1.2.3.0,Phases=3,Linecode=BT803_BT803_4_3_4_3,Length=0.027287000,Units=km
new line.SBT_18778510 bus1=BBT150821530.1.2.3.0,bus2=BBT150821609.1.2.3.0,Phases=3,Linecode=BT803_BT803_4_3_4_3,Length=0.021994000,Units=km
new line.SBT_18778512 bus1=BBT150821609.1.2.3.0,bus2=BBT150821634.1.2.3.0,Phases=3,Linecode=BT803_BT803_4_3_4_3,Length=0.029991000,Units=km
new line.SBT_18778513 bus1=BBT150821530.1.2.3.0,bus2=BBT150821672.1.2.3.0,Phases=3,Linecode=BT803_BT803_4_3_4_3,Length=0.007998000,Units=km
new line.SBT_18778514 bus1=BBT150821672.1.2.3.0,bus2=BBT150821673.1.2.3.0,Phases=3,Linecode=BT803_BT803_4_3_4_3,Length=0.024993000,Units=km
new line.SBT_18778515 bus1=BBT150820596.1.2.3.0,bus2=BBT150821743.1.2.3.0,Phases=3,Linecode=BT803_BT803_4_3_4_3,Length=0.034005000,Units=km
new line.SBT_18778516 bus1=BBT150821743.1.2.3.0,bus2=BBT150821780.1.2.3.0,Phases=3,Linecode=BT803_BT803_4_3_4_3,Length=0.007998000,Units=km
new line.SBT_18778517 bus1=BBT150821780.1.2.3.0,bus2=BBT150821787.1.2.3.0,Phases=3,Linecode=BT803_BT803_4_3_4_3,Length=0.035004000,Units=km
new line.SBT_18778518 bus1=BBT150821787.1.2.3.0,bus2=BBT150821796.1.2.3.0,Phases=3,Linecode=BT803_BT803_4_3_4_3,Length=0.041182000,Units=km
new line.SBT_18778519 bus1=BBT150821780.1.2.3.0,bus2=BBT150821810.1.2.3.0,Phases=3,Linecode=BT803_BT803_4_3_4_3,Length=0.004999000,Units=km
new line.SBT_18778520 bus1=BBT150821810.1.2.3.0,bus2=BBT150821811.1.2.3.0,Phases=3,Linecode=BT803_BT803_4_3_4_3,Length=0.027011000,Units=km
new line.SBT_18778521 bus1=BBT150821811.1.2.3.0,bus2=BBT150821855.1.2.3.0,Phases=3,Linecode=BT803_BT803_4_3_4_3,Length=0.028063000,Units=km
new line.SBT_18778526 bus1=BBT150821855.1.2.3.0,bus2=BBT150822334.1.2.3.0,Phases=3,Linecode=BT803_BT803_4_3_4_3,Length=0.025013000,Units=km
new line.SBT_18778527 bus1=BBT150821780.1.2.3.0,bus2=BBT150822525.1.2.3.0,Phases=3,Linecode=BT803_BT803_4_3_4_3,Length=0.022993000,Units=km
new line.SBT_18778530 bus1=BBT150822525.1.2.3.0,bus2=BBT150822571.1.2.3.0,Phases=3,Linecode=BT803_BT803_4_3_4_3,Length=0.024993000,Units=km
new line.SBT_18778553 bus1=BBT150820443.1.2.3.0,bus2=BBT150823764.1.2.3.0,Phases=3,Linecode=BT805_BT805_4_3_4_3,Length=0.038002000,Units=km
new line.SBT_18778554 bus1=BBT150823764.1.2.3.0,bus2=BBT150823765.1.2.3.0,Phases=3,Linecode=BT805_BT805_4_3_4_3,Length=0.006998000,Units=km
new line.SBT_18778555 bus1=BBT150823765.1.2.3.0,bus2=BBT150823786.1.2.3.0,Phases=3,Linecode=BT805_BT805_4_3_4_3,Length=0.032053000,Units=km
new line.SBT_18778556 bus1=BBT150823786.1.2.3.0,bus2=BBT150823787.1.2.3.0,Phases=3,Linecode=BT803_BT803_4_3_4_3,Length=0.037002000,Units=km
new line.SBT_18778558 bus1=BBT150823765.1.2.3.0,bus2=BBT150823789.1.2.3.0,Phases=3,Linecode=BT803_BT803_4_3_4_3,Length=0.011997000,Units=km
new line.SBT_18778559 bus1=BBT150823789.1.2.3.0,bus2=BBT150823790.1.2.3.0,Phases=3,Linecode=BT803_BT803_4_3_4_3,Length=0.032990000,Units=km
new line.SBT_18778560 bus1=BBT150823790.1.2.3.0,bus2=BBT150823842.1.2.3.0,Phases=3,Linecode=BT803_BT803_4_3_4_3,Length=0.048995000,Units=km
new line.SBT_18778561 bus1=BBT150820443.1.2.3.0,bus2=BBT150823853.1.2.3.0,Phases=3,Linecode=BT803_BT803_4_3_4_3,Length=0.031055000,Units=km
new line.SBT_18778562 bus1=BBT150823853.1.2.3.0,bus2=BBT150823863.1.2.3.0,Phases=3,Linecode=BT803_BT803_4_3_4_3,Length=0.020019000,Units=km
new line.SBT_18778563 bus1=BBT150823863.1.2.3.0,bus2=BBT150823864.1.2.3.0,Phases=3,Linecode=BT803_BT803_4_3_4_3,Length=0.033051000,Units=km
new line.SBT_18778565 bus1=BBT150823864.1.2.3.0,bus2=BBT150823888.1.2.3.0,Phases=3,Linecode=BT803_BT803_4_3_4_3,Length=0.041000000,Units=km
new line.SBT_18778566 bus1=BBT150823853.1.2.3.0,bus2=BBT150823925.1.2.3.0,Phases=3,Linecode=BT803_BT803_4_3_4_3,Length=0.009053000,Units=km
new line.SBT_18778567 bus1=BBT150823765.1.2.3.0,bus2=BBT150823935.1.2.3.0,Phases=3,Linecode=BT803_BT803_4_3_4_3,Length=0.022084000,Units=km
new line.SBT_18778568 bus1=BBT150823853.1.2.3.0,bus2=BBT150823940.1.2.3.0,Phases=3,Linecode=BT803_BT803_4_3_4_3,Length=0.013996000,Units=km
new line.SBT_18778569 bus1=BBT150824249.1.2.3.0,bus2=BBT150823956.1.2.3.0,Phases=3,Linecode=BT803_BT803_4_3_4_3,Length=0.029060000,Units=km
new line.SBT_18778574 bus1=BBT150823935.1.2.3.0,bus2=BBT150824223.1.2.3.0,Phases=3,Linecode=BT803_BT803_4_3_4_3,Length=0.035047000,Units=km
new line.SBT_18778576 bus1=BBT150824223.1.2.3.0,bus2=BBT150824225.1.2.3.0,Phases=3,Linecode=BT803_BT803_4_3_4_3,Length=0.032053000,Units=km
new line.SBT_18778577 bus1=BBT150824441.1.2.3.0,bus2=BBT150824240.1.2.3.0,Phases=3,Linecode=BT803_BT803_4_3_4_3,Length=0.004122000,Units=km
new line.SBT_18778578 bus1=BBT150824240.1.2.3.0,bus2=BBT150824241.1.2.3.0,Phases=3,Linecode=BT803_BT803_4_3_4_3,Length=0.038589000,Units=km
new line.SBT_18778579 bus1=BBT150824241.1.2.3.0,bus2=BBT150824248.1.2.3.0,Phases=3,Linecode=BT803_BT803_4_3_4_3,Length=0.038067000,Units=km
new line.SBT_18778580 bus1=BBT150824248.1.2.3.0,bus2=BBT150824249.1.2.3.0,Phases=3,Linecode=BT803_BT803_4_3_4_3,Length=0.005656000,Units=km
new line.SBT_18778581 bus1=BBT150823940.1.2.3.0,bus2=BBT150824329.1.2.3.0,Phases=3,Linecode=BT803_BT803_4_3_4_3,Length=0.029060000,Units=km
new line.SBT_18778591 bus1=BBT150824225.1.2.3.0,bus2=BBT150824441.1.2.3.0,Phases=3,Linecode=BT803_BT803_4_3_4_3,Length=0.004999000,Units=km
new line.SBT_18778596 bus1=BBT150824441.1.2.3.0,bus2=BBT150824485.1.2.3.0,Phases=3,Linecode=BT803_BT803_4_3_4_3,Length=0.030008000,Units=km
new line.SBT_18778597 bus1=BBT150824441.1.2.3.0,bus2=BBT150824514.1.2.3.0,Phases=3,Linecode=BT803_BT803_4_3_4_3,Length=0.030058000,Units=km
new line.SBT_18778600 bus1=BBT150820666.1.2.3.0,bus2=BBT150824556.1.2.3.0,Phases=3,Linecode=BT805_BT805_4_3_4_3,Length=0.020019000,Units=km
new line.SBT_18778601 bus1=BBT150824556.1.2.3.0,bus2=BBT150824571.1.2.3.0,Phases=3,Linecode=BT805_BT805_4_3_4_3,Length=0.012996000,Units=km
new line.SBT_18778602 bus1=BBT150824571.1.2.3.0,bus2=BBT150824582.1.2.3.0,Phases=3,Linecode=BT803_BT803_4_3_4_3,Length=0.030141000,Units=km
new line.SBT_18778604 bus1=BBT150820666.1.2.3.0,bus2=BBT150824640.1.2.3.0,Phases=3,Linecode=BT805_BT805_4_3_4_3,Length=0.020994000,Units=km
new line.SBT_18778605 bus1=BBT150824640.1.2.3.0,bus2=BBT150824641.1.2.3.0,Phases=3,Linecode=BT805_BT805_4_3_4_3,Length=0.012162000,Units=km
new line.SBT_18778606 bus1=BBT150824640.1.2.3.0,bus2=BBT150824649.1.2.3.0,Phases=3,Linecode=BT803_BT803_4_3_4_3,Length=0.021018000,Units=km
new line.SBT_18778607 bus1=BBT150824649.1.2.3.0,bus2=BBT150824672.1.2.3.0,Phases=3,Linecode=BT803_BT803_4_3_4_3,Length=0.028991000,Units=km
new line.SBT_18778608 bus1=BBT150824672.1.2.3.0,bus2=BBT150824734.1.2.3.0,Phases=3,Linecode=BT803_BT803_4_3_4_3,Length=0.029991000,Units=km
new line.SBT_18778609 bus1=BBT150824734.1.2.3.0,bus2=BBT150824748.1.2.3.0,Phases=3,Linecode=BT803_BT803_4_3_4_3,Length=0.033990000,Units=km
new line.SBT_18778610 bus1=BBT150824640.1.2.3.0,bus2=BBT150824751.1.2.3.0,Phases=3,Linecode=BT803_BT803_4_3_4_3,Length=0.007069000,Units=km
new line.SBT_18778611 bus1=BBT150824748.1.2.3.0,bus2=BBT150824885.1.2.3.0,Phases=3,Linecode=BT803_BT803_4_3_4_3,Length=0.033990000,Units=km
new line.SBT_18778622 bus1=BBT150820596.1.2.3.0,bus2=BBT150825949.1.2.3.0,Phases=3,Linecode=BT803_BT803_4_3_4_3,Length=0.035004000,Units=km
new line.SBT_18778623 bus1=BBT150825949.1.2.3.0,bus2=BBT150825950.1.2.3.0,Phases=3,Linecode=BT803_BT803_4_3_4_3,Length=0.009997000,Units=km
new line.SBT_18778624 bus1=BBT150825950.1.2.3.0,bus2=BBT150825963.1.2.3.0,Phases=3,Linecode=BT803_BT803_4_3_4_3,Length=0.032053000,Units=km
new line.SBT_18778625 bus1=BBT150825963.1.2.3.0,bus2=BBT150825971.1.2.3.0,Phases=3,Linecode=BT803_BT803_4_3_4_3,Length=0.041097000,Units=km
new line.SBT_18778626 bus1=BBT150825950.1.2.3.0,bus2=BBT150825982.1.2.3.0,Phases=3,Linecode=BT803_BT803_4_3_4_3,Length=0.025013000,Units=km
new line.SBT_18778627 bus1=BBT150825982.1.2.3.0,bus2=BBT150825983.1.2.3.0,Phases=3,Linecode=BT803_BT803_4_3_4_3,Length=0.029009000,Units=km
new line.SBT_18778628 bus1=BBT150825950.1.2.3.0,bus2=BBT150826009.1.2.3.0,Phases=3,Linecode=BT803_BT803_4_3_4_3,Length=0.006998000,Units=km
new line.SBT_18778629 bus1=BBT150826009.1.2.3.0,bus2=BBT150826010.1.2.3.0,Phases=3,Linecode=BT803_BT803_4_3_4_3,Length=0.037844000,Units=km
new line.SBT_18778630 bus1=BBT150826010.1.2.3.0,bus2=BBT150826011.1.2.3.0,Phases=3,Linecode=BT803_BT803_4_3_4_3,Length=0.031771000,Units=km
new line.SBT_18778632 bus1=BBT150825983.1.2.3.0,bus2=BBT150826093.1.2.3.0,Phases=3,Linecode=BT803_BT803_4_3_4_3,Length=0.043998000,Units=km
new line.SBT_18778638 bus1=BBT150820856.1.2.3.0,bus2=BBT150826685.1.2.3.0,Phases=3,Linecode=BT803_BT803_4_3_4_3,Length=0.036003000,Units=km
new line.SBT_18778639 bus1=BBT150820856.1.2.3.0,bus2=BBT150826686.1.2.3.0,Phases=3,Linecode=BT803_BT803_4_3_4_3,Length=0.036003000,Units=km
new line.SBT_18778640 bus1=BBT150826686.1.2.3.0,bus2=BBT150826687.1.2.3.0,Phases=3,Linecode=BT803_BT803_4_3_4_3,Length=0.005656000,Units=km
new line.SBT_18778641 bus1=BBT150826686.1.2.3.0,bus2=BBT150826688.1.2.3.0,Phases=3,Linecode=BT803_BT803_4_3_4_3,Length=0.034005000,Units=km
new line.SBT_18778642 bus1=BBT150826688.1.2.3.0,bus2=BBT150826689.1.2.3.0,Phases=3,Linecode=BT803_BT803_4_3_4_3,Length=0.034005000,Units=km
new line.SBT_18778643 bus1=BBT150826687.1.2.3.0,bus2=BBT150826690.1.2.3.0,Phases=3,Linecode=BT803_BT803_4_3_4_3,Length=0.028063000,Units=km
new line.SBT_18778644 bus1=BBT150826690.1.2.3.0,bus2=BBT150826691.1.2.3.0,Phases=3,Linecode=BT803_BT803_4_3_4_3,Length=0.025073000,Units=km
new line.SBT_18778645 bus1=BBT150826685.1.2.3.0,bus2=BBT150826767.1.2.3.0,Phases=3,Linecode=BT803_BT803_4_3_4_3,Length=0.006402000,Units=km
new line.SBT_18778646 bus1=BBT150826767.1.2.3.0,bus2=BBT150826768.1.2.3.0,Phases=3,Linecode=BT803_BT803_4_3_4_3,Length=0.035047000,Units=km
new line.SBT_18778647 bus1=BBT150826685.1.2.3.0,bus2=BBT150826769.1.2.3.0,Phases=3,Linecode=BT803_BT803_4_3_4_3,Length=0.035004000,Units=km
new line.SBT_18778648 bus1=BBT150826769.1.2.3.0,bus2=BBT150826770.1.2.3.0,Phases=3,Linecode=BT803_BT803_4_3_4_3,Length=0.039447000,Units=km
new line.SBT_18778649 bus1=BBT150824556.1.2.3.0,bus2=BBT150826771.1.2.3.0,Phases=3,Linecode=BT805_BT805_4_3_4_3,Length=0.011042000,Units=km
new line.SBT_18778650 bus1=BBT150824556.1.2.3.0,bus2=BBT150826772.1.2.3.0,Phases=3,Linecode=BT805_BT805_4_3_4_3,Length=0.025311000,Units=km
new line.SBT_18778651 bus1=BBT150826772.1.2.3.0,bus2=BBT150826773.1.2.3.0,Phases=3,Linecode=BT805_BT805_4_3_4_3,Length=0.036114000,Units=km
new line.SBT_10024881 bus1=BBT45263292.1.2.3.0,bus2=BBT145794954.1.2.3.0,Phases=3,Linecode=BT803_BT803_4_3_4_3,Length=0.036786000,Units=km
new line.SBT_10024888 bus1=BBT145794954.1.2.3.0,bus2=BBT145794975.1.2.3.0,Phases=3,Linecode=BT803_BT803_4_3_4_3,Length=0.031881000,Units=km
new line.SBT_10024895 bus1=BBT145794975.1.2.3.0,bus2=BBT145794982.1.2.3.0,Phases=3,Linecode=BT803_BT803_4_3_4_3,Length=0.033961000,Units=km
new line.SBT_1538471IP bus1=BBT530170.1.2.0,bus2=BBT5001538471.1.2.0,Phases=2,Linecode=IP_2,Length=0.002960000,Units=km
new line.SBT_1727044IP bus1=BBT3340824.3.1.0,bus2=BBT5001727044.3.1.0,Phases=2,Linecode=IP_2,Length=0.002840000,Units=km
new line.SBT_1727065IP bus1=BBT3340817.3.1.0,bus2=BBT5001727065.3.1.0,Phases=2,Linecode=IP_2,Length=0.002840000,Units=km
new line.SBT_18826599 bus1=BBT152315751.1.2.3.0,bus2=BBT151606217.1.2.3.0,Phases=3,Linecode=BT810_BT810_4_3_4_3,Length=0.021018000,Units=km
new line.SBT_18826604 bus1=BBT152314827.1.2.3.0,bus2=BBT152314828.1.2.3.0,Phases=3,Linecode=BT518_BT518_7_3_1_3,Length=0.000500000,Units=km
new line.SBT_18826607 bus1=BBT152314857.1.2.3.0,bus2=BBT152314858.1.2.3.0,Phases=3,Linecode=BT518_BT518_7_3_1_3,Length=0.000500000,Units=km
new line.SBT_18826612 bus1=BBT152315054.1.2.3.0,bus2=BBT152315055.1.2.3.0,Phases=3,Linecode=BT518_BT518_7_3_1_3,Length=0.000500000,Units=km
new line.SBT_18826618 bus1=BBT152315187.1.2.3.0,bus2=BBT152315188.1.2.3.0,Phases=3,Linecode=BT513_BT513_7_3_1_3,Length=0.000500000,Units=km
new line.SBT_18826619 bus1=BBT152315201.1.2.3.0,bus2=BBT152315202.1.2.3.0,Phases=3,Linecode=BT513_BT513_7_3_1_3,Length=0.000500000,Units=km
new line.SBT_18826620 bus1=BBT152315208.1.2.3.0,bus2=BBT152315209.1.2.3.0,Phases=3,Linecode=BT513_BT513_7_3_1_3,Length=0.000500000,Units=km
new line.SBT_18826650 bus1=BBT152314858.1.2.3.0,bus2=BBT152315750.1.2.3.0,Phases=3,Linecode=BT803_BT803_4_3_4_3,Length=0.035500000,Units=km
new line.SBT_18826651 bus1=BBT152315750.1.2.3.0,bus2=BBT152315751.1.2.3.0,Phases=3,Linecode=BT803_BT803_4_3_4_3,Length=0.027651000,Units=km
new line.SBT_18826653 bus1=BBT152314858.1.2.3.0,bus2=BBT152315788.1.2.3.0,Phases=3,Linecode=BT803_BT803_4_3_4_3,Length=0.040436000,Units=km
new line.SBT_18826654 bus1=BBT152315788.1.2.3.0,bus2=BBT152315795.1.2.3.0,Phases=3,Linecode=BT803_BT803_4_3_4_3,Length=0.034356000,Units=km
new line.SBT_18826655 bus1=BBT152314828.1.2.3.0,bus2=BBT152315800.1.2.3.0,Phases=3,Linecode=BT803_BT803_4_3_4_3,Length=0.035345000,Units=km
new line.SBT_18826656 bus1=BBT152315800.1.2.3.0,bus2=BBT152315805.1.2.3.0,Phases=3,Linecode=BT803_BT803_4_3_4_3,Length=0.036486000,Units=km
new line.SBT_18826664 bus1=BBT152314828.1.2.3.0,bus2=BBT152316186.1.2.3.0,Phases=3,Linecode=BT803_BT803_4_3_4_3,Length=0.035345000,Units=km
new line.SBT_18826667 bus1=BBT150261524.1.2.3.0,bus2=BBT152316222.1.2.3.0,Phases=3,Linecode=BT803_BT803_4_3_4_3,Length=0.039396000,Units=km
new line.SBT_18826671 bus1=BBT152316244.1.2.3.0,bus2=BBT5093666.1.2.3.0,Phases=3,Linecode=BT803_BT803_4_3_4_3,Length=0.003000000,Units=km
new line.SBT_18826674 bus1=BBT152316244.1.2.3.0,bus2=BBT152316274.1.2.3.0,Phases=3,Linecode=BT803_BT803_4_3_4_3,Length=0.034356000,Units=km
new line.SBT_18826675 bus1=BBT152316274.1.2.3.0,bus2=BBT152316289.1.2.3.0,Phases=3,Linecode=BT803_BT803_4_3_4_3,Length=0.037325000,Units=km
new line.SBT_18826676 bus1=BBT152316289.1.2.3.0,bus2=BBT152316290.1.2.3.0,Phases=3,Linecode=BT803_BT803_4_3_4_3,Length=0.035345000,Units=km
new line.SBT_18826679 bus1=BBT152316290.1.2.3.0,bus2=BBT152316374.1.2.3.0,Phases=3,Linecode=BT803_BT803_4_3_4_3,Length=0.035500000,Units=km
new line.SBT_18826681 bus1=BBT5093967.1.2.3.0,bus2=BBT152316384.1.2.3.0,Phases=3,Linecode=BT803_BT803_4_3_4_3,Length=0.039447000,Units=km
new line.SBT_18826682 bus1=BBT5093967.1.2.3.0,bus2=BBT152316385.1.2.3.0,Phases=3,Linecode=BT803_BT803_4_3_4_3,Length=0.028276000,Units=km
new line.SBT_18826683 bus1=BBT152316385.1.2.3.0,bus2=BBT152316386.1.2.3.0,Phases=3,Linecode=BT803_BT803_4_3_4_3,Length=0.040436000,Units=km
new line.SBT_18826684 bus1=BBT152316385.1.2.3.0,bus2=BBT152316404.1.2.3.0,Phases=3,Linecode=BT803_BT803_4_3_4_3,Length=0.037325000,Units=km
new line.SBT_18826685 bus1=BBT152316386.1.2.3.0,bus2=BBT152316408.1.2.3.0,Phases=3,Linecode=BT803_BT803_4_3_4_3,Length=0.040299000,Units=km
new line.SBT_18826690 bus1=BBT152315188.1.2.3.0,bus2=BBT152316548.1.2.3.0,Phases=3,Linecode=BT805_BT805_4_3_4_3,Length=0.030008000,Units=km
new line.SBT_18826691 bus1=BBT152316548.1.2.3.0,bus2=BBT152316582.1.2.3.0,Phases=3,Linecode=BT805_BT805_4_3_4_3,Length=0.007069000,Units=km
new line.SBT_18826693 bus1=BBT152316548.1.2.3.0,bus2=BBT5093911.1.2.3.0,Phases=3,Linecode=BT805_BT805_4_3_4_3,Length=0.026069000,Units=km
new line.SBT_18826711 bus1=BBT152315188.1.2.3.0,bus2=BBT152316866.1.2.3.0,Phases=3,Linecode=BT805_BT805_4_3_4_3,Length=0.024014000,Units=km
new line.SBT_18826712 bus1=BBT152316866.1.2.3.0,bus2=BBT152316867.1.2.3.0,Phases=3,Linecode=BT805_BT805_4_3_4_3,Length=0.016120000,Units=km
new line.SBT_18826715 bus1=BBT152316867.1.2.3.0,bus2=BBT152316877.1.2.3.0,Phases=3,Linecode=BT805_BT805_4_3_4_3,Length=0.026069000,Units=km
new line.SBT_18826720 bus1=BBT152316866.1.2.3.0,bus2=BBT5093925.1.2.3.0,Phases=3,Linecode=BT803_BT803_4_3_4_3,Length=0.028063000,Units=km
new line.SBT_18826730 bus1=BBT152315202.1.2.3.0,bus2=BBT152316963.1.2.3.0,Phases=3,Linecode=BT805_BT805_4_3_4_3,Length=0.026165000,Units=km
new line.SBT_18826732 bus1=BBT152316963.1.2.3.0,bus2=BBT152316964.1.2.3.0,Phases=3,Linecode=BT805_BT805_4_3_4_3,Length=0.012996000,Units=km
new line.SBT_18826734 bus1=BBT152316963.1.2.3.0,bus2=BBT152316985.1.2.3.0,Phases=3,Linecode=BT803_BT803_4_3_4_3,Length=0.021089000,Units=km
new line.SBT_18826736 bus1=BBT152316985.1.2.3.0,bus2=BBT152316986.1.2.3.0,Phases=3,Linecode=BT803_BT803_4_3_4_3,Length=0.040101000,Units=km
new line.SBT_18826737 bus1=BBT5093953.1.2.3.0,bus2=BBT152316989.1.2.3.0,Phases=3,Linecode=BT803_BT803_4_3_4_3,Length=0.037111000,Units=km