new load.BT_3000651243_M1 bus1=RML1000751608.3.1.0,Phases=2,kv=0.22,kW=1.38488,pf=0.92,Vminpu=0.92,Vmaxpu=1.5,model=1,daily=RES1_25,status=variable
new load.BT_3000651244_M1 bus1=RML1000751657.2.0,Phases=1,kv=0.127,kW=1.8727,pf=0.92,Vminpu=0.92,Vmaxpu=1.5,model=1,daily=RES1_25,status=variable
new load.BT_3000651245_M1 bus1=RML1000751671.2.3.0,Phases=2,kv=0.22,kW=1.23998,pf=0.92,Vminpu=0.92,Vmaxpu=1.5,model=1,daily=RES1_25,status=variable
new load.BT_3000651246_M1 bus1=RML1000751678.2.0,Phases=1,kv=0.127,kW=0.67084,pf=0.92,Vminpu=0.92,Vmaxpu=1.5,model=1,daily=RES1_25,status=variable
new load.BT_3000651247_M1 bus1=RML1000751692.2.3.0,Phases=2,kv=0.22,kW=8.26378,pf=0.92,Vminpu=0.92,Vmaxpu=1.5,model=1,daily=RES1_25,status=variable
new load.BT_3000651248_M1 bus1=RML1000751713.1.2.0,Phases=2,kv=0.22,kW=0.63714,pf=0.92,Vminpu=0.92,Vmaxpu=1.5,model=1,daily=COM1_25,status=variable
new load.BT_3000651249_M1 bus1=RML1010203902.2.0,Phases=1,kv=0.127,kW=1.23088,pf=0.92,Vminpu=0.92,Vmaxpu=1.5,model=1,daily=RES1_25,status=variable
new load.BT_3000651250_M1 bus1=RML1000751734.1.0,Phases=1,kv=0.127,kW=0.7769,pf=0.92,Vminpu=0.92,Vmaxpu=1.5,model=1,daily=RES1_25,status=variable
new load.BT_3000651251_M1 bus1=RML1000751727.1.2.0,Phases=2,kv=0.22,kW=1.77706,pf=0.92,Vminpu=0.92,Vmaxpu=1.5,model=1,daily=RES1_25,status=variable
new load.BT_3000651252_M1 bus1=RML1000751741.1.2.0,Phases=2,kv=0.22,kW=1.40486,pf=0.92,Vminpu=0.92,Vmaxpu=1.5,model=1,daily=RES1_25,status=variable
new load.BT_3000651253_M1 bus1=RML1000752049.1.0,Phases=1,kv=0.127,kW=1.50926,pf=0.92,Vminpu=0.92,Vmaxpu=1.5,model=1,daily=RES1_25,status=variable
new load.BT_3000651254_M1 bus1=RML1000752042.2.3.0,Phases=2,kv=0.22,kW=2.18912,pf=0.92,Vminpu=0.92,Vmaxpu=1.5,model=1,daily=RES1_25,status=variable
new load.BT_3000651255_M1 bus1=RML1000752035.1.0,Phases=1,kv=0.127,kW=0.34514,pf=0.92,Vminpu=0.92,Vmaxpu=1.5,model=1,daily=RES1_25,status=variable
new load.BT_3000651256_M1 bus1=RML1000752063.1.0,Phases=1,kv=0.127,kW=1.5311,pf=0.92,Vminpu=0.92,Vmaxpu=1.5,model=1,daily=RES1_25,status=variable
new load.BT_3000651258_M1 bus1=RML1000752056.2.0,Phases=1,kv=0.127,kW=0.00876,pf=0.92,Vminpu=0.92,Vmaxpu=1.5,model=1,daily=RES1_25,status=variable
new load.BT_3000651259_M1 bus1=RML1000752070.1.2.3.0,Phases=3,kv=0.22,kW=0.16526,pf=0.92,Vminpu=0.92,Vmaxpu=1.5,model=1,daily=IND1_28,status=variable
new load.BT_3000651260_M1 bus1=RML1000752126.2.0,Phases=1,kv=0.127,kW=0.58044,pf=0.92,Vminpu=0.92,Vmaxpu=1.5,model=1,daily=RES1_25,status=variable
new load.BT_3000651261_M1 bus1=RML1000752119.1.0,Phases=1,kv=0.127,kW=0.00876,pf=0.92,Vminpu=0.92,Vmaxpu=1.5,model=1,daily=RES1_25,status=variable
new load.BT_3000651262_M1 bus1=RML1000752021.1.0,Phases=1,kv=0.127,kW=1.02044,pf=0.92,Vminpu=0.92,Vmaxpu=1.5,model=1,daily=RES1_25,status=variable
new load.BT_3000651263_M1 bus1=RML1000752007.2.0,Phases=1,kv=0.127,kW=0.99056,pf=0.92,Vminpu=0.92,Vmaxpu=1.5,model=1,daily=RES1_25,status=variable
new load.BT_3000651264_M1 bus1=RML1000752000.2.3.0,Phases=2,kv=0.22,kW=3.54358,pf=0.92,Vminpu=0.92,Vmaxpu=1.5,model=1,daily=RES1_25,status=variable
new load.BT_3000651266_M1 bus1=RML1000751979.1.0,Phases=1,kv=0.127,kW=1.73402,pf=0.92,Vminpu=0.92,Vmaxpu=1.5,model=1,daily=RES1_25,status=variable
new load.BT_3000651267_M1 bus1=RML1000751944.2.3.0,Phases=2,kv=0.22,kW=1.66148,pf=0.92,Vminpu=0.92,Vmaxpu=1.5,model=1,daily=RES1_25,status=variable
new load.BT_3000651269_M1 bus1=RML1000751958.2.3.0,Phases=2,kv=0.22,kW=0.00876,pf=0.92,Vminpu=0.92,Vmaxpu=1.5,model=1,daily=RES1_25,status=variable
new load.BT_3000651270_M1 bus1=RML1000751972.1.0,Phases=1,kv=0.127,kW=0.60096,pf=0.92,Vminpu=0.92,Vmaxpu=1.5,model=1,daily=RES1_25,status=variable
new load.BT_3000651271_M1 bus1=RML1000751965.3.1.0,Phases=2,kv=0.22,kW=1.1216,pf=0.92,Vminpu=0.92,Vmaxpu=1.5,model=1,daily=COM1_25,status=variable
new load.BT_3000651272_M1 bus1=RML1000752014.3.0,Phases=1,kv=0.127,kW=0.9349,pf=0.92,Vminpu=0.92,Vmaxpu=1.5,model=1,daily=RES1_25,status=variable
new load.BT_3000651273_M1 bus1=RML1000752112.3.0,Phases=1,kv=0.127,kW=0.1735,pf=0.92,Vminpu=0.92,Vmaxpu=1.5,model=1,daily=RES1_25,status=variable
new load.BT_3000651274_M1 bus1=RML1000752105.1.2.3.0,Phases=3,kv=0.22,kW=0.8615,pf=0.92,Vminpu=0.92,Vmaxpu=1.5,model=1,daily=RES1_25,status=variable
new load.BT_3000651275_M1 bus1=RML1000752098.1.0,Phases=1,kv=0.127,kW=1.08196,pf=0.92,Vminpu=0.92,Vmaxpu=1.5,model=1,daily=RES1_25,status=variable
new load.BT_3000651276_M1 bus1=RML1000752091.3.0,Phases=1,kv=0.127,kW=0.54516,pf=0.92,Vminpu=0.92,Vmaxpu=1.5,model=1,daily=RES1_25,status=variable
new load.BT_3000651277_M1 bus1=RML1000752084.2.0,Phases=1,kv=0.127,kW=0.62146,pf=0.92,Vminpu=0.92,Vmaxpu=1.5,model=1,daily=RES1_25,status=variable
new load.BT_3000651278_M1 bus1=RML1000752077.3.1.0,Phases=2,kv=0.22,kW=1.80406,pf=0.92,Vminpu=0.92,Vmaxpu=1.5,model=1,daily=RES1_25,status=variable
new load.BT_3000651279_M1 bus1=RML1000751986.2.3.0,Phases=2,kv=0.22,kW=0.92346,pf=0.92,Vminpu=0.92,Vmaxpu=1.5,model=1,daily=RES1_25,status=variable
new load.BT_3000651280_M1 bus1=RML1000751937.1.2.3.0,Phases=3,kv=0.22,kW=0.79544,pf=0.92,Vminpu=0.92,Vmaxpu=1.5,model=1,daily=RES1_25,status=variable
new load.BT_3000651281_M1 bus1=RML1000750334.2.3.0,Phases=2,kv=0.22,kW=4.79504,pf=0.92,Vminpu=0.92,Vmaxpu=1.5,model=1,daily=COM1_25,status=variable
new load.BT_3000651282_M1 bus1=RML1000750334.2.3.0,Phases=2,kv=0.22,kW=4.7892,pf=0.92,Vminpu=0.92,Vmaxpu=1.5,model=1,daily=RES1_25,status=variable
new load.BT_3000651283_M1 bus1=RML1010990334.3.0,Phases=1,kv=0.127,kW=1.28192,pf=0.92,Vminpu=0.92,Vmaxpu=1.5,model=1,daily=RES1_25,status=variable
new load.BT_3000651284_M1 bus1=RML1000750222.3.1.0,Phases=2,kv=0.22,kW=2.2913,pf=0.92,Vminpu=0.92,Vmaxpu=1.5,model=1,daily=RES1_25,status=variable
new load.BT_3000651286_M1 bus1=RML1000750215.3.1.0,Phases=2,kv=0.22,kW=0.00356,pf=0.92,Vminpu=0.92,Vmaxpu=1.5,model=1,daily=COM1_25,status=variable
new load.BT_3000651287_M1 bus1=RML1000750215.3.1.0,Phases=2,kv=0.22,kW=0.68376,pf=0.92,Vminpu=0.92,Vmaxpu=1.5,model=1,daily=RES1_25,status=variable
new load.BT_3000651288_M1 bus1=RML1000750250.1.2.0,Phases=2,kv=0.22,kW=1.59486,pf=0.92,Vminpu=0.92,Vmaxpu=1.5,model=1,daily=RES1_25,status=variable
new load.BT_3000651291_M1 bus1=RML1000751699.3.1.0,Phases=2,kv=0.22,kW=3.226,pf=0.92,Vminpu=0.92,Vmaxpu=1.5,model=1,daily=RES1_25,status=variable
new load.BT_3000651292_M1 bus1=RML1000751594.1.0,Phases=1,kv=0.127,kW=1.89962,pf=0.92,Vminpu=0.92,Vmaxpu=1.5,model=1,daily=RES1_25,status=variable
new load.BT_3000651293_M1 bus1=RML1000750236.2.3.0,Phases=2,kv=0.22,kW=0.92598,pf=0.92,Vminpu=0.92,Vmaxpu=1.5,model=1,daily=RES1_25,status=variable
new load.BT_3000651294_M1 bus1=RML1000750208.2.0,Phases=1,kv=0.127,kW=0.62898,pf=0.92,Vminpu=0.92,Vmaxpu=1.5,model=1,daily=RES1_25,status=variable
new load.BT_3000651295_M1 bus1=RML1000750208.2.0,Phases=1,kv=0.127,kW=0.9209,pf=0.92,Vminpu=0.92,Vmaxpu=1.5,model=1,daily=RES1_25,status=variable
new load.BT_3000651296_M1 bus1=RML1000751601.1.2.0,Phases=2,kv=0.22,kW=1.12412,pf=0.92,Vminpu=0.92,Vmaxpu=1.5,model=1,daily=RES1_25,status=variable
new load.BT_3000651297_M1 bus1=RML1000751664.1.2.3.0,Phases=3,kv=0.22,kW=2.5399,pf=0.92,Vminpu=0.92,Vmaxpu=1.5,model=1,daily=COM1_25,status=variable
new load.BT_3000651298_M1 bus1=RML1000751622.2.0,Phases=1,kv=0.127,kW=1.2103,pf=0.92,Vminpu=0.92,Vmaxpu=1.5,model=1,daily=RES1_25,status=variable
new load.BT_3000651299_M1 bus1=RML1000751629.3.0,Phases=1,kv=0.127,kW=0.96754,pf=0.92,Vminpu=0.92,Vmaxpu=1.5,model=1,daily=RES1_25,status=variable
new load.BT_3000651300_M1 bus1=RML1000751636.1.2.0,Phases=2,kv=0.22,kW=1.1844,pf=0.92,Vminpu=0.92,Vmaxpu=1.5,model=1,daily=RES1_25,status=variable
new load.BT_3000651302_M1 bus1=RML1000751286.3.1.0,Phases=2,kv=0.22,kW=0.00876,pf=0.92,Vminpu=0.92,Vmaxpu=1.5,model=1,daily=RES1_25,status=variable
new load.BT_3000651303_M1 bus1=RML1000751293.3.0,Phases=1,kv=0.127,kW=0.00876,pf=0.92,Vminpu=0.92,Vmaxpu=1.5,model=1,daily=RES1_25,status=variable
new load.BT_3000651304_M1 bus1=RML1010204146.2.0,Phases=1,kv=0.127,kW=1.73888,pf=0.92,Vminpu=0.92,Vmaxpu=1.5,model=1,daily=RES1_25,status=variable
new load.BT_3000651305_M1 bus1=RML1000749963.1.0,Phases=1,kv=0.127,kW=0.00876,pf=0.92,Vminpu=0.92,Vmaxpu=1.5,model=1,daily=RES1_25,status=variable
new load.BT_3000651306_M1 bus1=RML1000749921.3.0,Phases=1,kv=0.127,kW=0.00876,pf=0.92,Vminpu=0.92,Vmaxpu=1.5,model=1,daily=RES1_25,status=variable
new load.BT_3000651307_M1 bus1=RML1000749928.2.0,Phases=1,kv=0.127,kW=0.00876,pf=0.92,Vminpu=0.92,Vmaxpu=1.5,model=1,daily=RES1_25,status=variable
new load.BT_3000651310_M1 bus1=RML1000750082.2.0,Phases=1,kv=0.127,kW=0.82244,pf=0.92,Vminpu=0.92,Vmaxpu=1.5,model=1,daily=RES1_25,status=variable
new load.BT_3000651311_M1 bus1=RML1011023918.1.2.3.0,Phases=3,kv=0.22,kW=0.30836,pf=0.92,Vminpu=0.92,Vmaxpu=1.5,model=1,daily=COM1_25,status=variable
new load.BT_3000651312_M1 bus1=RML1000750131.1.2.3.0,Phases=3,kv=0.22,kW=1.54178,pf=0.92,Vminpu=0.92,Vmaxpu=1.5,model=1,daily=RES1_25,status=variable
new load.BT_3000651313_M1 bus1=RML1000750145.1.2.0,Phases=2,kv=0.22,kW=2.4819,pf=0.92,Vminpu=0.92,Vmaxpu=1.5,model=1,daily=RES1_25,status=variable
new load.BT_3000651314_M1 bus1=RML1000750138.1.2.0,Phases=2,kv=0.22,kW=2.84002,pf=0.92,Vminpu=0.92,Vmaxpu=1.5,model=1,daily=RES1_25,status=variable
new load.BT_3000651316_M1 bus1=RML1000750362.3.0,Phases=1,kv=0.127,kW=1.37598,pf=0.92,Vminpu=0.92,Vmaxpu=1.5,model=1,daily=RES1_25,status=variable
new load.BT_3000651317_M1 bus1=RML1000750348.1.2.3.0,Phases=3,kv=0.22,kW=0.93284,pf=0.92,Vminpu=0.92,Vmaxpu=1.5,model=1,daily=COM1_25,status=variable
new load.BT_3000651318_M1 bus1=RML1000750376.1.0,Phases=1,kv=0.127,kW=3.01624,pf=0.92,Vminpu=0.92,Vmaxpu=1.5,model=1,daily=RES1_25,status=variable
new load.BT_3000651319_M1 bus1=RML1000750453.1.0,Phases=1,kv=0.127,kW=2.18924,pf=0.92,Vminpu=0.92,Vmaxpu=1.5,model=1,daily=RES1_25,status=variable
new load.BT_3000651320_M1 bus1=RML1000751951.2.3.0,Phases=2,kv=0.22,kW=0.50612,pf=0.92,Vminpu=0.92,Vmaxpu=1.5,model=1,daily=RES1_25,status=variable
new load.BT_3000651321_M1 bus1=RML1000750460.2.3.0,Phases=2,kv=0.22,kW=2.44494,pf=0.92,Vminpu=0.92,Vmaxpu=1.5,model=1,daily=RES1_25,status=variable
new load.BT_3000651322_M1 bus1=RML1000750432.3.0,Phases=1,kv=0.127,kW=0.00876,pf=0.92,Vminpu=0.92,Vmaxpu=1.5,model=1,daily=RES1_25,status=variable
new load.BT_3000651323_M1 bus1=RML1000750446.2.0,Phases=1,kv=0.127,kW=0.81368,pf=0.92,Vminpu=0.92,Vmaxpu=1.5,model=1,daily=RES1_25,status=variable
new load.BT_3000651324_M1 bus1=RML1000750299.3.0,Phases=1,kv=0.127,kW=1.7378,pf=0.92,Vminpu=0.92,Vmaxpu=1.5,model=1,daily=RES1_25,status=variable
new load.BT_3000651325_M1 bus1=RML1000749424.1.2.0,Phases=2,kv=0.22,kW=2.07364,pf=0.92,Vminpu=0.92,Vmaxpu=1.5,model=1,daily=RES1_25,status=variable
new load.BT_3000651326_M1 bus1=RML1000749382.2.0,Phases=1,kv=0.127,kW=1.40726,pf=0.92,Vminpu=0.92,Vmaxpu=1.5,model=1,daily=RES1_25,status=variable
new load.BT_3000651327_M1 bus1=RML1010493571.3.1.0,Phases=2,kv=0.22,kW=1.28872,pf=0.92,Vminpu=0.92,Vmaxpu=1.5,model=1,daily=RES1_25,status=variable
new load.BT_3000651328_M1 bus1=RML1000749417.2.0,Phases=1,kv=0.127,kW=0.00876,pf=0.92,Vminpu=0.92,Vmaxpu=1.5,model=1,daily=RES1_25,status=variable
new load.BT_3000651329_M1 bus1=RML1000749375.1.0,Phases=1,kv=0.127,kW=0.99456,pf=0.92,Vminpu=0.92,Vmaxpu=1.5,model=1,daily=RES1_25,status=variable
new load.BT_3000651330_M1 bus1=RML1000749361.2.0,Phases=1,kv=0.127,kW=0.46722,pf=0.92,Vminpu=0.92,Vmaxpu=1.5,model=1,daily=RES1_25,status=variable
new load.BT_3000651331_M1 bus1=RML1000749347.1.0,Phases=1,kv=0.127,kW=1.3904,pf=0.92,Vminpu=0.92,Vmaxpu=1.5,model=1,daily=RES1_25,status=variable
new load.BT_3000651332_M1 bus1=RML1000749368.1.0,Phases=1,kv=0.127,kW=0.06686,pf=0.92,Vminpu=0.92,Vmaxpu=1.5,model=1,daily=RES1_25,status=variable
new load.BT_3000651333_M1 bus1=RML1004133049.3.1.0,Phases=2,kv=0.22,kW=1.1812,pf=0.92,Vminpu=0.92,Vmaxpu=1.5,model=1,daily=RES1_25,status=variable
new load.BT_3000651334_M1 bus1=RML1010393004.1.0,Phases=1,kv=0.127,kW=0.75878,pf=0.92,Vminpu=0.92,Vmaxpu=1.5,model=1,daily=RES1_25,status=variable
new load.BT_3000651335_M1 bus1=RML1000749431.3.0,Phases=1,kv=0.127,kW=0.00876,pf=0.92,Vminpu=0.92,Vmaxpu=1.5,model=1,daily=RES1_25,status=variable
new load.BT_3000651336_M1 bus1=RML1000750306.1.0,Phases=1,kv=0.127,kW=0.00876,pf=0.92,Vminpu=0.92,Vmaxpu=1.5,model=1,daily=RES1_25,status=variable
new load.BT_3000651337_M1 bus1=RML1000750439.1.0,Phases=1,kv=0.127,kW=1.04456,pf=0.92,Vminpu=0.92,Vmaxpu=1.5,model=1,daily=RES1_25,status=variable
new load.BT_3000651338_M1 bus1=RML1000750404.2.0,Phases=1,kv=0.127,kW=0.84502,pf=0.92,Vminpu=0.92,Vmaxpu=1.5,model=1,daily=RES1_25,status=variable
new load.BT_3000651339_M1 bus1=RML1010792153.1.0,Phases=1,kv=0.127,kW=0.00876,pf=0.92,Vminpu=0.92,Vmaxpu=1.5,model=1,daily=RES1_25,status=variable
new load.BT_3000651340_M1 bus1=RML1000750292.2.0,Phases=1,kv=0.127,kW=1.0697,pf=0.92,Vminpu=0.92,Vmaxpu=1.5,model=1,daily=RES1_25,status=variable
new load.BT_3000651341_M1 bus1=RML1000749025.3.0,Phases=1,kv=0.127,kW=0.86884,pf=0.92,Vminpu=0.92,Vmaxpu=1.5,model=1,daily=RES1_25,status=variable
new load.BT_3000651342_M1 bus1=RML1000749032.2.0,Phases=1,kv=0.127,kW=0.00876,pf=0.92,Vminpu=0.92,Vmaxpu=1.5,model=1,daily=RES1_25,status=variable
new load.BT_3000651343_M1 bus1=RML1000748997.1.0,Phases=1,kv=0.127,kW=2.63334,pf=0.92,Vminpu=0.92,Vmaxpu=1.5,model=1,daily=RES1_25,status=variable
new load.BT_3000651344_M1 bus1=RML1000749004.3.0,Phases=1,kv=0.127,kW=0.8382,pf=0.92,Vminpu=0.92,Vmaxpu=1.5,model=1,daily=RES1_25,status=variable
new load.BT_3000651345_M1 bus1=RML1000748990.3.0,Phases=1,kv=0.127,kW=0.89772,pf=0.92,Vminpu=0.92,Vmaxpu=1.5,model=1,daily=RES1_25,status=variable
new load.BT_3000651346_M1 bus1=RML1000749018.1.0,Phases=1,kv=0.127,kW=1.10156,pf=0.92,Vminpu=0.92,Vmaxpu=1.5,model=1,daily=RES1_25,status=variable
new load.BT_3000651347_M1 bus1=RML1000749011.1.0,Phases=1,kv=0.127,kW=1.72628,pf=0.92,Vminpu=0.92,Vmaxpu=1.5,model=1,daily=RES1_25,status=variable
new load.BT_3000651348_M1 bus1=RML1010559815.2.3.0,Phases=2,kv=0.22,kW=0.62468,pf=0.92,Vminpu=0.92,Vmaxpu=1.5,model=1,daily=RES1_25,status=variable
new load.BT_3000651349_M1 bus1=RML1000750383.3.1.0,Phases=2,kv=0.22,kW=3.92152,pf=0.92,Vminpu=0.92,Vmaxpu=1.5,model=1,daily=RES1_25,status=variable
new load.BT_3000651350_M1 bus1=RML1000750390.3.0,Phases=1,kv=0.127,kW=1.63846,pf=0.92,Vminpu=0.92,Vmaxpu=1.5,model=1,daily=RES1_25,status=variable
new load.BT_3000651351_M1 bus1=RML1000750369.1.2.0,Phases=2,kv=0.22,kW=4.608,pf=0.92,Vminpu=0.92,Vmaxpu=1.5,model=1,daily=RES1_25,status=variable
new load.BT_3000651353_M1 bus1=RML1000750355.3.0,Phases=1,kv=0.127,kW=1.28834,pf=0.92,Vminpu=0.92,Vmaxpu=1.5,model=1,daily=RES1_25,status=variable
new load.BT_3000651354_M1 bus1=RML1000750341.1.0,Phases=1,kv=0.127,kW=0.75632,pf=0.92,Vminpu=0.92,Vmaxpu=1.5,model=1,daily=RES1_25,status=variable
new load.BT_3000651356_M1 bus1=RML1000750313.1.0,Phases=1,kv=0.127,kW=0.00876,pf=0.92,Vminpu=0.92,Vmaxpu=1.5,model=1,daily=RES1_25,status=variable
new load.BT_3000651357_M1 bus1=RML1000750271.2.0,Phases=1,kv=0.127,kW=0.00876,pf=0.92,Vminpu=0.92,Vmaxpu=1.5,model=1,daily=RES1_25,status=variable
new load.BT_3000651358_M1 bus1=RML1000750257.1.2.0,Phases=2,kv=0.22,kW=1.02234,pf=0.92,Vminpu=0.92,Vmaxpu=1.5,model=1,daily=COM1_25,status=variable
new load.BT_3000651359_M1 bus1=RML1000748976.3.0,Phases=1,kv=0.127,kW=1.00558,pf=0.92,Vminpu=0.92,Vmaxpu=1.5,model=1,daily=RES1_25,status=variable
new load.BT_3000651361_M1 bus1=RML1000748969.1.0,Phases=1,kv=0.127,kW=0.00876,pf=0.92,Vminpu=0.92,Vmaxpu=1.5,model=1,daily=RES1_25,status=variable
new load.BT_3000651362_M1 bus1=RML1000748962.1.0,Phases=1,kv=0.127,kW=0.00876,pf=0.92,Vminpu=0.92,Vmaxpu=1.5,model=1,daily=RES1_25,status=variable
new load.BT_3000651364_M1 bus1=RML1000750264.1.2.0,Phases=2,kv=0.22,kW=0.00876,pf=0.92,Vminpu=0.92,Vmaxpu=1.5,model=1,daily=RES1_25,status=variable
new load.BT_3000651365_M1 bus1=RML1000750264.1.2.0,Phases=2,kv=0.22,kW=0.17304,pf=0.92,Vminpu=0.92,Vmaxpu=1.5,model=1,daily=RES1_25,status=variable
new load.BT_3000651366_M1 bus1=RML1000750278.3.0,Phases=1,kv=0.127,kW=1.4857,pf=0.92,Vminpu=0.92,Vmaxpu=1.5,model=1,daily=RES1_25,status=variable
new load.BT_3000651367_M1 bus1=RML1000750327.3.0,Phases=1,kv=0.127,kW=0.63368,pf=0.92,Vminpu=0.92,Vmaxpu=1.5,model=1,daily=RES1_25,status=variable
new load.BT_3000651368_M1 bus1=RML1000750173.1.2.3.0,Phases=3,kv=0.22,kW=0.18976,pf=0.92,Vminpu=0.92,Vmaxpu=1.5,model=1,daily=COM1_25,status=variable
new load.BT_3000651370_M1 bus1=RML1000750159.3.0,Phases=1,kv=0.127,kW=0.00876,pf=0.92,Vminpu=0.92,Vmaxpu=1.5,model=1,daily=RES1_25,status=variable
new load.BT_3000651371_M1 bus1=RML1000750096.1.0,Phases=1,kv=0.127,kW=1.7323,pf=0.92,Vminpu=0.92,Vmaxpu=1.5,model=1,daily=RES1_25,status=variable
new load.BT_3000651372_M1 bus1=RML1000750068.2.0,Phases=1,kv=0.127,kW=1.02598,pf=0.92,Vminpu=0.92,Vmaxpu=1.5,model=1,daily=RES1_25,status=variable
new load.BT_3000651373_M1 bus1=RML1000750054.3.0,Phases=1,kv=0.127,kW=0.79912,pf=0.92,Vminpu=0.92,Vmaxpu=1.5,model=1,daily=RES1_25,status=variable
new load.BT_3000651374_M1 bus1=RML1000750040.3.0,Phases=1,kv=0.127,kW=0.70608,pf=0.92,Vminpu=0.92,Vmaxpu=1.5,model=1,daily=RES1_25,status=variable
new load.BT_3000651376_M1 bus1=RML1000927371.2.3.0,Phases=2,kv=0.22,kW=0.00876,pf=0.92,Vminpu=0.92,Vmaxpu=1.5,model=1,daily=RES1_25,status=variable
new load.BT_3000651378_M1 bus1=RML1000749977.1.2.3.0,Phases=3,kv=0.22,kW=4.12202,pf=0.92,Vminpu=0.92,Vmaxpu=1.5,model=1,daily=COM1_25,status=variable
new load.BT_3000651379_M1 bus1=RML1000749977.1.2.3.0,Phases=3,kv=0.22,kW=1.56866,pf=0.92,Vminpu=0.92,Vmaxpu=1.5,model=1,daily=RES1_25,status=variable
new load.BT_3000651380_M1 bus1=RML1000750033.1.0,Phases=1,kv=0.127,kW=0.53656,pf=0.92,Vminpu=0.92,Vmaxpu=1.5,model=1,daily=RES1_25,status=variable
new load.BT_3000651381_M1 bus1=RML1000750033.1.0,Phases=1,kv=0.127,kW=0.63446,pf=0.92,Vminpu=0.92,Vmaxpu=1.5,model=1,daily=RES1_25,status=variable
new load.BT_3000651382_M1 bus1=RML1000750047.3.0,Phases=1,kv=0.127,kW=1.01396,pf=0.92,Vminpu=0.92,Vmaxpu=1.5,model=1,daily=RES1_25,status=variable
new load.BT_3000651383_M1 bus1=RML1000750061.3.0,Phases=1,kv=0.127,kW=0.00876,pf=0.92,Vminpu=0.92,Vmaxpu=1.5,model=1,daily=RES1_25,status=variable
new load.BT_3000651384_M1 bus1=RML1000750089.1.0,Phases=1,kv=0.127,kW=3.29556,pf=0.92,Vminpu=0.92,Vmaxpu=1.5,model=1,daily=RES1_25,status=variable
new load.BT_3000651385_M1 bus1=RML1000750152.3.1.0,Phases=2,kv=0.22,kW=2.06522,pf=0.92,Vminpu=0.92,Vmaxpu=1.5,model=1,daily=RES1_25,status=variable
new load.BT_3000651386_M1 bus1=RML1000750124.2.0,Phases=1,kv=0.127,kW=0.89124,pf=0.92,Vminpu=0.92,Vmaxpu=1.5,model=1,daily=RES1_25,status=variable
new load.BT_3000651387_M1 bus1=RML1000750117.3.0,Phases=1,kv=0.127,kW=3.4352,pf=0.92,Vminpu=0.92,Vmaxpu=1.5,model=1,daily=RES1_25,status=variable
new load.BT_3000651388_M1 bus1=RML1000750110.2.3.0,Phases=2,kv=0.22,kW=1.14572,pf=0.92,Vminpu=0.92,Vmaxpu=1.5,model=1,daily=RES1_25,status=variable
new load.BT_3000651389_M1 bus1=RML1000750005.1.0,Phases=1,kv=0.127,kW=0.00876,pf=0.92,Vminpu=0.92,Vmaxpu=1.5,model=1,daily=RES1_25,status=variable
new load.BT_3000651390_M1 bus1=RML1000750012.3.0,Phases=1,kv=0.127,kW=0.00876,pf=0.92,Vminpu=0.92,Vmaxpu=1.5,model=1,daily=RES1_25,status=variable
new load.BT_3000651391_M1 bus1=RML1000750012.3.0,Phases=1,kv=0.127,kW=2.19522,pf=0.92,Vminpu=0.92,Vmaxpu=1.5,model=1,daily=RES1_25,status=variable
new load.BT_3000651392_M1 bus1=RML1000749984.1.0,Phases=1,kv=0.127,kW=1.23542,pf=0.92,Vminpu=0.92,Vmaxpu=1.5,model=1,daily=RES1_25,status=variable
new load.BT_3000651393_M1 bus1=RML1000749998.2.0,Phases=1,kv=0.127,kW=1.46982,pf=0.92,Vminpu=0.92,Vmaxpu=1.5,model=1,daily=RES1_25,status=variable
new load.BT_3000651394_M1 bus1=RML1000750019.1.0,Phases=1,kv=0.127,kW=2.01514,pf=0.92,Vminpu=0.92,Vmaxpu=1.5,model=1,daily=RES1_25,status=variable
new load.BT_3000651395_M1 bus1=RML1000750075.3.0,Phases=1,kv=0.127,kW=0.00876,pf=0.92,Vminpu=0.92,Vmaxpu=1.5,model=1,daily=RES1_25,status=variable
new load.BT_3000651396_M1 bus1=RML1000749865.3.0,Phases=1,kv=0.127,kW=0.00876,pf=0.92,Vminpu=0.92,Vmaxpu=1.5,model=1,daily=RES1_25,status=variable
new load.BT_3000651399_M1 bus1=RML1000749746.2.3.0,Phases=2,kv=0.22,kW=0.7212,pf=0.92,Vminpu=0.92,Vmaxpu=1.5,model=1,daily=RES1_25,status=variable
new load.BT_3000651400_M1 bus1=RML1000749753.3.0,Phases=1,kv=0.127,kW=1.1707,pf=0.92,Vminpu=0.92,Vmaxpu=1.5,model=1,daily=COM1_25,status=variable
new load.BT_3000651401_M1 bus1=RML1000747842.3.1.0,Phases=2,kv=0.22,kW=0.52114,pf=0.92,Vminpu=0.92,Vmaxpu=1.5,model=1,daily=RES1_25,status=variable
new load.BT_3000651402_M1 bus1=RML1000748031.1.0,Phases=1,kv=0.127,kW=2.48228,pf=0.92,Vminpu=0.92,Vmaxpu=1.5,model=1,daily=RES1_25,status=variable
new load.BT_3000651403_M1 bus1=RML1000748059.3.0,Phases=1,kv=0.127,kW=2.00936,pf=0.92,Vminpu=0.92,Vmaxpu=1.5,model=1,daily=RES1_25,status=variable
new load.BT_3000651404_M1 bus1=RML1000748094.1.0,Phases=1,kv=0.127,kW=0.00876,pf=0.92,Vminpu=0.92,Vmaxpu=1.5,model=1,daily=RES1_25,status=variable
new load.BT_3000651405_M1 bus1=RML1000748080.2.0,Phases=1,kv=0.127,kW=3.57856,pf=0.92,Vminpu=0.92,Vmaxpu=1.5,model=1,daily=RES1_25,status=variable
new load.BT_3000651406_M1 bus1=RML1000927343.2.3.0,Phases=2,kv=0.22,kW=2.31738,pf=0.92,Vminpu=0.92,Vmaxpu=1.5,model=1,daily=RES1_25,status=variable
new load.BT_3000651407_M1 bus1=RML1010044542.1.0,Phases=1,kv=0.127,kW=0.82346,pf=0.92,Vminpu=0.92,Vmaxpu=1.5,model=1,daily=RES1_25,status=variable
new load.BT_3000651408_M1 bus1=RML1000927350.2.0,Phases=1,kv=0.127,kW=0.90516,pf=0.92,Vminpu=0.92,Vmaxpu=1.5,model=1,daily=RES1_25,status=variable
new load.BT_3000651409_M1 bus1=RML1000748780.1.0,Phases=1,kv=0.127,kW=0.7618,pf=0.92,Vminpu=0.92,Vmaxpu=1.5,model=1,daily=RES1_25,status=variable
new load.BT_3000651410_M1 bus1=RML1010203115.2.3.0,Phases=2,kv=0.22,kW=2.0866,pf=0.92,Vminpu=0.92,Vmaxpu=1.5,model=1,daily=RES1_25,status=variable
new load.BT_3000651411_M1 bus1=RML1000748794.1.0,Phases=1,kv=0.127,kW=1.17494,pf=0.92,Vminpu=0.92,Vmaxpu=1.5,model=1,daily=RES1_25,status=variable
new load.BT_3000651412_M1 bus1=RML1000748857.1.0,Phases=1,kv=0.127,kW=2.07742,pf=0.92,Vminpu=0.92,Vmaxpu=1.5,model=1,daily=RES1_25,status=variable
new load.BT_3000651413_M1 bus1=RML1000748885.1.0,Phases=1,kv=0.127,kW=1.17828,pf=0.92,Vminpu=0.92,Vmaxpu=1.5,model=1,daily=RES1_25,status=variable
new load.BT_3000651414_M1 bus1=RML1000748892.2.0,Phases=1,kv=0.127,kW=0.00876,pf=0.92,Vminpu=0.92,Vmaxpu=1.5,model=1,daily=RES1_25,status=variable
new load.BT_3000651415_M1 bus1=RML1011001840.1.0,Phases=1,kv=0.127,kW=0.59328,pf=0.92,Vminpu=0.92,Vmaxpu=1.5,model=1,daily=RES1_25,status=variable
new load.BT_3000651416_M1 bus1=RML1000748920.2.0,Phases=1,kv=0.127,kW=1.3209,pf=0.92,Vminpu=0.92,Vmaxpu=1.5,model=1,daily=RES1_25,status=variable
new load.BT_3000651417_M1 bus1=RML1000748948.2.0,Phases=1,kv=0.127,kW=2.52662,pf=0.92,Vminpu=0.92,Vmaxpu=1.5,model=1,daily=RES1_25,status=variable
new load.BT_3000651418_M1 bus1=RML1000748934.1.0,Phases=1,kv=0.127,kW=1.81528,pf=0.92,Vminpu=0.92,Vmaxpu=1.5,model=1,daily=RES1_25,status=variable
new load.BT_3000651419_M1 bus1=RML1000748927.1.0,Phases=1,kv=0.127,kW=1.34086,pf=0.92,Vminpu=0.92,Vmaxpu=1.5,model=1,daily=RES1_25,status=variable
new load.BT_3000651420_M1 bus1=RML1000749319.3.0,Phases=1,kv=0.127,kW=1.55102,pf=0.92,Vminpu=0.92,Vmaxpu=1.5,model=1,daily=RES1_25,status=variable
new load.BT_3000651421_M1 bus1=RML1000749326.3.0,Phases=1,kv=0.127,kW=1.41992,pf=0.92,Vminpu=0.92,Vmaxpu=1.5,model=1,daily=RES1_25,status=variable
new load.BT_3000651422_M1 bus1=RML1000749333.1.2.3.0,Phases=3,kv=0.22,kW=0.78586,pf=0.92,Vminpu=0.92,Vmaxpu=1.5,model=1,daily=COM1_25,status=variable
new load.BT_3000651423_M1 bus1=RML1000749256.2.0,Phases=1,kv=0.127,kW=1.35214,pf=0.92,Vminpu=0.92,Vmaxpu=1.5,model=1,daily=RES1_25,status=variable
new load.BT_3000651424_M1 bus1=RML1000749270.1.0,Phases=1,kv=0.127,kW=2.2175,pf=0.92,Vminpu=0.92,Vmaxpu=1.5,model=1,daily=RES1_25,status=variable
new load.BT_3000651425_M1 bus1=RML1000749221.3.0,Phases=1,kv=0.127,kW=1.44928,pf=0.92,Vminpu=0.92,Vmaxpu=1.5,model=1,daily=RES1_25,status=variable
new load.BT_3000651426_M1 bus1=RML1000749228.2.0,Phases=1,kv=0.127,kW=1.41742,pf=0.92,Vminpu=0.92,Vmaxpu=1.5,model=1,daily=RES1_25,status=variable
new load.BT_3000651427_M1 bus1=RML1000749263.2.0,Phases=1,kv=0.127,kW=1.92352,pf=0.92,Vminpu=0.92,Vmaxpu=1.5,model=1,daily=RES1_25,status=variable
new load.BT_3000651428_M1 bus1=RML1000749312.1.2.3.0,Phases=3,kv=0.22,kW=0.13572,pf=0.92,Vminpu=0.92,Vmaxpu=1.5,model=1,daily=COM1_25,status=variable
new load.BT_3000651429_M1 bus1=RML1000749249.2.0,Phases=1,kv=0.127,kW=1.00566,pf=0.92,Vminpu=0.92,Vmaxpu=1.5,model=1,daily=RES1_25,status=variable
new load.BT_3000651430_M1 bus1=RML1000747212.2.0,Phases=1,kv=0.127,kW=1.09298,pf=0.92,Vminpu=0.92,Vmaxpu=1.5,model=1,daily=RES1_25,status=variable
new load.BT_3000651431_M1 bus1=RML1000747233.3.0,Phases=1,kv=0.127,kW=1.51974,pf=0.92,Vminpu=0.92,Vmaxpu=1.5,model=1,daily=RES1_25,status=variable
new load.BT_3000651432_M1 bus1=RML1000747198.1.0,Phases=1,kv=0.127,kW=1.43476,pf=0.92,Vminpu=0.92,Vmaxpu=1.5,model=1,daily=RES1_25,status=variable
new load.BT_3000651433_M1 bus1=RML1000747205.1.0,Phases=1,kv=0.127,kW=0.10102,pf=0.92,Vminpu=0.92,Vmaxpu=1.5,model=1,daily=COM1_25,status=variable
new load.BT_3000651434_M1 bus1=RML1005319577.3.0,Phases=1,kv=0.127,kW=0.0352,pf=0.92,Vminpu=0.92,Vmaxpu=1.5,model=1,daily=RES1_25,status=variable
new load.BT_3000651435_M1 bus1=RML1000747226.2.0,Phases=1,kv=0.127,kW=0.69356,pf=0.92,Vminpu=0.92,Vmaxpu=1.5,model=1,daily=RES1_25,status=variable
new load.BT_3000651436_M1 bus1=RML1000747219.1.2.0,Phases=2,kv=0.22,kW=0.6399,pf=0.92,Vminpu=0.92,Vmaxpu=1.5,model=1,daily=RES1_25,status=variable
new load.BT_3000651437_M1 bus1=RML1000749235.2.0,Phases=1,kv=0.127,kW=1.5761,pf=0.92,Vminpu=0.92,Vmaxpu=1.5,model=1,daily=RES1_25,status=variable
new load.BT_3000651438_M1 bus1=RML1000749298.2.0,Phases=1,kv=0.127,kW=0.2126,pf=0.92,Vminpu=0.92,Vmaxpu=1.5,model=1,daily=RES1_25,status=variable
new load.BT_3000651440_M1 bus1=RML1000748955.1.2.0,Phases=2,kv=0.22,kW=5.99116,pf=0.92,Vminpu=0.92,Vmaxpu=1.5,model=1,daily=RES1_25,status=variable
new load.BT_3000651441_M1 bus1=RML1000748913.3.0,Phases=1,kv=0.127,kW=0.7879,pf=0.92,Vminpu=0.92,Vmaxpu=1.5,model=1,daily=RES1_25,status=variable
new load.BT_3000651442_M1 bus1=RML1000748822.1.0,Phases=1,kv=0.127,kW=0.00876,pf=0.92,Vminpu=0.92,Vmaxpu=1.5,model=1,daily=RES1_25,status=variable
new load.BT_3000651443_M1 bus1=RML1000748815.3.0,Phases=1,kv=0.127,kW=2.83706,pf=0.92,Vminpu=0.92,Vmaxpu=1.5,model=1,daily=RES1_25,status=variable
new load.BT_3000651444_M1 bus1=RML1000748766.1.0,Phases=1,kv=0.127,kW=1.07468,pf=0.92,Vminpu=0.92,Vmaxpu=1.5,model=1,daily=RES1_25,status=variable
new load.BT_3000651445_M1 bus1=RML1000748759.1.0,Phases=1,kv=0.127,kW=1.09172,pf=0.92,Vminpu=0.92,Vmaxpu=1.5,model=1,daily=RES1_25,status=variable
new load.BT_3000651446_M1 bus1=RML1000748696.1.0,Phases=1,kv=0.127,kW=1.52642,pf=0.92,Vminpu=0.92,Vmaxpu=1.5,model=1,daily=RES1_25,status=variable
new load.BT_3000651448_M1 bus1=RML1000748689.1.0,Phases=1,kv=0.127,kW=1.33572,pf=0.92,Vminpu=0.92,Vmaxpu=1.5,model=1,daily=RES1_25,status=variable
new load.BT_3000651449_M1 bus1=RML1000748738.1.0,Phases=1,kv=0.127,kW=0.75792,pf=0.92,Vminpu=0.92,Vmaxpu=1.5,model=1,daily=RES1_25,status=variable
new load.BT_3000651450_M1 bus1=RML1000748752.2.0,Phases=1,kv=0.127,kW=0.82228,pf=0.92,Vminpu=0.92,Vmaxpu=1.5,model=1,daily=RES1_25,status=variable
new load.BT_3000651452_M1 bus1=RML1005281875.1.2.0,Phases=2,kv=0.22,kW=0.00876,pf=0.92,Vminpu=0.92,Vmaxpu=1.5,model=1,daily=RES1_25,status=variable
new load.BT_3000651453_M1 bus1=RML1000748829.1.0,Phases=1,kv=0.127,kW=0.41568,pf=0.92,Vminpu=0.92,Vmaxpu=1.5,model=1,daily=RES1_25,status=variable
new load.BT_3000651454_M1 bus1=RML1000748871.3.1.0,Phases=2,kv=0.22,kW=0.00102,pf=0.92,Vminpu=0.92,Vmaxpu=1.5,model=1,daily=COM1_25,status=variable
new load.BT_3000651455_M1 bus1=RML1000748899.2.0,Phases=1,kv=0.127,kW=1.65456,pf=0.92,Vminpu=0.92,Vmaxpu=1.5,model=1,daily=RES1_25,status=variable
new load.BT_3000651456_M1 bus1=RML1000748878.3.0,Phases=1,kv=0.127,kW=2.19518,pf=0.92,Vminpu=0.92,Vmaxpu=1.5,model=1,daily=RES1_25,status=variable
new load.BT_3000651457_M1 bus1=RML1000748850.1.0,Phases=1,kv=0.127,kW=0.56172,pf=0.92,Vminpu=0.92,Vmaxpu=1.5,model=1,daily=RES1_25,status=variable
new load.BT_3000651458_M1 bus1=RML1000748836.3.0,Phases=1,kv=0.127,kW=1.36494,pf=0.92,Vminpu=0.92,Vmaxpu=1.5,model=1,daily=RES1_25,status=variable
new load.BT_3000651459_M1 bus1=RML1000748864.1.0,Phases=1,kv=0.127,kW=1.50548,pf=0.92,Vminpu=0.92,Vmaxpu=1.5,model=1,daily=RES1_25,status=variable
new load.BT_3000651460_M1 bus1=RML1000748703.3.0,Phases=1,kv=0.127,kW=1.37574,pf=0.92,Vminpu=0.92,Vmaxpu=1.5,model=1,daily=RES1_25,status=variable
new load.BT_3000651461_M1 bus1=RML1000748717.1.0,Phases=1,kv=0.127,kW=0.19338,pf=0.92,Vminpu=0.92,Vmaxpu=1.5,model=1,daily=RES1_25,status=variable
new load.BT_3000651462_M1 bus1=RML1004346052.1.2.0,Phases=2,kv=0.22,kW=1.71328,pf=0.92,Vminpu=0.92,Vmaxpu=1.5,model=1,daily=RES1_25,status=variable
new load.BT_3000651463_M1 bus1=RML1000748731.2.0,Phases=1,kv=0.127,kW=0.00876,pf=0.92,Vminpu=0.92,Vmaxpu=1.5,model=1,daily=RES1_25,status=variable
new load.BT_3000651464_M1 bus1=RML1000748605.1.0,Phases=1,kv=0.127,kW=0.42426,pf=0.92,Vminpu=0.92,Vmaxpu=1.5,model=1,daily=COM1_25,status=variable
new load.BT_3000651465_M1 bus1=RML1010203738.1.0,Phases=1,kv=0.127,kW=0.00876,pf=0.92,Vminpu=0.92,Vmaxpu=1.5,model=1,daily=RES1_25,status=variable
new load.BT_3000651466_M1 bus1=RML1000748619.2.0,Phases=1,kv=0.127,kW=1.72852,pf=0.92,Vminpu=0.92,Vmaxpu=1.5,model=1,daily=RES1_25,status=variable
new load.BT_3000651467_M1 bus1=RML1000748710.3.0,Phases=1,kv=0.127,kW=0.75246,pf=0.92,Vminpu=0.92,Vmaxpu=1.5,model=1,daily=RES1_25,status=variable