new loadshape.c3010648927 npts=24,interval=1.0,mult=(1.624 1.476 1.403 1.412 1.442 1.24 0.848 0.496 0.424 0.459 0.507 0.582 0.508 0.448 0.485 0.708 0.565 0.833 1.14 1.644 1.51 1.481 1.416 1.349)
new generator.3010648927 bus1=BMT121691007.1.2.3,Phases=3,kv=13.800000000,kW=0.000000000,pf=0.92,model=1,daily=c3010648927,status=Variable
