new load.3009000908M1 bus1=BMT121685806.1.2.3.0,Phases=3,kv=13.800000000,kW=51.68004,pf=0.92,Vminpu=0.93,Vmaxpu=1.5,model=1,daily=MT2_1,status=variable
new load.3009007360M1 bus1=BMT169405882.1.2.3.0,Phases=3,kv=13.800000000,kW=27.97786,pf=0.92,Vminpu=0.93,Vmaxpu=1.5,model=1,daily=MT3_1,status=variable
new load.3009007946M1 bus1=BMT160439960.1.2.3.0,Phases=3,kv=13.800000000,kW=5.67652,pf=0.92,Vminpu=0.93,Vmaxpu=1.5,model=1,daily=MT2_1,status=variable
new load.3009008030M1 bus1=BMT121690986.1.2.3.0,Phases=3,kv=13.800000000,kW=1.55432,pf=0.92,Vminpu=0.93,Vmaxpu=1.5,model=1,daily=MT3_1,status=variable
new load.3009008439M1 bus1=BMT121683748.1.2.3.0,Phases=3,kv=13.800000000,kW=2.16496,pf=0.92,Vminpu=0.93,Vmaxpu=1.5,model=1,daily=MT3_1,status=variable
new load.3009008548M1 bus1=BMT121690937.1.2.3.0,Phases=3,kv=13.800000000,kW=0.65044,pf=0.92,Vminpu=0.93,Vmaxpu=1.5,model=1,daily=MT2_1,status=variable
new load.3009008841M1 bus1=BMT121690020.1.2.3.0,Phases=3,kv=13.800000000,kW=0.00152,pf=0.92,Vminpu=0.93,Vmaxpu=1.5,model=1,daily=MT1_1,status=variable
new load.3009009984M1 bus1=BMT121685001.1.2.3.0,Phases=3,kv=13.800000000,kW=0.00152,pf=0.92,Vminpu=0.93,Vmaxpu=1.5,model=1,daily=MT1_1,status=variable
new load.3009013179M1 bus1=BMT121682761.1.2.3.0,Phases=3,kv=13.800000000,kW=1.89218,pf=0.92,Vminpu=0.93,Vmaxpu=1.5,model=1,daily=MT2_1,status=variable
new load.3009013257M1 bus1=BMT168017510.1.2.3.0,Phases=3,kv=13.800000000,kW=0.00152,pf=0.92,Vminpu=0.93,Vmaxpu=1.5,model=1,daily=MT1_1,status=variable
new load.3009013357M1 bus1=BMT121688816.1.2.3.0,Phases=3,kv=13.800000000,kW=0.00152,pf=0.92,Vminpu=0.93,Vmaxpu=1.5,model=1,daily=MT1_1,status=variable
new load.3009019031M1 bus1=BMT150344101.1.2.3.0,Phases=3,kv=13.800000000,kW=270.39132,pf=0.92,Vminpu=0.93,Vmaxpu=1.5,model=1,daily=MT5_1,status=variable
new load.3009019579M1 bus1=BMT121689306.1.2.3.0,Phases=3,kv=13.800000000,kW=6.44522,pf=0.92,Vminpu=0.93,Vmaxpu=1.5,model=1,daily=MT2_1,status=variable
new load.3009019580M1 bus1=BMT121689320.1.2.3.0,Phases=3,kv=13.800000000,kW=0.00152,pf=0.92,Vminpu=0.93,Vmaxpu=1.5,model=1,daily=MT1_1,status=variable
new load.3009021923M1 bus1=BMT167005434.1.2.3.0,Phases=3,kv=13.800000000,kW=0.00152,pf=0.92,Vminpu=0.93,Vmaxpu=1.5,model=1,daily=MT1_1,status=variable
new load.3010648927M1 bus1=BMT167005434.1.2.3.0,Phases=3,kv=13.800000000,kW=0.00152,pf=0.92,Vminpu=0.93,Vmaxpu=1.5,model=1,daily=MT1_1,status=variable
new load.3011372605M1 bus1=BMT167005434.1.2.3.0,Phases=3,kv=13.800000000,kW=319.95186,pf=0.92,Vminpu=0.93,Vmaxpu=1.5,model=1,daily=MT5_1,status=variable
new load.3011969477M1 bus1=BMT147785782.1.2.3.0,Phases=3,kv=13.800000000,kW=4.6713,pf=0.92,Vminpu=0.93,Vmaxpu=1.5,model=1,daily=MT2_1,status=variable
new load.3012009983M1 bus1=BMT148231566.1.2.3.0,Phases=3,kv=13.800000000,kW=47.65918,pf=0.92,Vminpu=0.93,Vmaxpu=1.5,model=1,daily=MT2_1,status=variable
