new transformer.1011380 Phases=1,Windings=3,Buses=[BMT163849058.1 BBT106316571.1.0 BBT106316571.0.2],Conns=[wye wye wye],kvs=[12.70 0.12 0.12],kvas=[5.000000000 5.000000000 5.000000000],Taps=[1,1.000000000,1.000000000],%loadloss=2.100000000,%noloadloss=0.700000000
new transformer.1011387 Phases=1,Windings=3,Buses=[BMT165924856.1 BBT108122095.1.0 BBT108122095.0.2],Conns=[wye wye wye],kvs=[12.70 0.12 0.12],kvas=[5.000000000 5.000000000 5.000000000],Taps=[1,1.000000000,1.000000000],%loadloss=2.100000000,%noloadloss=0.700000000
new transformer.1011772 Phases=1,Windings=3,Buses=[BMT122312320.1 BBT110053381.1.0 BBT110053381.0.2],Conns=[wye wye wye],kvs=[12.70 0.12 0.12],kvas=[10.000000000 10.000000000 10.000000000],Taps=[1,1.000000000,1.000000000],%loadloss=1.950000000,%noloadloss=0.450000000
new transformer.1012353 Phases=1,Windings=3,Buses=[BMT174013449.1 BBT108718698.1.0 BBT108718698.0.2],Conns=[wye wye wye],kvs=[12.70 0.12 0.12],kvas=[25.000000000 25.000000000 25.000000000],Taps=[1,1.000000000,1.000000000],%loadloss=1.620000000,%noloadloss=0.360000000
new transformer.1012374 Phases=1,Windings=3,Buses=[BMT149432163.1 BBT110445969.1.0 BBT110445969.0.2],Conns=[wye wye wye],kvs=[12.70 0.12 0.12],kvas=[5.000000000 5.000000000 5.000000000],Taps=[1,1.000000000,1.000000000],%loadloss=2.100000000,%noloadloss=0.700000000
new transformer.1012668 Phases=1,Windings=3,Buses=[BMT122313426.2 BBT108296675.1.0 BBT108296675.0.2],Conns=[wye wye wye],kvs=[12.70 0.12 0.12],kvas=[10.000000000 10.000000000 10.000000000],Taps=[1,1.000000000,1.000000000],%loadloss=1.950000000,%noloadloss=0.450000000
new transformer.1012941 Phases=1,Windings=3,Buses=[BMT160118917.1 BBT106808776.1.0 BBT106808776.0.2],Conns=[wye wye wye],kvs=[12.70 0.12 0.12],kvas=[5.000000000 5.000000000 5.000000000],Taps=[1,1.000000000,1.000000000],%loadloss=2.100000000,%noloadloss=0.700000000
new transformer.1019269 Phases=1,Windings=3,Buses=[BMT170747385.1 BBT91039897.1.0 BBT91039897.0.2],Conns=[wye wye wye],kvs=[12.70 0.12 0.12],kvas=[5.000000000 5.000000000 5.000000000],Taps=[1,1.000000000,1.000000000],%loadloss=2.100000000,%noloadloss=0.700000000
new transformer.1026304 Phases=1,Windings=3,Buses=[BMT154139849.1 BBT119362506.1.0 BBT119362506.0.2],Conns=[wye wye wye],kvs=[12.70 0.12 0.12],kvas=[15.000000000 15.000000000 15.000000000],Taps=[1,1.000000000,1.000000000],%loadloss=1.833000000,%noloadloss=0.466666667
new transformer.1026311 Phases=1,Windings=3,Buses=[BMT154139848.1 BBT119362730.1.0 BBT119362730.0.2],Conns=[wye wye wye],kvs=[12.70 0.12 0.12],kvas=[10.000000000 10.000000000 10.000000000],Taps=[1,1.000000000,1.000000000],%loadloss=1.950000000,%noloadloss=0.450000000
new transformer.1026346 Phases=1,Windings=3,Buses=[BMT154139846.1 BBT119363591.1.0 BBT119363591.0.2],Conns=[wye wye wye],kvs=[12.70 0.12 0.12],kvas=[5.000000000 5.000000000 5.000000000],Taps=[1,1.000000000,1.000000000],%loadloss=2.100000000,%noloadloss=0.700000000
new transformer.1026507 Phases=1,Windings=3,Buses=[BMT169655951.1 BBT94973106.1.0 BBT94973106.0.2],Conns=[wye wye wye],kvs=[12.70 0.12 0.12],kvas=[5.000000000 5.000000000 5.000000000],Taps=[1,1.000000000,1.000000000],%loadloss=2.100000000,%noloadloss=0.700000000
new transformer.1027011 Phases=1,Windings=3,Buses=[BMT162680889.1 BBT95256816.1.0 BBT95256816.0.2],Conns=[wye wye wye],kvs=[12.70 0.12 0.12],kvas=[15.000000000 15.000000000 15.000000000],Taps=[1,1.000000000,1.000000000],%loadloss=1.833000000,%noloadloss=0.466666667
new transformer.1035117 Phases=1,Windings=3,Buses=[BMT149432494.2 BBT111846221.1.0 BBT111846221.0.2],Conns=[wye wye wye],kvs=[12.70 0.12 0.12],kvas=[5.000000000 5.000000000 5.000000000],Taps=[1,1.000000000,1.000000000],%loadloss=2.100000000,%noloadloss=0.700000000
new transformer.1035131 Phases=3,Windings=2,Buses=[BMT154636829.1.2.3 BBT101221537.1.2.3.0],Conns=[delta wye],kvs=[22.0 0.22],kvas=[150.000000000 150.000000000],Taps=[1,1.000000000],%loadloss=1.200000000,%noloadloss=0.300000000
new transformer.1035362 Phases=3,Windings=2,Buses=[BMT176034429.1.2.3 BBT101470205.1.2.3.0],Conns=[delta wye],kvs=[22.0 0.22],kvas=[150.000000000 150.000000000],Taps=[1,1.000000000],%loadloss=1.200000000,%noloadloss=0.300000000
new transformer.1035383 Phases=1,Windings=3,Buses=[BMT172568285.1 BBT109465381.1.0 BBT109465381.0.2],Conns=[wye wye wye],kvs=[12.70 0.12 0.12],kvas=[5.000000000 5.000000000 5.000000000],Taps=[1,1.000000000,1.000000000],%loadloss=2.100000000,%noloadloss=0.700000000
new transformer.1035467 Phases=1,Windings=3,Buses=[BMT133346329.1 BBT108676593.1.0 BBT108676593.0.2],Conns=[wye wye wye],kvs=[12.70 0.12 0.12],kvas=[5.000000000 5.000000000 5.000000000],Taps=[1,1.000000000,1.000000000],%loadloss=2.100000000,%noloadloss=0.700000000
new transformer.1035516 Phases=1,Windings=3,Buses=[BMT174587455.1 BBT108443731.1.0 BBT108443731.0.2],Conns=[wye wye wye],kvs=[12.70 0.12 0.12],kvas=[5.000000000 5.000000000 5.000000000],Taps=[1,1.000000000,1.000000000],%loadloss=2.100000000,%noloadloss=0.700000000
new transformer.1036202 Phases=1,Windings=3,Buses=[BMT176061484.3 BBT102278838.1.0 BBT102278838.0.2],Conns=[wye wye wye],kvs=[12.70 0.12 0.12],kvas=[35.000000000 35.000000000 35.000000000],Taps=[1,1.000000000,1.000000000],%loadloss=1.590000000,%noloadloss=0.433000000
new transformer.1036965 Phases=3,Windings=2,Buses=[BMT175921117.1.2.3 BBT102832727.1.2.3.0],Conns=[delta wye],kvs=[22.0 0.22],kvas=[150.000000000 150.000000000],Taps=[1,1.000000000],%loadloss=1.200000000,%noloadloss=0.300000000
new transformer.1043398 Phases=1,Windings=3,Buses=[BMT163637100.1 BBT108601301.1.0 BBT108601301.0.2],Conns=[wye wye wye],kvs=[12.70 0.12 0.12],kvas=[5.000000000 5.000000000 5.000000000],Taps=[1,1.000000000,1.000000000],%loadloss=2.100000000,%noloadloss=0.700000000
new transformer.1043405 Phases=1,Windings=3,Buses=[BMT163634311.2 BBT108629007.1.0 BBT108629007.0.2],Conns=[wye wye wye],kvs=[12.70 0.12 0.12],kvas=[5.000000000 5.000000000 5.000000000],Taps=[1,1.000000000,1.000000000],%loadloss=2.100000000,%noloadloss=0.700000000
new transformer.1044245 Phases=1,Windings=3,Buses=[BMT174587456.1 BBT112974586.1.0 BBT112974586.0.2],Conns=[wye wye wye],kvs=[12.70 0.12 0.12],kvas=[5.000000000 5.000000000 5.000000000],Taps=[1,1.000000000,1.000000000],%loadloss=2.100000000,%noloadloss=0.700000000
new transformer.1003421 Phases=1,Windings=3,Buses=[BMT122310297.1 BBT107085794.1.0 BBT107085794.0.2],Conns=[wye wye wye],kvs=[12.70 0.12 0.12],kvas=[5.000000000 5.000000000 5.000000000],Taps=[1,1.000000000,1.000000000],%loadloss=2.100000000,%noloadloss=0.700000000
new transformer.1003456 Phases=1,Windings=3,Buses=[BMT170442180.2 BBT99118247.1.0 BBT99118247.0.2],Conns=[wye wye wye],kvs=[12.70 0.12 0.12],kvas=[5.000000000 5.000000000 5.000000000],Taps=[1,1.000000000,1.000000000],%loadloss=2.100000000,%noloadloss=0.700000000
new transformer.1003582 Phases=1,Windings=3,Buses=[BMT133346336.1 BBT99567619.1.0 BBT99567619.0.2],Conns=[wye wye wye],kvs=[12.70 0.12 0.12],kvas=[5.000000000 5.000000000 5.000000000],Taps=[1,1.000000000,1.000000000],%loadloss=2.100000000,%noloadloss=0.700000000
new transformer.1010750 Phases=1,Windings=3,Buses=[BMT175440468.3 BBT105500259.1.0 BBT105500259.0.2],Conns=[wye wye wye],kvs=[12.70 0.12 0.12],kvas=[5.000000000 5.000000000 5.000000000],Taps=[1,1.000000000,1.000000000],%loadloss=2.100000000,%noloadloss=0.700000000
new transformer.1010778 Phases=1,Windings=3,Buses=[BMT157308981.1 BBT107045481.1.0 BBT107045481.0.2],Conns=[wye wye wye],kvs=[12.70 0.12 0.12],kvas=[10.000000000 10.000000000 10.000000000],Taps=[1,1.000000000,1.000000000],%loadloss=1.950000000,%noloadloss=0.450000000
new transformer.1011030 Phases=1,Windings=3,Buses=[BMT163637121.1 BBT104170203.1.0 BBT104170203.0.2],Conns=[wye wye wye],kvs=[12.70 0.12 0.12],kvas=[5.000000000 5.000000000 5.000000000],Taps=[1,1.000000000,1.000000000],%loadloss=2.100000000,%noloadloss=0.700000000
new transformer.1017337 Phases=1,Windings=3,Buses=[BMT122307462.1 BBT101887958.1.0 BBT101887958.0.2],Conns=[wye wye wye],kvs=[12.70 0.12 0.12],kvas=[5.000000000 5.000000000 5.000000000],Taps=[1,1.000000000,1.000000000],%loadloss=2.100000000,%noloadloss=0.700000000
new transformer.1017435 Phases=1,Windings=3,Buses=[BMT122315813.3 BBT101527129.1.0 BBT101527129.0.2],Conns=[wye wye wye],kvs=[12.70 0.12 0.12],kvas=[5.000000000 5.000000000 5.000000000],Taps=[1,1.000000000,1.000000000],%loadloss=2.100000000,%noloadloss=0.700000000
new transformer.1017946 Phases=1,Windings=3,Buses=[BMT176611733.3 BBT104028313.1.0 BBT104028313.0.2],Conns=[wye wye wye],kvs=[12.70 0.12 0.12],kvas=[5.000000000 5.000000000 5.000000000],Taps=[1,1.000000000,1.000000000],%loadloss=2.100000000,%noloadloss=0.700000000
new transformer.1029944 Phases=3,Windings=2,Buses=[BMT155823086.1.2.3 BBT97951557.1.2.3.0],Conns=[delta wye],kvs=[22.0 0.22],kvas=[45.000000000 45.000000000],Taps=[1,1.000000000],%loadloss=1.611000000,%noloadloss=0.411111111
new transformer.1030630 Phases=1,Windings=3,Buses=[BMT169335782.1 BBT98464265.1.0 BBT98464265.0.2],Conns=[wye wye wye],kvs=[12.70 0.12 0.12],kvas=[10.000000000 10.000000000 10.000000000],Taps=[1,1.000000000,1.000000000],%loadloss=1.950000000,%noloadloss=0.450000000
new transformer.1037161 Phases=1,Windings=3,Buses=[BMT170442197.2 BBT102936530.1.0 BBT102936530.0.2],Conns=[wye wye wye],kvs=[12.70 0.12 0.12],kvas=[10.000000000 10.000000000 10.000000000],Taps=[1,1.000000000,1.000000000],%loadloss=1.950000000,%noloadloss=0.450000000
new transformer.1044812 Phases=1,Windings=3,Buses=[BMT169428484.2 BBT110690437.1.0 BBT110690437.0.2],Conns=[wye wye wye],kvs=[12.70 0.12 0.12],kvas=[5.000000000 5.000000000 5.000000000],Taps=[1,1.000000000,1.000000000],%loadloss=2.100000000,%noloadloss=0.700000000
new transformer.1044861 Phases=1,Windings=3,Buses=[BMT160060984.2 BBT110758603.1.0 BBT110758603.0.2],Conns=[wye wye wye],kvs=[12.70 0.12 0.12],kvas=[10.000000000 10.000000000 10.000000000],Taps=[1,1.000000000,1.000000000],%loadloss=1.950000000,%noloadloss=0.450000000
new transformer.1045176 Phases=3,Windings=2,Buses=[BMT139924824.1.2.3 BBT111031505.1.2.3.0],Conns=[delta wye],kvs=[22.0 0.22],kvas=[30.000000000 30.000000000],Taps=[1,1.000000000],%loadloss=1.750000000,%noloadloss=0.466666667
new transformer.1052841 Phases=1,Windings=3,Buses=[BMT168475497.3 BBT117823682.1.0 BBT117823682.0.2],Conns=[wye wye wye],kvs=[12.70 0.12 0.12],kvas=[10.000000000 10.000000000 10.000000000],Taps=[1,1.000000000,1.000000000],%loadloss=1.950000000,%noloadloss=0.450000000
new transformer.1052862 Phases=1,Windings=3,Buses=[BMT175922173.1 BBT117840734.1.0 BBT117840734.0.2],Conns=[wye wye wye],kvs=[12.70 0.12 0.12],kvas=[5.000000000 5.000000000 5.000000000],Taps=[1,1.000000000,1.000000000],%loadloss=2.100000000,%noloadloss=0.700000000
new transformer.1053282 Phases=3,Windings=2,Buses=[BMT168550724.1.2.3 BBT118056320.1.2.3.0],Conns=[delta wye],kvs=[22.0 0.22],kvas=[45.000000000 45.000000000],Taps=[1,1.000000000],%loadloss=1.611000000,%noloadloss=0.411111111
new transformer.1055788 Phases=1,Windings=3,Buses=[BMT150898776.2 BBT127224864.1.0 BBT127224864.0.2],Conns=[wye wye wye],kvs=[12.70 0.12 0.12],kvas=[10.000000000 10.000000000 10.000000000],Taps=[1,1.000000000,1.000000000],%loadloss=1.950000000,%noloadloss=0.450000000
new transformer.1055795 Phases=1,Windings=3,Buses=[BMT161335401.3 BBT127228567.1.0 BBT127228567.0.2],Conns=[wye wye wye],kvs=[12.70 0.12 0.12],kvas=[10.000000000 10.000000000 10.000000000],Taps=[1,1.000000000,1.000000000],%loadloss=1.950000000,%noloadloss=0.450000000
new transformer.1055865 Phases=1,Windings=3,Buses=[BMT154711107.3 BBT127237583.1.0 BBT127237583.0.2],Conns=[wye wye wye],kvs=[12.70 0.12 0.12],kvas=[5.000000000 5.000000000 5.000000000],Taps=[1,1.000000000,1.000000000],%loadloss=2.100000000,%noloadloss=0.700000000
new transformer.1056565 Phases=3,Windings=2,Buses=[BMT175921495.1.2.3 BBT127475835.1.2.3.0],Conns=[delta wye],kvs=[22.0 0.22],kvas=[45.000000000 45.000000000],Taps=[1,1.000000000],%loadloss=1.611000000,%noloadloss=0.411111111
new transformer.1013109 Phases=1,Windings=3,Buses=[BMT170042212.1 BBT108121192.1.0 BBT108121192.0.2],Conns=[wye wye wye],kvs=[12.70 0.12 0.12],kvas=[5.000000000 5.000000000 5.000000000],Taps=[1,1.000000000,1.000000000],%loadloss=2.100000000,%noloadloss=0.700000000
new transformer.1013340 Phases=1,Windings=3,Buses=[BMT173662395.1 BBT104138108.1.0 BBT104138108.0.2],Conns=[wye wye wye],kvs=[12.70 0.12 0.12],kvas=[5.000000000 5.000000000 5.000000000],Taps=[1,1.000000000,1.000000000],%loadloss=2.100000000,%noloadloss=0.700000000
new transformer.1014705 Phases=1,Windings=3,Buses=[BMT170716481.2 BBT110047963.1.0 BBT110047963.0.2],Conns=[wye wye wye],kvs=[12.70 0.12 0.12],kvas=[10.000000000 10.000000000 10.000000000],Taps=[1,1.000000000,1.000000000],%loadloss=1.950000000,%noloadloss=0.450000000
new transformer.1021173 Phases=1,Windings=3,Buses=[BMT165713723.2 BBT91809155.1.0 BBT91809155.0.2],Conns=[wye wye wye],kvs=[12.70 0.12 0.12],kvas=[5.000000000 5.000000000 5.000000000],Taps=[1,1.000000000,1.000000000],%loadloss=2.100000000,%noloadloss=0.700000000
new transformer.1021201 Phases=1,Windings=3,Buses=[BMT165713721.2 BBT91815924.1.0 BBT91815924.0.2],Conns=[wye wye wye],kvs=[12.70 0.12 0.12],kvas=[5.000000000 5.000000000 5.000000000],Taps=[1,1.000000000,1.000000000],%loadloss=2.100000000,%noloadloss=0.700000000
new transformer.1022230 Phases=1,Windings=3,Buses=[BMT163635536.2 BBT92346062.1.0 BBT92346062.0.2],Conns=[wye wye wye],kvs=[12.70 0.12 0.12],kvas=[10.000000000 10.000000000 10.000000000],Taps=[1,1.000000000,1.000000000],%loadloss=1.950000000,%noloadloss=0.450000000
new transformer.1028838 Phases=1,Windings=3,Buses=[BMT163636637.1 BBT96590127.1.0 BBT96590127.0.2],Conns=[wye wye wye],kvs=[12.70 0.12 0.12],kvas=[35.000000000 35.000000000 35.000000000],Taps=[1,1.000000000,1.000000000],%loadloss=1.590000000,%noloadloss=0.433000000
new transformer.1039737 Phases=3,Windings=2,Buses=[BMT172059697.1.2.3 BBT104448019.1.2.3.0],Conns=[delta wye],kvs=[22.0 0.22],kvas=[45.000000000 45.000000000],Taps=[1,1.000000000],%loadloss=1.611000000,%noloadloss=0.411111111
new transformer.1040220 Phases=1,Windings=3,Buses=[BMT150898773.2 BBT104797214.1.0 BBT104797214.0.2],Conns=[wye wye wye],kvs=[12.70 0.12 0.12],kvas=[5.000000000 5.000000000 5.000000000],Taps=[1,1.000000000,1.000000000],%loadloss=2.100000000,%noloadloss=0.700000000
new transformer.1040437 Phases=1,Windings=3,Buses=[BMT163635523.2 BBT105067960.1.0 BBT105067960.0.2],Conns=[wye wye wye],kvs=[12.70 0.12 0.12],kvas=[5.000000000 5.000000000 5.000000000],Taps=[1,1.000000000,1.000000000],%loadloss=2.100000000,%noloadloss=0.700000000
new transformer.1046422 Phases=3,Windings=2,Buses=[BMT153164793.1.2.3 BBT111987341.1.2.3.0],Conns=[delta wye],kvs=[22.0 0.22],kvas=[45.000000000 45.000000000],Taps=[1,1.000000000],%loadloss=1.611000000,%noloadloss=0.411111111
new transformer.1047962 Phases=3,Windings=2,Buses=[BMT175646129.1.2.3 BBT113658885.1.2.3.0],Conns=[delta wye],kvs=[22.0 0.22],kvas=[150.000000000 150.000000000],Taps=[1,1.000000000],%loadloss=1.200000000,%noloadloss=0.300000000
new transformer.1047969 Phases=3,Windings=2,Buses=[BMT175646132.1.2.3 BBT113659809.1.2.3.0],Conns=[delta wye],kvs=[22.0 0.22],kvas=[75.000000000 75.000000000],Taps=[1,1.000000000],%loadloss=1.433000000,%noloadloss=0.360000000
new transformer.1047976 Phases=3,Windings=2,Buses=[BMT175646133.1.2.3 BBT113660082.1.2.3.0],Conns=[delta wye],kvs=[22.0 0.22],kvas=[100.000000000 100.000000000],Taps=[1,1.000000000],%loadloss=1.480000000,%noloadloss=0.425000000
new transformer.1060303 Phases=3,Windings=2,Buses=[BMT175922256.1.2.3 BBT129035022.1.2.3.0],Conns=[delta wye],kvs=[22.0 0.22],kvas=[45.000000000 45.000000000],Taps=[1,1.000000000],%loadloss=1.611000000,%noloadloss=0.411111111
new transformer.1060968 Phases=1,Windings=3,Buses=[BMT163637116.1 BBT129367221.1.0 BBT129367221.0.2],Conns=[wye wye wye],kvs=[12.70 0.12 0.12],kvas=[10.000000000 10.000000000 10.000000000],Taps=[1,1.000000000,1.000000000],%loadloss=1.950000000,%noloadloss=0.450000000
new transformer.1061311 Phases=1,Windings=3,Buses=[BMT163634316.1 BBT129545630.1.0 BBT129545630.0.2],Conns=[wye wye wye],kvs=[12.70 0.12 0.12],kvas=[5.000000000 5.000000000 5.000000000],Taps=[1,1.000000000,1.000000000],%loadloss=2.100000000,%noloadloss=0.700000000
new transformer.1067940 Phases=1,Windings=3,Buses=[BMT160796276.3 BBT132447823.1.0 BBT132447823.0.2],Conns=[wye wye wye],kvs=[12.70 0.12 0.12],kvas=[5.000000000 5.000000000 5.000000000],Taps=[1,1.000000000,1.000000000],%loadloss=2.100000000,%noloadloss=0.700000000
new transformer.1068234 Phases=1,Windings=3,Buses=[BMT153593124.3 BBT132647981.1.0 BBT132647981.0.2],Conns=[wye wye wye],kvs=[12.70 0.12 0.12],kvas=[35.000000000 35.000000000 35.000000000],Taps=[1,1.000000000,1.000000000],%loadloss=1.590000000,%noloadloss=0.433000000
new transformer.1080344 Phases=1,Windings=3,Buses=[BMT162676060.3 BBT136163955.1.0 BBT136163955.0.2],Conns=[wye wye wye],kvs=[12.70 0.12 0.12],kvas=[10.000000000 10.000000000 10.000000000],Taps=[1,1.000000000,1.000000000],%loadloss=1.950000000,%noloadloss=0.450000000
new transformer.1080372 Phases=1,Windings=3,Buses=[BMT160599866.3 BBT136175820.1.0 BBT136175820.0.2],Conns=[wye wye wye],kvs=[12.70 0.12 0.12],kvas=[5.000000000 5.000000000 5.000000000],Taps=[1,1.000000000,1.000000000],%loadloss=2.100000000,%noloadloss=0.700000000
new transformer.1085524 Phases=3,Windings=2,Buses=[BMT160092354.1.2.3 BBT137869897.1.2.3.0],Conns=[delta wye],kvs=[22.0 0.22],kvas=[45.000000000 45.000000000],Taps=[1,1.000000000],%loadloss=1.611000000,%noloadloss=0.411111111
new transformer.1044434 Phases=3,Windings=2,Buses=[BMT175922334.1.2.3 BBT109815059.1.2.3.0],Conns=[delta wye],kvs=[22.0 0.22],kvas=[150.000000000 150.000000000],Taps=[1,1.000000000],%loadloss=1.200000000,%noloadloss=0.300000000
new transformer.1050153 Phases=1,Windings=3,Buses=[BMT173405835.3 BBT115814969.1.0 BBT115814969.0.2],Conns=[wye wye wye],kvs=[12.70 0.12 0.12],kvas=[15.000000000 15.000000000 15.000000000],Taps=[1,1.000000000,1.000000000],%loadloss=1.833000000,%noloadloss=0.466666667
new transformer.1050244 Phases=3,Windings=2,Buses=[BMT172843874.1.2.3 BBT115872152.1.2.3.0],Conns=[delta wye],kvs=[22.0 0.22],kvas=[250.000000000 250.000000000],Taps=[1,1.000000000],%loadloss=1.180000000,%noloadloss=0.249000000
new transformer.1050370 Phases=3,Windings=2,Buses=[BMT172677493.1.2.3 BBT115913823.1.2.3.0],Conns=[delta wye],kvs=[22.0 0.22],kvas=[30.000000000 30.000000000],Taps=[1,1.000000000],%loadloss=1.750000000,%noloadloss=0.466666667
new transformer.1051546 Phases=1,Windings=3,Buses=[BMT150898777.2 BBT116903658.1.0 BBT116903658.0.2],Conns=[wye wye wye],kvs=[12.70 0.12 0.12],kvas=[35.000000000 35.000000000 35.000000000],Taps=[1,1.000000000,1.000000000],%loadloss=1.590000000,%noloadloss=0.433000000
new transformer.1051616 Phases=1,Windings=3,Buses=[BMT175808867.1 BBT116921382.1.0 BBT116921382.0.2],Conns=[wye wye wye],kvs=[12.70 0.12 0.12],kvas=[5.000000000 5.000000000 5.000000000],Taps=[1,1.000000000,1.000000000],%loadloss=2.100000000,%noloadloss=0.700000000
new transformer.1051777 Phases=1,Windings=3,Buses=[BMT130204428.2 BBT117068018.1.0 BBT117068018.0.2],Conns=[wye wye wye],kvs=[12.70 0.12 0.12],kvas=[10.000000000 10.000000000 10.000000000],Taps=[1,1.000000000,1.000000000],%loadloss=1.950000000,%noloadloss=0.450000000
new transformer.1057664 Phases=1,Windings=3,Buses=[BMT160118924.1 BBT127845197.1.0 BBT127845197.0.2],Conns=[wye wye wye],kvs=[12.70 0.12 0.12],kvas=[5.000000000 5.000000000 5.000000000],Taps=[1,1.000000000,1.000000000],%loadloss=2.100000000,%noloadloss=0.700000000
new transformer.1057671 Phases=3,Windings=2,Buses=[BMT172057801.1.2.3 BBT127845729.1.2.3.0],Conns=[delta wye],kvs=[22.0 0.22],kvas=[30.000000000 30.000000000],Taps=[1,1.000000000],%loadloss=1.750000000,%noloadloss=0.466666667
new transformer.1057762 Phases=1,Windings=3,Buses=[BMT175580117.1 BBT127861941.1.0 BBT127861941.0.2],Conns=[wye wye wye],kvs=[12.70 0.12 0.12],kvas=[15.000000000 15.000000000 15.000000000],Taps=[1,1.000000000,1.000000000],%loadloss=1.833000000,%noloadloss=0.466666667
new transformer.1059393 Phases=1,Windings=3,Buses=[BMT128697965.1 BBT128681081.1.0 BBT128681081.0.2],Conns=[wye wye wye],kvs=[12.70 0.12 0.12],kvas=[5.000000000 5.000000000 5.000000000],Taps=[1,1.000000000,1.000000000],%loadloss=2.100000000,%noloadloss=0.700000000
new transformer.1065455 Phases=1,Windings=3,Buses=[BMT175921165.2 BBT131283338.1.0 BBT131283338.0.2],Conns=[wye wye wye],kvs=[12.70 0.12 0.12],kvas=[10.000000000 10.000000000 10.000000000],Taps=[1,1.000000000,1.000000000],%loadloss=1.950000000,%noloadloss=0.450000000
new transformer.1066470 Phases=3,Windings=2,Buses=[BMT131706565.1.2.3 BBT131705508.1.2.3.0],Conns=[delta wye],kvs=[22.0 0.22],kvas=[30.000000000 30.000000000],Taps=[1,1.000000000],%loadloss=1.750000000,%noloadloss=0.466666667
new transformer.1066722 Phases=1,Windings=3,Buses=[BMT163316114.1 BBT131797768.1.0 BBT131797768.0.2],Conns=[wye wye wye],kvs=[12.70 0.12 0.12],kvas=[15.000000000 15.000000000 15.000000000],Taps=[1,1.000000000,1.000000000],%loadloss=1.833000000,%noloadloss=0.466666667
new transformer.1066729 Phases=1,Windings=3,Buses=[BMT148788587.1 BBT131797831.1.0 BBT131797831.0.2],Conns=[wye wye wye],kvs=[12.70 0.12 0.12],kvas=[10.000000000 10.000000000 10.000000000],Taps=[1,1.000000000,1.000000000],%loadloss=1.950000000,%noloadloss=0.450000000
new transformer.1066736 Phases=1,Windings=3,Buses=[BMT163316115.1 BBT131797901.1.0 BBT131797901.0.2],Conns=[wye wye wye],kvs=[12.70 0.12 0.12],kvas=[15.000000000 15.000000000 15.000000000],Taps=[1,1.000000000,1.000000000],%loadloss=1.833000000,%noloadloss=0.466666667
new transformer.1074121 Phases=1,Windings=3,Buses=[BMT164297835.3 BBT134296621.1.0 BBT134296621.0.2],Conns=[wye wye wye],kvs=[12.70 0.12 0.12],kvas=[15.000000000 15.000000000 15.000000000],Taps=[1,1.000000000,1.000000000],%loadloss=1.833000000,%noloadloss=0.466666667
new transformer.1080610 Phases=3,Windings=2,Buses=[BMT175927795.1.2.3 BBT136255193.1.2.3.0],Conns=[delta wye],kvs=[22.0 0.22],kvas=[150.000000000 150.000000000],Taps=[1,1.000000000],%loadloss=1.200000000,%noloadloss=0.300000000
new transformer.1097578 Phases=3,Windings=2,Buses=[BMT171645730.1.2.3 BBT140777907.1.2.3.0],Conns=[delta wye],kvs=[22.0 0.22],kvas=[45.000000000 45.000000000],Taps=[1,1.000000000],%loadloss=1.611000000,%noloadloss=0.411111111
new transformer.1088506 Phases=1,Windings=3,Buses=[BMT165383530.2 BBT138480899.1.0 BBT138480899.0.2],Conns=[wye wye wye],kvs=[12.70 0.12 0.12],kvas=[5.000000000 5.000000000 5.000000000],Taps=[1,1.000000000,1.000000000],%loadloss=2.100000000,%noloadloss=0.700000000
new transformer.1088513 Phases=1,Windings=3,Buses=[BMT172568424.3 BBT138481277.1.0 BBT138481277.0.2],Conns=[wye wye wye],kvs=[12.70 0.12 0.12],kvas=[15.000000000 15.000000000 15.000000000],Taps=[1,1.000000000,1.000000000],%loadloss=1.833000000,%noloadloss=0.466666667
new transformer.1088527 Phases=1,Windings=3,Buses=[BMT160118920.1 BBT138483657.1.0 BBT138483657.0.2],Conns=[wye wye wye],kvs=[12.70 0.12 0.12],kvas=[10.000000000 10.000000000 10.000000000],Taps=[1,1.000000000,1.000000000],%loadloss=1.950000000,%noloadloss=0.450000000
new transformer.1088534 Phases=1,Windings=3,Buses=[BMT165383534.2 BBT138484560.1.0 BBT138484560.0.2],Conns=[wye wye wye],kvs=[12.70 0.12 0.12],kvas=[5.000000000 5.000000000 5.000000000],Taps=[1,1.000000000,1.000000000],%loadloss=2.100000000,%noloadloss=0.700000000
new transformer.1088772 Phases=1,Windings=3,Buses=[BMT163636489.1 BBT138541561.1.0 BBT138541561.0.2],Conns=[wye wye wye],kvs=[12.70 0.12 0.12],kvas=[35.000000000 35.000000000 35.000000000],Taps=[1,1.000000000,1.000000000],%loadloss=1.590000000,%noloadloss=0.433000000
new transformer.1088856 Phases=1,Windings=3,Buses=[BMT163634395.1 BBT138554875.1.0 BBT138554875.0.2],Conns=[wye wye wye],kvs=[12.70 0.12 0.12],kvas=[35.000000000 35.000000000 35.000000000],Taps=[1,1.000000000,1.000000000],%loadloss=1.590000000,%noloadloss=0.433000000
new transformer.1089087 Phases=1,Windings=3,Buses=[BMT160374617.1 BBT138634206.1.0 BBT138634206.0.2],Conns=[wye wye wye],kvs=[12.70 0.12 0.12],kvas=[5.000000000 5.000000000 5.000000000],Taps=[1,1.000000000,1.000000000],%loadloss=2.100000000,%noloadloss=0.700000000
new transformer.1096045 Phases=1,Windings=3,Buses=[BMT173073398.2 BBT140450587.1.0 BBT140450587.0.2],Conns=[wye wye wye],kvs=[12.70 0.12 0.12],kvas=[10.000000000 10.000000000 10.000000000],Taps=[1,1.000000000,1.000000000],%loadloss=1.950000000,%noloadloss=0.450000000
new transformer.1096710 Phases=1,Windings=3,Buses=[BMT163701950.3 BBT140619217.1.0 BBT140619217.0.2],Conns=[wye wye wye],kvs=[12.70 0.12 0.12],kvas=[5.000000000 5.000000000 5.000000000],Taps=[1,1.000000000,1.000000000],%loadloss=2.100000000,%noloadloss=0.700000000
new transformer.1096738 Phases=3,Windings=2,Buses=[BMT175922336.1.2.3 BBT140623879.1.2.3.0],Conns=[delta wye],kvs=[22.0 0.22],kvas=[75.000000000 75.000000000],Taps=[1,1.000000000],%loadloss=1.433000000,%noloadloss=0.360000000
new transformer.1102128 Phases=1,Windings=3,Buses=[BMT161643902.3 BBT142123468.1.0 BBT142123468.0.2],Conns=[wye wye wye],kvs=[12.70 0.12 0.12],kvas=[5.000000000 5.000000000 5.000000000],Taps=[1,1.000000000,1.000000000],%loadloss=2.100000000,%noloadloss=0.700000000
new transformer.1112397 Phases=1,Windings=3,Buses=[BMT163636386.2 BBT144952595.1.0 BBT144952595.0.2],Conns=[wye wye wye],kvs=[12.70 0.12 0.12],kvas=[5.000000000 5.000000000 5.000000000],Taps=[1,1.000000000,1.000000000],%loadloss=2.100000000,%noloadloss=0.700000000
new transformer.1113083 Phases=1,Windings=3,Buses=[BMT170498730.2 BBT145075130.1.0 BBT145075130.0.2],Conns=[wye wye wye],kvs=[12.70 0.12 0.12],kvas=[10.000000000 10.000000000 10.000000000],Taps=[1,1.000000000,1.000000000],%loadloss=1.950000000,%noloadloss=0.450000000
new transformer.1119138 Phases=1,Windings=3,Buses=[BMT163635914.2 BBT146582993.1.0 BBT146582993.0.2],Conns=[wye wye wye],kvs=[12.70 0.12 0.12],kvas=[10.000000000 10.000000000 10.000000000],Taps=[1,1.000000000,1.000000000],%loadloss=1.950000000,%noloadloss=0.450000000
new transformer.1119376 Phases=3,Windings=2,Buses=[BMT163386928.1.2.3 BBT146663122.1.2.3.0],Conns=[delta wye],kvs=[22.0 0.22],kvas=[150.000000000 150.000000000],Taps=[1,1.000000000],%loadloss=1.200000000,%noloadloss=0.300000000
new transformer.1120433 Phases=1,Windings=3,Buses=[BMT175959206.3 BBT146938425.1.0 BBT146938425.0.2],Conns=[wye wye wye],kvs=[12.70 0.12 0.12],kvas=[5.000000000 5.000000000 5.000000000],Taps=[1,1.000000000,1.000000000],%loadloss=2.100000000,%noloadloss=0.700000000
new transformer.1120587 Phases=1,Windings=3,Buses=[BMT165523385.3 BBT146964794.1.0 BBT146964794.0.2],Conns=[wye wye wye],kvs=[12.70 0.12 0.12],kvas=[10.000000000 10.000000000 10.000000000],Taps=[1,1.000000000,1.000000000],%loadloss=1.950000000,%noloadloss=0.450000000
new transformer.1390070 Phases=1,Windings=3,Buses=[BMT161907229.3 BBT148027322.1.0 BBT148027322.0.2],Conns=[wye wye wye],kvs=[12.70 0.12 0.12],kvas=[15.000000000 15.000000000 15.000000000],Taps=[1,1.000000000,1.000000000],%loadloss=1.833000000,%noloadloss=0.466666667
new transformer.1390120 Phases=1,Windings=3,Buses=[BMT163316117.1 BBT148040407.1.0 BBT148040407.0.2],Conns=[wye wye wye],kvs=[12.70 0.12 0.12],kvas=[15.000000000 15.000000000 15.000000000],Taps=[1,1.000000000,1.000000000],%loadloss=1.833000000,%noloadloss=0.466666667
new transformer.1390122 Phases=1,Windings=3,Buses=[BMT163316118.1 BBT148040620.1.0 BBT148040620.0.2],Conns=[wye wye wye],kvs=[12.70 0.12 0.12],kvas=[15.000000000 15.000000000 15.000000000],Taps=[1,1.000000000,1.000000000],%loadloss=1.833000000,%noloadloss=0.466666667
new transformer.1009014 Phases=1,Windings=3,Buses=[BMT163636536.2 BBT103888397.1.0 BBT103888397.0.2],Conns=[wye wye wye],kvs=[12.70 0.12 0.12],kvas=[5.000000000 5.000000000 5.000000000],Taps=[1,1.000000000,1.000000000],%loadloss=2.100000000,%noloadloss=0.700000000
new transformer.1016280 Phases=1,Windings=3,Buses=[BMT152835561.1 BBT108413841.1.0 BBT108413841.0.2],Conns=[wye wye wye],kvs=[12.70 0.12 0.12],kvas=[5.000000000 5.000000000 5.000000000],Taps=[1,1.000000000,1.000000000],%loadloss=2.100000000,%noloadloss=0.700000000
new transformer.1022258 Phases=1,Windings=3,Buses=[BMT163635541.2 BBT92355316.1.0 BBT92355316.0.2],Conns=[wye wye wye],kvs=[12.70 0.12 0.12],kvas=[15.000000000 15.000000000 15.000000000],Taps=[1,1.000000000,1.000000000],%loadloss=1.833000000,%noloadloss=0.466666667
new transformer.1041270 Phases=3,Windings=2,Buses=[BMT175233332.1.2.3 BBT106008095.1.2.3.0],Conns=[delta wye],kvs=[22.0 0.22],kvas=[30.000000000 30.000000000],Taps=[1,1.000000000],%loadloss=1.750000000,%noloadloss=0.466666667
new transformer.1054311 Phases=1,Windings=3,Buses=[BMT122318543.2 BBT119155964.1.0 BBT119155964.0.2],Conns=[wye wye wye],kvs=[12.70 0.12 0.12],kvas=[5.000000000 5.000000000 5.000000000],Taps=[1,1.000000000,1.000000000],%loadloss=2.100000000,%noloadloss=0.700000000
new transformer.1054570 Phases=1,Windings=3,Buses=[BMT175462781.3 BBT119338195.1.0 BBT119338195.0.2],Conns=[wye wye wye],kvs=[12.70 0.12 0.12],kvas=[10.000000000 10.000000000 10.000000000],Taps=[1,1.000000000,1.000000000],%loadloss=1.950000000,%noloadloss=0.450000000
new transformer.1055487 Phases=1,Windings=3,Buses=[BMT170716497.2 BBT127146548.1.0 BBT127146548.0.2],Conns=[wye wye wye],kvs=[12.70 0.12 0.12],kvas=[5.000000000 5.000000000 5.000000000],Taps=[1,1.000000000,1.000000000],%loadloss=2.100000000,%noloadloss=0.700000000
new transformer.1063600 Phases=1,Windings=3,Buses=[BMT164920167.2 BBT130447167.1.0 BBT130447167.0.2],Conns=[wye wye wye],kvs=[12.70 0.12 0.12],kvas=[5.000000000 5.000000000 5.000000000],Taps=[1,1.000000000,1.000000000],%loadloss=2.100000000,%noloadloss=0.700000000
new transformer.1064405 Phases=1,Windings=3,Buses=[BMT163635988.2 BBT130870030.1.0 BBT130870030.0.2],Conns=[wye wye wye],kvs=[12.70 0.12 0.12],kvas=[5.000000000 5.000000000 5.000000000],Taps=[1,1.000000000,1.000000000],%loadloss=2.100000000,%noloadloss=0.700000000