new load.3003268876M1 bus1=BMT175927870.1.2.3,Phases=3,kv=22.0,kW=3.70818,pf=0.92,Vminpu=0.93,Vmaxpu=1.5,model=8,zipv=[0.5,0,0.5,1,0,0,0],daily=A4-1,status=variable
new load.3009000362M1 bus1=BMT175921436.1.2.3,Phases=3,kv=22.0,kW=7.67208,pf=0.92,Vminpu=0.93,Vmaxpu=1.5,model=8,zipv=[0.5,0,0.5,1,0,0,0],daily=A4-1,status=variable
new load.3009000585M1 bus1=BMT173185160.1.2.3,Phases=3,kv=22.0,kW=184.70648,pf=0.92,Vminpu=0.93,Vmaxpu=1.5,model=8,zipv=[0.5,0,0.5,1,0,0,0],daily=A4-4,status=variable
new load.3009000586M1 bus1=BMT149431849.1.2.3,Phases=3,kv=22.0,kW=95.53156,pf=0.92,Vminpu=0.93,Vmaxpu=1.5,model=8,zipv=[0.5,0,0.5,1,0,0,0],daily=A4-2,status=variable
new load.3009001494M1 bus1=BMT157843505.1.2.3,Phases=3,kv=22.0,kW=54.48568,pf=0.92,Vminpu=0.93,Vmaxpu=1.5,model=8,zipv=[0.5,0,0.5,1,0,0,0],daily=A4-2,status=variable
new load.3009001522M1 bus1=BMT149431871.1.2.3,Phases=3,kv=22.0,kW=5.96344,pf=0.92,Vminpu=0.93,Vmaxpu=1.5,model=8,zipv=[0.5,0,0.5,1,0,0,0],daily=A4-1,status=variable
new load.3009001524M1 bus1=BMT175921472.1.2.3,Phases=3,kv=22.0,kW=52.99592,pf=0.92,Vminpu=0.93,Vmaxpu=1.5,model=8,zipv=[0.5,0,0.5,1,0,0,0],daily=A4-3,status=variable
new load.3009001526M1 bus1=BMT175921520.1.2.3,Phases=3,kv=22.0,kW=36.54034,pf=0.92,Vminpu=0.93,Vmaxpu=1.5,model=8,zipv=[0.5,0,0.5,1,0,0,0],daily=A4-3,status=variable
new load.3009001552M1 bus1=BMT175928008.1.2.3,Phases=3,kv=22.0,kW=145.95152,pf=0.92,Vminpu=0.93,Vmaxpu=1.5,model=8,zipv=[0.5,0,0.5,1,0,0,0],daily=A4-5,status=variable
new load.3009006552M1 bus1=BMT122374263.1.2.3,Phases=3,kv=22.0,kW=90.87442,pf=0.92,Vminpu=0.93,Vmaxpu=1.5,model=8,zipv=[0.5,0,0.5,1,0,0,0],daily=A4-3,status=variable
new load.3009006553M1 bus1=BMT149432651.1.2.3,Phases=3,kv=22.0,kW=70.66486,pf=0.92,Vminpu=0.93,Vmaxpu=1.5,model=8,zipv=[0.5,0,0.5,1,0,0,0],daily=A4-6,status=variable
new load.3009006557M1 bus1=BMT150349335.1.2.3,Phases=3,kv=22.0,kW=102.90954,pf=0.92,Vminpu=0.93,Vmaxpu=1.5,model=8,zipv=[0.5,0,0.5,1,0,0,0],daily=A4-3,status=variable
new load.3009007750M1 bus1=BMT175922361.1.2.3,Phases=3,kv=22.0,kW=15.33456,pf=0.92,Vminpu=0.93,Vmaxpu=1.5,model=8,zipv=[0.5,0,0.5,1,0,0,0],daily=A4-1,status=variable
new load.3009008512M1 bus1=BMT175921412.1.2.3,Phases=3,kv=22.0,kW=7.99494,pf=0.92,Vminpu=0.93,Vmaxpu=1.5,model=8,zipv=[0.5,0,0.5,1,0,0,0],daily=A4-1,status=variable
new load.3009008520M1 bus1=BMT149431855.1.2.3,Phases=3,kv=22.0,kW=682.68712,pf=0.92,Vminpu=0.93,Vmaxpu=1.5,model=8,zipv=[0.5,0,0.5,1,0,0,0],daily=A4-7,status=variable
new load.3009008983M1 bus1=BMT175922379.1.2.3,Phases=3,kv=22.0,kW=2.72428,pf=0.92,Vminpu=0.93,Vmaxpu=1.5,model=8,zipv=[0.5,0,0.5,1,0,0,0],daily=A4-2,status=variable
new load.3009009946M1 bus1=BMT122310654.1.2.3,Phases=3,kv=22.0,kW=649.54678,pf=0.92,Vminpu=0.93,Vmaxpu=1.5,model=8,zipv=[0.5,0,0.5,1,0,0,0],daily=A4-6,status=variable
new load.3009010330M1 bus1=BMT169545035.1.2.3,Phases=3,kv=22.0,kW=36.67816,pf=0.92,Vminpu=0.93,Vmaxpu=1.5,model=8,zipv=[0.5,0,0.5,1,0,0,0],daily=A4-2,status=variable
new load.3009010792M1 bus1=BMT175921126.1.2.3,Phases=3,kv=22.0,kW=1.03174,pf=0.92,Vminpu=0.93,Vmaxpu=1.5,model=8,zipv=[0.5,0,0.5,1,0,0,0],daily=A4-4,status=variable
new load.3009011116M1 bus1=BMT175927838.1.2.3,Phases=3,kv=22.0,kW=37.74656,pf=0.92,Vminpu=0.93,Vmaxpu=1.5,model=8,zipv=[0.5,0,0.5,1,0,0,0],daily=A4-4,status=variable
new load.3009011506M1 bus1=BMT167170625.1.2.3,Phases=3,kv=22.0,kW=81.53256,pf=0.92,Vminpu=0.93,Vmaxpu=1.5,model=8,zipv=[0.5,0,0.5,1,0,0,0],daily=A4-4,status=variable
new load.3009011872M1 bus1=BMT166684402.1.2.3,Phases=3,kv=22.0,kW=16.52732,pf=0.92,Vminpu=0.93,Vmaxpu=1.5,model=8,zipv=[0.5,0,0.5,1,0,0,0],daily=A4-2,status=variable
new load.3009011873M1 bus1=BMT175928011.1.2.3,Phases=3,kv=22.0,kW=12.16846,pf=0.92,Vminpu=0.93,Vmaxpu=1.5,model=8,zipv=[0.5,0,0.5,1,0,0,0],daily=A4-2,status=variable
new load.3009012131M1 bus1=BMT150349387.1.2.3,Phases=3,kv=22.0,kW=183.27272,pf=0.92,Vminpu=0.93,Vmaxpu=1.5,model=8,zipv=[0.5,0,0.5,1,0,0,0],daily=A4-6,status=variable
new load.3009012483M1 bus1=BMT149431806.1.2.3,Phases=3,kv=22.0,kW=227.95114,pf=0.92,Vminpu=0.93,Vmaxpu=1.5,model=8,zipv=[0.5,0,0.5,1,0,0,0],daily=A4-6,status=variable
new load.3009012755M1 bus1=BMT175927873.1.2.3,Phases=3,kv=22.0,kW=81.5322,pf=0.92,Vminpu=0.93,Vmaxpu=1.5,model=8,zipv=[0.5,0,0.5,1,0,0,0],daily=A4-3,status=variable
new load.3009014053M1 bus1=BMT175921184.1.2.3,Phases=3,kv=22.0,kW=108.20002,pf=0.92,Vminpu=0.93,Vmaxpu=1.5,model=8,zipv=[0.5,0,0.5,1,0,0,0],daily=A4-3,status=variable
new load.3009014054M1 bus1=BMT175921134.1.2.3,Phases=3,kv=22.0,kW=49.1741,pf=0.92,Vminpu=0.93,Vmaxpu=1.5,model=8,zipv=[0.5,0,0.5,1,0,0,0],daily=A4-3,status=variable
new load.3009014056M1 bus1=BMT122372989.1.2.3,Phases=3,kv=22.0,kW=64.62918,pf=0.92,Vminpu=0.93,Vmaxpu=1.5,model=8,zipv=[0.5,0,0.5,1,0,0,0],daily=A4-3,status=variable
new load.3009014294M1 bus1=BMT149431867.1.2.3,Phases=3,kv=22.0,kW=9.08094,pf=0.92,Vminpu=0.93,Vmaxpu=1.5,model=8,zipv=[0.5,0,0.5,1,0,0,0],daily=A4-2,status=variable
new load.3009014295M1 bus1=BMT148405527.1.2.3,Phases=3,kv=22.0,kW=11.98684,pf=0.92,Vminpu=0.93,Vmaxpu=1.5,model=8,zipv=[0.5,0,0.5,1,0,0,0],daily=A4-2,status=variable
new load.3009014515M1 bus1=BMT149432632.1.2.3,Phases=3,kv=22.0,kW=0.18162,pf=0.92,Vminpu=0.93,Vmaxpu=1.5,model=8,zipv=[0.5,0,0.5,1,0,0,0],daily=A4-2,status=variable
new load.3009014516M1 bus1=BMT149432190.1.2.3,Phases=3,kv=22.0,kW=46.30244,pf=0.92,Vminpu=0.93,Vmaxpu=1.5,model=8,zipv=[0.5,0,0.5,1,0,0,0],daily=A4-4,status=variable
new load.3009014888M1 bus1=BMT149431825.1.2.3,Phases=3,kv=22.0,kW=39.15244,pf=0.92,Vminpu=0.93,Vmaxpu=1.5,model=8,zipv=[0.5,0,0.5,1,0,0,0],daily=A4-3,status=variable
new load.3009015267M1 bus1=BMT175928107.1.2.3,Phases=3,kv=22.0,kW=4.063,pf=0.92,Vminpu=0.93,Vmaxpu=1.5,model=8,zipv=[0.5,0,0.5,1,0,0,0],daily=A4-1,status=variable
new load.3009015474M1 bus1=BMT122367326.1.2.3,Phases=3,kv=22.0,kW=46.55408,pf=0.92,Vminpu=0.93,Vmaxpu=1.5,model=8,zipv=[0.5,0,0.5,1,0,0,0],daily=A4-4,status=variable
new load.3009015736M1 bus1=BMT153366495.1.2.3,Phases=3,kv=22.0,kW=39.6388,pf=0.92,Vminpu=0.93,Vmaxpu=1.5,model=8,zipv=[0.5,0,0.5,1,0,0,0],daily=A4-6,status=variable
new load.3009016285M1 bus1=BMT122374067.1.2.3,Phases=3,kv=22.0,kW=19.92182,pf=0.92,Vminpu=0.93,Vmaxpu=1.5,model=8,zipv=[0.5,0,0.5,1,0,0,0],daily=A4-1,status=variable
new load.3009016600M1 bus1=BMT175922111.1.2.3,Phases=3,kv=22.0,kW=7.99124,pf=0.92,Vminpu=0.93,Vmaxpu=1.5,model=8,zipv=[0.5,0,0.5,1,0,0,0],daily=A4-2,status=variable
new load.3009016732M1 bus1=BMT149432048.1.2.3,Phases=3,kv=22.0,kW=51.70334,pf=0.92,Vminpu=0.93,Vmaxpu=1.5,model=8,zipv=[0.5,0,0.5,1,0,0,0],daily=A4-3,status=variable
new load.3009016738M1 bus1=BMT122372975.1.2.3,Phases=3,kv=22.0,kW=152.01918,pf=0.92,Vminpu=0.93,Vmaxpu=1.5,model=8,zipv=[0.5,0,0.5,1,0,0,0],daily=A4-5,status=variable
new load.3009017305M1 bus1=BMT165918463.1.2.3,Phases=3,kv=22.0,kW=100.7544,pf=0.92,Vminpu=0.93,Vmaxpu=1.5,model=8,zipv=[0.5,0,0.5,1,0,0,0],daily=A4-6,status=variable
new load.3009017502M1 bus1=BMT149431875.1.2.3,Phases=3,kv=22.0,kW=44.65168,pf=0.92,Vminpu=0.93,Vmaxpu=1.5,model=8,zipv=[0.5,0,0.5,1,0,0,0],daily=A4-2,status=variable
new load.3009017610M1 bus1=BMT175921904.1.2.3,Phases=3,kv=22.0,kW=38.473,pf=0.92,Vminpu=0.93,Vmaxpu=1.5,model=8,zipv=[0.5,0,0.5,1,0,0,0],daily=A4-3,status=variable
new load.3009017658M1 bus1=BMT175927778.1.2.3,Phases=3,kv=22.0,kW=24.96924,pf=0.92,Vminpu=0.93,Vmaxpu=1.5,model=8,zipv=[0.5,0,0.5,1,0,0,0],daily=A4-3,status=variable
new load.3009017792M1 bus1=BMT149431689.1.2.3,Phases=3,kv=22.0,kW=44.74328,pf=0.92,Vminpu=0.93,Vmaxpu=1.5,model=8,zipv=[0.5,0,0.5,1,0,0,0],daily=A4-3,status=variable
new load.3009017918M1 bus1=BMT156065499.1.2.3,Phases=3,kv=22.0,kW=124.06664,pf=0.92,Vminpu=0.93,Vmaxpu=1.5,model=8,zipv=[0.5,0,0.5,1,0,0,0],daily=A4-4,status=variable
new load.3009017937M1 bus1=BMT122373234.1.2.3,Phases=3,kv=22.0,kW=3.47322,pf=0.92,Vminpu=0.93,Vmaxpu=1.5,model=8,zipv=[0.5,0,0.5,1,0,0,0],daily=A4-1,status=variable
new load.3009018149M1 bus1=BMT149431857.1.2.3,Phases=3,kv=22.0,kW=14.94756,pf=0.92,Vminpu=0.93,Vmaxpu=1.5,model=8,zipv=[0.5,0,0.5,1,0,0,0],daily=A4-3,status=variable
new load.3009018214M1 bus1=BMT157348250.1.2.3,Phases=3,kv=22.0,kW=16.98136,pf=0.92,Vminpu=0.93,Vmaxpu=1.5,model=8,zipv=[0.5,0,0.5,1,0,0,0],daily=A4-2,status=variable
new load.3009018257M1 bus1=BMT175921574.1.2.3,Phases=3,kv=22.0,kW=46.31282,pf=0.92,Vminpu=0.93,Vmaxpu=1.5,model=8,zipv=[0.5,0,0.5,1,0,0,0],daily=A4-2,status=variable
new load.3009018258M1 bus1=BMT175921188.1.2.3,Phases=3,kv=22.0,kW=616.99156,pf=0.92,Vminpu=0.93,Vmaxpu=1.5,model=8,zipv=[0.5,0,0.5,1,0,0,0],daily=A4-6,status=variable
new load.3009018332M1 bus1=BMT122373276.1.2.3,Phases=3,kv=22.0,kW=17.2538,pf=0.92,Vminpu=0.93,Vmaxpu=1.5,model=8,zipv=[0.5,0,0.5,1,0,0,0],daily=A4-2,status=variable
new load.3009018335M1 bus1=BMT175927875.1.2.3,Phases=3,kv=22.0,kW=50.8533,pf=0.92,Vminpu=0.93,Vmaxpu=1.5,model=8,zipv=[0.5,0,0.5,1,0,0,0],daily=A4-2,status=variable
new load.3009018391M1 bus1=BMT157348004.1.2.3,Phases=3,kv=22.0,kW=217.35306,pf=0.92,Vminpu=0.93,Vmaxpu=1.5,model=8,zipv=[0.5,0,0.5,1,0,0,0],daily=A4-4,status=variable
new load.3009018502M1 bus1=BMT122373206.1.2.3,Phases=3,kv=22.0,kW=61.6463,pf=0.92,Vminpu=0.93,Vmaxpu=1.5,model=8,zipv=[0.5,0,0.5,1,0,0,0],daily=A4-3,status=variable
new load.3009018993M1 bus1=BMT122372933.1.2.3,Phases=3,kv=22.0,kW=3.26914,pf=0.92,Vminpu=0.93,Vmaxpu=1.5,model=8,zipv=[0.5,0,0.5,1,0,0,0],daily=A4-2,status=variable
new load.3009019383M1 bus1=BMT175922354.1.2.3,Phases=3,kv=22.0,kW=11.66476,pf=0.92,Vminpu=0.93,Vmaxpu=1.5,model=8,zipv=[0.5,0,0.5,1,0,0,0],daily=A4-1,status=variable
new load.3009019493M1 bus1=BMT175927765.1.2.3,Phases=3,kv=22.0,kW=18.5146,pf=0.92,Vminpu=0.93,Vmaxpu=1.5,model=8,zipv=[0.5,0,0.5,1,0,0,0],daily=A4-3,status=variable
new load.3009019791M1 bus1=BMT165319916.1.2.3,Phases=3,kv=22.0,kW=8.78134,pf=0.92,Vminpu=0.93,Vmaxpu=1.5,model=8,zipv=[0.5,0,0.5,1,0,0,0],daily=A4-1,status=variable
new load.3009019837M1 bus1=BMT149431724.1.2.3,Phases=3,kv=22.0,kW=57.12312,pf=0.92,Vminpu=0.93,Vmaxpu=1.5,model=8,zipv=[0.5,0,0.5,1,0,0,0],daily=A4-4,status=variable
new load.3009019885M1 bus1=BMT175928003.1.2.3,Phases=3,kv=22.0,kW=22.42994,pf=0.92,Vminpu=0.93,Vmaxpu=1.5,model=8,zipv=[0.5,0,0.5,1,0,0,0],daily=A4-2,status=variable
new load.3009020002M1 bus1=BMT175928109.1.2.3,Phases=3,kv=22.0,kW=222.70468,pf=0.92,Vminpu=0.93,Vmaxpu=1.5,model=8,zipv=[0.5,0,0.5,1,0,0,0],daily=A4-4,status=variable
new load.3009020028M1 bus1=BMT175922369.1.2.3,Phases=3,kv=22.0,kW=2.87702,pf=0.92,Vminpu=0.93,Vmaxpu=1.5,model=8,zipv=[0.5,0,0.5,1,0,0,0],daily=A4-1,status=variable
new load.3009020045M1 bus1=BMT149431851.1.2.3,Phases=3,kv=22.0,kW=2.75236,pf=0.92,Vminpu=0.93,Vmaxpu=1.5,model=8,zipv=[0.5,0,0.5,1,0,0,0],daily=A4-1,status=variable
new load.3009020116M1 bus1=BMT175921804.1.2.3,Phases=3,kv=22.0,kW=4.98046,pf=0.92,Vminpu=0.93,Vmaxpu=1.5,model=8,zipv=[0.5,0,0.5,1,0,0,0],daily=A4-1,status=variable
new load.3009020267M1 bus1=BMT157348732.1.2.3,Phases=3,kv=22.0,kW=118.3211,pf=0.92,Vminpu=0.93,Vmaxpu=1.5,model=8,zipv=[0.5,0,0.5,1,0,0,0],daily=A4-3,status=variable
new load.3009020493M1 bus1=BMT175921092.1.2.3,Phases=3,kv=22.0,kW=867.36928,pf=0.92,Vminpu=0.93,Vmaxpu=1.5,model=8,zipv=[0.5,0,0.5,1,0,0,0],daily=A4-6,status=variable
new load.3009020672M1 bus1=BMT122309436.1.2.3,Phases=3,kv=22.0,kW=38.95864,pf=0.92,Vminpu=0.93,Vmaxpu=1.5,model=8,zipv=[0.5,0,0.5,1,0,0,0],daily=A4-4,status=variable
new load.3009020844M1 bus1=BMT163636858.1.2.3,Phases=3,kv=22.0,kW=2.94896,pf=0.92,Vminpu=0.93,Vmaxpu=1.5,model=8,zipv=[0.5,0,0.5,1,0,0,0],daily=A4-1,status=variable
new load.3009020874M1 bus1=BMT175927783.1.2.3,Phases=3,kv=22.0,kW=7.0775,pf=0.92,Vminpu=0.93,Vmaxpu=1.5,model=8,zipv=[0.5,0,0.5,1,0,0,0],daily=A4-1,status=variable
new load.3009020931M1 bus1=BMT163403551.1.2.3,Phases=3,kv=22.0,kW=0.52426,pf=0.92,Vminpu=0.93,Vmaxpu=1.5,model=8,zipv=[0.5,0,0.5,1,0,0,0],daily=A4-1,status=variable
new load.3009020976M1 bus1=BMT149431847.1.2.3,Phases=3,kv=22.0,kW=47.64538,pf=0.92,Vminpu=0.93,Vmaxpu=1.5,model=8,zipv=[0.5,0,0.5,1,0,0,0],daily=A4-3,status=variable
new load.3009021081M1 bus1=BMT122365625.1.2.3,Phases=3,kv=22.0,kW=4.12854,pf=0.92,Vminpu=0.93,Vmaxpu=1.5,model=8,zipv=[0.5,0,0.5,1,0,0,0],daily=A4-1,status=variable
new load.3009021306M1 bus1=BMT175928019.1.2.3,Phases=3,kv=22.0,kW=0.81728,pf=0.92,Vminpu=0.93,Vmaxpu=1.5,model=8,zipv=[0.5,0,0.5,1,0,0,0],daily=A4-2,status=variable
new load.3009021445M1 bus1=BMT175921190.1.2.3,Phases=3,kv=22.0,kW=17.49544,pf=0.92,Vminpu=0.93,Vmaxpu=1.5,model=8,zipv=[0.5,0,0.5,1,0,0,0],daily=A4-3,status=variable
new load.3009022011M1 bus1=BMT157348006.1.2.3,Phases=3,kv=22.0,kW=6.52126,pf=0.92,Vminpu=0.93,Vmaxpu=1.5,model=8,zipv=[0.5,0,0.5,1,0,0,0],daily=A4-1,status=variable
new load.3009022244M1 bus1=BMT122357183.1.2.3,Phases=3,kv=22.0,kW=229.90588,pf=0.92,Vminpu=0.93,Vmaxpu=1.5,model=8,zipv=[0.5,0,0.5,1,0,0,0],daily=A4-4,status=variable
new load.3009900272M1 bus1=BMT122374249.1.2.3,Phases=3,kv=22.0,kW=1649.71294,pf=0.92,Vminpu=0.93,Vmaxpu=1.5,model=8,zipv=[0.5,0,0.5,1,0,0,0],daily=A4-7,status=variable
new load.3010000481M1 bus1=BMT175928133.1.2.3,Phases=3,kv=22.0,kW=291.2471,pf=0.92,Vminpu=0.93,Vmaxpu=1.5,model=8,zipv=[0.5,0,0.5,1,0,0,0],daily=A4-5,status=variable
new load.3010001122M1 bus1=BMT175922363.1.2.3,Phases=3,kv=22.0,kW=23.9737,pf=0.92,Vminpu=0.93,Vmaxpu=1.5,model=8,zipv=[0.5,0,0.5,1,0,0,0],daily=A4-2,status=variable
new load.3010001147M1 bus1=BMT175928001.1.2.3,Phases=3,kv=22.0,kW=49.76358,pf=0.92,Vminpu=0.93,Vmaxpu=1.5,model=8,zipv=[0.5,0,0.5,1,0,0,0],daily=A4-2,status=variable
new load.3010029124M1 bus1=BMT149431756.1.2.3,Phases=3,kv=22.0,kW=62.1683,pf=0.92,Vminpu=0.93,Vmaxpu=1.5,model=8,zipv=[0.5,0,0.5,1,0,0,0],daily=A4-3,status=variable
new load.3010039059M1 bus1=BMT175928105.1.2.3,Phases=3,kv=22.0,kW=18.88836,pf=0.92,Vminpu=0.93,Vmaxpu=1.5,model=8,zipv=[0.5,0,0.5,1,0,0,0],daily=A4-2,status=variable
new load.3010315972M1 bus1=BMT175921094.1.2.3,Phases=3,kv=22.0,kW=2.30162,pf=0.92,Vminpu=0.93,Vmaxpu=1.5,model=8,zipv=[0.5,0,0.5,1,0,0,0],daily=A4-1,status=variable
new load.3010384979M1 bus1=BMT149432133.1.2.3,Phases=3,kv=22.0,kW=53.67536,pf=0.92,Vminpu=0.93,Vmaxpu=1.5,model=8,zipv=[0.5,0,0.5,1,0,0,0],daily=A4-3,status=variable
new load.3010467657M1 bus1=BMT175921186.1.2.3,Phases=3,kv=22.0,kW=172.81632,pf=0.92,Vminpu=0.93,Vmaxpu=1.5,model=8,zipv=[0.5,0,0.5,1,0,0,0],daily=A4-4,status=variable
new load.3010512999M1 bus1=BMT157348087.1.2.3,Phases=3,kv=22.0,kW=178.67992,pf=0.92,Vminpu=0.93,Vmaxpu=1.5,model=8,zipv=[0.5,0,0.5,1,0,0,0],daily=A4-5,status=variable
new load.3010549391M1 bus1=BMT175922356.1.2.3,Phases=3,kv=22.0,kW=24.85738,pf=0.92,Vminpu=0.93,Vmaxpu=1.5,model=8,zipv=[0.5,0,0.5,1,0,0,0],daily=A4-3,status=variable
new load.3010671705M1 bus1=BMT149431853.1.2.3,Phases=3,kv=22.0,kW=17.07218,pf=0.92,Vminpu=0.93,Vmaxpu=1.5,model=8,zipv=[0.5,0,0.5,1,0,0,0],daily=A4-2,status=variable
new load.3010738407M1 bus1=BMT175921096.1.2.3,Phases=3,kv=22.0,kW=3.60428,pf=0.92,Vminpu=0.93,Vmaxpu=1.5,model=8,zipv=[0.5,0,0.5,1,0,0,0],daily=A4-1,status=variable
new load.3010801391M1 bus1=BMT149432634.1.2.3,Phases=3,kv=22.0,kW=36.32378,pf=0.92,Vminpu=0.93,Vmaxpu=1.5,model=8,zipv=[0.5,0,0.5,1,0,0,0],daily=A4-2,status=variable
new load.3010849983M1 bus1=BMT149431758.1.2.3,Phases=3,kv=22.0,kW=36.68304,pf=0.92,Vminpu=0.93,Vmaxpu=1.5,model=8,zipv=[0.5,0,0.5,1,0,0,0],daily=A4-6,status=variable
new load.3011049913M1 bus1=BMT122311480.1.2.3,Phases=3,kv=22.0,kW=74.22826,pf=0.92,Vminpu=0.93,Vmaxpu=1.5,model=8,zipv=[0.5,0,0.5,1,0,0,0],daily=A4-3,status=variable
new load.3011059785M1 bus1=BMT149431827.1.2.3,Phases=3,kv=22.0,kW=462.4659,pf=0.92,Vminpu=0.93,Vmaxpu=1.5,model=8,zipv=[0.5,0,0.5,1,0,0,0],daily=A4-7,status=variable
new load.3011147372M1 bus1=BMT122373220.1.2.3,Phases=3,kv=22.0,kW=7.99494,pf=0.92,Vminpu=0.93,Vmaxpu=1.5,model=8,zipv=[0.5,0,0.5,1,0,0,0],daily=A4-1,status=variable
new load.3011220211M1 bus1=BMT175928078.1.2.3,Phases=3,kv=22.0,kW=259.59282,pf=0.92,Vminpu=0.93,Vmaxpu=1.5,model=8,zipv=[0.5,0,0.5,1,0,0,0],daily=A4-5,status=variable
new load.3011230991M1 bus1=BMT175922423.1.2.3,Phases=3,kv=22.0,kW=2.10982,pf=0.92,Vminpu=0.93,Vmaxpu=1.5,model=8,zipv=[0.5,0,0.5,1,0,0,0],daily=A4-1,status=variable
new load.3011355802M1 bus1=BMT175921090.1.2.3,Phases=3,kv=22.0,kW=370.77772,pf=0.92,Vminpu=0.93,Vmaxpu=1.5,model=8,zipv=[0.5,0,0.5,1,0,0,0],daily=A4-6,status=variable
new load.3011426150M1 bus1=BMT175928072.1.2.3,Phases=3,kv=22.0,kW=14.3479,pf=0.92,Vminpu=0.93,Vmaxpu=1.5,model=8,zipv=[0.5,0,0.5,1,0,0,0],daily=A4-2,status=variable
new load.3011510431M1 bus1=BMT175921076.1.2.3,Phases=3,kv=22.0,kW=147.21156,pf=0.92,Vminpu=0.93,Vmaxpu=1.5,model=8,zipv=[0.5,0,0.5,1,0,0,0],daily=A4-4,status=variable
new load.3011526433M1 bus1=BMT149431844.1.2.3,Phases=3,kv=22.0,kW=8.65026,pf=0.92,Vminpu=0.93,Vmaxpu=1.5,model=8,zipv=[0.5,0,0.5,1,0,0,0],daily=A4-1,status=variable
new load.3011542787M1 bus1=BMT149431752.1.2.3,Phases=3,kv=22.0,kW=314.51178,pf=0.92,Vminpu=0.93,Vmaxpu=1.5,model=8,zipv=[0.5,0,0.5,1,0,0,0],daily=A4-6,status=variable
new load.3011558599M1 bus1=BMT175928075.1.2.3,Phases=3,kv=22.0,kW=16.52732,pf=0.92,Vminpu=0.93,Vmaxpu=1.5,model=8,zipv=[0.5,0,0.5,1,0,0,0],daily=A4-2,status=variable
new load.3011603026M1 bus1=BMT131777384.1.2.3,Phases=3,kv=22.0,kW=23.65476,pf=0.92,Vminpu=0.93,Vmaxpu=1.5,model=8,zipv=[0.5,0,0.5,1,0,0,0],daily=A4-2,status=variable
new load.3011615500M1 bus1=BMT175922437.1.2.3,Phases=3,kv=22.0,kW=9.30558,pf=0.92,Vminpu=0.93,Vmaxpu=1.5,model=8,zipv=[0.5,0,0.5,1,0,0,0],daily=A4-1,status=variable
new load.3011676972M1 bus1=BMT149431754.1.2.3,Phases=3,kv=22.0,kW=39.74694,pf=0.92,Vminpu=0.93,Vmaxpu=1.5,model=8,zipv=[0.5,0,0.5,1,0,0,0],daily=A4-3,status=variable
new load.3011994698M1 bus1=BMT175921103.1.2.3,Phases=3,kv=22.0,kW=79.04646,pf=0.92,Vminpu=0.93,Vmaxpu=1.5,model=8,zipv=[0.5,0,0.5,1,0,0,0],daily=A4-3,status=variable
new load.3012163150M1 bus1=BMT175928145.1.2.3,Phases=3,kv=22.0,kW=94.59972,pf=0.92,Vminpu=0.93,Vmaxpu=1.5,model=8,zipv=[0.5,0,0.5,1,0,0,0],daily=A4-6,status=variable
new load.3012169422M1 bus1=BMT155311079.1.2.3,Phases=3,kv=22.0,kW=13.00788,pf=0.92,Vminpu=0.93,Vmaxpu=1.5,model=8,zipv=[0.5,0,0.5,1,0,0,0],daily=A4-4,status=variable
new load.3012398702M1 bus1=BMT175921485.1.2.3,Phases=3,kv=22.0,kW=32.81174,pf=0.92,Vminpu=0.93,Vmaxpu=1.5,model=8,zipv=[0.5,0,0.5,1,0,0,0],daily=A4-3,status=variable
new load.3012468193M1 bus1=BMT122373192.1.2.3,Phases=3,kv=22.0,kW=23.9737,pf=0.92,Vminpu=0.93,Vmaxpu=1.5,model=8,zipv=[0.5,0,0.5,1,0,0,0],daily=A4-2,status=variable
new load.3012623598M1 bus1=BMT175928069.1.2.3,Phases=3,kv=22.0,kW=23.95008,pf=0.92,Vminpu=0.93,Vmaxpu=1.5,model=8,zipv=[0.5,0,0.5,1,0,0,0],daily=A4-3,status=variable
new load.3012623656M1 bus1=BMT175921182.1.2.3,Phases=3,kv=22.0,kW=8.35448,pf=0.92,Vminpu=0.93,Vmaxpu=1.5,model=8,zipv=[0.5,0,0.5,1,0,0,0],daily=A4-2,status=variable
new load.3012685352M1 bus1=BMT175921792.1.2.3,Phases=3,kv=22.0,kW=191.37688,pf=0.92,Vminpu=0.93,Vmaxpu=1.5,model=8,zipv=[0.5,0,0.5,1,0,0,0],daily=A4-5,status=variable
new load.3012733203M1 bus1=BMT175921899.1.2.3,Phases=3,kv=22.0,kW=6.6291,pf=0.92,Vminpu=0.93,Vmaxpu=1.5,model=8,zipv=[0.5,0,0.5,1,0,0,0],daily=A4-2,status=variable
new load.3012845392M1 bus1=BMT156380850.1.2.3,Phases=3,kv=22.0,kW=8.99014,pf=0.92,Vminpu=0.93,Vmaxpu=1.5,model=8,zipv=[0.5,0,0.5,1,0,0,0],daily=A4-2,status=variable
new load.3012903579M1 bus1=BMT156657788.1.2.3,Phases=3,kv=22.0,kW=89.75792,pf=0.92,Vminpu=0.93,Vmaxpu=1.5,model=8,zipv=[0.5,0,0.5,1,0,0,0],daily=A4-3,status=variable
new load.3013003590M1 bus1=BMT165434685.1.2.3,Phases=3,kv=22.0,kW=1044.7987,pf=0.92,Vminpu=0.93,Vmaxpu=1.5,model=8,zipv=[0.5,0,0.5,1,0,0,0],daily=A4-7,status=variable
new load.3013053365M1 bus1=BMT156657788.1.2.3,Phases=3,kv=22.0,kW=9.69438,pf=0.92,Vminpu=0.93,Vmaxpu=1.5,model=8,zipv=[0.5,0,0.5,1,0,0,0],daily=A4-3,status=variable
new load.3013077859M1 bus1=BMT175921446.1.2.3,Phases=3,kv=22.0,kW=803.56386,pf=0.92,Vminpu=0.93,Vmaxpu=1.5,model=8,zipv=[0.5,0,0.5,1,0,0,0],daily=A4-6,status=variable
new load.3013077998M1 bus1=BMT122374340.1.2.3,Phases=3,kv=22.0,kW=235.38542,pf=0.92,Vminpu=0.93,Vmaxpu=1.5,model=8,zipv=[0.5,0,0.5,1,0,0,0],daily=A4-4,status=variable
new load.3013084560M1 bus1=BMT164895519.1.2.3,Phases=3,kv=22.0,kW=103.06874,pf=0.92,Vminpu=0.93,Vmaxpu=1.5,model=8,zipv=[0.5,0,0.5,1,0,0,0],daily=A4-2,status=variable
new load.3013105578M1 bus1=BMT156657788.1.2.3,Phases=3,kv=22.0,kW=30.83092,pf=0.92,Vminpu=0.93,Vmaxpu=1.5,model=8,zipv=[0.5,0,0.5,1,0,0,0],daily=A4-2,status=variable
new load.3013179575M1 bus1=BMT175928127.1.2.3,Phases=3,kv=22.0,kW=218.97406,pf=0.92,Vminpu=0.93,Vmaxpu=1.5,model=8,zipv=[0.5,0,0.5,1,0,0,0],daily=A4-4,status=variable
new load.3013196931M1 bus1=BMT156657788.1.2.3,Phases=3,kv=22.0,kW=756.13734,pf=0.92,Vminpu=0.93,Vmaxpu=1.5,model=8,zipv=[0.5,0,0.5,1,0,0,0],daily=A4-7,status=variable
new load.3013197756M1 bus1=BMT149431869.1.2.3,Phases=3,kv=22.0,kW=1185.04368,pf=0.92,Vminpu=0.93,Vmaxpu=1.5,model=8,zipv=[0.5,0,0.5,1,0,0,0],daily=A4-7,status=variable
new load.3013256464M1 bus1=BMT175928137.1.2.3,Phases=3,kv=22.0,kW=458.89034,pf=0.92,Vminpu=0.93,Vmaxpu=1.5,model=8,zipv=[0.5,0,0.5,1,0,0,0],daily=A4-6,status=variable
new load.3013322291M1 bus1=BMT156657788.1.2.3,Phases=3,kv=22.0,kW=45.40614,pf=0.92,Vminpu=0.93,Vmaxpu=1.5,model=8,zipv=[0.5,0,0.5,1,0,0,0],daily=A4-3,status=variable
new load.3013359538M1 bus1=BMT175921489.1.2.3,Phases=3,kv=22.0,kW=291.09334,pf=0.92,Vminpu=0.93,Vmaxpu=1.5,model=8,zipv=[0.5,0,0.5,1,0,0,0],daily=A4-5,status=variable
new load.3013449629M1 bus1=BMT170442204.1.2.3,Phases=3,kv=22.0,kW=83.38916,pf=0.92,Vminpu=0.93,Vmaxpu=1.5,model=8,zipv=[0.5,0,0.5,1,0,0,0],daily=A4-5,status=variable
new load.3013548228M1 bus1=BMT156657788.1.2.3,Phases=3,kv=22.0,kW=31.89406,pf=0.92,Vminpu=0.93,Vmaxpu=1.5,model=8,zipv=[0.5,0,0.5,1,0,0,0],daily=A4-2,status=variable
new load.3013652085M1 bus1=BMT175921132.1.2.3,Phases=3,kv=22.0,kW=57.66912,pf=0.92,Vminpu=0.93,Vmaxpu=1.5,model=8,zipv=[0.5,0,0.5,1,0,0,0],daily=A4-3,status=variable
new load.3013657070M1 bus1=BMT156657788.1.2.3,Phases=3,kv=22.0,kW=30.83092,pf=0.92,Vminpu=0.93,Vmaxpu=1.5,model=8,zipv=[0.5,0,0.5,1,0,0,0],daily=A4-2,status=variable
new load.3013767741M1 bus1=BMT175922066.1.2.3,Phases=3,kv=22.0,kW=2.8131,pf=0.92,Vminpu=0.93,Vmaxpu=1.5,model=8,zipv=[0.5,0,0.5,1,0,0,0],daily=A4-1,status=variable
new load.3013768381M1 bus1=BMT172704961.1.2.3,Phases=3,kv=22.0,kW=44.4947,pf=0.92,Vminpu=0.93,Vmaxpu=1.5,model=8,zipv=[0.5,0,0.5,1,0,0,0],daily=A4-3,status=variable
new load.3013771181M1 bus1=BMT168857509.1.2.3,Phases=3,kv=22.0,kW=55.69714,pf=0.92,Vminpu=0.93,Vmaxpu=1.5,model=8,zipv=[0.5,0,0.5,1,0,0,0],daily=A4-4,status=variable
new load.3014024348M1 bus1=BMT175928013.1.2.3,Phases=3,kv=22.0,kW=125.26668,pf=0.92,Vminpu=0.93,Vmaxpu=1.5,model=8,zipv=[0.5,0,0.5,1,0,0,0],daily=A4-3,status=variable
new load.3014029755M1 bus1=BMT175922099.1.2.3,Phases=3,kv=22.0,kW=131.89944,pf=0.92,Vminpu=0.93,Vmaxpu=1.5,model=8,zipv=[0.5,0,0.5,1,0,0,0],daily=A4-3,status=variable
