! manter este comentario para compatibilidade do C#
new circuit.alimJFAU07 bus1=BMTFIC.1.2.3,basekv=22.000000000,pu=1.040000000

