new line.10018595 bus1=BBT145607963.1.2.0,bus2=BBT145607970.1.2.0,Phases=2,Linecode=BT521_BT521_7_2_1,Length=0.000501000,Units=km
new line.10019323 bus1=BBT2155452.1.2.0,bus2=BBT145640905.1.2.0,Phases=2,Linecode=BT808_BT808_4_2_3,Length=0.038926000,Units=km
new line.1002111 bus1=BBT1033009.1.2.3.0,bus2=BBT1033016.1.2.3.0,Phases=3,Linecode=BT508_BT508_7_3_1,Length=0.000501000,Units=km
new line.1002118 bus1=BBT1033016.1.2.3.0,bus2=BBT1033023.1.2.3.0,Phases=3,Linecode=BT308_BT308_5_3_1,Length=0.028308000,Units=km
new line.1002125 bus1=BBT1033016.1.2.3.0,bus2=BBT1033072.1.2.3.0,Phases=3,Linecode=BT108_BT108_7_3_1,Length=0.037451000,Units=km
new line.1002132 bus1=BBT1033023.1.2.3.0,bus2=BBT1033030.1.2.3.0,Phases=3,Linecode=BT308_BT308_5_3_1,Length=0.027300000,Units=km
new line.1002139 bus1=BBT1033030.1.2.3.0,bus2=BBT1033037.1.2.3.0,Phases=3,Linecode=BT107_BT107_7_3_1,Length=0.028290000,Units=km
new line.1002146 bus1=BBT1033030.1.2.3.0,bus2=BBT1033051.1.2.3.0,Phases=3,Linecode=BT108_BT108_7_3_1,Length=0.015300000,Units=km
new line.1002153 bus1=BBT1033037.1.2.3.0,bus2=BBT1033044.1.2.3.0,Phases=3,Linecode=BT107_BT107_7_3_1,Length=0.034007000,Units=km
new line.1002160 bus1=BBT1033051.1.2.3.0,bus2=BBT1033058.1.2.3.0,Phases=3,Linecode=BT107_BT107_7_3_1,Length=0.033383000,Units=km
new line.1002167 bus1=BBT1033058.1.2.3.0,bus2=BBT1033065.1.2.3.0,Phases=3,Linecode=BT107_BT107_7_3_1,Length=0.029281000,Units=km
new line.1002174 bus1=BBT1033072.1.2.3.0,bus2=BBT1033079.1.2.3.0,Phases=3,Linecode=BT108_BT108_7_3_1,Length=0.033308000,Units=km
new line.1002181 bus1=BBT1033079.1.2.3.0,bus2=BBT1033086.1.2.3.0,Phases=3,Linecode=BT108_BT108_7_3_1,Length=0.035391000,Units=km
new line.1002188 bus1=BBT1033086.1.2.3.0,bus2=BBT1033093.1.2.3.0,Phases=3,Linecode=BT108_BT108_7_3_1,Length=0.033428000,Units=km
new line.1002195 bus1=BBT1033093.1.2.3.0,bus2=BBT1033100.1.2.3.0,Phases=3,Linecode=BT107_BT107_7_3_1,Length=0.028325000,Units=km
new line.1002202 bus1=BBT1033100.1.2.3.0,bus2=BBT1033107.1.2.3.0,Phases=3,Linecode=BT107_BT107_7_3_1,Length=0.029075000,Units=km
new line.1002209 bus1=BBT1033107.1.2.3.0,bus2=BBT1033114.1.2.3.0,Phases=3,Linecode=BT107_BT107_7_3_1,Length=0.032209000,Units=km
new line.1002216 bus1=BBT1033121.1.2.3.0,bus2=BBT1033128.1.2.3.0,Phases=3,Linecode=BT521_BT521_7_3_1,Length=0.000501000,Units=km
new line.1002223 bus1=BBT1033128.1.2.3.0,bus2=BBT1033135.1.2.3.0,Phases=3,Linecode=BT108_BT108_7_3_1,Length=0.034547000,Units=km
new line.1002230 bus1=BBT1033128.1.2.3.0,bus2=BBT1033212.1.2.3.0,Phases=3,Linecode=BT108_BT108_7_3_1,Length=0.035348000,Units=km
new line.1002237 bus1=BBT1033135.1.2.3.0,bus2=BBT1033142.1.2.3.0,Phases=3,Linecode=BT108_BT108_7_3_1,Length=0.029553000,Units=km
new line.1002244 bus1=BBT1033142.1.2.3.0,bus2=BBT1033149.1.2.3.0,Phases=3,Linecode=BT108_BT108_7_3_1,Length=0.034022000,Units=km
new line.1002251 bus1=BBT1033142.1.2.3.0,bus2=BBT1033198.1.2.3.0,Phases=3,Linecode=BT107_BT107_7_3_1,Length=0.034183000,Units=km
new line.1002258 bus1=BBT1033149.1.2.3.0,bus2=BBT1033156.1.2.3.0,Phases=3,Linecode=BT108_BT108_7_3_1,Length=0.043666000,Units=km
new line.1002265 bus1=BBT1033156.1.2.3.0,bus2=BBT1033163.1.2.3.0,Phases=3,Linecode=BT108_BT108_7_3_1,Length=0.032580000,Units=km
new line.1002272 bus1=BBT1033163.1.2.3.0,bus2=BBT1033170.1.2.3.0,Phases=3,Linecode=BT108_BT108_7_3_1,Length=0.032580000,Units=km
new line.1002279 bus1=BBT1033170.1.2.3.0,bus2=BBT1033177.1.2.3.0,Phases=3,Linecode=BT108_BT108_7_3_1,Length=0.033248000,Units=km
new line.1002286 bus1=BBT1033177.1.2.3.0,bus2=BBT1033184.1.2.3.0,Phases=3,Linecode=BT108_BT108_7_3_1,Length=0.033845000,Units=km
new line.1002293 bus1=BBT1033184.1.2.3.0,bus2=BBT1033191.1.2.3.0,Phases=3,Linecode=BT108_BT108_7_3_1,Length=0.025500000,Units=km
new line.1002300 bus1=BBT1033198.1.2.3.0,bus2=BBT1033205.1.2.3.0,Phases=3,Linecode=BT107_BT107_7_3_1,Length=0.036682000,Units=km
new line.1002307 bus1=BBT1033212.1.2.3.0,bus2=BBT1033219.1.2.3.0,Phases=3,Linecode=BT108_BT108_7_3_1,Length=0.034183000,Units=km
new line.1002314 bus1=BBT1033226.1.2.3.0,bus2=BBT1033233.1.2.3.0,Phases=3,Linecode=BT521_BT521_7_3_1,Length=0.000501000,Units=km
new line.1002321 bus1=BBT1033233.1.2.3.0,bus2=BBT1033240.1.2.3.0,Phases=3,Linecode=BT108_BT107_7_3_1,Length=0.021545000,Units=km
new line.1002328 bus1=BBT1033233.1.2.3.0,bus2=BBT1033282.1.2.3.0,Phases=3,Linecode=BT108_BT107_7_3_1,Length=0.027319000,Units=km
new line.10023306 bus1=BBT145772204.1.2.0,bus2=BBT145772211.1.2.0,Phases=2,Linecode=BT521_BT521_7_2_1,Length=0.000503000,Units=km
new line.1002335 bus1=BBT1033240.1.2.3.0,bus2=BBT1033247.1.2.3.0,Phases=3,Linecode=BT107_BT107_7_3_1,Length=0.031629000,Units=km
new line.10023383 bus1=BBT145773170.1.2.0,bus2=BBT145773177.1.2.0,Phases=2,Linecode=BT521_BT521_7_2_1,Length=0.000501000,Units=km
new line.1002342 bus1=BBT1033240.1.2.3.0,bus2=BBT1033331.1.2.3.0,Phases=3,Linecode=BT106_BT106_7_3_1,Length=0.018361000,Units=km
new line.1002349 bus1=BBT1033247.1.2.3.0,bus2=BBT1033254.1.2.3.0,Phases=3,Linecode=BT107_BT107_7_3_1,Length=0.033622000,Units=km
new line.1002356 bus1=BBT1033254.1.2.3.0,bus2=BBT1033261.1.2.3.0,Phases=3,Linecode=BT107_BT107_7_3_1,Length=0.036256000,Units=km
new line.1002363 bus1=BBT1033261.1.2.3.0,bus2=BBT1033268.1.2.3.0,Phases=3,Linecode=BT106_BT106_7_3_1,Length=0.034445000,Units=km
new line.1002370 bus1=BBT1033268.1.2.3.0,bus2=BBT1033275.1.2.3.0,Phases=3,Linecode=BT106_BT106_7_3_1,Length=0.034183000,Units=km
new line.1002377 bus1=BBT1033282.1.2.3.0,bus2=BBT1033289.1.2.3.0,Phases=3,Linecode=BT108_BT107_7_3_1,Length=0.027319000,Units=km
new line.1002384 bus1=BBT1033289.1.2.3.0,bus2=BBT1033296.1.2.3.0,Phases=3,Linecode=BT107_BT106_7_3_1,Length=0.025094000,Units=km
new line.1002391 bus1=BBT1033296.1.2.3.0,bus2=BBT1033303.1.2.3.0,Phases=3,Linecode=BT106_BT106_7_3_1,Length=0.032293000,Units=km
new line.1002398 bus1=BBT1033303.1.2.3.0,bus2=BBT1033310.1.2.3.0,Phases=3,Linecode=BT106_BT106_7_3_1,Length=0.032565000,Units=km
new line.1002405 bus1=BBT1033310.1.2.3.0,bus2=BBT1033317.1.2.3.0,Phases=3,Linecode=BT106_BT106_7_3_1,Length=0.025548000,Units=km
new line.1002412 bus1=BBT1033317.1.2.3.0,bus2=BBT1033324.1.2.3.0,Phases=3,Linecode=BT106_BT106_7_3_1,Length=0.024336000,Units=km
new line.1002419 bus1=BBT1033331.1.2.3.0,bus2=BBT1033338.1.2.3.0,Phases=3,Linecode=BT106_BT106_7_3_1,Length=0.031629000,Units=km
new line.1002426 bus1=BBT1033338.1.2.3.0,bus2=BBT1033345.1.2.3.0,Phases=3,Linecode=BT106_BT106_7_3_1,Length=0.034547000,Units=km
new line.1002433 bus1=BBT1033359.1.2.3.0,bus2=BBT1033380.1.2.3.0,Phases=3,Linecode=BT108_BT108_7_3_1,Length=0.024703000,Units=km
new line.1002440 bus1=BBT1033359.1.2.3.0,bus2=BBT1033450.1.2.3.0,Phases=3,Linecode=BT803_BT803_4_3_4,Length=0.038021000,Units=km
new line.1002447 bus1=BBT1033352.1.2.3.0,bus2=BBT1033366.1.2.3.0,Phases=3,Linecode=BT508_BT508_7_3_1,Length=0.000501000,Units=km
new line.1002454 bus1=BBT1033366.1.2.3.0,bus2=BBT1033373.1.2.3.0,Phases=3,Linecode=BT108_BT108_7_3_1,Length=0.037210000,Units=km
new line.1002461 bus1=BBT1033366.1.2.3.0,bus2=BBT1033415.1.2.3.0,Phases=3,Linecode=BT108_BT108_7_3_1,Length=0.036063000,Units=km
new line.1002468 bus1=BBT1033373.1.2.3.0,bus2=BBT1033359.1.2.3.0,Phases=3,Linecode=BT108_BT108_7_3_1,Length=0.007213000,Units=km
new line.1002475 bus1=BBT1033380.1.2.3.0,bus2=BBT1033387.1.2.3.0,Phases=3,Linecode=BT108_BT108_7_3_1,Length=0.036063000,Units=km
new line.1003784 bus1=BBT1034892.1.2.3.0,bus2=BBT1034899.1.2.3.0,Phases=3,Linecode=BT307_BT307_7_3_1,Length=0.000516000,Units=km
new line.1003791 bus1=BBT1034899.1.2.3.0,bus2=BBT1034906.1.2.3.0,Phases=3,Linecode=BT803_BT803_4_3_4,Length=0.033899000,Units=km
new line.1003798 bus1=BBT1034899.1.2.3.0,bus2=BBT1034941.1.2.3.0,Phases=3,Linecode=BT803_BT803_4_3_4,Length=0.031433000,Units=km
new line.1003805 bus1=BBT1034906.1.2.3.0,bus2=BBT1034913.1.2.3.0,Phases=3,Linecode=BT803_BT803_4_3_4,Length=0.034001000,Units=km
new line.1003812 bus1=BBT1034913.1.2.3.0,bus2=BBT1034920.1.2.3.0,Phases=3,Linecode=BT803_BT803_4_3_4,Length=0.033607000,Units=km
new line.1003819 bus1=BBT1034920.1.2.3.0,bus2=BBT1034927.1.2.3.0,Phases=3,Linecode=BT803_BT803_4_3_4,Length=0.035863000,Units=km
new line.1003833 bus1=BBT1034927.1.2.3.0,bus2=BBT1034934.1.2.3.0,Phases=3,Linecode=BT803_BT803_4_3_4,Length=0.041235000,Units=km
new line.1003847 bus1=BBT1034941.1.2.3.0,bus2=BBT1034948.1.2.3.0,Phases=3,Linecode=BT803_BT803_4_3_4,Length=0.031922000,Units=km
new line.1003854 bus1=BBT1034948.1.2.3.0,bus2=BBT1034955.1.2.3.0,Phases=3,Linecode=BT803_BT803_4_3_4,Length=0.030862000,Units=km
new line.1003861 bus1=BBT1034955.1.2.3.0,bus2=BBT1034962.1.2.3.0,Phases=3,Linecode=BT803_BT803_4_3_4,Length=0.029838000,Units=km
new line.1003868 bus1=BBT1034962.1.2.3.0,bus2=BBT1034969.1.2.3.0,Phases=3,Linecode=BT803_BT803_4_3_4,Length=0.034326000,Units=km
new line.1003875 bus1=BBT1034983.1.2.3.0,bus2=BBT1035039.1.2.3.0,Phases=3,Linecode=BT803_BT803_4_3_4,Length=0.031783000,Units=km
new line.1003882 bus1=BBT1034990.1.2.3.0,bus2=BBT1034983.1.2.3.0,Phases=3,Linecode=BT803_BT803_4_3_4,Length=0.031783000,Units=km
new line.1003889 bus1=BBT1034997.1.2.3.0,bus2=BBT1034990.1.2.3.0,Phases=3,Linecode=BT805_BT805_4_3_4,Length=0.030466000,Units=km
new line.1003896 bus1=BBT1034976.1.2.3.0,bus2=BBT1034997.1.2.3.0,Phases=3,Linecode=BT313_BT313_7_3_1,Length=0.000501000,Units=km
new line.1003903 bus1=BBT1034997.1.2.3.0,bus2=BBT1035004.1.2.3.0,Phases=3,Linecode=BT805_BT805_4_3_4,Length=0.038487000,Units=km
new line.1003910 bus1=BBT1035004.1.2.3.0,bus2=BBT1035011.1.2.3.0,Phases=3,Linecode=BT803_BT803_4_3_4,Length=0.037165000,Units=km
new line.1003917 bus1=BBT1035004.1.2.0,bus2=BBT3218773.1.2.0,Phases=2,Linecode=BT808_BT808_4_2_3,Length=0.021473000,Units=km
new line.1003924 bus1=BBT1035011.1.2.3.0,bus2=BBT1035032.1.2.3.0,Phases=3,Linecode=BT803_BT803_4_3_4,Length=0.031783000,Units=km
new line.1003931 bus1=BBT1035011.1.2.3.0,bus2=BBT1035018.1.2.3.0,Phases=3,Linecode=BT809_BT809_4_3_4,Length=0.009221000,Units=km
new line.1003938 bus1=BBT1035018.1.2.3.0,bus2=BBT1035025.1.2.3.0,Phases=3,Linecode=BT809_BT809_4_3_4,Length=0.014766000,Units=km
new line.1003945 bus1=BBT1035025.1.2.0,bus2=BBT3082161.1.2.0,Phases=2,Linecode=BT808_BT808_4_2_3,Length=0.021262000,Units=km
new line.1003952 bus1=BBT1035025.1.2.0,bus2=BBT3206649.1.2.0,Phases=2,Linecode=BT808_BT808_4_2_3,Length=0.019028000,Units=km
new line.1003959 bus1=BBT1035039.1.2.3.0,bus2=BBT1035046.1.2.3.0,Phases=3,Linecode=BT803_BT803_4_3_4,Length=0.034687000,Units=km
new line.1003966 bus1=BBT1035046.1.2.3.0,bus2=BBT1035053.1.2.3.0,Phases=3,Linecode=BT803_BT803_4_3_4,Length=0.036631000,Units=km
new line.1003973 bus1=BBT1035053.1.2.3.0,bus2=BBT2199993.1.2.3.0,Phases=3,Linecode=BT810_BT810_4_3_4,Length=0.041088000,Units=km
new line.1004001 bus1=BBT1035088.1.2.0,bus2=BBT1035095.1.2.0,Phases=2,Linecode=BT307_BT307_7_2_1,Length=0.000510000,Units=km
new line.1004015 bus1=BBT1035123.1.2.3.0,bus2=BBT1035151.1.2.3.0,Phases=3,Linecode=BT803_BT803_4_3_4,Length=0.032576000,Units=km
new line.1004022 bus1=BBT1035123.1.2.3.0,bus2=BBT1035158.1.2.3.0,Phases=3,Linecode=BT803_BT803_4_3_4,Length=0.029787000,Units=km
new line.1004029 bus1=BBT1035130.1.2.3.0,bus2=BBT1035123.1.2.3.0,Phases=3,Linecode=BT803_BT803_4_3_4,Length=0.036844000,Units=km
new line.1004036 bus1=BBT1035137.1.2.3.0,bus2=BBT1035130.1.2.3.0,Phases=3,Linecode=BT803_BT803_4_3_4,Length=0.035479000,Units=km
new line.1004043 bus1=BBT1035116.1.2.3.0,bus2=BBT1035137.1.2.3.0,Phases=3,Linecode=BT308_BT308_7_3_1,Length=0.000501000,Units=km
new line.1004050 bus1=BBT1035137.1.2.3.0,bus2=BBT1035144.1.2.3.0,Phases=3,Linecode=BT803_BT803_4_3_4,Length=0.031155000,Units=km
new line.1004057 bus1=BBT1035144.1.2.3.0,bus2=BBT1035165.1.2.3.0,Phases=3,Linecode=BT803_BT803_4_3_4,Length=0.032025000,Units=km
new line.1004169 bus1=BBT1035291.1.2.3.0,bus2=BBT1035298.1.2.3.0,Phases=3,Linecode=BT507_BT507_7_3_1,Length=0.000501000,Units=km
new line.1004176 bus1=BBT1035298.1.2.3.0,bus2=BBT1035305.1.2.3.0,Phases=3,Linecode=BT803_BT803_4_3_4,Length=0.029970000,Units=km
new line.1004183 bus1=BBT1035298.1.2.3.0,bus2=BBT1035340.1.2.3.0,Phases=3,Linecode=BT803_BT803_4_3_4,Length=0.033544000,Units=km
new line.1004197 bus1=BBT1035305.1.2.3.0,bus2=BBT1035312.1.2.3.0,Phases=3,Linecode=BT803_BT803_4_3_4,Length=0.025945000,Units=km
new line.1004204 bus1=BBT1035312.1.2.3.0,bus2=BBT1035319.1.2.3.0,Phases=3,Linecode=BT803_BT803_4_3_4,Length=0.027673000,Units=km
new line.1004211 bus1=BBT1035319.1.2.3.0,bus2=BBT1035326.1.2.3.0,Phases=3,Linecode=BT803_BT803_4_3_4,Length=0.028259000,Units=km
new line.1004218 bus1=BBT1035326.1.2.3.0,bus2=BBT1035333.1.2.3.0,Phases=3,Linecode=BT803_BT803_4_3_4,Length=0.026591000,Units=km
new line.1004225 bus1=BBT1035340.1.2.3.0,bus2=BBT1035347.1.2.3.0,Phases=3,Linecode=BT803_BT803_4_3_4,Length=0.034181000,Units=km
new line.1004232 bus1=BBT1035347.1.2.3.0,bus2=BBT1035354.1.2.3.0,Phases=3,Linecode=BT803_BT803_4_3_4,Length=0.038395000,Units=km
new line.1004239 bus1=BBT1035354.1.2.3.0,bus2=BBT1035361.1.2.3.0,Phases=3,Linecode=BT803_BT803_4_3_4,Length=0.032073000,Units=km
new line.10042598 bus1=BBT146232454.1.2.0,bus2=BBT146232461.1.2.0,Phases=2,Linecode=BT521_BT521_7_2_1,Length=0.000506000,Units=km
new line.10042689 bus1=BBT3871859.1.2.0,bus2=BBT146244837.1.2.0,Phases=2,Linecode=BT808_BT808_4_2_3,Length=0.036883000,Units=km
new line.1004610 bus1=BBT1035725.1.2.3.0,bus2=BBT1035732.1.2.3.0,Phases=3,Linecode=BT521_BT521_7_3_1,Length=0.000540000,Units=km
new line.1004617 bus1=BBT1035732.1.2.3.0,bus2=BBT1035739.1.2.3.0,Phases=3,Linecode=BT805_BT805_4_3_4,Length=0.034250000,Units=km
new line.1004624 bus1=BBT1035732.1.2.3.0,bus2=BBT1035767.1.2.3.0,Phases=3,Linecode=BT805_BT805_4_3_4,Length=0.034417000,Units=km
new line.1004631 bus1=BBT1035739.1.2.3.0,bus2=BBT1035746.1.2.3.0,Phases=3,Linecode=BT805_BT805_4_3_4,Length=0.035447000,Units=km
new line.1004638 bus1=BBT1035746.1.2.3.0,bus2=BBT1035753.1.2.3.0,Phases=3,Linecode=BT805_BT805_4_3_4,Length=0.031811000,Units=km
new line.1004645 bus1=BBT1035753.1.2.3.0,bus2=BBT1035760.1.2.3.0,Phases=3,Linecode=BT803_BT803_4_3_4,Length=0.029607000,Units=km
new line.1004652 bus1=BBT1035767.1.2.3.0,bus2=BBT1035774.1.2.3.0,Phases=3,Linecode=BT805_BT805_4_3_4,Length=0.036069000,Units=km
new line.1004659 bus1=BBT1035774.1.2.3.0,bus2=BBT1035781.1.2.3.0,Phases=3,Linecode=BT805_BT805_4_3_4,Length=0.034112000,Units=km
new line.1004666 bus1=BBT1035774.1.2.3.0,bus2=BBT1035788.1.2.3.0,Phases=3,Linecode=BT803_BT803_4_3_4,Length=0.030202000,Units=km
new line.1004673 bus1=BBT1035774.1.2.3.0,bus2=BBT3096147.1.2.3.0,Phases=3,Linecode=BT805_BT805_4_3_4,Length=0.013690000,Units=km
new line.1004687 bus1=BBT1035788.1.2.3.0,bus2=BBT1035795.1.2.3.0,Phases=3,Linecode=BT803_BT803_4_3_4,Length=0.030943000,Units=km
new line.1004694 bus1=BBT1035795.1.2.3.0,bus2=BBT1035802.1.2.3.0,Phases=3,Linecode=BT803_BT803_4_3_4,Length=0.025213000,Units=km
new line.10050305 bus1=BBT2465447.1.2.3.0,bus2=BBT146516339.1.2.3.0,Phases=3,Linecode=BT803_BT803_4_3_4,Length=0.015136000,Units=km
new line.10050312 bus1=BBT146516612.1.2.3.0,bus2=BBT1097248.1.2.3.0,Phases=3,Linecode=BT521_BT521_7_3_1,Length=0.000501000,Units=km
new line.10050340 bus1=BBT3272141.1.2.3.0,bus2=BBT146516731.1.2.3.0,Phases=3,Linecode=BT803_BT803_4_3_4,Length=0.038480000,Units=km
new line.10050669 bus1=BBT146535645.1.2.0,bus2=BBT146535652.1.2.0,Phases=2,Linecode=BT521_BT521_7_2_1,Length=0.000507000,Units=km
new line.10051075 bus1=BBT1097227.1.2.3.0,bus2=BBT146547965.1.2.3.0,Phases=3,Linecode=BT803_BT803_4_3_4,Length=0.024192000,Units=km
new line.10051082 bus1=BBT146547965.1.2.3.0,bus2=BBT146547972.1.2.3.0,Phases=3,Linecode=BT803_BT803_4_3_4,Length=0.037224000,Units=km
new line.10052118 bus1=BBT146582993.1.2.0,bus2=BBT146583000.1.2.0,Phases=2,Linecode=BT521_BT521_7_2_1,Length=0.000509000,Units=km
new line.10053938 bus1=BBT146663122.1.2.3.0,bus2=BBT146663129.1.2.3.0,Phases=3,Linecode=BT514_BT514_7_3_1,Length=0.000501000,Units=km
new line.10053945 bus1=BBT146663129.1.2.3.0,bus2=BBT146663353.1.2.3.0,Phases=3,Linecode=BT805_BT805_4_3_4,Length=0.043114000,Units=km
new line.10053952 bus1=BBT146663129.1.2.3.0,bus2=BBT146663360.1.2.3.0,Phases=3,Linecode=BT805_BT805_4_3_4,Length=0.044053000,Units=km
new line.10054064 bus1=BBT673363.1.2.3.0,bus2=BBT673797.1.2.3.0,Phases=3,Linecode=BT803_BT803_4_3_4,Length=0.028043000,Units=km
new line.10062093 bus1=BBT146938425.1.2.0,bus2=BBT146938432.1.2.0,Phases=2,Linecode=BT521_BT521_7_2_1,Length=0.000501000,Units=km
new line.10063507 bus1=BBT146964794.1.2.0,bus2=BBT146964801.1.2.0,Phases=2,Linecode=BT521_BT521_7_2_1,Length=0.000525000,Units=km
new line.1006542 bus1=BBT1038063.1.2.0,bus2=BBT1038070.1.2.0,Phases=2,Linecode=BT507_BT507_7_2_1,Length=0.000501000,Units=km
new line.1006591 bus1=BBT1038105.1.2.0,bus2=BBT1038112.1.2.0,Phases=2,Linecode=BT507_BT507_7_2_1,Length=0.000512000,Units=km
new line.1006661 bus1=BBT1038189.1.2.3.0,bus2=BBT1038196.1.2.3.0,Phases=3,Linecode=BT508_BT508_7_3_1,Length=0.000557000,Units=km
new line.1006668 bus1=BBT1038196.1.2.3.0,bus2=BBT1038203.1.2.3.0,Phases=3,Linecode=BT803_BT803_4_3_4,Length=0.033048000,Units=km
new line.1006675 bus1=BBT1038196.1.2.3.0,bus2=BBT1038217.1.2.3.0,Phases=3,Linecode=BT803_BT803_4_3_4,Length=0.033982000,Units=km
new line.10066790 bus1=BBT1982692.1.2.3.0,bus2=BBT146985885.1.2.3.0,Phases=3,Linecode=BT803_BT803_4_3_4,Length=0.037223000,Units=km
new line.10066797 bus1=BBT146985885.1.2.3.0,bus2=BBT146985892.1.2.3.0,Phases=3,Linecode=BT803_BT803_4_3_4,Length=0.034136000,Units=km
new line.10066804 bus1=BBT146985892.1.2.3.0,bus2=BBT146985962.1.2.3.0,Phases=3,Linecode=BT803_BT803_4_3_4,Length=0.036129000,Units=km
new line.10066811 bus1=BBT146985962.1.2.3.0,bus2=BBT146986053.1.2.3.0,Phases=3,Linecode=BT803_BT803_4_3_4,Length=0.034238000,Units=km
new line.1006682 bus1=BBT1038203.1.2.3.0,bus2=BBT1038210.1.2.3.0,Phases=3,Linecode=BT803_BT803_4_3_4,Length=0.028831000,Units=km
new line.1006689 bus1=BBT1038217.1.2.3.0,bus2=BBT1038238.1.2.3.0,Phases=3,Linecode=BT803_BT803_4_3_4,Length=0.032596000,Units=km
new line.1006696 bus1=BBT1038217.1.2.3.0,bus2=BBT1038224.1.2.3.0,Phases=3,Linecode=BT803_BT803_4_3_4,Length=0.031364000,Units=km
new line.1006703 bus1=BBT1038224.1.2.3.0,bus2=BBT1038231.1.2.3.0,Phases=3,Linecode=BT803_BT803_4_3_4,Length=0.035860000,Units=km
new line.1006717 bus1=BBT1038245.1.2.0,bus2=BBT1038252.1.2.0,Phases=2,Linecode=BT507_BT507_7_2_1,Length=0.000502000,Units=km
new line.1006724 bus1=BBT1038259.1.2.0,bus2=BBT1038266.1.2.0,Phases=2,Linecode=BT507_BT507_7_2_1,Length=0.000501000,Units=km
new line.1006738 bus1=BBT1038287.1.2.0,bus2=BBT1038294.1.2.0,Phases=2,Linecode=BT307_BT307_7_2_1,Length=0.000523000,Units=km
new line.1006808 bus1=BBT1038378.1.2.0,bus2=BBT1038385.1.2.0,Phases=2,Linecode=BT507_BT507_7_2_1,Length=0.000507000,Units=km
new line.1006815 bus1=BBT1038392.1.2.0,bus2=BBT1038399.1.2.0,Phases=2,Linecode=BT507_BT507_7_2_1,Length=0.000505000,Units=km
new line.1006822 bus1=BBT1038406.1.2.0,bus2=BBT1038413.1.2.0,Phases=2,Linecode=BT507_BT507_7_2_1,Length=0.000506000,Units=km
new line.1006829 bus1=BBT1038413.1.2.0,bus2=BBT1038420.1.2.0,Phases=2,Linecode=BT801_BT801_4_2_3,Length=0.062166000,Units=km
new line.1006836 bus1=BBT1038413.1.2.0,bus2=BBT1038427.1.2.0,Phases=2,Linecode=BT801_BT801_4_2_3,Length=0.058342000,Units=km
new line.1006843 bus1=BBT1038434.1.2.0,bus2=BBT1038441.1.2.0,Phases=2,Linecode=BT507_BT507_7_2_1,Length=0.000506000,Units=km
new line.1006850 bus1=BBT1038448.1.2.0,bus2=BBT1038455.1.2.0,Phases=2,Linecode=BT508_BT508_7_2_1,Length=0.000502000,Units=km
new line.1006857 bus1=BBT1038462.1.2.0,bus2=BBT1038469.1.2.0,Phases=2,Linecode=BT507_BT507_7_2_1,Length=0.000501000,Units=km
new line.1006871 bus1=BBT1038490.1.2.0,bus2=BBT1038497.1.2.0,Phases=2,Linecode=BT307_BT307_7_2_1,Length=0.000502000,Units=km
new line.1008782 bus1=BBT1040751.1.2.0,bus2=BBT1040758.1.2.0,Phases=2,Linecode=BT507_BT507_7_2_1,Length=0.000503000,Units=km
new line.1008803 bus1=BBT1040793.1.2.0,bus2=BBT1040800.1.2.0,Phases=2,Linecode=BT507_BT507_7_2_1,Length=0.000501000,Units=km
new line.1008936 bus1=BBT1040933.1.2.0,bus2=BBT1040940.1.2.0,Phases=2,Linecode=BT512_BT512_7_2_1,Length=0.000501000,Units=km
new line.1009125 bus1=BBT1041115.1.2.0,bus2=BBT1041122.1.2.0,Phases=2,Linecode=BT512_BT512_7_2_1,Length=0.000501000,Units=km
new line.10091255 bus1=BBT147669988.1.2.0,bus2=BBT147669995.1.2.0,Phases=2,Linecode=BT521_BT521_7_2_1,Length=0.000538000,Units=km
new line.10092144 bus1=BBT147687936.1.2.0,bus2=BBT147687943.1.2.0,Phases=2,Linecode=BT521_BT521_7_2_1,Length=0.000501000,Units=km
new line.1009419 bus1=BBT1041570.1.2.0,bus2=BBT1041577.1.2.0,Phases=2,Linecode=BT512_BT512_7_2_1,Length=0.000501000,Units=km
new line.10096288 bus1=BBT147775387.1.2.0,bus2=BBT147775394.1.2.0,Phases=2,Linecode=BT521_BT521_7_2_1,Length=0.000501000,Units=km
new line.1009636 bus1=BBT1041829.1.2.3.0,bus2=BBT1041906.1.2.3.0,Phases=3,Linecode=BT803_BT803_4_3_4,Length=0.033739000,Units=km
new line.1009643 bus1=BBT1041836.1.2.3.0,bus2=BBT1041829.1.2.3.0,Phases=3,Linecode=BT803_BT803_4_3_4,Length=0.031403000,Units=km
new line.1009650 bus1=BBT1041843.1.2.3.0,bus2=BBT1041836.1.2.3.0,Phases=3,Linecode=BT803_BT803_4_3_4,Length=0.022474000,Units=km
new line.1009657 bus1=BBT1041850.1.2.3.0,bus2=BBT1041843.1.2.3.0,Phases=3,Linecode=BT803_BT803_4_3_4,Length=0.033544000,Units=km
new line.10096610 bus1=BBT147783668.1.2.0,bus2=BBT147783675.1.2.0,Phases=2,Linecode=BT521_BT521_7_2_1,Length=0.000518000,Units=km
new line.10096638 bus1=BBT653805.1.2.3.0,bus2=BBT147785495.1.2.3.0,Phases=3,Linecode=BT805_BT805_4_3_4,Length=0.023005000,Units=km
new line.1009664 bus1=BBT1041857.1.2.3.0,bus2=BBT1041850.1.2.3.0,Phases=3,Linecode=BT805_BT805_4_3_4,Length=0.037525000,Units=km
new line.10096652 bus1=BBT1011820.1.2.3.0,bus2=BBT147786286.1.2.3.0,Phases=3,Linecode=BT805_BT805_4_3_4,Length=0.018115000,Units=km
new line.1009671 bus1=BBT1041871.1.2.3.0,bus2=BBT1041864.1.2.3.0,Phases=3,Linecode=BT809_BT809_4_3_4,Length=0.026223000,Units=km
new line.1009678 bus1=BBT1041871.1.2.3.0,bus2=BBT1041878.1.2.3.0,Phases=3,Linecode=BT805_BT805_4_3_4,Length=0.035762000,Units=km
new line.1009685 bus1=BBT1041878.1.2.3.0,bus2=BBT1041885.1.2.3.0,Phases=3,Linecode=BT803_BT803_4_3_4,Length=0.035016000,Units=km
new line.1002482 bus1=BBT1033387.1.2.3.0,bus2=BBT1033394.1.2.3.0,Phases=3,Linecode=BT108_BT108_7_3_1,Length=0.034139000,Units=km
new line.1002489 bus1=BBT1033394.1.2.3.0,bus2=BBT1033401.1.2.3.0,Phases=3,Linecode=BT108_BT108_7_3_1,Length=0.033845000,Units=km
new line.10024937 bus1=BBT145797376.1.2.0,bus2=BBT2051733.1.2.0,Phases=2,Linecode=BT513_BT513_7_2_1,Length=0.000501000,Units=km
new line.1002496 bus1=BBT1033401.1.2.3.0,bus2=BBT1033408.1.2.3.0,Phases=3,Linecode=BT108_BT108_7_3_1,Length=0.034993000,Units=km
new line.1002503 bus1=BBT1033415.1.2.3.0,bus2=BBT1033422.1.2.3.0,Phases=3,Linecode=BT108_BT108_7_3_1,Length=0.036627000,Units=km
new line.1002510 bus1=BBT1033422.1.2.3.0,bus2=BBT1033429.1.2.3.0,Phases=3,Linecode=BT108_BT108_7_3_1,Length=0.034416000,Units=km
new line.1002517 bus1=BBT1033429.1.2.3.0,bus2=BBT1033436.1.2.3.0,Phases=3,Linecode=BT108_BT108_7_3_1,Length=0.035235000,Units=km
new line.1002524 bus1=BBT1033436.1.2.3.0,bus2=BBT1033443.1.2.3.0,Phases=3,Linecode=BT107_BT107_7_3_1,Length=0.038283000,Units=km
new line.1002594 bus1=BBT1033527.1.2.0,bus2=BBT1033534.1.2.0,Phases=2,Linecode=BT508_BT508_7_2_1,Length=0.000501000,Units=km
new line.1002601 bus1=BBT1033541.1.2.0,bus2=BBT1033548.1.2.0,Phases=2,Linecode=BT508_BT508_7_2_1,Length=0.000501000,Units=km
new line.1002678 bus1=BBT1033632.1.2.0,bus2=BBT1033639.1.2.0,Phases=2,Linecode=BT508_BT508_7_2_1,Length=0.000507000,Units=km
new line.1002776 bus1=BBT1033786.1.2.3.0,bus2=BBT1033793.1.2.3.0,Phases=3,Linecode=BT508_BT508_7_3_1,Length=0.000505000,Units=km
new line.1002783 bus1=BBT1033793.1.2.3.0,bus2=BBT1033800.1.2.3.0,Phases=3,Linecode=BT805_BT803_4_3_4,Length=0.035163000,Units=km
new line.1002790 bus1=BBT1033793.1.2.3.0,bus2=BBT1033807.1.2.3.0,Phases=3,Linecode=BT805_BT805_4_3_4,Length=0.037689000,Units=km
new line.1002797 bus1=BBT1033800.1.2.3.0,bus2=BBT639434.1.2.3.0,Phases=3,Linecode=BT805_BT805_4_3_4,Length=0.053142000,Units=km
new line.1002804 bus1=BBT1033800.1.2.3.0,bus2=BBT1033821.1.2.3.0,Phases=3,Linecode=BT803_BT803_4_3_4,Length=0.040735000,Units=km
new line.1002811 bus1=BBT1033807.1.2.3.0,bus2=BBT1033814.1.2.3.0,Phases=3,Linecode=BT805_BT805_4_3_4,Length=0.030000000,Units=km
new line.1002818 bus1=BBT1033814.1.2.3.0,bus2=BBT1033842.1.2.3.0,Phases=3,Linecode=BT803_BT803_4_3_4,Length=0.015199000,Units=km
new line.1002825 bus1=BBT1033821.1.2.3.0,bus2=BBT1033828.1.2.3.0,Phases=3,Linecode=BT803_BT803_4_3_4,Length=0.036029000,Units=km
new line.1002832 bus1=BBT1033828.1.2.3.0,bus2=BBT1033835.1.2.3.0,Phases=3,Linecode=BT803_BT803_4_3_4,Length=0.036261000,Units=km
new line.1002839 bus1=BBT1033835.1.3.0,bus2=BBT3206341.1.3.0,Phases=2,Linecode=BT808_BT808_4_2_3,Length=0.023799000,Units=km
new line.1002846 bus1=BBT1033842.1.2.3.0,bus2=BBT1033849.1.2.3.0,Phases=3,Linecode=BT803_BT803_4_3_4,Length=0.033264000,Units=km
new line.1002853 bus1=BBT1033849.1.2.3.0,bus2=BBT1033856.1.2.3.0,Phases=3,Linecode=BT803_BT803_4_3_4,Length=0.024564000,Units=km
new line.1002860 bus1=BBT1033856.1.2.3.0,bus2=BBT2373803.1.2.3.0,Phases=3,Linecode=BT810_BT810_4_3_4,Length=0.029021000,Units=km
new line.1015859 bus1=BBT1049207.1.2.0,bus2=BBT1049214.1.2.0,Phases=2,Linecode=BT307_BT307_7_2_1,Length=0.000501000,Units=km
new line.1015866 bus1=BBT1049214.1.2.0,bus2=BBT1049221.1.2.0,Phases=2,Linecode=BT106_BT106_7_2_1,Length=0.021845000,Units=km
new line.1015873 bus1=BBT1049228.1.2.0,bus2=BBT1049235.1.2.0,Phases=2,Linecode=BT307_BT307_7_2_1,Length=0.000527000,Units=km
new line.1015880 bus1=BBT1049242.1.2.3.0,bus2=BBT1049249.1.2.3.0,Phases=3,Linecode=BT307_BT307_7_3_1,Length=0.000501000,Units=km
new line.1015887 bus1=BBT1049249.1.2.3.0,bus2=BBT1049256.1.2.3.0,Phases=3,Linecode=BT108_BT107_7_3_1,Length=0.041192000,Units=km
new line.1015894 bus1=BBT1049249.1.2.3.0,bus2=BBT1049277.1.2.3.0,Phases=3,Linecode=BT108_BT107_7_3_1,Length=0.037009000,Units=km
new line.1015901 bus1=BBT1049256.1.2.3.0,bus2=BBT1049263.1.2.3.0,Phases=3,Linecode=BT108_BT107_7_3_1,Length=0.036022000,Units=km
new line.1015908 bus1=BBT1049263.1.2.3.0,bus2=BBT1049270.1.2.3.0,Phases=3,Linecode=BT108_BT107_7_3_1,Length=0.041156000,Units=km
new line.1015915 bus1=BBT1049277.1.2.3.0,bus2=BBT1049284.1.2.3.0,Phases=3,Linecode=BT108_BT107_7_3_1,Length=0.033144000,Units=km
new line.1015922 bus1=BBT1049284.1.2.3.0,bus2=BBT1049291.1.2.3.0,Phases=3,Linecode=BT803_BT803_4_3_4,Length=0.036022000,Units=km
new line.1015929 bus1=BBT1049291.1.2.3.0,bus2=BBT1049298.1.2.3.0,Phases=3,Linecode=BT803_BT803_4_3_4,Length=0.035364000,Units=km
new line.1015936 bus1=BBT1049298.1.2.3.0,bus2=BBT1049305.1.2.3.0,Phases=3,Linecode=BT803_BT803_4_3_4,Length=0.036696000,Units=km
new line.1015943 bus1=BBT1049312.1.2.3.0,bus2=BBT149479095.1.2.3.0,Phases=3,Linecode=BT803_BT803_4_3_4,Length=0.046108000,Units=km
new line.1015950 bus1=BBT1049319.1.2.3.0,bus2=BBT1049312.1.2.3.0,Phases=3,Linecode=BT803_BT803_4_3_4,Length=0.044787000,Units=km
new line.1015957 bus1=BBT1049326.1.2.3.0,bus2=BBT1049319.1.2.3.0,Phases=3,Linecode=BT803_BT803_4_3_4,Length=0.044293000,Units=km
new line.1016090 bus1=BBT1049445.1.2.3.0,bus2=BBT1049452.1.2.3.0,Phases=3,Linecode=BT307_BT307_7_3_1,Length=0.000509000,Units=km
new line.1016097 bus1=BBT1049452.1.2.3.0,bus2=BBT1049459.1.2.3.0,Phases=3,Linecode=BT108_BT107_7_3_1,Length=0.036579000,Units=km
new line.1016104 bus1=BBT1049452.1.2.3.0,bus2=BBT1049494.1.2.3.0,Phases=3,Linecode=BT108_BT107_7_3_1,Length=0.039373000,Units=km
new line.1016111 bus1=BBT1049459.1.2.3.0,bus2=BBT1049466.1.2.3.0,Phases=3,Linecode=BT108_BT107_7_3_1,Length=0.032244000,Units=km
new line.1016118 bus1=BBT1049466.1.2.3.0,bus2=BBT1049473.1.2.3.0,Phases=3,Linecode=BT107_BT107_7_3_1,Length=0.034183000,Units=km
new line.1016132 bus1=BBT1049473.1.2.3.0,bus2=BBT1049480.1.2.3.0,Phases=3,Linecode=BT107_BT107_7_3_1,Length=0.034267000,Units=km
new line.1016139 bus1=BBT1049480.1.2.3.0,bus2=BBT1049487.1.2.3.0,Phases=3,Linecode=BT107_BT107_7_3_1,Length=0.035670000,Units=km
new line.1016146 bus1=BBT1049487.1.2.3.0,bus2=BBT1049529.1.2.3.0,Phases=3,Linecode=BT107_BT107_7_3_1,Length=0.035670000,Units=km
new line.1016153 bus1=BBT1049494.1.2.3.0,bus2=BBT1049501.1.2.3.0,Phases=3,Linecode=BT108_BT107_7_3_1,Length=0.028324000,Units=km
new line.1016160 bus1=BBT1049501.1.2.3.0,bus2=BBT1049508.1.2.3.0,Phases=3,Linecode=BT107_BT107_7_3_1,Length=0.038016000,Units=km
new line.1016167 bus1=BBT1049508.1.2.3.0,bus2=BBT1049515.1.2.3.0,Phases=3,Linecode=BT107_BT107_7_3_1,Length=0.040303000,Units=km
new line.1016174 bus1=BBT1049515.1.2.3.0,bus2=BBT1049522.1.2.3.0,Phases=3,Linecode=BT107_BT107_7_3_1,Length=0.027719000,Units=km
new line.1016181 bus1=BBT1049529.1.2.3.0,bus2=BBT1049536.1.2.3.0,Phases=3,Linecode=BT107_BT107_7_3_1,Length=0.034109000,Units=km
new line.1016188 bus1=BBT1049543.1.2.3.0,bus2=BBT1049550.1.2.3.0,Phases=3,Linecode=BT513_BT513_7_3_1,Length=0.000501000,Units=km
new line.1016195 bus1=BBT1049550.1.2.3.0,bus2=BBT1049557.1.2.3.0,Phases=3,Linecode=BT108_BT107_7_3_1,Length=0.032800000,Units=km
new line.1016202 bus1=BBT1049550.1.2.3.0,bus2=BBT1049592.1.2.3.0,Phases=3,Linecode=BT108_BT107_7_3_1,Length=0.034960000,Units=km
new line.1016209 bus1=BBT1049557.1.2.3.0,bus2=BBT1049613.1.2.3.0,Phases=3,Linecode=BT107_BT107_7_3_1,Length=0.032013000,Units=km
new line.1016216 bus1=BBT1049557.1.2.3.0,bus2=BBT1049564.1.2.3.0,Phases=3,Linecode=BT810_BT810_4_3_4,Length=0.034333000,Units=km
new line.1016223 bus1=BBT1049564.1.2.3.0,bus2=BBT1049571.1.2.3.0,Phases=3,Linecode=BT810_BT810_4_3_4,Length=0.028427000,Units=km
new line.1004701 bus1=BBT1035795.1.2.3.0,bus2=BBT1035809.1.2.3.0,Phases=3,Linecode=BT803_BT803_4_3_4,Length=0.027635000,Units=km
new line.1004750 bus1=BBT1035865.1.2.0,bus2=BBT1035872.1.2.0,Phases=2,Linecode=BT309_BT309_7_2_1,Length=0.000501000,Units=km
new line.1004757 bus1=BBT1035872.1.2.0,bus2=BBT1035879.1.2.0,Phases=2,Linecode=BT108_BT107_7_2_1,Length=0.035363000,Units=km