new load.3009019159M1 bus1=BMT168400989.1.2.3.0,Phases=3,kv=13.8,kW=98.15116,pf=0.92,Vminpu=0.93,Vmaxpu=1.5,model=8,zipv=[0.5,0,0.5,1,0,0,0],daily=A4-5,status=variable
new load.3009020092M1 bus1=BMT169508465.1.2.3.0,Phases=3,kv=13.8,kW=54.8255,pf=0.92,Vminpu=0.93,Vmaxpu=1.5,model=8,zipv=[0.5,0,0.5,1,0,0,0],daily=A4-2,status=variable
new load.3009020570M1 bus1=BMT168401162.1.2.3.0,Phases=3,kv=13.8,kW=27.34576,pf=0.92,Vminpu=0.93,Vmaxpu=1.5,model=8,zipv=[0.5,0,0.5,1,0,0,0],daily=A4-3,status=variable
new load.3009021536M1 bus1=BMT168401055.1.2.3.0,Phases=3,kv=13.8,kW=7.65672,pf=0.92,Vminpu=0.93,Vmaxpu=1.5,model=8,zipv=[0.5,0,0.5,1,0,0,0],daily=A4-1,status=variable
new load.3010197813M1 bus1=BMT168401030.1.2.3.0,Phases=3,kv=13.8,kW=142.57628,pf=0.92,Vminpu=0.93,Vmaxpu=1.5,model=8,zipv=[0.5,0,0.5,1,0,0,0],daily=A4-3,status=variable
new load.3010490913M1 bus1=BMT168401202.1.2.3.0,Phases=3,kv=13.8,kW=11.5178,pf=0.92,Vminpu=0.93,Vmaxpu=1.5,model=8,zipv=[0.5,0,0.5,1,0,0,0],daily=A4-1,status=variable
new load.3010537946M1 bus1=BMT168401204.1.2.3.0,Phases=3,kv=13.8,kW=50.8407,pf=0.92,Vminpu=0.93,Vmaxpu=1.5,model=8,zipv=[0.5,0,0.5,1,0,0,0],daily=A4-3,status=variable
new load.3011086227M1 bus1=BMT168401115.1.2.3.0,Phases=3,kv=13.8,kW=115.31652,pf=0.92,Vminpu=0.93,Vmaxpu=1.5,model=8,zipv=[0.5,0,0.5,1,0,0,0],daily=A4-3,status=variable
new load.3012783404M1 bus1=BMT168400700.1.2.3.0,Phases=3,kv=13.8,kW=101.66846,pf=0.92,Vminpu=0.93,Vmaxpu=1.5,model=8,zipv=[0.5,0,0.5,1,0,0,0],daily=A4-4,status=variable
new load.3013263296M1 bus1=BMT168401064.1.2.3.0,Phases=3,kv=13.8,kW=26.89668,pf=0.92,Vminpu=0.93,Vmaxpu=1.5,model=8,zipv=[0.5,0,0.5,1,0,0,0],daily=A4-1,status=variable
