new line.10147159 bus1=BBT2945993.1.2.3.0,bus2=BBT2946007.1.2.3.0,Phases=3,Linecode=BT803_BT803_4_3_4,Length=0.035351000,Units=km
new line.10147201 bus1=BBT2946007.1.2.3.0,bus2=BBT2946021.1.2.3.0,Phases=3,Linecode=BT803_BT803_4_3_4,Length=0.029975000,Units=km
new line.10147208 bus1=BBT2946007.1.2.3.0,bus2=BBT2946035.1.2.3.0,Phases=3,Linecode=BT803_BT803_4_3_4,Length=0.036259000,Units=km
new line.10147278 bus1=BBT2946021.1.2.3.0,bus2=BBT2941212.1.2.3.0,Phases=3,Linecode=BT803_BT803_4_3_4,Length=0.019703000,Units=km
new line.10147509 bus1=BBT2946035.1.2.3.0,bus2=BBT2951299.1.2.3.0,Phases=3,Linecode=BT803_BT803_4_3_4,Length=0.036259000,Units=km
new line.10149035 bus1=BBT2946721.1.2.3.0,bus2=BBT2946742.1.2.3.0,Phases=3,Linecode=BT805_BT805_4_3_4,Length=0.037587000,Units=km
new line.10149077 bus1=BBT2946728.1.2.3.0,bus2=BBT2946735.1.2.3.0,Phases=3,Linecode=BT805_BT805_4_3_4,Length=0.032704000,Units=km
new line.10149119 bus1=BBT2946833.1.2.3.0,bus2=BBT2946840.1.2.3.0,Phases=3,Linecode=BT803_BT803_4_3_4,Length=0.026026000,Units=km
new line.10149140 bus1=BBT2946819.1.2.3.0,bus2=BBT2946833.1.2.3.0,Phases=3,Linecode=BT803_BT803_4_3_4,Length=0.012004000,Units=km
new line.10149147 bus1=BBT2946819.1.2.3.0,bus2=BBT3021733.1.2.3.0,Phases=3,Linecode=BT803_BT803_4_3_4,Length=0.010003000,Units=km
new line.10149196 bus1=BBT2946805.1.2.3.0,bus2=BBT2946819.1.2.3.0,Phases=3,Linecode=BT803_BT803_4_3_4,Length=0.014146000,Units=km
new line.10149224 bus1=BBT2946798.1.2.3.0,bus2=BBT2946805.1.2.3.0,Phases=3,Linecode=BT803_BT803_4_3_4,Length=0.020621000,Units=km
new line.10151905 bus1=BBT2948324.1.2.3.0,bus2=BBT2948331.1.2.3.0,Phases=3,Linecode=BT805_BT805_4_3_4,Length=0.031631000,Units=km
new line.10151912 bus1=BBT2948324.1.2.3.0,bus2=BBT2948457.1.2.3.0,Phases=3,Linecode=BT803_BT803_4_3_4,Length=0.030684000,Units=km
new line.10151961 bus1=BBT2948345.1.2.3.0,bus2=BBT61713542.1.2.3.0,Phases=3,Linecode=BT803_BT803_4_3_4,Length=0.007073000,Units=km
new line.10151968 bus1=BBT61713542.1.2.3.0,bus2=BBT2948352.1.2.3.0,Phases=3,Linecode=BT803_BT803_4_3_4,Length=0.025087000,Units=km
new line.10152003 bus1=BBT2948366.1.2.3.0,bus2=BBT2948359.1.2.3.0,Phases=3,Linecode=BT803_BT803_4_3_4,Length=0.029740000,Units=km
new line.10152024 bus1=BBT2948366.1.2.3.0,bus2=BBT2948373.1.2.3.0,Phases=3,Linecode=BT803_BT803_4_3_4,Length=0.034795000,Units=km
new line.10152052 bus1=BBT2948373.1.2.3.0,bus2=BBT2948380.1.2.3.0,Phases=3,Linecode=BT803_BT803_4_3_4,Length=0.035138000,Units=km
new line.10152080 bus1=BBT2948380.1.2.3.0,bus2=BBT2948387.1.2.3.0,Phases=3,Linecode=BT803_BT803_4_3_4,Length=0.033550000,Units=km
new line.10152157 bus1=BBT2975827.1.2.3.0,bus2=BBT2975834.1.2.3.0,Phases=3,Linecode=BT803_BT803_4_3_4,Length=0.028468000,Units=km
new line.10152164 bus1=BBT2975827.1.2.3.0,bus2=BBT2975841.1.2.3.0,Phases=3,Linecode=BT803_BT803_4_3_4,Length=0.024090000,Units=km
new line.10158142 bus1=BBT2949241.1.2.3.0,bus2=BBT2949248.1.2.3.0,Phases=3,Linecode=BT805_BT805_4_3_4,Length=0.033847000,Units=km
new line.10158170 bus1=BBT2949234.1.2.3.0,bus2=BBT2949241.1.2.3.0,Phases=3,Linecode=BT805_BT805_4_3_4,Length=0.034795000,Units=km
new line.10158212 bus1=BBT2949199.1.2.3.0,bus2=BBT2949220.1.2.3.0,Phases=3,Linecode=BT803_BT803_4_3_4,Length=0.036410000,Units=km
new line.10159906 bus1=BBT2949871.1.2.3.0,bus2=BBT2949878.1.2.3.0,Phases=3,Linecode=BT108_BT107_7_3_1,Length=0.031250000,Units=km
new line.10159934 bus1=BBT2949934.1.2.3.0,bus2=BBT2949941.1.2.3.0,Phases=3,Linecode=BT107_BT107_7_3_1,Length=0.031025000,Units=km
new line.10159962 bus1=BBT2949920.1.2.3.0,bus2=BBT2949934.1.2.3.0,Phases=3,Linecode=BT107_BT107_7_3_1,Length=0.028468000,Units=km
new line.10160004 bus1=BBT2949892.1.2.3.0,bus2=BBT2949899.1.2.3.0,Phases=3,Linecode=BT107_BT107_7_3_1,Length=0.031393000,Units=km
new line.10160025 bus1=BBT2949899.1.2.3.0,bus2=BBT2949906.1.2.3.0,Phases=3,Linecode=BT107_BT107_7_3_1,Length=0.029555000,Units=km
new line.10160046 bus1=BBT2949906.1.2.3.0,bus2=BBT2949913.1.2.3.0,Phases=3,Linecode=BT107_BT107_7_3_1,Length=0.030158000,Units=km
new line.10160417 bus1=BBT2949857.1.2.3.0,bus2=BBT2949864.1.2.3.0,Phases=3,Linecode=BT108_BT107_7_3_1,Length=0.038338000,Units=km
new line.10160438 bus1=BBT2949864.1.2.3.0,bus2=BBT2949997.1.2.3.0,Phases=3,Linecode=BT803_BT803_4_3_4,Length=0.039470000,Units=km
new line.10160522 bus1=BBT2949997.1.2.3.0,bus2=BBT2950011.1.2.3.0,Phases=3,Linecode=BT803_BT803_4_3_4,Length=0.035237000,Units=km
new line.10160557 bus1=BBT2950011.1.2.3.0,bus2=BBT3010813.1.2.3.0,Phases=3,Linecode=BT803_BT803_4_3_4,Length=0.036902000,Units=km
new line.10160767 bus1=BBT2949885.1.2.3.0,bus2=BBT2949920.1.2.3.0,Phases=3,Linecode=BT108_BT107_7_3_1,Length=0.007213000,Units=km
new line.10160774 bus1=BBT2949885.1.2.3.0,bus2=BBT2949927.1.2.3.0,Phases=3,Linecode=BT108_BT107_7_3_1,Length=0.028870000,Units=km
new line.10160781 bus1=BBT2949885.1.2.3.0,bus2=BBT2949892.1.2.3.0,Phases=3,Linecode=BT108_BT107_7_3_1,Length=0.020524000,Units=km
new line.10161530 bus1=BBT2950137.1.2.3.0,bus2=BBT2950144.1.2.3.0,Phases=3,Linecode=BT111_BT108_7_3_1,Length=0.036410000,Units=km
new line.10161558 bus1=BBT2950151.1.2.3.0,bus2=BBT2950158.1.2.3.0,Phases=3,Linecode=BT111_BT108_7_3_1,Length=0.034795000,Units=km
new line.10161607 bus1=BBT2950186.1.2.3.0,bus2=BBT2950193.1.2.3.0,Phases=3,Linecode=BT107_BT107_7_3_1,Length=0.029740000,Units=km
new line.10162083 bus1=BBT2950256.1.2.3.0,bus2=BBT2950263.1.2.3.0,Phases=3,Linecode=BT805_BT805_4_3_4,Length=0.036065000,Units=km
new line.10162104 bus1=BBT2950263.1.2.3.0,bus2=BBT2950270.1.2.3.0,Phases=3,Linecode=BT805_BT805_4_3_4,Length=0.033847000,Units=km
new line.10162153 bus1=BBT2950270.1.2.3.0,bus2=BBT2950277.1.2.3.0,Phases=3,Linecode=BT810_BT810_4_3_4,Length=0.032582000,Units=km
new line.10162181 bus1=BBT2950438.1.2.3.0,bus2=BBT2950452.1.2.3.0,Phases=3,Linecode=BT810_BT810_4_3_4,Length=0.024766000,Units=km
new line.10162209 bus1=BBT2950452.1.2.3.0,bus2=BBT2950466.1.2.3.0,Phases=3,Linecode=BT810_BT810_4_3_4,Length=0.026256000,Units=km
new line.10162230 bus1=BBT2950487.1.2.3.0,bus2=BBT2950501.1.2.3.0,Phases=3,Linecode=BT810_BT810_4_3_4,Length=0.040372000,Units=km
new line.10162258 bus1=BBT2950501.1.2.3.0,bus2=BBT2950515.1.2.3.0,Phases=3,Linecode=BT810_BT810_4_3_4,Length=0.038908000,Units=km
new line.10162265 bus1=BBT2950501.1.2.3.0,bus2=BBT3010778.1.2.3.0,Phases=3,Linecode=BT810_BT810_4_3_4,Length=0.036888000,Units=km
new line.10162272 bus1=BBT2950501.1.2.3.0,bus2=BBT12043012.1.2.3.0,Phases=3,Linecode=BT810_BT810_4_3_4,Length=0.037706000,Units=km
new line.10165597 bus1=BBT2951663.1.2.3.0,bus2=BBT2951670.1.2.3.0,Phases=3,Linecode=BT803_BT803_4_3_4,Length=0.035351000,Units=km
new line.10165625 bus1=BBT2951670.1.2.3.0,bus2=BBT2951677.1.2.3.0,Phases=3,Linecode=BT803_BT803_4_3_4,Length=0.045630000,Units=km
new line.10165653 bus1=BBT2951957.1.2.3.0,bus2=BBT2951964.1.2.3.0,Phases=3,Linecode=BT803_BT803_4_3_4,Length=0.034795000,Units=km
new line.10165681 bus1=BBT2951964.1.2.3.0,bus2=BBT2951971.1.2.3.0,Phases=3,Linecode=BT803_BT803_4_3_4,Length=0.035450000,Units=km
new line.10166108 bus1=BBT2951999.1.2.3.0,bus2=BBT2952006.1.2.3.0,Phases=3,Linecode=BT108_BT107_7_3_1,Length=0.029163000,Units=km
new line.10166150 bus1=BBT2952006.1.2.3.0,bus2=BBT2952013.1.2.3.0,Phases=3,Linecode=BT107_BT107_7_3_1,Length=0.031584000,Units=km
new line.10166157 bus1=BBT2952006.1.2.3.0,bus2=BBT2952027.1.2.3.0,Phases=3,Linecode=BT107_BT107_7_3_1,Length=0.037494000,Units=km
new line.10166185 bus1=BBT2952013.1.2.0,bus2=BBT2952020.1.2.0,Phases=2,Linecode=BT107_BT107_7_2_1,Length=0.029283000,Units=km
new line.10002539 bus1=BBT3016406.1.2.3.0,bus2=BBT3016413.1.2.3.0,Phases=3,Linecode=BT805_BT805_4_3_4,Length=0.025814000,Units=km
new line.10002560 bus1=BBT3016413.1.2.3.0,bus2=BBT3016427.1.2.3.0,Phases=3,Linecode=BT803_BT803_4_3_4,Length=0.030241000,Units=km
new line.10180108 bus1=BBT2959132.1.2.3.0,bus2=BBT2956094.1.2.3.0,Phases=3,Linecode=BT803_BT803_4_3_4,Length=0.027081000,Units=km
new line.10180136 bus1=BBT2956094.1.2.3.0,bus2=BBT2956101.1.2.3.0,Phases=3,Linecode=BT803_BT803_4_3_4,Length=0.030158000,Units=km
new line.10180192 bus1=BBT2956157.1.2.3.0,bus2=BBT2956164.1.2.3.0,Phases=3,Linecode=BT107_BT107_7_3_1,Length=0.031899000,Units=km
new line.10180227 bus1=BBT2956164.1.2.3.0,bus2=BBT2956171.1.2.3.0,Phases=3,Linecode=BT107_BT107_7_3_1,Length=0.027594000,Units=km
new line.10180248 bus1=BBT2956115.1.2.3.0,bus2=BBT2400287.1.2.3.0,Phases=3,Linecode=BT803_BT803_4_3_4,Length=0.033965000,Units=km
new line.10180255 bus1=BBT2956115.1.2.3.0,bus2=BBT2956108.1.2.3.0,Phases=3,Linecode=BT803_BT803_4_3_4,Length=0.033965000,Units=km
new line.10180262 bus1=BBT2400280.1.2.3.0,bus2=BBT2956115.1.2.3.0,Phases=3,Linecode=BT518_BT518_7_3_1,Length=0.000501000,Units=km
new line.10180290 bus1=BBT2956171.1.2.0,bus2=BBT2956178.1.2.0,Phases=2,Linecode=BT107_BT107_7_2_1,Length=0.027666000,Units=km
new line.10180367 bus1=BBT2956213.1.2.3.0,bus2=BBT2956241.1.2.3.0,Phases=3,Linecode=BT810_BT810_4_3_4,Length=0.034009000,Units=km
new line.10180458 bus1=BBT2958677.1.2.3.0,bus2=BBT2958684.1.2.3.0,Phases=3,Linecode=BT107_BT107_7_3_1,Length=0.037172000,Units=km
new line.10180703 bus1=BBT2956934.1.2.3.0,bus2=BBT2956941.1.2.3.0,Phases=3,Linecode=BT803_BT803_4_3_4,Length=0.030422000,Units=km
new line.10180724 bus1=BBT2956941.1.2.3.0,bus2=BBT2956948.1.2.3.0,Phases=3,Linecode=BT803_BT803_4_3_4,Length=0.029283000,Units=km
new line.10180948 bus1=BBT2956416.1.2.3.0,bus2=BBT2956423.1.2.3.0,Phases=3,Linecode=BT108_BT107_7_3_1,Length=0.038843000,Units=km
new line.10181039 bus1=BBT2956437.1.2.3.0,bus2=BBT2956451.1.2.3.0,Phases=3,Linecode=BT108_BT107_7_3_1,Length=0.037667000,Units=km
new line.10181298 bus1=BBT3172450.1.2.3.0,bus2=BBT3172464.1.2.3.0,Phases=3,Linecode=BT803_BT803_4_3_4,Length=0.012732000,Units=km
new line.10181347 bus1=BBT3171855.1.2.3.0,bus2=BBT3171862.1.2.3.0,Phases=3,Linecode=BT803_BT803_4_3_4,Length=0.027793000,Units=km
new line.10181676 bus1=BBT2956724.1.2.3.0,bus2=BBT2956731.1.2.3.0,Phases=3,Linecode=BT108_BT107_7_3_1,Length=0.037812000,Units=km
new line.10181725 bus1=BBT2956731.1.2.3.0,bus2=BBT2956738.1.2.3.0,Phases=3,Linecode=BT108_BT107_7_3_1,Length=0.039823000,Units=km
new line.10181753 bus1=BBT2956738.1.2.3.0,bus2=BBT2956745.1.2.3.0,Phases=3,Linecode=BT107_BT107_7_3_1,Length=0.038844000,Units=km
new line.10181893 bus1=BBT2956759.1.2.3.0,bus2=BBT2956766.1.2.3.0,Phases=3,Linecode=BT803_BT803_4_3_4,Length=0.034938000,Units=km
new line.10182019 bus1=BBT2956780.1.2.3.0,bus2=BBT2956829.1.2.3.0,Phases=3,Linecode=BT805_BT805_4_3_4,Length=0.029555000,Units=km
new line.10182110 bus1=BBT2956829.1.2.3.0,bus2=BBT2956864.1.2.3.0,Phases=3,Linecode=BT803_BT803_4_3_4,Length=0.031393000,Units=km
new line.10182117 bus1=BBT2956829.1.2.3.0,bus2=BBT3017680.1.2.3.0,Phases=3,Linecode=BT803_BT803_4_3_4,Length=0.039406000,Units=km
new line.10182334 bus1=BBT2956962.1.2.3.0,bus2=BBT2956976.1.2.3.0,Phases=3,Linecode=BT803_BT803_4_3_4,Length=0.023713000,Units=km
new line.10182355 bus1=BBT2956976.1.2.3.0,bus2=BBT2956997.1.2.3.0,Phases=3,Linecode=BT803_BT803_4_3_4,Length=0.028800000,Units=km
new line.10182369 bus1=BBT2956997.1.2.3.0,bus2=BBT2957004.1.2.3.0,Phases=3,Linecode=BT803_BT803_4_3_4,Length=0.020886000,Units=km
new line.10182446 bus1=BBT2957060.1.2.3.0,bus2=BBT2957067.1.2.3.0,Phases=3,Linecode=BT803_BT803_4_3_4,Length=0.034491000,Units=km
new line.10182481 bus1=BBT2957067.1.2.3.0,bus2=BBT2957081.1.2.3.0,Phases=3,Linecode=BT803_BT803_4_3_4,Length=0.033535000,Units=km
new line.10182537 bus1=BBT2959790.1.2.0,bus2=BBT2959797.1.2.0,Phases=2,Linecode=BT107_BT107_7_2_1,Length=0.032024000,Units=km
new line.10183650 bus1=BBT2957424.1.2.3.0,bus2=BBT2957431.1.2.3.0,Phases=3,Linecode=BT107_BT107_7_3_1,Length=0.017894000,Units=km
new line.10183713 bus1=BBT2957417.1.2.3.0,bus2=BBT2957438.1.2.3.0,Phases=3,Linecode=BT107_BT107_7_3_1,Length=0.035745000,Units=km
new line.10183720 bus1=BBT2957417.1.2.3.0,bus2=BBT2957424.1.2.3.0,Phases=3,Linecode=BT107_BT107_7_3_1,Length=0.021961000,Units=km
new line.10183776 bus1=BBT2957410.1.2.3.0,bus2=BBT2957417.1.2.3.0,Phases=3,Linecode=BT107_BT107_7_3_1,Length=0.031250000,Units=km
new line.10183818 bus1=BBT2957403.1.2.3.0,bus2=BBT2957410.1.2.3.0,Phases=3,Linecode=BT108_BT107_7_3_1,Length=0.032659000,Units=km
new line.10183846 bus1=BBT2957445.1.2.3.0,bus2=BBT2957452.1.2.3.0,Phases=3,Linecode=BT107_BT107_7_3_1,Length=0.028661000,Units=km
new line.10183888 bus1=BBT2957459.1.2.3.0,bus2=BBT2957466.1.2.3.0,Phases=3,Linecode=BT107_BT107_7_3_1,Length=0.025087000,Units=km
new line.10183944 bus1=BBT2957452.1.2.3.0,bus2=BBT2957480.1.2.3.0,Phases=3,Linecode=BT107_BT107_7_3_1,Length=0.032024000,Units=km
new line.10183951 bus1=BBT2957452.1.2.3.0,bus2=BBT2957473.1.2.3.0,Phases=3,Linecode=BT107_BT107_7_3_1,Length=0.006327000,Units=km
new line.10183958 bus1=BBT2957452.1.2.3.0,bus2=BBT2957459.1.2.3.0,Phases=3,Linecode=BT107_BT107_7_3_1,Length=0.006405000,Units=km
new line.10184000 bus1=BBT2958180.1.2.3.0,bus2=BBT2958187.1.2.3.0,Phases=3,Linecode=BT107_BT107_7_3_1,Length=0.034244000,Units=km
new line.10184021 bus1=BBT2958166.1.2.3.0,bus2=BBT2958180.1.2.3.0,Phases=3,Linecode=BT107_BT107_7_3_1,Length=0.025007000,Units=km
new line.10184056 bus1=BBT2958159.1.2.3.0,bus2=BBT2958418.1.2.3.0,Phases=3,Linecode=BT107_BT107_7_3_1,Length=0.033145000,Units=km
new line.10184063 bus1=BBT2958159.1.2.3.0,bus2=BBT2958166.1.2.3.0,Phases=3,Linecode=BT803_BT803_4_3_4,Length=0.025717000,Units=km
new line.10184105 bus1=BBT2958194.1.2.3.0,bus2=BBT2958201.1.2.3.0,Phases=3,Linecode=BT803_BT803_4_3_4,Length=0.028643000,Units=km
new line.10184112 bus1=BBT2958194.1.2.3.0,bus2=BBT2958208.1.2.3.0,Phases=3,Linecode=BT107_BT107_7_3_1,Length=0.028292000,Units=km
new line.10184140 bus1=BBT2958229.1.2.3.0,bus2=BBT2958236.1.2.3.0,Phases=3,Linecode=BT803_BT803_4_3_4,Length=0.031025000,Units=km
new line.10188431 bus1=BBT2958642.1.2.3.0,bus2=BBT2958649.1.2.3.0,Phases=3,Linecode=BT107_BT107_7_3_1,Length=0.037600000,Units=km
new line.10188480 bus1=BBT2958656.1.2.3.0,bus2=BBT2958663.1.2.3.0,Phases=3,Linecode=BT108_BT107_7_3_1,Length=0.033431000,Units=km
new line.10188508 bus1=BBT2958663.1.2.3.0,bus2=BBT2958670.1.2.3.0,Phases=3,Linecode=BT108_BT107_7_3_1,Length=0.034838000,Units=km
new line.10188998 bus1=BBT92354915.1.2.3.0,bus2=BBT2958880.1.2.3.0,Phases=3,Linecode=BT107_BT107_7_3_1,Length=0.030422000,Units=km
new line.10189047 bus1=BBT2958880.1.2.3.0,bus2=BBT2958887.1.2.3.0,Phases=3,Linecode=BT107_BT107_7_3_1,Length=0.031789000,Units=km
new line.10189075 bus1=BBT2958887.1.2.3.0,bus2=BBT2958894.1.2.3.0,Phases=3,Linecode=BT107_BT107_7_3_1,Length=0.033386000,Units=km
new line.10189579 bus1=BBT2959083.1.2.3.0,bus2=BBT2959090.1.2.3.0,Phases=3,Linecode=BT803_BT803_4_3_4,Length=0.022567000,Units=km
new line.10189628 bus1=BBT2959041.1.2.3.0,bus2=BBT2959048.1.2.3.0,Phases=3,Linecode=BT803_BT803_4_3_4,Length=0.024745000,Units=km
new line.10189656 bus1=BBT2959048.1.2.3.0,bus2=BBT2959055.1.2.3.0,Phases=3,Linecode=BT803_BT803_4_3_4,Length=0.030814000,Units=km
new line.10189684 bus1=BBT2959055.1.2.3.0,bus2=BBT2959062.1.2.3.0,Phases=3,Linecode=BT803_BT803_4_3_4,Length=0.025969000,Units=km
new line.10213708 bus1=BBT2967938.1.2.3.0,bus2=BBT2968001.1.2.3.0,Phases=3,Linecode=BT803_BT803_4_3_4,Length=0.005833000,Units=km
new line.10213715 bus1=BBT2967938.1.2.3.0,bus2=BBT2967994.1.2.3.0,Phases=3,Linecode=BT803_BT803_4_3_4,Length=0.029841000,Units=km
new line.10213722 bus1=BBT2967938.1.2.3.0,bus2=BBT2967945.1.2.3.0,Phases=3,Linecode=BT805_BT805_4_3_4,Length=0.005833000,Units=km
new line.10213764 bus1=BBT2967945.1.2.3.0,bus2=BBT2968015.1.2.3.0,Phases=3,Linecode=BT107_BT107_7_3_1,Length=0.031915000,Units=km
new line.10213792 bus1=BBT2968015.1.2.3.0,bus2=BBT2968022.1.2.3.0,Phases=3,Linecode=BT107_BT107_7_3_1,Length=0.032766000,Units=km
new line.10213813 bus1=BBT2968022.1.2.3.0,bus2=BBT2968029.1.2.3.0,Phases=3,Linecode=BT107_BT107_7_3_1,Length=0.031314000,Units=km
new line.10213848 bus1=BBT2968029.1.2.3.0,bus2=BBT2968036.1.2.3.0,Phases=3,Linecode=BT107_BT107_7_3_1,Length=0.032704000,Units=km
new line.10213953 bus1=BBT2967959.1.2.3.0,bus2=BBT2967966.1.2.3.0,Phases=3,Linecode=BT107_BT107_7_3_1,Length=0.031250000,Units=km
new line.10213995 bus1=BBT2967973.1.2.3.0,bus2=BBT2967980.1.2.3.0,Phases=3,Linecode=BT107_BT107_7_3_1,Length=0.021219000,Units=km
new line.10215591 bus1=BBT2968582.1.2.3.0,bus2=BBT2968596.1.2.3.0,Phases=3,Linecode=BT805_BT805_4_3_4,Length=0.034214000,Units=km
new line.10215612 bus1=BBT2968596.1.2.3.0,bus2=BBT2968603.1.2.3.0,Phases=3,Linecode=BT803_BT803_4_3_4,Length=0.039835000,Units=km
new line.10215815 bus1=BBT2968589.1.2.3.0,bus2=BBT2968610.1.2.3.0,Phases=3,Linecode=BT803_BT803_4_3_4,Length=0.038299000,Units=km
new line.10215857 bus1=BBT2968610.1.2.3.0,bus2=BBT2968617.1.2.3.0,Phases=3,Linecode=BT803_BT803_4_3_4,Length=0.025620000,Units=km
new line.10215920 bus1=BBT2968617.1.2.3.0,bus2=BBT2968631.1.2.3.0,Phases=3,Linecode=BT803_BT803_4_3_4,Length=0.027594000,Units=km
new line.10215927 bus1=BBT2968617.1.2.3.0,bus2=BBT2968624.1.2.3.0,Phases=3,Linecode=BT803_BT803_4_3_4,Length=0.021407000,Units=km
new line.10215955 bus1=BBT2968631.1.2.3.0,bus2=BBT2968638.1.2.3.0,Phases=3,Linecode=BT803_BT803_4_3_4,Length=0.029841000,Units=km
new line.10216039 bus1=BBT2968729.1.2.3.0,bus2=BBT2968736.1.2.3.0,Phases=3,Linecode=BT803_BT803_4_3_4,Length=0.023437000,Units=km
new line.10216060 bus1=BBT2968715.1.2.3.0,bus2=BBT2968729.1.2.3.0,Phases=3,Linecode=BT805_BT805_4_3_4,Length=0.037653000,Units=km
new line.10218202 bus1=BBT2968743.1.2.3.0,bus2=BBT2968750.1.2.3.0,Phases=3,Linecode=BT803_BT803_4_3_4,Length=0.035478000,Units=km
new line.10219595 bus1=BBT107047964.1.2.3.0,bus2=BBT3454452.1.2.3.0,Phases=3,Linecode=BT810_BT810_4_3_4,Length=0.010003000,Units=km
new line.10219903 bus1=BBT3347527.1.2.3.0,bus2=BBT3347534.1.2.3.0,Phases=3,Linecode=BT810_BT810_4_3_4,Length=0.029025000,Units=km
new line.10219952 bus1=BBT3347520.1.2.3.0,bus2=BBT3347527.1.2.3.0,Phases=3,Linecode=BT810_BT810_4_3_4,Length=0.040036000,Units=km
new line.10219959 bus1=BBT3347520.1.2.3.0,bus2=BBT3347555.1.2.3.0,Phases=3,Linecode=BT810_BT810_4_3_4,Length=0.025027000,Units=km
new line.10221926 bus1=BBT2970101.1.2.3.0,bus2=BBT2970108.1.2.3.0,Phases=3,Linecode=BT107_BT107_7_3_1,Length=0.032658000,Units=km
new line.10221982 bus1=BBT2970080.1.2.3.0,bus2=BBT2970101.1.2.3.0,Phases=3,Linecode=BT803_BT803_4_3_4,Length=0.039215000,Units=km
new line.10222010 bus1=BBT2970073.1.2.3.0,bus2=BBT2970080.1.2.3.0,Phases=3,Linecode=BT803_BT803_4_3_4,Length=0.034068000,Units=km
new line.10222038 bus1=BBT2970066.1.2.3.0,bus2=BBT2970073.1.2.3.0,Phases=3,Linecode=BT805_BT805_4_3_4,Length=0.029214000,Units=km
new line.10222101 bus1=BBT2970136.1.2.3.0,bus2=BBT2970143.1.2.3.0,Phases=3,Linecode=BT805_BT805_4_3_4,Length=0.031409000,Units=km
new line.10222136 bus1=BBT2970143.1.2.3.0,bus2=BBT2970150.1.2.3.0,Phases=3,Linecode=BT805_BT805_4_3_4,Length=0.032658000,Units=km
new line.10222150 bus1=BBT2970150.1.2.3.0,bus2=BBT172539888.1.2.3.0,Phases=3,Linecode=BT805_BT805_4_3_4,Length=0.017697000,Units=km
new line.10223900 bus1=BBT2970402.1.2.3.0,bus2=BBT2970409.1.2.3.0,Phases=3,Linecode=BT107_BT107_7_3_1,Length=0.037023000,Units=km
new line.10223921 bus1=BBT2970395.1.2.3.0,bus2=BBT2970402.1.2.3.0,Phases=3,Linecode=BT107_BT107_7_3_1,Length=0.037023000,Units=km
new line.10223942 bus1=BBT2970416.1.2.0,bus2=BBT2970437.1.2.0,Phases=2,Linecode=BT107_BT107_7_2_1,Length=0.029841000,Units=km
new line.10223949 bus1=BBT2970416.1.2.3.0,bus2=BBT2970444.1.2.3.0,Phases=3,Linecode=BT107_BT107_7_3_1,Length=0.030619000,Units=km
new line.10224019 bus1=BBT2970444.1.2.3.0,bus2=BBT2970451.1.2.3.0,Phases=3,Linecode=BT107_BT107_7_3_1,Length=0.032024000,Units=km
new line.10224040 bus1=BBT2970451.1.2.3.0,bus2=BBT2970458.1.2.3.0,Phases=3,Linecode=BT107_BT107_7_3_1,Length=0.041242000,Units=km
new line.10224831 bus1=BBT2970822.1.2.3.0,bus2=BBT2970829.1.2.3.0,Phases=3,Linecode=BT803_BT803_4_3_4,Length=0.035010000,Units=km
new line.10225006 bus1=BBT2971018.1.2.3.0,bus2=BBT2971032.1.2.3.0,Phases=3,Linecode=BT803_BT803_4_3_4,Length=0.028186000,Units=km
new line.10225041 bus1=BBT2971032.1.2.3.0,bus2=BBT2971396.1.2.3.0,Phases=3,Linecode=BT803_BT803_4_3_4,Length=0.032659000,Units=km
new line.10225188 bus1=BBT2971207.1.2.3.0,bus2=BBT2971214.1.2.3.0,Phases=3,Linecode=BT805_BT805_4_3_4,Length=0.030619000,Units=km
new line.10225209 bus1=BBT2971214.1.2.3.0,bus2=BBT2971228.1.2.3.0,Phases=3,Linecode=BT803_BT803_4_3_4,Length=0.034068000,Units=km
new line.10225272 bus1=BBT2971228.1.2.3.0,bus2=BBT2971242.1.2.3.0,Phases=3,Linecode=BT803_BT803_4_3_4,Length=0.034722000,Units=km
new line.10225356 bus1=BBT2971256.1.2.3.0,bus2=BBT2971263.1.2.3.0,Phases=3,Linecode=BT805_BT805_4_3_4,Length=0.037653000,Units=km
new line.10225384 bus1=BBT2971263.1.2.3.0,bus2=BBT2971305.1.2.3.0,Phases=3,Linecode=BT803_BT803_4_3_4,Length=0.010003000,Units=km
new line.10225391 bus1=BBT2971263.1.2.3.0,bus2=BBT2971277.1.2.3.0,Phases=3,Linecode=BT805_BT805_4_3_4,Length=0.032024000,Units=km
new line.10225433 bus1=BBT2971095.1.2.3.0,bus2=BBT2971102.1.2.3.0,Phases=3,Linecode=BT803_BT803_4_3_4,Length=0.032766000,Units=km
new line.10225461 bus1=BBT2971305.1.2.3.0,bus2=BBT2971319.1.2.3.0,Phases=3,Linecode=BT803_BT803_4_3_4,Length=0.027666000,Units=km
new line.10225489 bus1=BBT2971319.1.2.3.0,bus2=BBT2971326.1.2.3.0,Phases=3,Linecode=BT803_BT803_4_3_4,Length=0.028433000,Units=km
new line.10225524 bus1=BBT2971102.1.2.3.0,bus2=BBT2971109.1.2.3.0,Phases=3,Linecode=BT803_BT803_4_3_4,Length=0.023028000,Units=km
new line.10225552 bus1=BBT2971326.1.2.3.0,bus2=BBT2974175.1.2.3.0,Phases=3,Linecode=BT803_BT803_4_3_4,Length=0.035619000,Units=km
new line.10225615 bus1=BBT2971508.1.2.3.0,bus2=BBT2971515.1.2.3.0,Phases=3,Linecode=BT513_BT513_7_3_1,Length=0.000501000,Units=km
new line.10225622 bus1=BBT2971515.1.2.3.0,bus2=BBT2971522.1.2.3.0,Phases=3,Linecode=BT805_BT805_4_3_4,Length=0.029841000,Units=km
new line.10225629 bus1=BBT2971515.1.2.3.0,bus2=BBT2971648.1.2.3.0,Phases=3,Linecode=BT805_BT805_4_3_4,Length=0.027810000,Units=km
new line.10225650 bus1=BBT2971522.1.2.3.0,bus2=BBT2971529.1.2.3.0,Phases=3,Linecode=BT803_BT803_4_3_4,Length=0.032811000,Units=km
new line.10225678 bus1=BBT2971529.1.2.3.0,bus2=BBT2971536.1.2.3.0,Phases=3,Linecode=BT803_BT803_4_3_4,Length=0.037653000,Units=km
new line.10225706 bus1=BBT2971536.1.2.3.0,bus2=BBT2971550.1.2.3.0,Phases=3,Linecode=BT803_BT803_4_3_4,Length=0.031836000,Units=km
new line.10225727 bus1=BBT2971550.1.2.3.0,bus2=BBT2971557.1.2.3.0,Phases=3,Linecode=BT803_BT803_4_3_4,Length=0.029841000,Units=km
new line.10225748 bus1=BBT2971557.1.2.3.0,bus2=BBT2971564.1.2.3.0,Phases=3,Linecode=BT803_BT803_4_3_4,Length=0.025502000,Units=km
new line.10166227 bus1=BBT2952027.1.2.3.0,bus2=BBT2952034.1.2.3.0,Phases=3,Linecode=BT107_BT107_7_3_1,Length=0.034938000,Units=km
new line.10166255 bus1=BBT2952034.1.2.3.0,bus2=BBT2952041.1.2.3.0,Phases=3,Linecode=BT107_BT107_7_3_1,Length=0.034665000,Units=km
new line.10166276 bus1=BBT2952041.1.2.3.0,bus2=BBT2952048.1.2.3.0,Phases=3,Linecode=BT107_BT107_7_3_1,Length=0.034009000,Units=km
new line.10166367 bus1=BBT2952055.1.2.3.0,bus2=BBT2952076.1.2.3.0,Phases=3,Linecode=BT005_BT005_7_3_1,Length=0.036506000,Units=km
new line.10166381 bus1=BBT2952076.1.2.3.0,bus2=BBT2952097.1.2.3.0,Phases=3,Linecode=BT005_BT005_7_3_1,Length=0.031584000,Units=km
new line.10166402 bus1=BBT2952097.1.2.3.0,bus2=BBT2952111.1.2.3.0,Phases=3,Linecode=BT005_BT005_7_3_1,Length=0.028292000,Units=km
new line.10166885 bus1=BBT2952342.1.2.3.0,bus2=BBT2952349.1.2.3.0,Phases=3,Linecode=BT108_BT107_7_3_1,Length=0.036506000,Units=km
new line.10166941 bus1=BBT2952349.1.2.3.0,bus2=BBT2952356.1.2.3.0,Phases=3,Linecode=BT107_BT107_7_3_1,Length=0.035520000,Units=km
new line.10167039 bus1=BBT2952321.1.2.3.0,bus2=BBT2952328.1.2.3.0,Phases=3,Linecode=BT107_BT107_7_3_1,Length=0.036684000,Units=km
new line.10167235 bus1=BBT2956395.1.2.3.0,bus2=BBT2956402.1.2.3.0,Phases=3,Linecode=BT803_BT803_4_3_4,Length=0.034375000,Units=km
new line.10167536 bus1=BBT2952370.1.2.3.0,bus2=BBT2952377.1.2.3.0,Phases=3,Linecode=BT803_BT803_4_3_4,Length=0.032567000,Units=km
new line.10167564 bus1=BBT2952391.1.2.3.0,bus2=BBT2952398.1.2.3.0,Phases=3,Linecode=BT803_BT803_4_3_4,Length=0.035703000,Units=km
new line.10167571 bus1=BBT2952391.1.2.3.0,bus2=BBT2952419.1.2.3.0,Phases=3,Linecode=BT803_BT803_4_3_4,Length=0.030814000,Units=km
new line.10167718 bus1=BBT2952419.1.2.3.0,bus2=BBT2952692.1.2.3.0,Phases=3,Linecode=BT803_BT803_4_3_4,Length=0.032994000,Units=km
new line.10167886 bus1=BBT2952566.1.2.3.0,bus2=BBT2952580.1.2.3.0,Phases=3,Linecode=BT803_BT803_4_3_4,Length=0.024522000,Units=km
new line.10167900 bus1=BBT2952580.1.2.3.0,bus2=BBT2952587.1.2.3.0,Phases=3,Linecode=BT803_BT803_4_3_4,Length=0.008065000,Units=km
new line.10167928 bus1=BBT2952587.1.2.3.0,bus2=BBT2952650.1.2.3.0,Phases=3,Linecode=BT803_BT803_4_3_4,Length=0.034215000,Units=km
new line.10167935 bus1=BBT2952587.1.2.3.0,bus2=BBT2952594.1.2.3.0,Phases=3,Linecode=BT803_BT803_4_3_4,Length=0.025969000,Units=km
new line.10168005 bus1=BBT2952594.1.2.3.0,bus2=BBT2953182.1.2.3.0,Phases=3,Linecode=BT803_BT803_4_3_4,Length=0.038338000,Units=km
new line.10168061 bus1=BBT2952615.1.2.3.0,bus2=BBT2952622.1.2.3.0,Phases=3,Linecode=BT803_BT803_4_3_4,Length=0.027666000,Units=km
new line.10168138 bus1=BBT2952636.1.2.3.0,bus2=BBT2952643.1.2.3.0,Phases=3,Linecode=BT803_BT803_4_3_4,Length=0.033743000,Units=km
new line.10168425 bus1=BBT2952909.1.2.3.0,bus2=BBT2952916.1.2.3.0,Phases=3,Linecode=BT805_BT805_4_3_4,Length=0.024522000,Units=km
new line.10168432 bus1=BBT2952909.1.2.3.0,bus2=BBT2952923.1.2.3.0,Phases=3,Linecode=BT803_BT803_4_3_4,Length=0.041448000,Units=km
new line.10168495 bus1=BBT2952860.1.2.3.0,bus2=BBT2952874.1.2.3.0,Phases=3,Linecode=BT805_BT805_4_3_4,Length=0.037493000,Units=km
new line.10168502 bus1=BBT2952860.1.2.3.0,bus2=BBT2952895.1.2.3.0,Phases=3,Linecode=BT803_BT803_4_3_4,Length=0.043116000,Units=km
new line.10168635 bus1=BBT2952895.1.2.3.0,bus2=BBT2952902.1.2.3.0,Phases=3,Linecode=BT803_BT803_4_3_4,Length=0.041448000,Units=km
new line.10168684 bus1=BBT2952923.1.2.3.0,bus2=BBT2952930.1.2.3.0,Phases=3,Linecode=BT803_BT803_4_3_4,Length=0.036506000,Units=km
new line.10168803 bus1=BBT2953105.1.2.3.0,bus2=BBT2953119.1.2.3.0,Phases=3,Linecode=BT803_BT803_4_3_4,Length=0.006327000,Units=km
new line.10168824 bus1=BBT2953161.1.2.3.0,bus2=BBT2953175.1.2.3.0,Phases=3,Linecode=BT803_BT803_4_3_4,Length=0.033251000,Units=km
new line.10168866 bus1=BBT2953175.1.2.3.0,bus2=BBT2953189.1.2.3.0,Phases=3,Linecode=BT803_BT803_4_3_4,Length=0.034375000,Units=km
new line.10169027 bus1=BBT2953203.1.2.3.0,bus2=BBT2953210.1.2.3.0,Phases=3,Linecode=BT803_BT803_4_3_4,Length=0.025325000,Units=km
new line.10169034 bus1=BBT2953203.1.2.3.0,bus2=BBT2953224.1.2.3.0,Phases=3,Linecode=BT803_BT803_4_3_4,Length=0.031266000,Units=km
new line.10169076 bus1=BBT2952958.1.2.3.0,bus2=BBT2952965.1.2.3.0,Phases=3,Linecode=BT803_BT803_4_3_4,Length=0.032258000,Units=km
new line.10169104 bus1=BBT2953224.1.2.3.0,bus2=BBT2953231.1.2.3.0,Phases=3,Linecode=BT803_BT803_4_3_4,Length=0.034535000,Units=km
new line.10169118 bus1=BBT2953231.1.2.3.0,bus2=BBT2953245.1.2.3.0,Phases=3,Linecode=BT803_BT803_4_3_4,Length=0.034375000,Units=km
new line.10169475 bus1=BBT2952839.1.2.3.0,bus2=BBT2952853.1.2.3.0,Phases=3,Linecode=BT805_BT805_4_3_4,Length=0.027900000,Units=km
new line.10169531 bus1=BBT2952853.1.2.3.0,bus2=BBT2952867.1.2.3.0,Phases=3,Linecode=BT803_BT803_4_3_4,Length=0.007618000,Units=km
new line.10169573 bus1=BBT2952867.1.2.3.0,bus2=BBT2952881.1.2.3.0,Phases=3,Linecode=BT803_BT803_4_3_4,Length=0.033965000,Units=km
new line.10169594 bus1=BBT2952881.1.2.3.0,bus2=BBT2952888.1.2.3.0,Phases=3,Linecode=BT803_BT803_4_3_4,Length=0.034375000,Units=km
new line.10169643 bus1=BBT2953119.1.2.3.0,bus2=BBT2953126.1.2.3.0,Phases=3,Linecode=BT803_BT803_4_3_4,Length=0.025717000,Units=km
new line.10169650 bus1=BBT2953119.1.2.3.0,bus2=BBT2953147.1.2.3.0,Phases=3,Linecode=BT108_BT107_7_3_1,Length=0.012045000,Units=km
new line.10169657 bus1=BBT2953119.1.2.3.0,bus2=BBT2953161.1.2.3.0,Phases=3,Linecode=BT108_BT107_7_3_1,Length=0.023352000,Units=km
new line.10170154 bus1=BBT2953084.1.2.3.0,bus2=BBT2953091.1.2.3.0,Phases=3,Linecode=BT803_BT803_4_3_4,Length=0.008488000,Units=km
new line.10170231 bus1=BBT2953091.1.2.3.0,bus2=BBT2953098.1.2.3.0,Phases=3,Linecode=BT803_BT803_4_3_4,Length=0.035181000,Units=km
new line.10170238 bus1=BBT2953091.1.2.3.0,bus2=BBT2953133.1.2.3.0,Phases=3,Linecode=BT803_BT803_4_3_4,Length=0.032289000,Units=km
new line.10170287 bus1=BBT2953098.1.2.3.0,bus2=BBT21225724.1.2.3.0,Phases=3,Linecode=BT810_BT810_4_3_4,Length=0.034215000,Units=km
new line.10170497 bus1=BBT2953259.1.2.3.0,bus2=BBT2953266.1.2.3.0,Phases=3,Linecode=BT803_BT803_4_3_4,Length=0.036888000,Units=km
new line.10170504 bus1=BBT2953259.1.2.3.0,bus2=BBT2953273.1.2.3.0,Phases=3,Linecode=BT803_BT803_4_3_4,Length=0.032994000,Units=km
new line.10170581 bus1=BBT2953266.1.2.3.0,bus2=BBT2953728.1.2.3.0,Phases=3,Linecode=BT803_BT803_4_3_4,Length=0.030537000,Units=km
new line.10170630 bus1=BBT2953273.1.2.3.0,bus2=BBT2953287.1.2.3.0,Phases=3,Linecode=BT803_BT803_4_3_4,Length=0.032024000,Units=km
new line.10170665 bus1=BBT2953287.1.2.3.0,bus2=BBT2953294.1.2.3.0,Phases=3,Linecode=BT803_BT803_4_3_4,Length=0.024745000,Units=km
new line.10170735 bus1=BBT2953308.1.2.3.0,bus2=BBT2953329.1.2.3.0,Phases=3,Linecode=BT805_BT805_4_3_4,Length=0.038843000,Units=km
new line.10170742 bus1=BBT2953308.1.2.3.0,bus2=BBT2953315.1.2.3.0,Phases=3,Linecode=BT107_BT107_7_3_1,Length=0.036684000,Units=km
new line.10170777 bus1=BBT2953315.1.2.3.0,bus2=BBT2953350.1.2.3.0,Phases=3,Linecode=BT107_BT107_7_3_1,Length=0.026933000,Units=km
new line.10170854 bus1=BBT2953350.1.2.3.0,bus2=BBT2953357.1.2.3.0,Phases=3,Linecode=BT107_BT107_7_3_1,Length=0.036410000,Units=km
new line.10170861 bus1=BBT2953350.1.2.3.0,bus2=BBT2953371.1.2.3.0,Phases=3,Linecode=BT107_BT107_7_3_1,Length=0.026691000,Units=km