new line.RML10012192 bus1=BBT3348304.1.2.3.0,bus2=RML1060012192.1.2.3.0,Phases=3,Linecode=CABBTG06_4_3,Length=0.017000000,Units=km
new line.RML10039807 bus1=BBT3349053.1.2.0,bus2=RML1060039807.1.2.0,Phases=2,Linecode=CABBTG05_4_2,Length=0.017000000,Units=km
new line.RML10040305 bus1=BBT2990380.1.2.0,bus2=RML1060040305.1.2.0,Phases=2,Linecode=CABBTG05_4_2,Length=0.017000000,Units=km
new line.RML10045349 bus1=BBT2944502.1.2.3.0,bus2=RML1060045349.1.2.3.0,Phases=3,Linecode=CABBTG06_4_3,Length=0.029000000,Units=km
new line.RML10053349 bus1=BBT2950284.1.2.3.0,bus2=RML1060053349.1.2.3.0,Phases=3,Linecode=CABBTG08_4_3,Length=0.029000000,Units=km
new line.RML10063222 bus1=BBT2996421.1.2.3.0,bus2=RML1060063222.1.2.3.0,Phases=3,Linecode=CABBTG12_4_3,Length=0.017000000,Units=km
new line.RML10063768 bus1=BBT2959706.1.2.3.0,bus2=RML1060063768.1.2.3.0,Phases=3,Linecode=CABBTG12_4_3,Length=0.017000000,Units=km
new line.RML10064226 bus1=BBT2977654.1.2.3.0,bus2=RML1060064226.1.2.3.0,Phases=3,Linecode=CABBTG06_4_3,Length=0.017000000,Units=km
new line.RML10076907 bus1=BBT2986467.1.2.3.0,bus2=RML1060076907.1.2.3.0,Phases=3,Linecode=CABBTG06_4_3,Length=0.017000000,Units=km
new line.RML10076908 bus1=BBT2986467.1.2.3.0,bus2=RML1060076908.1.2.3.0,Phases=3,Linecode=CABBTG06_4_3,Length=0.017000000,Units=km
new line.RML10076909 bus1=BBT2986467.1.2.3.0,bus2=RML1060076909.1.2.3.0,Phases=3,Linecode=CABBTG06_4_3,Length=0.017000000,Units=km
new line.RML10076961 bus1=BBT2105020.1.2.0,bus2=RML1060076961.1.2.0,Phases=2,Linecode=CABBTG05_4_2,Length=0.017000000,Units=km
new line.RML10077017 bus1=BBT157826292.1.2.0,bus2=RML1060077017.1.2.0,Phases=2,Linecode=CABBTG05_4_2,Length=0.017000000,Units=km
new line.RML10077021 bus1=BBT2982876.1.2.0,bus2=RML1060077021.1.2.0,Phases=2,Linecode=CABBTG05_4_2,Length=0.017000000,Units=km
new line.RML10077030 bus1=BBT2402975.1.2.3.0,bus2=RML1060077030.1.2.3.0,Phases=3,Linecode=CABBTG06_4_3,Length=0.017000000,Units=km
new line.RML10077034 bus1=BBT3361835.2.0,bus2=RML1060077034.2.0,Phases=1,Linecode=CABBTG02_4_1,Length=0.017000000,Units=km
new line.RML10079760 bus1=BBT2949906.1.2.0,bus2=RML1060079760.1.2.0,Phases=2,Linecode=CABBTG05_4_2,Length=0.017000000,Units=km
new line.RML10084548 bus1=BBT2383767.1.2.0,bus2=RML1060084548.1.2.0,Phases=2,Linecode=CABBTG05_4_2,Length=0.017000000,Units=km
new line.RML10106273 bus1=BBT2380729.1.2.3.0,bus2=RML1060106273.1.2.3.0,Phases=3,Linecode=CABBTG06_4_3,Length=0.017000000,Units=km
new line.RML10109925 bus1=BBT2955597.1.2.0,bus2=RML1060109925.1.2.0,Phases=2,Linecode=CABBTG05_4_2,Length=0.029000000,Units=km
new line.RML10110022 bus1=BBT3376269.1.2.3.0,bus2=RML1060110022.1.2.3.0,Phases=3,Linecode=CABBTG06_4_3,Length=0.017000000,Units=km
new line.RML10110044 bus1=BBT3376269.1.2.0,bus2=RML1060110044.1.2.0,Phases=2,Linecode=CABBTG05_4_2,Length=0.017000000,Units=km
new line.RML10110161 bus1=BBT2964634.1.2.3.0,bus2=RML1060110161.1.2.3.0,Phases=3,Linecode=CABBTG06_4_3,Length=0.017000000,Units=km
new line.RML10111206 bus1=BBT2823164.1.2.0,bus2=RML1060111206.1.2.0,Phases=2,Linecode=CABBTG05_4_2,Length=0.017000000,Units=km
new line.RML10111211 bus1=BBT2972796.1.2.0,bus2=RML1060111211.1.2.0,Phases=2,Linecode=CABBTG05_4_2,Length=0.017000000,Units=km
new line.RML10111244 bus1=BBT2956052.1.0,bus2=RML1060111244.1.0,Phases=1,Linecode=CABBTG02_4_1,Length=0.017000000,Units=km
new line.RML10111252 bus1=BBT4603390.1.2.0,bus2=RML1060111252.1.2.0,Phases=2,Linecode=CABBTG05_4_2,Length=0.017000000,Units=km
new line.RML10111284 bus1=BBT2960917.1.2.0,bus2=RML1060111284.1.2.0,Phases=2,Linecode=CABBTG05_4_2,Length=0.017000000,Units=km
new line.RML10111288 bus1=BBT4154459.1.2.0,bus2=RML1060111288.1.2.0,Phases=2,Linecode=CABBTG05_4_2,Length=0.017000000,Units=km
new line.RML10111348 bus1=BBT3021880.1.2.0,bus2=RML1060111348.1.2.0,Phases=2,Linecode=CABBTG05_4_2,Length=0.017000000,Units=km
new line.RML10113776 bus1=BBT2955408.1.2.0,bus2=RML1060113776.1.2.0,Phases=2,Linecode=CABBTG05_4_2,Length=0.017000000,Units=km
new line.RML10115517 bus1=BBT2940841.1.2.0,bus2=RML1060115517.1.2.0,Phases=2,Linecode=CABBTG05_4_2,Length=0.017000000,Units=km
new line.RML10115526 bus1=BBT2945111.1.2.0,bus2=RML1060115526.1.2.0,Phases=2,Linecode=CABBTG05_4_2,Length=0.017000000,Units=km
new line.RML10115641 bus1=BBT2950270.1.2.0,bus2=RML1060115641.1.2.0,Phases=2,Linecode=CABBTG05_4_2,Length=0.029000000,Units=km
new line.RML10119294 bus1=BBT2987265.1.2.0,bus2=RML1060119294.1.2.0,Phases=2,Linecode=CABBTG05_4_2,Length=0.017000000,Units=km
new line.RML10129465 bus1=BBT2986901.2.3.0,bus2=RML1060129465.2.3.0,Phases=2,Linecode=CABBTG05_4_2,Length=0.017000000,Units=km
new line.RML10130059 bus1=BBT2963353.3.0,bus2=RML1060130059.3.0,Phases=1,Linecode=CABBTG02_4_1,Length=0.017000000,Units=km
new line.RML10130061 bus1=BBT2963353.1.2.0,bus2=RML1060130061.1.2.0,Phases=2,Linecode=CABBTG05_4_2,Length=0.017000000,Units=km
new line.RML10132388 bus1=BBT2996421.1.2.0,bus2=RML1060132388.1.2.0,Phases=2,Linecode=CABBTG05_4_2,Length=0.017000000,Units=km
new line.RML10132399 bus1=BBT2996421.1.2.0,bus2=RML1060132399.1.2.0,Phases=2,Linecode=CABBTG05_4_2,Length=0.017000000,Units=km
new line.RML10134416 bus1=BBT2956962.1.2.0,bus2=RML1060134416.1.2.0,Phases=2,Linecode=CABBTG05_4_2,Length=0.017000000,Units=km
new line.RML10134424 bus1=BBT2383564.1.2.0,bus2=RML1060134424.1.2.0,Phases=2,Linecode=CABBTG05_4_2,Length=0.017000000,Units=km
new line.RML10134431 bus1=BBT2361248.1.2.0,bus2=RML1060134431.1.2.0,Phases=2,Linecode=CABBTG05_4_2,Length=0.017000000,Units=km
new line.RML10134449 bus1=BBT2950270.1.2.3.0,bus2=RML1060134449.1.2.3.0,Phases=3,Linecode=CABBTG06_4_3,Length=0.029000000,Units=km
new line.RML10134455 bus1=BBT2950270.1.2.3.0,bus2=RML1060134455.1.2.3.0,Phases=3,Linecode=CABBTG07_4_3,Length=0.029000000,Units=km
new line.RML10134468 bus1=BBT2950515.1.2.0,bus2=RML1060134468.1.2.0,Phases=2,Linecode=CABBTG05_4_2,Length=0.017000000,Units=km
new line.RML10161496 bus1=BBT2986523.1.2.0,bus2=RML1060161496.1.2.0,Phases=2,Linecode=CABBTG04_4_2,Length=0.017000000,Units=km
new line.RML10161497 bus1=BBT2986523.1.2.0,bus2=RML1060161497.1.2.0,Phases=2,Linecode=CABBTG04_4_2,Length=0.017000000,Units=km
new line.RML10162427 bus1=BBT2986523.1.0,bus2=RML1060162427.1.0,Phases=1,Linecode=CABBTG01_4_1,Length=0.017000000,Units=km
new line.RML10163279 bus1=BBT2987244.1.2.3.0,bus2=RML1060163279.1.2.3.0,Phases=3,Linecode=CABBTG11_4_3,Length=0.017000000,Units=km
new line.RML10165592 bus1=BBT2308391.1.2.0,bus2=RML1060165592.1.2.0,Phases=2,Linecode=CABBTG04_4_2,Length=0.017000000,Units=km
new line.RML10177397 bus1=BBT2963248.1.2.0,bus2=RML1060177397.1.2.0,Phases=2,Linecode=CABBTG05_4_2,Length=0.017000000,Units=km
new line.RML10183148 bus1=BBT104409769.1.2.3.0,bus2=RML1060183148.1.2.3.0,Phases=3,Linecode=CABBTG12_4_3,Length=0.029000000,Units=km
new line.RML10183154 bus1=BBT2982652.1.2.3.0,bus2=RML1060183154.1.2.3.0,Phases=3,Linecode=CABBTG07_4_3,Length=0.017000000,Units=km
new line.RML10194536 bus1=BBT2326311.1.2.3.0,bus2=RML1060194536.1.2.3.0,Phases=3,Linecode=CABBTG08_4_3,Length=0.017000000,Units=km
new line.RML10194549 bus1=BBT90871454.1.2.3.0,bus2=RML1060194549.1.2.3.0,Phases=3,Linecode=CABBTG08_4_3,Length=0.029000000,Units=km
new line.RML10194919 bus1=BBT2988042.1.2.0,bus2=RML1060194919.1.2.0,Phases=2,Linecode=CABBTG13_4_2,Length=0.017000000,Units=km
new line.RML10195776 bus1=BBT2955408.1.2.3.0,bus2=RML1060195776.1.2.3.0,Phases=3,Linecode=CABBTG06_4_3,Length=0.017000000,Units=km
new line.RML10204162 bus1=BBT2971648.1.2.3.0,bus2=RML1060204162.1.2.3.0,Phases=3,Linecode=CABBTG06_4_3,Length=0.017000000,Units=km
new line.RML10217742 bus1=BBT2950284.1.2.0,bus2=RML1060217742.1.2.0,Phases=2,Linecode=CABBTG05_4_2,Length=0.029000000,Units=km
new line.RML10220418 bus1=BBT2308426.1.2.3.0,bus2=RML1060220418.1.2.3.0,Phases=3,Linecode=CABBTG10_4_3,Length=0.017000000,Units=km
new line.RML10220419 bus1=BBT2986964.1.2.0,bus2=RML1060220419.1.2.0,Phases=2,Linecode=CABBTG13_4_2,Length=0.017000000,Units=km
new line.RML10220421 bus1=BBT2310610.2.3.0,bus2=RML1060220421.2.3.0,Phases=2,Linecode=CABBTG13_4_2,Length=0.017000000,Units=km
new line.RML10220459 bus1=BBT2963598.1.2.3.0,bus2=RML1060220459.1.2.3.0,Phases=3,Linecode=CABBTG12_4_3,Length=0.017000000,Units=km
new line.RML10220477 bus1=BBT2944397.2.0,bus2=RML1060220477.2.0,Phases=1,Linecode=CABBTG02_4_1,Length=0.017000000,Units=km
new line.RML10220479 bus1=BBT2944397.1.3.0,bus2=RML1060220479.1.3.0,Phases=2,Linecode=CABBTG13_4_2,Length=0.017000000,Units=km
new line.RML10223832 bus1=BBT2458639.1.2.0,bus2=RML1060223832.1.2.0,Phases=2,Linecode=CABBTG13_4_2,Length=0.017000000,Units=km
new line.RML10229037 bus1=BBT105626551.1.2.0,bus2=RML1060229037.1.2.0,Phases=2,Linecode=CABBTG13_4_2,Length=0.017000000,Units=km
new line.RML10234699 bus1=BBT2355025.1.2.0,bus2=RML1060234699.1.2.0,Phases=2,Linecode=CABBTG05_4_2,Length=0.017000000,Units=km
new line.RML10235905 bus1=BBT2986642.1.2.0,bus2=RML1060235905.1.2.0,Phases=2,Linecode=CABBTG05_4_2,Length=0.017000000,Units=km
new line.RML10243952 bus1=BBT2960105.1.2.0,bus2=RML1060243952.1.2.0,Phases=2,Linecode=CABBTG13_4_2,Length=0.017000000,Units=km
new line.RML10245061 bus1=BBT2952895.1.2.0,bus2=RML1060245061.1.2.0,Phases=2,Linecode=CABBTG05_4_2,Length=0.017000000,Units=km
new line.RML10255250 bus1=BBT2987244.1.2.3.0,bus2=RML1060255250.1.2.3.0,Phases=3,Linecode=CABBTG07_4_3,Length=0.017000000,Units=km
new line.RML10255359 bus1=BBT2958684.1.2.0,bus2=RML1060255359.1.2.0,Phases=2,Linecode=CABBTG13_4_2,Length=0.017000000,Units=km
new line.RML10255398 bus1=BBT2958418.2.3.0,bus2=RML1060255398.2.3.0,Phases=2,Linecode=CABBTG05_4_2,Length=0.017000000,Units=km
new line.RML10258190 bus1=BBT3362241.1.2.3.0,bus2=RML1060258190.1.2.3.0,Phases=3,Linecode=CABBTG06_4_3,Length=0.017000000,Units=km
new line.RML10261431 bus1=BBT2963675.1.2.3.0,bus2=RML1060261431.1.2.3.0,Phases=3,Linecode=CABBTG07_4_3,Length=0.017000000,Units=km
new line.RML10275532 bus1=BBT2972173.1.0,bus2=RML1060275532.1.0,Phases=1,Linecode=CABBTG02_4_1,Length=0.017000000,Units=km
new line.RML10277206 bus1=BBT2972005.1.2.0,bus2=RML1060277206.1.2.0,Phases=2,Linecode=CABBTG05_4_2,Length=0.017000000,Units=km
new line.RML10277422 bus1=BBT2950277.1.2.3.0,bus2=RML1060277422.1.2.3.0,Phases=3,Linecode=CABBTG07_4_3,Length=0.017000000,Units=km
new line.RML10278082 bus1=BBT3245677.1.2.0,bus2=RML1060278082.1.2.0,Phases=2,Linecode=CABBTG05_4_2,Length=0.017000000,Units=km
new line.RML10279101 bus1=BBT2968015.3.0,bus2=RML1060279101.3.0,Phases=1,Linecode=CABBTG02_4_1,Length=0.017000000,Units=km
new line.RML10279121 bus1=BBT90871454.2.3.0,bus2=RML1060279121.2.3.0,Phases=2,Linecode=CABBTG05_4_2,Length=0.029000000,Units=km
new line.RML10281188 bus1=BBT2967434.1.2.3.0,bus2=RML1060281188.1.2.3.0,Phases=3,Linecode=CABBTG12_4_3,Length=0.017000000,Units=km
new line.RML10281229 bus1=BBT2975890.1.2.3.0,bus2=RML1060281229.1.2.3.0,Phases=3,Linecode=CABBTG12_4_3,Length=0.017000000,Units=km
new line.RML10293358 bus1=BBT2971557.1.2.3.0,bus2=RML1060293358.1.2.3.0,Phases=3,Linecode=CABBTG06_4_3,Length=0.017000000,Units=km
new line.RML10296882 bus1=BBT2303960.1.2.3.0,bus2=RML1060296882.1.2.3.0,Phases=3,Linecode=CABBTG06_4_3,Length=0.017000000,Units=km
new line.RML10298253 bus1=BBT2445563.3.0,bus2=RML1060298253.3.0,Phases=1,Linecode=CABBTG02_4_1,Length=0.017000000,Units=km
new line.RML10301968 bus1=BBT2352876.1.3.0,bus2=RML1060301968.1.3.0,Phases=2,Linecode=CABBTG05_4_2,Length=0.017000000,Units=km
new line.RML10302595 bus1=BBT2944796.1.2.3.0,bus2=RML1060302595.1.2.3.0,Phases=3,Linecode=CABBTG08_4_3,Length=0.017000000,Units=km
new line.RML10302969 bus1=BBT2977703.1.2.0,bus2=RML1060302969.1.2.0,Phases=2,Linecode=CABBTG05_4_2,Length=0.017000000,Units=km
new line.RML10304184 bus1=BBT2955226.1.2.3.0,bus2=RML1060304184.1.2.3.0,Phases=3,Linecode=CABBTG12_4_3,Length=0.017000000,Units=km
new line.RML10304404 bus1=BBT2971879.1.2.0,bus2=RML1060304404.1.2.0,Phases=2,Linecode=CABBTG05_4_2,Length=0.017000000,Units=km
new line.RML10306174 bus1=BBT2381030.1.2.3.0,bus2=RML1060306174.1.2.3.0,Phases=3,Linecode=CABBTG06_4_3,Length=0.017000000,Units=km
new line.RML10306261 bus1=BBT2986649.1.2.3.0,bus2=RML1060306261.1.2.3.0,Phases=3,Linecode=CABBTG06_4_3,Length=0.017000000,Units=km
new line.RML10306354 bus1=BBT2976639.1.2.0,bus2=RML1060306354.1.2.0,Phases=2,Linecode=CABBTG05_4_2,Length=0.017000000,Units=km
new line.RML10308039 bus1=BBT2956052.1.2.0,bus2=RML1060308039.1.2.0,Phases=2,Linecode=CABBTG05_4_2,Length=0.017000000,Units=km
new line.RML10308115 bus1=BBT2956192.2.0,bus2=RML1060308115.2.0,Phases=1,Linecode=CABBTG02_4_1,Length=0.017000000,Units=km
new line.RML10308133 bus1=BBT2986523.2.0,bus2=RML1060308133.2.0,Phases=1,Linecode=CABBTG02_4_1,Length=0.017000000,Units=km
new line.RML10309793 bus1=BBT2963647.1.2.3.0,bus2=RML1060309793.1.2.3.0,Phases=3,Linecode=CABBTG06_4_3,Length=0.017000000,Units=km
new line.RML10311547 bus1=BBT2301083.1.2.3.0,bus2=RML1060311547.1.2.3.0,Phases=3,Linecode=CABBTG06_4_3,Length=0.029000000,Units=km
new line.RML10312475 bus1=BBT2381030.2.3.0,bus2=RML1060312475.2.3.0,Phases=2,Linecode=CABBTG05_4_2,Length=0.017000000,Units=km
new line.RML10312484 bus1=BBT2393742.1.2.3.0,bus2=RML1060312484.1.2.3.0,Phases=3,Linecode=CABBTG06_4_3,Length=0.017000000,Units=km
new line.RML10313750 bus1=BBT2975883.1.2.0,bus2=RML1060313750.1.2.0,Phases=2,Linecode=CABBTG05_4_2,Length=0.017000000,Units=km
new line.RML10313839 bus1=BBT3016322.1.2.3.0,bus2=RML1060313839.1.2.3.0,Phases=3,Linecode=CABBTG06_4_3,Length=0.017000000,Units=km
new line.RML10314181 bus1=BBT2982526.1.2.0,bus2=RML1060314181.1.2.0,Phases=2,Linecode=CABBTG05_4_2,Length=0.017000000,Units=km
new line.RML10315244 bus1=BBT2986992.1.2.3.0,bus2=RML1060315244.1.2.3.0,Phases=3,Linecode=CABBTG06_4_3,Length=0.017000000,Units=km
new line.RML10316264 bus1=BBT2963682.1.0,bus2=RML1060316264.1.0,Phases=1,Linecode=CABBTG02_4_1,Length=0.017000000,Units=km
new line.RML10316626 bus1=BBT2966377.1.2.3.0,bus2=RML1060316626.1.2.3.0,Phases=3,Linecode=CABBTG06_4_3,Length=0.017000000,Units=km
new line.RML10316636 bus1=BBT2987902.1.2.3.0,bus2=RML1060316636.1.2.3.0,Phases=3,Linecode=CABBTG06_4_3,Length=0.017000000,Units=km
new line.RML10317496 bus1=BBT2458611.1.0,bus2=RML1060317496.1.0,Phases=1,Linecode=CABBTG02_4_1,Length=0.017000000,Units=km
new line.RML10322336 bus1=BBT2972173.1.3.0,bus2=RML1060322336.1.3.0,Phases=2,Linecode=CABBTG05_4_2,Length=0.017000000,Units=km
new line.RML10322468 bus1=BBT2965012.1.2.3.0,bus2=RML1060322468.1.2.3.0,Phases=3,Linecode=CABBTG07_4_3,Length=0.017000000,Units=km
new line.RML10328607 bus1=BBT2963619.1.2.0,bus2=RML1060328607.1.2.0,Phases=2,Linecode=CABBTG05_4_2,Length=0.017000000,Units=km
new line.RML10331567 bus1=BBT2964130.1.2.3.0,bus2=RML1060331567.1.2.3.0,Phases=3,Linecode=CABBTG06_4_3,Length=0.017000000,Units=km
new line.RML10331633 bus1=BBT2407245.1.2.3.0,bus2=RML1060331633.1.2.3.0,Phases=3,Linecode=CABBTG06_4_3,Length=0.017000000,Units=km
new line.RML10332599 bus1=BBT7983950.2.3.0,bus2=RML1060332599.2.3.0,Phases=2,Linecode=CABBTG05_4_2,Length=0.017000000,Units=km
new line.RML10333481 bus1=BBT2965026.1.2.3.0,bus2=RML1060333481.1.2.3.0,Phases=3,Linecode=CABBTG06_4_3,Length=0.017000000,Units=km
new line.RML10337969 bus1=BBT2986943.1.2.3.0,bus2=RML1060337969.1.2.3.0,Phases=3,Linecode=CABBTG06_4_3,Length=0.017000000,Units=km
new line.RML10341684 bus1=BBT2960707.1.2.0,bus2=RML1060341684.1.2.0,Phases=2,Linecode=CABBTG05_4_2,Length=0.017000000,Units=km
new line.RML10347797 bus1=BBT2980328.1.2.0,bus2=RML1060347797.1.2.0,Phases=2,Linecode=CABBTG05_4_2,Length=0.017000000,Units=km
new line.RML10350068 bus1=BBT2377530.1.2.0,bus2=RML1060350068.1.2.0,Phases=2,Linecode=CABBTG05_4_2,Length=0.017000000,Units=km
new line.RML10351203 bus1=BBT2412096.3.0,bus2=RML1060351203.3.0,Phases=1,Linecode=CABBTG02_4_1,Length=0.017000000,Units=km
new line.RML10396318 bus1=BBT2965341.1.2.3.0,bus2=RML1060396318.1.2.3.0,Phases=3,Linecode=CABBTG12_4_3,Length=0.017000000,Units=km
new line.RML10400561 bus1=BBT120069994.1.0,bus2=RML1060400561.1.0,Phases=1,Linecode=CABBTG02_4_1,Length=0.017000000,Units=km
new line.RML10412593 bus1=BBT2962296.1.2.3.0,bus2=RML1060412593.1.2.3.0,Phases=3,Linecode=CABBTG06_4_3,Length=0.017000000,Units=km
new line.RML10413590 bus1=BBT3021866.1.0,bus2=RML1060413590.1.0,Phases=1,Linecode=CABBTG02_4_1,Length=0.017000000,Units=km
new line.RML10426973 bus1=BBT2986635.1.2.3.0,bus2=RML1060426973.1.2.3.0,Phases=3,Linecode=CABBTG06_4_3,Length=0.017000000,Units=km
new line.RML10427090 bus1=BBT2994321.1.2.0,bus2=RML1060427090.1.2.0,Phases=2,Linecode=CABBTG13_4_2,Length=0.017000000,Units=km
new line.RML10428880 bus1=BBT3018254.1.2.3.0,bus2=RML1060428880.1.2.3.0,Phases=3,Linecode=CABBTG06_4_3,Length=0.017000000,Units=km
new line.RML10429368 bus1=BBT2458632.1.0,bus2=RML1060429368.1.0,Phases=1,Linecode=CABBTG02_4_1,Length=0.017000000,Units=km
new line.RML10432707 bus1=BBT3361877.1.0,bus2=RML1060432707.1.0,Phases=1,Linecode=CABBTG02_4_1,Length=0.017000000,Units=km
new line.RML10437906 bus1=BBT2986992.1.2.0,bus2=RML1060437906.1.2.0,Phases=2,Linecode=CABBTG05_4_2,Length=0.017000000,Units=km
new line.RML10438025 bus1=BBT2972173.1.2.0,bus2=RML1060438025.1.2.0,Phases=2,Linecode=CABBTG05_4_2,Length=0.017000000,Units=km
new line.RML10438027 bus1=BBT2952881.1.2.3.0,bus2=RML1060438027.1.2.3.0,Phases=3,Linecode=CABBTG06_4_3,Length=0.017000000,Units=km
new line.RML10439499 bus1=BBT2362256.1.2.0,bus2=RML1060439499.1.2.0,Phases=2,Linecode=CABBTG05_4_2,Length=0.017000000,Units=km
new line.RML10440132 bus1=BBT2956073.1.2.0,bus2=RML1060440132.1.2.0,Phases=2,Linecode=CABBTG05_4_2,Length=0.017000000,Units=km
new line.RML10440611 bus1=BBT2975750.1.2.3.0,bus2=RML1060440611.1.2.3.0,Phases=3,Linecode=CABBTG09_4_3,Length=0.017000000,Units=km
new line.RML10440692 bus1=BBT2105006.1.2.3.0,bus2=RML1060440692.1.2.3.0,Phases=3,Linecode=CABBTG08_4_3,Length=0.017000000,Units=km
new line.RML10440766 bus1=BBT61720605.1.2.0,bus2=RML1060440766.1.2.0,Phases=2,Linecode=CABBTG05_4_2,Length=0.029000000,Units=km
new line.RML10444082 bus1=BBT2958880.1.2.0,bus2=RML1060444082.1.2.0,Phases=2,Linecode=CABBTG05_4_2,Length=0.017000000,Units=km
new line.RML10461622 bus1=BBT2407259.1.2.3.0,bus2=RML1060461622.1.2.3.0,Phases=3,Linecode=CABBTG06_4_3,Length=0.017000000,Units=km
new line.RML10464880 bus1=BBT2380680.1.2.3.0,bus2=RML1060464880.1.2.3.0,Phases=3,Linecode=CABBTG06_4_3,Length=0.017000000,Units=km
new line.RML10464883 bus1=BBT2953084.1.2.3.0,bus2=RML1060464883.1.2.3.0,Phases=3,Linecode=CABBTG06_4_3,Length=0.017000000,Units=km
new line.RML10465374 bus1=BBT2964130.1.3.0,bus2=RML1060465374.1.3.0,Phases=2,Linecode=CABBTG05_4_2,Length=0.017000000,Units=km
new line.RML10466373 bus1=BBT2975694.1.2.0,bus2=RML1060466373.1.2.0,Phases=2,Linecode=CABBTG05_4_2,Length=0.017000000,Units=km
new line.RML10466407 bus1=BBT2955100.1.3.0,bus2=RML1060466407.1.3.0,Phases=2,Linecode=CABBTG05_4_2,Length=0.017000000,Units=km
new line.RML10475867 bus1=BBT2965313.1.2.0,bus2=RML1060475867.1.2.0,Phases=2,Linecode=CABBTG05_4_2,Length=0.017000000,Units=km
new line.RML10476746 bus1=BBT2965313.1.2.0,bus2=RML1060476746.1.2.0,Phases=2,Linecode=CABBTG05_4_2,Length=0.017000000,Units=km
new line.RML10476837 bus1=BBT154658973.1.2.3.0,bus2=RML1060476837.1.2.3.0,Phases=3,Linecode=CABBTG08_4_3,Length=0.017000000,Units=km
new line.RML10479988 bus1=BBT2965313.2.3.0,bus2=RML1060479988.2.3.0,Phases=2,Linecode=CABBTG05_4_2,Length=0.017000000,Units=km
new line.RML10479991 bus1=BBT2963682.1.2.0,bus2=RML1060479991.1.2.0,Phases=2,Linecode=CABBTG05_4_2,Length=0.017000000,Units=km
new line.RML10483680 bus1=BBT2963598.1.2.0,bus2=RML1060483680.1.2.0,Phases=2,Linecode=CABBTG05_4_2,Length=0.010000000,Units=km
new line.RML10483687 bus1=BBT2963353.1.0,bus2=RML1060483687.1.0,Phases=1,Linecode=CABBTG02_4_1,Length=0.007000000,Units=km
new line.RML10483717 bus1=BBT2105006.1.0,bus2=RML1060483717.1.0,Phases=1,Linecode=CABBTG02_4_1,Length=0.017000000,Units=km
new line.RML10488450 bus1=BBT2963619.1.2.0,bus2=RML1060488450.1.2.0,Phases=2,Linecode=CABBTG05_4_2,Length=0.008000000,Units=km
new line.RML10494245 bus1=BBT2407280.2.3.0,bus2=RML1060494245.2.3.0,Phases=2,Linecode=CABBTG05_4_2,Length=0.017000000,Units=km
new line.RML10494393 bus1=BBT2955100.1.2.0,bus2=RML1060494393.1.2.0,Phases=2,Linecode=CABBTG05_4_2,Length=0.028000000,Units=km
new line.RML10507675 bus1=BBT2982890.1.0,bus2=RML1060507675.1.0,Phases=1,Linecode=CABBTG02_4_1,Length=0.012000000,Units=km
new line.RML10507681 bus1=BBT3349165.1.2.0,bus2=RML1060507681.1.2.0,Phases=2,Linecode=CABBTG05_4_2,Length=0.018000000,Units=km
new line.RML10516198 bus1=BBT2970969.1.2.0,bus2=RML1060516198.1.2.0,Phases=2,Linecode=CABBTG05_4_2,Length=0.017000000,Units=km
new line.RML10517375 bus1=BBT2964718.1.2.0,bus2=RML1060517375.1.2.0,Phases=2,Linecode=CABBT811_4_2,Length=0.018000000,Units=km
new line.RML10543184 bus1=BBT157826292.2.0,bus2=RML1060543184.2.0,Phases=1,Linecode=CABBTG02_4_1,Length=0.015000000,Units=km
new line.RML10543185 bus1=BBT3247455.1.2.0,bus2=RML1060543185.1.2.0,Phases=2,Linecode=CABBTG05_4_2,Length=0.017000000,Units=km
new line.RML10543197 bus1=BBT2376627.1.2.0,bus2=RML1060543197.1.2.0,Phases=2,Linecode=CABBTG05_4_2,Length=0.014000000,Units=km
new line.RML10543209 bus1=BBT2964571.1.2.0,bus2=RML1060543209.1.2.0,Phases=2,Linecode=CABBTG05_4_2,Length=0.015000000,Units=km
new line.RML10543289 bus1=BBT4154466.1.0,bus2=RML1060543289.1.0,Phases=1,Linecode=CABBTG02_4_1,Length=0.017000000,Units=km
new line.RML10543292 bus1=BBT2951663.1.0,bus2=RML1060543292.1.0,Phases=1,Linecode=CABBTG02_4_1,Length=0.011000000,Units=km
new line.RML10543293 bus1=BBT2951663.1.0,bus2=RML1060543293.1.0,Phases=1,Linecode=CABBTG02_4_1,Length=0.018000000,Units=km
new line.RML10543294 bus1=BBT2951670.1.0,bus2=RML1060543294.1.0,Phases=1,Linecode=CABBTG02_4_1,Length=0.015000000,Units=km
new line.RML10543295 bus1=BBT2951663.1.0,bus2=RML1060543295.1.0,Phases=1,Linecode=CABBTG02_4_1,Length=0.016000000,Units=km
new line.RML10543296 bus1=BBT2945986.1.0,bus2=RML1060543296.1.0,Phases=1,Linecode=CABBTG02_4_1,Length=0.015000000,Units=km
new line.RML10555101 bus1=BBT2955828.1.2.3.0,bus2=RML1060555101.1.2.3.0,Phases=3,Linecode=CABBTG06_4_3,Length=0.017000000,Units=km
new line.RML10555112 bus1=BBT2961106.1.2.0,bus2=RML1060555112.1.2.0,Phases=2,Linecode=CABBTG05_4_2,Length=0.020000000,Units=km
new line.RML10567052 bus1=BBT3373959.1.0,bus2=RML1060567052.1.0,Phases=1,Linecode=CABBTG02_4_1,Length=0.026000000,Units=km
new line.RML10567104 bus1=BBT2990380.1.2.3.0,bus2=RML1060567104.1.2.3.0,Phases=3,Linecode=CABBTG06_4_3,Length=0.015000000,Units=km
new line.RML10567174 bus1=BBT3362241.1.2.3.0,bus2=RML1060567174.1.2.3.0,Phases=3,Linecode=CABBTG06_4_3,Length=0.019000000,Units=km
new line.RML10567344 bus1=BBT2956108.1.2.0,bus2=RML1060567344.1.2.0,Phases=2,Linecode=CABBTG05_4_2,Length=0.010000000,Units=km
new line.RML10567984 bus1=BBT2370775.1.2.0,bus2=RML1060567984.1.2.0,Phases=2,Linecode=CABBTG05_4_2,Length=0.029000000,Units=km
new line.RML10568221 bus1=BBT2982904.1.2.0,bus2=RML1060568221.1.2.0,Phases=2,Linecode=CABBTG05_4_2,Length=0.010000000,Units=km
new line.RML10568226 bus1=BBT3018072.2.0,bus2=RML1060568226.2.0,Phases=1,Linecode=CABBTG02_4_1,Length=0.008000000,Units=km
new line.RML10570756 bus1=BBT2449658.1.0,bus2=RML1060570756.1.0,Phases=1,Linecode=CABBTG02_4_1,Length=0.017000000,Units=km
new line.RML10576860 bus1=BBT4092775.1.2.3.0,bus2=RML1060576860.1.2.3.0,Phases=3,Linecode=CABBTG07_4_3,Length=0.014000000,Units=km
new line.RML10577035 bus1=BBT2987678.1.2.0,bus2=RML1060577035.1.2.0,Phases=2,Linecode=CABBTG05_4_2,Length=0.009000000,Units=km
new line.RML10586573 bus1=BBT3376269.2.0,bus2=RML1060586573.2.0,Phases=1,Linecode=CABBTG02_4_1,Length=0.017000000,Units=km
new line.RML10605039 bus1=BBT2964529.1.2.0,bus2=RML1060605039.1.2.0,Phases=2,Linecode=CABBTG05_4_2,Length=0.017000000,Units=km
new line.RML10612901 bus1=BBT2965334.2.3.0,bus2=RML1060612901.2.3.0,Phases=2,Linecode=CABBTG05_4_2,Length=0.017000000,Units=km
new line.RML10615316 bus1=BBT2954106.1.2.0,bus2=RML1060615316.1.2.0,Phases=2,Linecode=CABBTG05_4_2,Length=0.012000000,Units=km
new line.RML10616260 bus1=BBT2972173.1.2.0,bus2=RML1060616260.1.2.0,Phases=2,Linecode=CABBTG05_4_2,Length=0.017000000,Units=km
new line.RML10616431 bus1=BBT3245677.1.2.0,bus2=RML1060616431.1.2.0,Phases=2,Linecode=CABBTG05_4_2,Length=0.025000000,Units=km
new line.RML10616734 bus1=BBT2966993.1.2.0,bus2=RML1060616734.1.2.0,Phases=2,Linecode=CABBTG05_4_2,Length=0.017000000,Units=km
new line.RML10620846 bus1=BBT2964592.1.2.0,bus2=RML1060620846.1.2.0,Phases=2,Linecode=CABBTG05_4_2,Length=0.017000000,Units=km
new line.RML10622822 bus1=BBT2383270.1.2.3.0,bus2=RML1060622822.1.2.3.0,Phases=3,Linecode=CABBTG06_4_3,Length=0.017000000,Units=km
new line.RML10623196 bus1=BBT2971550.1.2.3.0,bus2=RML1060623196.1.2.3.0,Phases=3,Linecode=CABBTG06_4_3,Length=0.017000000,Units=km
new line.RML10623838 bus1=BBT2956276.1.2.3.0,bus2=RML1060623838.1.2.3.0,Phases=3,Linecode=CABBTG06_4_3,Length=0.017000000,Units=km
new line.RML10626381 bus1=BBT2970150.1.2.0,bus2=RML1060626381.1.2.0,Phases=2,Linecode=CABBTG05_4_2,Length=0.011000000,Units=km
new line.RML10626873 bus1=BBT2961106.2.3.0,bus2=RML1060626873.2.3.0,Phases=2,Linecode=CABBTG05_4_2,Length=0.017000000,Units=km
new line.RML10639529 bus1=BBT2956031.1.0,bus2=RML1060639529.1.0,Phases=1,Linecode=CABBTG02_4_1,Length=0.017000000,Units=km
new line.RML10642485 bus1=BBT2308447.1.2.3.0,bus2=RML1060642485.1.2.3.0,Phases=3,Linecode=CABBTG06_4_3,Length=0.029000000,Units=km
new line.RML10642487 bus1=BBT2308447.1.2.3.0,bus2=RML1060642487.1.2.3.0,Phases=3,Linecode=CABBTG06_4_3,Length=0.029000000,Units=km
new line.RML10642488 bus1=BBT2308447.1.2.3.0,bus2=RML1060642488.1.2.3.0,Phases=3,Linecode=CABBTG06_4_3,Length=0.029000000,Units=km
new line.RML10643668 bus1=BBT2370775.1.2.0,bus2=RML1060643668.1.2.0,Phases=2,Linecode=CABBTG05_4_2,Length=0.029000000,Units=km
new line.RML10648745 bus1=BBT2370775.1.2.0,bus2=RML1060648745.1.2.0,Phases=2,Linecode=CABBTG05_4_2,Length=0.029000000,Units=km
new line.RML10648849 bus1=BBT2966391.1.2.0,bus2=RML1060648849.1.2.0,Phases=2,Linecode=CABBTG05_4_2,Length=0.019000000,Units=km
new line.RML10650592 bus1=BBT2971242.1.2.0,bus2=RML1060650592.1.2.0,Phases=2,Linecode=CABBTG05_4_2,Length=0.017000000,Units=km
new line.RML10650737 bus1=BBT2982078.1.2.0,bus2=RML1060650737.1.2.0,Phases=2,Linecode=CABBTG05_4_2,Length=0.017000000,Units=km
new line.RML10665333 bus1=BBT3361772.3.0,bus2=RML1060665333.3.0,Phases=1,Linecode=CABBTG02_4_1,Length=0.017000000,Units=km
new line.RML10665550 bus1=BBT120051787.2.3.0,bus2=RML1060665550.2.3.0,Phases=2,Linecode=CABBTG05_4_2,Length=0.017000000,Units=km
new line.RML10666697 bus1=BBT2956108.1.2.0,bus2=RML1060666697.1.2.0,Phases=2,Linecode=CABBTG05_4_2,Length=0.017000000,Units=km
new line.RML10666698 bus1=BBT2956108.1.2.0,bus2=RML1060666698.1.2.0,Phases=2,Linecode=CABBTG05_4_2,Length=0.017000000,Units=km
new line.RML10669339 bus1=BBT2971214.1.2.3.0,bus2=RML1060669339.1.2.3.0,Phases=3,Linecode=CABBT815_4_3,Length=0.012000000,Units=km
new line.RML10672354 bus1=BBT2377796.1.2.0,bus2=RML1060672354.1.2.0,Phases=2,Linecode=CABBTG05_4_2,Length=0.029000000,Units=km
new line.RML10674155 bus1=BBT120049960.1.2.3.0,bus2=RML1060674155.1.2.3.0,Phases=3,Linecode=CABBTG06_4_3,Length=0.029000000,Units=km
new line.RML10675665 bus1=BBT2318016.1.3.0,bus2=RML1060675665.1.3.0,Phases=2,Linecode=CABBT811_4_2,Length=0.012000000,Units=km
new line.RML10675689 bus1=BBT2960133.1.3.0,bus2=RML1060675689.1.3.0,Phases=2,Linecode=CABBT811_4_2,Length=0.018000000,Units=km
new line.RML10682448 bus1=BBT2940841.1.2.0,bus2=RML1060682448.1.2.0,Phases=2,Linecode=CABBTG05_4_2,Length=0.017000000,Units=km
new line.RML10686744 bus1=BBT2963605.1.3.0,bus2=RML1060686744.1.3.0,Phases=2,Linecode=CABBT811_4_2,Length=0.012000000,Units=km
new line.RML10688494 bus1=BBT2987349.1.2.0,bus2=RML1060688494.1.2.0,Phases=2,Linecode=CABBTG05_4_2,Length=0.017000000,Units=km
new line.RML10688686 bus1=BBT2987650.1.2.0,bus2=RML1060688686.1.2.0,Phases=2,Linecode=CABBTG05_4_2,Length=0.017000000,Units=km
new line.RML10696993 bus1=BBT120076896.1.2.3.0,bus2=RML1060696993.1.2.3.0,Phases=3,Linecode=CABBT514_7_3,Length=0.017000000,Units=km
new line.RML10697003 bus1=BBT3171883.1.2.3.0,bus2=RML1060697003.1.2.3.0,Phases=3,Linecode=CABBTG06_4_3,Length=0.012000000,Units=km
new line.RML10708525 bus1=BBT2982876.1.0,bus2=RML1060708525.1.0,Phases=1,Linecode=CABBTG02_4_1,Length=0.017000000,Units=km
new line.RML10710537 bus1=BBT2988070.1.3.0,bus2=RML1060710537.1.3.0,Phases=2,Linecode=CABBTG05_4_2,Length=0.019000000,Units=km
new line.RML10712042 bus1=BBT2982736.1.0,bus2=RML1060712042.1.0,Phases=1,Linecode=CABBTG02_4_1,Length=0.017000000,Units=km
new line.RML10715102 bus1=BBT2955422.1.2.0,bus2=RML1060715102.1.2.0,Phases=2,Linecode=CABBT811_4_2,Length=0.008000000,Units=km
new line.RML10725120 bus1=BBT2940827.1.2.0,bus2=RML1060725120.1.2.0,Phases=2,Linecode=CABBTG05_4_2,Length=0.008000000,Units=km
new line.RML10738911 bus1=BBT2314824.1.2.3.0,bus2=RML1060738911.1.2.3.0,Phases=3,Linecode=CABBTG07_4_3,Length=0.015000000,Units=km
new line.RML10739614 bus1=BBT4603390.2.3.0,bus2=RML1060739614.2.3.0,Phases=2,Linecode=CABBTG05_4_2,Length=0.015000000,Units=km
new line.RML10740099 bus1=BBT2952594.1.2.3.0,bus2=RML1060740099.1.2.3.0,Phases=3,Linecode=CABBTG07_4_3,Length=0.015000000,Units=km
new line.RML10740605 bus1=BBT2377796.1.2.3.0,bus2=RML1060740605.1.2.3.0,Phases=3,Linecode=CABBTG07_4_3,Length=0.029000000,Units=km
new line.RML10742339 bus1=BBT2962254.1.2.0,bus2=RML1060742339.1.2.0,Phases=2,Linecode=CABBTG05_4_2,Length=0.015000000,Units=km
new line.RML10744350 bus1=BBT2988063.2.0,bus2=RML1060744350.2.0,Phases=1,Linecode=CABBTG01_4_1,Length=0.015000000,Units=km
new line.RML10746688 bus1=BBT2971361.1.2.0,bus2=RML1060746688.1.2.0,Phases=2,Linecode=CABBTG05_4_2,Length=0.015000000,Units=km
new line.RML10746811 bus1=BBT2337476.1.2.3.0,bus2=RML1060746811.1.2.3.0,Phases=3,Linecode=CABBTG07_4_3,Length=0.015000000,Units=km