! manter este comentario para compatibilidade do C#
new circuit.alimBHPM25 bus1=BMT168400651.1.2.3,basekv=13.800000000,pu=1.040000000