new line.CTR259706 bus1=BMT122937595.1.2.3,bus2=BMT122937805.1.2.3,Phases=3,LineCode=tieSwitch,Length=0.001,Units=km,switch=T !numEQ 207102
new line.CTR282813 bus1=BMT122939072.1.2.3,bus2=BMT122939100.1.2.3,Phases=3,LineCode=tieSwitch,Length=0.001,Units=km,switch=T !numEQ 195725
new line.CTR394554 bus1=BMT127834249.1.2.3,bus2=BMT127834319.1.2.3,Phases=3,LineCode=tieSwitch,Length=0.001,Units=km,switch=T !numEQ 291120
new line.CTR395667 bus1=BMT128328848.1.2.3,bus2=BMT128337843.1.2.3,Phases=3,LineCode=tieSwitch,Length=0.001,Units=km,switch=T !numEQ 290800
new line.CTR849604 bus1=BMT149751056.1.2.3,bus2=BMT159576188.1.2.3,Phases=3,LineCode=tieSwitch,Length=0.001,Units=km,switch=T !numEQ 373793
new line.CTR893428 bus1=BMT164420060.1.2.3,bus2=BMT165123940.1.2.3,Phases=3,LineCode=tieSwitch,Length=0.001,Units=km,switch=T !numEQ 253108
new line.CTR1686 bus1=BMT122937406.1.2.3,bus2=BMT122938323.1.2.3,Phases=3,LineCode=tieSwitch,Length=0.001,Units=km,switch=T !numEQ 132433
new line.CTR270269 bus1=BMT122938267.1.2.3,bus2=BMT122938295.1.2.3,Phases=3,LineCode=tieSwitch,Length=0.001,Units=km,switch=T !numEQ 187975
new line.CTR270283 bus1=BMT122938274.1.2.3,bus2=BMT122938281.1.2.3,Phases=3,LineCode=tieSwitch,Length=0.001,Units=km,switch=T !numEQ 187976
new line.CTR57161 bus1=BMT122937938.1.2.3,bus2=BMT122938036.1.2.3,Phases=3,LineCode=tieSwitch,Length=0.001,Units=km,switch=T !numEQ 141889
new line.CTR67080 bus1=BMT122939485.1.2.3,bus2=BMT122939499.1.2.3,Phases=3,LineCode=tieSwitch,Length=0.001,Units=km,switch=T !numEQ 123737
new line.CTR861245 bus1=BMT153103907.1.2.3,bus2=BMT153103914.1.2.3,Phases=3,LineCode=tieSwitch,Length=0.001,Units=km,switch=T !numEQ 379167
new line.CTR861800 bus1=BMT153236965.1.2.3,bus2=BMT160397393.1.2.3,Phases=3,LineCode=tieSwitch,Length=0.001,Units=km,switch=T !numEQ 159468
new line.CTR861839 bus1=BMT167219633.1.2.3,bus2=BMT167219641.1.2.3,Phases=3,LineCode=tieSwitch,Length=0.001,Units=km,switch=T !numEQ 236415
new line.CTR92602 bus1=BMT122938946.1.2.3,bus2=BMT122938953.1.2.3,Phases=3,LineCode=tieSwitch,Length=0.001,Units=km,switch=T !numEQ 108994
new line.CTR92609 bus1=BMT122937210.1.2.3,bus2=BMT157420287.1.2.3,Phases=3,LineCode=tieSwitch,Length=0.001,Units=km,switch=T !numEQ 108995
new line.CTR137171 bus1=BMT122937168.1.2.3,bus2=BMT122937364.1.2.3,Phases=3,LineCode=tieSwitch,Length=0.001,Units=km,switch=T !numEQ 79974
new line.CTR137192 bus1=BMT122937455.1.2.3,bus2=BMT162051982.1.2.3,Phases=3,LineCode=tieSwitch,Length=0.001,Units=km,switch=T !numEQ 79977
new line.CTR137199 bus1=BMT162051991.1.2.3,bus2=BMT122937252.1.2.3,Phases=3,LineCode=tieSwitch,Length=0.001,Units=km,switch=T !numEQ 79978
open line.CTR137199 term=1
new line.CTR137206 bus1=BMT122937378.1.2.3,bus2=BMT164785814.1.2.3,Phases=3,LineCode=tieSwitch,Length=0.001,Units=km,switch=T !numEQ 79979
new line.CTR137213 bus1=BMT122937399.1.2.3,bus2=BMT122937469.1.2.3,Phases=3,LineCode=tieSwitch,Length=0.001,Units=km,switch=T !numEQ 79980
new line.CTR137220 bus1=BMT122937413.1.2.3,bus2=BMT122938253.1.2.3,Phases=3,LineCode=tieSwitch,Length=0.001,Units=km,switch=T !numEQ 79981
new line.CTR137227 bus1=BMT122937434.1.2.3,bus2=BMT122938204.1.2.3,Phases=3,LineCode=tieSwitch,Length=0.001,Units=km,switch=T !numEQ 79982
new line.CTR137234 bus1=BMT122937525.1.2.3,bus2=BMT122937861.1.2.3,Phases=3,LineCode=tieSwitch,Length=0.001,Units=km,switch=T !numEQ 79984
new line.CTR137241 bus1=BMT122937931.1.2.3,bus2=BMT150858207.1.2.3,Phases=3,LineCode=tieSwitch,Length=0.001,Units=km,switch=T !numEQ 79985
new line.CTR137248 bus1=BMT122937511.1.2.3,bus2=BMT153103903.1.2.3,Phases=3,LineCode=tieSwitch,Length=0.001,Units=km,switch=T !numEQ 79987
new line.CTR137255 bus1=BMT122937609.1.2.3,bus2=BMT150858369.1.2.3,Phases=3,LineCode=tieSwitch,Length=0.001,Units=km,switch=T !numEQ 79988
new line.CTR137262 bus1=BMT122937112.1.2.3,bus2=BMT122937133.1.2.3,Phases=3,LineCode=tieSwitch,Length=0.001,Units=km,switch=T !numEQ 79993
new line.CTR137269 bus1=BMT122937280.1,bus2=BMT122937287.1,Phases=1,LineCode=tieSwitch1,Length=0.001,Units=km,switch=T !numEQ 132717
new line.CTR15728 bus1=BMT122937602.1.2.3,bus2=BMT122937770.1.2.3,Phases=3,LineCode=tieSwitch,Length=0.001,Units=km,switch=T !numEQ 187536
new line.CTR17044 bus1=BMT122938806.1.2.3,bus2=BMT122938827.1.2.3,Phases=3,LineCode=tieSwitch,Length=0.001,Units=km,switch=T !numEQ 182855
new line.CTR267504 bus1=BMT122937679.1.2.3,bus2=BMT122937700.1.2.3,Phases=3,LineCode=tieSwitch,Length=0.001,Units=km,switch=T !numEQ 129208
new line.CTR268008 bus1=BMT122938211.1.2.3,bus2=BMT122938239.1.2.3,Phases=3,LineCode=tieSwitch,Length=0.001,Units=km,switch=T !numEQ 190328
new line.CTR32941 bus1=BMT122938358.1.2.3,bus2=BMT122938393.1.2.3,Phases=3,LineCode=tieSwitch,Length=0.001,Units=km,switch=T !numEQ 175940
new line.CTR329496 bus1=BMT122937987.1.2.3,bus2=BMT162984265.1.2.3,Phases=3,LineCode=tieSwitch,Length=0.001,Units=km,switch=T !numEQ 225329
new line.CTR403346 bus1=BMT130384804.1.2.3,bus2=BMT130384811.1.2.3,Phases=3,LineCode=tieSwitch,Length=0.001,Units=km,switch=T !numEQ 301360
new line.CTR64231 bus1=BMT122937273.1.2.3,bus2=BMT122937308.1.2.3,Phases=3,LineCode=tieSwitch,Length=0.001,Units=km,switch=T !numEQ 129147
new line.CTR909006 bus1=BMT169766040.1.2.3,bus2=BMT169766377.1.2.3,Phases=3,LineCode=tieSwitch,Length=0.001,Units=km,switch=T !numEQ 269455
new line.CTR909024 bus1=BMT169945620.1.2.3,bus2=BMT169945621.1.2.3,Phases=3,LineCode=tieSwitch,Length=0.001,Units=km,switch=T !numEQ 133119
open line.CTR909024 term=1
new line.CTR102143 bus1=BMT122937070.1.2.3,bus2=BMT169770509.1.2.3,Phases=3,LineCode=tieSwitch,Length=0.001,Units=km,switch=T !numEQ 104679
new line.CTR177246 bus1=BMT122939233.1.2.3,bus2=BMT122939331.1.2.3,Phases=3,LineCode=tieSwitch,Length=0.001,Units=km,switch=T !numEQ 191117
new line.CTR177260 bus1=BMT122939240.1.2.3,bus2=BMT122939317.1.2.3,Phases=3,LineCode=tieSwitch,Length=0.001,Units=km,switch=T !numEQ 191116
new line.CTR275092 bus1=BMT122937441.1.2.3,bus2=BMT122938190.1.2.3,Phases=3,LineCode=tieSwitch,Length=0.001,Units=km,switch=T !numEQ 190155
new line.CTR302406 bus1=BMT122939275.1.2.3,bus2=BMT122939289.1.2.3,Phases=3,LineCode=tieSwitch,Length=0.001,Units=km,switch=T !numEQ 217768
new line.CTR30456 bus1=BMT122938260.1.2.3,bus2=BMT122938309.1.2.3,Phases=3,LineCode=tieSwitch,Length=0.001,Units=km,switch=T !numEQ 195991
new line.CTR69733 bus1=BMT122937462.1.2.3,bus2=BMT164420052.1.2.3,Phases=3,LineCode=tieSwitch,Length=0.001,Units=km,switch=T !numEQ 123243
new line.CTR853285 bus1=BMT150843963.1.2.3,bus2=BMT161535982.1.2.3,Phases=3,LineCode=tieSwitch,Length=0.001,Units=km,switch=T !numEQ 377355
new line.CTR853328 bus1=BMT150858208.1.2.3,bus2=BMT150858247.1.2.3,Phases=3,LineCode=tieSwitch,Length=0.001,Units=km,switch=T !numEQ 378911
new line.CTR853330 bus1=BMT150858371.1.2.3,bus2=BMT150858403.1.2.3,Phases=3,LineCode=tieSwitch,Length=0.001,Units=km,switch=T !numEQ 378912
new line.CTR979 bus1=BMT122937084.1.2.3,bus2=BMT122937098.1.2.3,Phases=3,LineCode=tieSwitch,Length=0.001,Units=km,switch=T !numEQ 99670
new line.CTR189881 bus1=BMT122938218.1.2.3,bus2=BMT122938225.1.2.3,Phases=3,LineCode=tieSwitch,Length=0.001,Units=km,switch=T !numEQ 132967
new line.CTR23043 bus1=BMT122937665.1.2.3,bus2=BMT122937714.1.2.3,Phases=3,LineCode=tieSwitch,Length=0.001,Units=km,switch=T !numEQ 179123
new line.CTR2547 bus1=BMT122938911.1.2.3,bus2=BMT122939009.1.2.3,Phases=3,LineCode=tieSwitch,Length=0.001,Units=km,switch=T !numEQ 206984
new line.CTR276975 bus1=BMT122937658.1.2.3,bus2=BMT122937728.1.2.3,Phases=3,LineCode=tieSwitch,Length=0.001,Units=km,switch=T !numEQ 132913
new line.CTR276982 bus1=BMT122938057.1.2.3,bus2=BMT122938162.1.2.3,Phases=3,LineCode=tieSwitch,Length=0.001,Units=km,switch=T !numEQ 132871
new line.CTR4164 bus1=BMT122939142.1.2.3,bus2=BMT160124483.1.2.3,Phases=3,LineCode=tieSwitch,Length=0.001,Units=km,switch=T !numEQ 99688
new line.CTR65197 bus1=BMT122937266.1.2.3,bus2=BMT122937322.1.2.3,Phases=3,LineCode=tieSwitch,Length=0.001,Units=km,switch=T !numEQ 123854
new line.CTR883649 bus1=BMT160301641.2,bus2=BMT162310685.2,Phases=1,LineCode=tieSwitch1,Length=0.001,Units=km,switch=T !numEQ 232819
new line.CTR883989 bus1=BMT160517580.1.2.3,bus2=BMT160518317.1.2.3,Phases=3,LineCode=tieSwitch,Length=0.001,Units=km,switch=T !numEQ 295532
new line.CTR140678 bus1=BMT122936825.2,bus2=BMT166079256.2,Phases=1,LineCode=tieSwitch1,Length=0.001,Units=km,switch=T !numEQ 78881
new line.CTR140685 bus1=BMT122936818.2,bus2=BMT164501693.2,Phases=1,LineCode=tieSwitch1,Length=0.001,Units=km,switch=T !numEQ 78885
new line.CTR140692 bus1=BMT122936895.3,bus2=BMT122938463.3,Phases=1,LineCode=tieSwitch1,Length=0.001,Units=km,switch=T !numEQ 78887
new line.CTR140699 bus1=BMT122936888.2,bus2=BMT162277070.2,Phases=1,LineCode=tieSwitch1,Length=0.001,Units=km,switch=T !numEQ 78891
new line.CTR140706 bus1=BMT122938519.2,bus2=BMT122938561.2,Phases=1,LineCode=tieSwitch1,Length=0.001,Units=km,switch=T !numEQ 78892
new line.CTR15847 bus1=BMT122938064.1.2.3,bus2=BMT122938148.1.2.3,Phases=3,LineCode=tieSwitch,Length=0.001,Units=km,switch=T !numEQ 187592
new line.CTR15903 bus1=BMT122938372.1.2.3,bus2=BMT122938379.1.2.3,Phases=3,LineCode=tieSwitch,Length=0.001,Units=km,switch=T !numEQ 187638
new line.CTR261519 bus1=BMT122937518.1.2.3,bus2=BMT122937875.1.2.3,Phases=3,LineCode=tieSwitch,Length=0.001,Units=km,switch=T !numEQ 132686
new line.CTR261547 bus1=BMT122938113.1.2.3,bus2=BMT122938120.1.2.3,Phases=3,LineCode=tieSwitch,Length=0.001,Units=km,switch=T !numEQ 132397
new line.CTR286054 bus1=BMT167222445.1.2.3,bus2=BMT167222449.1.2.3,Phases=3,LineCode=tieSwitch,Length=0.001,Units=km,switch=T !numEQ 208646
new line.CTR42615 bus1=BMT122938085.1.2.3,bus2=BMT122938134.1.2.3,Phases=3,LineCode=tieSwitch,Length=0.001,Units=km,switch=T !numEQ 157223
new line.CTR42622 bus1=BMT122937952.1.2.3,bus2=BMT122938022.1.2.3,Phases=3,LineCode=tieSwitch,Length=0.001,Units=km,switch=T !numEQ 157224
new line.CTR42629 bus1=BMT122937497.1.2.3,bus2=BMT122937889.1.2.3,Phases=3,LineCode=tieSwitch,Length=0.001,Units=km,switch=T !numEQ 157225
new line.CTR57609 bus1=BMT122937238.1.2.3,bus2=BMT122937336.1.2.3,Phases=3,LineCode=tieSwitch,Length=0.001,Units=km,switch=T !numEQ 141741
new line.CTR62446 bus1=BMT122939079.1.2.3,bus2=BMT122939086.1.2.3,Phases=3,LineCode=tieSwitch,Length=0.001,Units=km,switch=T !numEQ 129303
new line.CTR8459668 bus1=BMT2008460021.1.2.3,bus2=BMT2008460014.1.2.3,Phases=3,LineCode=tieSwitch,Length=0.001,Units=km,switch=T !numEQ 
new line.CTR8459726 bus1=BMT2193753873.1.2.3,bus2=BMT2008460021.1.2.3,Phases=3,LineCode=tieSwitch,Length=0.001,Units=km,switch=T !numEQ 
new line.CTR8459728 bus1=BMT2008459924.1.2.3,bus2=BMT2193753873.1.2.3,Phases=3,LineCode=tieSwitch,Length=0.001,Units=km,switch=T !numEQ 
new line.CTR863042 bus1=BMT153635029.1.2.3,bus2=BMT159359993.1.2.3,Phases=3,LineCode=tieSwitch,Length=0.001,Units=km,switch=T !numEQ 179879
new line.CTR107309 bus1=BMT122937119.1.2.3,bus2=BMT122937126.1.2.3,Phases=3,LineCode=tieSwitch,Length=0.001,Units=km,switch=T !numEQ 99629
new line.CTR107386 bus1=BMT122936769.1.2.3,bus2=BMT135183892.1.2.3,Phases=3,LineCode=tieSwitch,Length=0.001,Units=km,switch=T !numEQ 99642
new line.CTR107491 bus1=BMT129022471.1.2.3,bus2=BMT167222337.1.2.3,Phases=3,LineCode=tieSwitch,Length=0.001,Units=km,switch=T !numEQ 280368
new line.CTR107519 bus1=BMT158675839.1.2.3,bus2=BMT117472065.1.2.3,Phases=3,LineCode=tieSwitch,Length=0.001,Units=km,switch=T !numEQ 99665
open line.CTR107519 term=1
new line.CTR107526 bus1=BMT122936951.1.2.3,bus2=BMT169945609.1.2.3,Phases=3,LineCode=tieSwitch,Length=0.001,Units=km,switch=T !numEQ 99666
new line.CTR107554 bus1=BMT122938666.1.2.3,bus2=BMT122939051.1.2.3,Phases=3,LineCode=tieSwitch,Length=0.001,Units=km,switch=T !numEQ 99677
new line.CTR107617 bus1=BMT122936902.1.2.3,bus2=BMT169766038.1.2.3,Phases=3,LineCode=tieSwitch,Length=0.001,Units=km,switch=T !numEQ 99684
new line.CTR107624 bus1=BMT122938631.1.2.3,bus2=BMT168608065.1.2.3,Phases=3,LineCode=tieSwitch,Length=0.001,Units=km,switch=T !numEQ 99686
new line.CTR108380 bus1=BMT122939198.1.2.3,bus2=BMT122939401.1.2.3,Phases=3,LineCode=tieSwitch,Length=0.001,Units=km,switch=T !numEQ 98316
new line.CTR108471 bus1=BMT122938624.1.2.3,bus2=BMT131428532.1.2.3,Phases=3,LineCode=tieSwitch,Length=0.001,Units=km,switch=T !numEQ 98329
new line.CTR108478 bus1=BMT122938680.1.2.3,bus2=BMT162659039.1.2.3,Phases=3,LineCode=tieSwitch,Length=0.001,Units=km,switch=T !numEQ 98330
new line.CTR108513 bus1=BMT122938715.1.2.3,bus2=BMT153236962.1.2.3,Phases=3,LineCode=tieSwitch,Length=0.001,Units=km,switch=T !numEQ 98336
new line.CTR108520 bus1=BMT122938694.1.2.3,bus2=BMT122938722.1.2.3,Phases=3,LineCode=tieSwitch,Length=0.001,Units=km,switch=T !numEQ 98337
new line.CTR108562 bus1=BMT122936916.1.2.3,bus2=BMT169766300.1.2.3,Phases=3,LineCode=tieSwitch,Length=0.001,Units=km,switch=T !numEQ 98346
new line.CTR108576 bus1=BMT122936937.1.2.3,bus2=BMT122936993.1.2.3,Phases=3,LineCode=tieSwitch,Length=0.001,Units=km,switch=T !numEQ 98348
new line.CTR108618 bus1=BMT122939135.1.2.3,bus2=BMT122939478.1.2.3,Phases=3,LineCode=tieSwitch,Length=0.001,Units=km,switch=T !numEQ 98354
new line.CTR108723 bus1=BMT122939170.1.2.3,bus2=BMT122939464.1.2.3,Phases=3,LineCode=tieSwitch,Length=0.001,Units=km,switch=T !numEQ 98369
new line.CTR108737 bus1=BMT122939226.1.2.3,bus2=BMT122939345.1.2.3,Phases=3,LineCode=tieSwitch,Length=0.001,Units=km,switch=T !numEQ 98371
new line.CTR16589 bus1=BMT122937616.1.2.3,bus2=BMT122937742.1.2.3,Phases=3,LineCode=tieSwitch,Length=0.001,Units=km,switch=T !numEQ 183144
new line.CTR16596 bus1=BMT122937917.1.2.3,bus2=BMT122938176.1.2.3,Phases=3,LineCode=tieSwitch,Length=0.001,Units=km,switch=T !numEQ 183145
new line.CTR239119 bus1=BMT122937539.1.2.3,bus2=BMT122937847.1.2.3,Phases=3,LineCode=tieSwitch,Length=0.001,Units=km,switch=T !numEQ 194624
new line.CTR24016 bus1=BMT122939065.1.2.3,bus2=BMT122939114.1.2.3,Phases=3,LineCode=tieSwitch,Length=0.001,Units=km,switch=T !numEQ 179036
new line.CTR267196 bus1=BMT122937224.1.2.3,bus2=BMT160805250.1.2.3,Phases=3,LineCode=tieSwitch,Length=0.001,Units=km,switch=T !numEQ 123242
new line.CTR290625 bus1=BMT122936944.1.2.3,bus2=BMT122938435.1.2.3,Phases=3,LineCode=tieSwitch,Length=0.001,Units=km,switch=T !numEQ 211750
new line.CTR290744 bus1=BMT122938729.1.2.3,bus2=BMT122938771.1.2.3,Phases=3,LineCode=tieSwitch,Length=0.001,Units=km,switch=T !numEQ 213400
new line.CTR457694 bus1=BMT145250522.1.2.3,bus2=BMT145250529.1.2.3,Phases=3,LineCode=tieSwitch,Length=0.001,Units=km,switch=T !numEQ 317344
new line.CTR6054 bus1=BMT122939212.1.2.3,bus2=BMT122939387.1.2.3,Phases=3,LineCode=tieSwitch,Length=0.001,Units=km,switch=T !numEQ 156679
new line.CTR65715 bus1=BMT122936972.1.2.3,bus2=BMT122936979.1.2.3,Phases=3,LineCode=tieSwitch,Length=0.001,Units=km,switch=T !numEQ 123947
new line.CTR65750 bus1=BMT122939268.1.2.3,bus2=BMT122939303.1.2.3,Phases=3,LineCode=tieSwitch,Length=0.001,Units=km,switch=T !numEQ 123720
new line.CTR65764 bus1=BMT167222107.1.2.3,bus2=BMT167222111.1.2.3,Phases=3,LineCode=tieSwitch,Length=0.001,Units=km,switch=T !numEQ 123722
new line.CTR65813 bus1=BMT122939415.1.2.3,bus2=BMT122939436.1.2.3,Phases=3,LineCode=tieSwitch,Length=0.001,Units=km,switch=T !numEQ 123729
new line.CTR856889 bus1=BMT151897953.1.2.3,bus2=BMT160805413.1.2.3,Phases=3,LineCode=tieSwitch,Length=0.001,Units=km,switch=T !numEQ 385284
new line.CTRR41319 bus1=BMT169769120.1.2.3,bus2=BMT169769939.1.2.3,Phases=3,LineCode=tieSwitch,Length=0.001,Units=km,switch=T !numEQ 275592
new line.CTR12396 bus1=BMT122937553.1.2.3,bus2=BMT122937833.1.2.3,Phases=3,LineCode=tieSwitch,Length=0.001,Units=km,switch=T !numEQ 187988
new line.CTR1532 bus1=BMT122938743.1.2.3,bus2=BMT122938757.1.2.3,Phases=3,LineCode=tieSwitch,Length=0.001,Units=km,switch=T !numEQ 187775
new line.CTR19634 bus1=BMT167220553.1.2.3,bus2=BMT167220990.1.2.3,Phases=3,LineCode=tieSwitch,Length=0.001,Units=km,switch=T !numEQ 195724
new line.CTR281749 bus1=BMT122939366.1.2.3,bus2=BMT122939373.1.2.3,Phases=3,LineCode=tieSwitch,Length=0.001,Units=km,switch=T !numEQ 156471
new line.CTR346793 bus1=BMT122937567.1.2.3,bus2=BMT122937819.1.2.3,Phases=3,LineCode=tieSwitch,Length=0.001,Units=km,switch=T !numEQ 228416
new line.CTR35020 bus1=BMT122937105.1.2.3,bus2=BMT122937147.1.2.3,Phases=3,LineCode=tieSwitch,Length=0.001,Units=km,switch=T !numEQ 159224
new line.CTR384859 bus1=BMT167221730.1.2.3,bus2=BMT167221816.1.2.3,Phases=3,LineCode=tieSwitch,Length=0.001,Units=km,switch=T !numEQ 287216
new line.CTR420832 bus1=BMT135181848.1.2.3,bus2=BMT135181855.1.2.3,Phases=3,LineCode=tieSwitch,Length=0.001,Units=km,switch=T !numEQ 301429
new line.CTR460662 bus1=BMT146012206.1.2.3,bus2=BMT159994962.1.2.3,Phases=3,LineCode=tieSwitch,Length=0.001,Units=km,switch=T !numEQ 311266
new line.CTR56090 bus1=BMT122939408.1.2.3,bus2=BMT122939450.1.2.3,Phases=3,LineCode=tieSwitch,Length=0.001,Units=km,switch=T !numEQ 141928
new line.CTR56496 bus1=BMT150844213.1.2.3,bus2=BMT150844267.1.2.3,Phases=3,LineCode=tieSwitch,Length=0.001,Units=km,switch=T !numEQ 142008
new line.CTR56517 bus1=BMT122938876.1.2.3,bus2=BMT122939037.1.2.3,Phases=3,LineCode=tieSwitch,Length=0.001,Units=km,switch=T !numEQ 142011
new line.CTR56524 bus1=BMT122938701.1.2.3,bus2=BMT122938855.1.2.3,Phases=3,LineCode=tieSwitch,Length=0.001,Units=km,switch=T !numEQ 142012
new line.CTR56531 bus1=BMT122938904.1.2.3,bus2=BMT122939023.1.2.3,Phases=3,LineCode=tieSwitch,Length=0.001,Units=km,switch=T !numEQ 142013
new line.CTR56538 bus1=BMT122938792.1.2.3,bus2=BMT122938841.1.2.3,Phases=3,LineCode=tieSwitch,Length=0.001,Units=km,switch=T !numEQ 142014
new line.CTR7790 bus1=BMT122939667.2,bus2=BMT122939681.2,Phases=1,LineCode=tieSwitch1,Length=0.001,Units=km,switch=T !numEQ 177864
new line.CTR7846 bus1=BMT122938099.1.2.3,bus2=BMT122938106.1.2.3,Phases=3,LineCode=tieSwitch,Length=0.001,Units=km,switch=T !numEQ 79986
new line.CTR888165 bus1=BMT162277073.2,bus2=BMT162279604.2,Phases=1,LineCode=tieSwitch1,Length=0.001,Units=km,switch=T !numEQ 225093
