new line.18696011 bus1=BBT148454210.1.2.0,bus2=BBT148454211.1.2.0,Phases=2,Linecode=BT521_BT521_7_2_1,Length=0.000501000,Units=km
new line.18742415 bus1=BBT149750916.1.2.3.0,bus2=BBT149750917.1.2.3.0,Phases=3,Linecode=BT521_BT521_7_3_1,Length=0.000501000,Units=km
new line.18841064 bus1=BBT152728760.1.2.3.0,bus2=BBT152728762.1.2.3.0,Phases=3,Linecode=BT521_BT521_7_3_1,Length=0.000501000,Units=km
new line.19093886 bus1=BBT160300989.1.2.0,bus2=BBT160300990.1.2.0,Phases=2,Linecode=BT508_BT508_7_2_1,Length=0.000501000,Units=km
new line.19093893 bus1=BBT160301199.1.2.0,bus2=BBT160301200.1.2.0,Phases=2,Linecode=BT521_BT521_7_2_1,Length=0.000501000,Units=km
new line.19143367 bus1=BBT162279608.1.2.0,bus2=BBT162279609.1.2.0,Phases=2,Linecode=BT513_BT513_7_2_1,Length=0.000501000,Units=km
new line.19143576 bus1=BBT162289583.1.2.0,bus2=BBT162289584.1.2.0,Phases=2,Linecode=BT521_BT521_7_2_1,Length=0.000501000,Units=km
new line.19143624 bus1=BBT162293916.1.2.0,bus2=BBT162293917.1.2.0,Phases=2,Linecode=BT521_BT521_7_2_1,Length=0.000501000,Units=km
new line.19144064 bus1=BBT162310691.1.2.0,bus2=BBT162310692.1.2.0,Phases=2,Linecode=BT521_BT521_7_2_1,Length=0.000501000,Units=km
new line.307509 bus1=BBT336958.1.0,bus2=BBT3916289.1.0,Phases=1,Linecode=BT106_BT106_7_1_1,Length=0.087222000,Units=km
new line.307516 bus1=BBT336958.2.0,bus2=BBT3916310.2.0,Phases=1,Linecode=BT106_BT106_7_1_1,Length=0.066653000,Units=km
new line.307523 bus1=BBT336965.1.2.0,bus2=BBT336972.1.2.0,Phases=2,Linecode=BT508_BT508_7_2_1,Length=0.000501000,Units=km
new line.307530 bus1=BBT336972.1.2.0,bus2=BBT3937345.1.2.0,Phases=2,Linecode=BT106_BT106_7_2_1,Length=0.079419000,Units=km
new line.307537 bus1=BBT336979.1.2.0,bus2=BBT336986.1.2.0,Phases=2,Linecode=BT508_BT508_7_2_1,Length=0.000501000,Units=km
new line.307544 bus1=BBT336986.1.0,bus2=BBT3925004.1.0,Phases=1,Linecode=BT106_BT106_7_1_1,Length=0.063794000,Units=km
new line.307558 bus1=BBT336993.1.2.0,bus2=BBT337000.1.2.0,Phases=2,Linecode=BT508_BT508_7_2_1,Length=0.000501000,Units=km
new line.307565 bus1=BBT337000.1.0,bus2=BBT3916240.1.0,Phases=1,Linecode=BT106_BT106_7_1_1,Length=0.068489000,Units=km
new line.307572 bus1=BBT337000.2.0,bus2=BBT3916254.2.0,Phases=1,Linecode=BT106_BT106_7_1_1,Length=0.066721000,Units=km
new line.307579 bus1=BBT337007.1.2.0,bus2=BBT337014.1.2.0,Phases=2,Linecode=BT508_BT508_7_2_1,Length=0.000501000,Units=km
new line.307593 bus1=BBT337014.2.0,bus2=BBT3937079.2.0,Phases=1,Linecode=BT106_BT106_7_1_1,Length=0.069274000,Units=km
new line.307600 bus1=BBT337014.1.0,bus2=BBT3937086.1.0,Phases=1,Linecode=BT106_BT106_7_1_1,Length=0.050488000,Units=km
new line.307607 bus1=BBT337021.1.2.0,bus2=BBT337028.1.2.0,Phases=2,Linecode=BT508_BT508_7_2_1,Length=0.000501000,Units=km
new line.307614 bus1=BBT337028.1.0,bus2=BBT3916380.1.0,Phases=1,Linecode=BT106_BT106_7_1_1,Length=0.038491000,Units=km
new line.307628 bus1=BBT337049.1.2.0,bus2=BBT337056.1.2.0,Phases=2,Linecode=BT508_BT508_7_2_1,Length=0.000501000,Units=km
new line.307635 bus1=BBT337063.1.2.0,bus2=BBT337070.1.2.0,Phases=2,Linecode=BT508_BT508_7_2_1,Length=0.000501000,Units=km
new line.307649 bus1=BBT337070.1.2.0,bus2=BBT3918074.1.2.0,Phases=2,Linecode=BT801_BT801_4_2_3,Length=0.042552000,Units=km
new line.307656 bus1=BBT337077.1.2.0,bus2=BBT337084.1.2.0,Phases=2,Linecode=BT508_BT508_7_2_1,Length=0.000501000,Units=km
new line.307663 bus1=BBT337084.1.0,bus2=BBT3918270.1.0,Phases=1,Linecode=BT106_BT106_7_1_1,Length=0.095724000,Units=km
new line.307670 bus1=BBT337084.1.0,bus2=BBT3918242.1.0,Phases=1,Linecode=BT106_BT106_7_1_1,Length=0.080965000,Units=km
new line.307677 bus1=BBT337091.1.2.0,bus2=BBT337098.1.2.0,Phases=2,Linecode=BT513_BT513_7_2_1,Length=0.000501000,Units=km
new line.307684 bus1=BBT337105.1.2.0,bus2=BBT337112.1.2.0,Phases=2,Linecode=BT508_BT508_7_2_1,Length=0.000501000,Units=km
new line.307698 bus1=BBT337119.1.2.0,bus2=BBT337126.1.2.0,Phases=2,Linecode=BT508_BT508_7_2_1,Length=0.000501000,Units=km
new line.307705 bus1=BBT337126.1.2.0,bus2=BBT3916219.1.2.0,Phases=2,Linecode=BT106_BT106_7_2_1,Length=0.027208000,Units=km
new line.307719 bus1=BBT337133.1.2.0,bus2=BBT337140.1.2.0,Phases=2,Linecode=BT508_BT508_7_2_1,Length=0.000501000,Units=km
new line.307726 bus1=BBT337147.1.2.0,bus2=BBT337154.1.2.0,Phases=2,Linecode=BT513_BT513_7_2_1,Length=0.000501000,Units=km
new line.307894 bus1=BBT337329.1.2.0,bus2=BBT337336.1.2.0,Phases=2,Linecode=BT508_BT508_7_2_1,Length=0.000501000,Units=km
new line.307908 bus1=BBT337343.1.2.0,bus2=BBT337350.1.2.0,Phases=2,Linecode=BT508_BT508_7_2_1,Length=0.000501000,Units=km
new line.307915 bus1=BBT337357.1.2.0,bus2=BBT337364.1.2.0,Phases=2,Linecode=BT508_BT508_7_2_1,Length=0.000501000,Units=km
new line.307922 bus1=BBT337364.1.0,bus2=BBT3916870.1.0,Phases=1,Linecode=BT106_BT106_7_1_1,Length=0.079946000,Units=km
new line.307929 bus1=BBT337364.2.0,bus2=BBT3916863.2.0,Phases=1,Linecode=BT811_BT811_4_1_3,Length=0.038296000,Units=km
new line.307943 bus1=BBT337371.1.2.0,bus2=BBT337378.1.2.0,Phases=2,Linecode=BT508_BT508_7_2_1,Length=0.000501000,Units=km
new line.308013 bus1=BBT337455.1.2.0,bus2=BBT337462.1.2.0,Phases=2,Linecode=BT508_BT508_7_2_1,Length=0.000501000,Units=km
new line.308020 bus1=BBT337462.1.0,bus2=BBT3938255.1.0,Phases=1,Linecode=BT106_BT106_7_1_1,Length=0.082943000,Units=km
new line.308041 bus1=BBT337483.1.2.0,bus2=BBT337490.1.2.0,Phases=2,Linecode=BT508_BT508_7_2_1,Length=0.000501000,Units=km
new line.308048 bus1=BBT337490.1.0,bus2=BBT3925347.1.0,Phases=1,Linecode=BT106_BT106_7_1_1,Length=0.084189000,Units=km
new line.3554158 bus1=BBT6194824.1.2.0,bus2=BBT6194831.1.2.0,Phases=2,Linecode=BT508_BT508_7_2_1,Length=0.000501000,Units=km
new line.3554228 bus1=BBT2679949.1.2.3.0,bus2=BBT2679956.1.2.3.0,Phases=3,Linecode=BT810_BT810_4_3_4,Length=0.022209000,Units=km
new line.3554235 bus1=BBT2679949.1.2.3.0,bus2=BBT2795890.1.2.3.0,Phases=3,Linecode=BT803_BT803_4_3_4,Length=0.035236000,Units=km
new line.3554242 bus1=BBT2679942.1.2.3.0,bus2=BBT2679949.1.2.3.0,Phases=3,Linecode=BT810_BT810_4_3_4,Length=0.033143000,Units=km
new line.3554347 bus1=BBT2679935.1.2.3.0,bus2=BBT2679942.1.2.3.0,Phases=3,Linecode=BT810_BT810_4_3_4,Length=0.031071000,Units=km
new line.3554354 bus1=BBT2679935.1.2.3.0,bus2=BBT2680068.1.2.3.0,Phases=3,Linecode=BT810_BT810_4_3_4,Length=0.039124000,Units=km
new line.3554361 bus1=BBT2680075.1.2.3.0,bus2=BBT2796597.1.2.3.0,Phases=3,Linecode=BT810_BT810_4_3_4,Length=0.033068000,Units=km
new line.3554368 bus1=BBT2680075.1.2.3.0,bus2=BBT2680089.1.2.3.0,Phases=3,Linecode=BT810_BT810_4_3_4,Length=0.042199000,Units=km
new line.3554375 bus1=BBT2680075.1.2.3.0,bus2=BBT2796681.1.2.3.0,Phases=3,Linecode=BT803_BT803_4_3_4,Length=0.038061000,Units=km
new line.3554382 bus1=BBT2680089.1.2.3.0,bus2=BBT2680096.1.2.3.0,Phases=3,Linecode=BT810_BT810_4_3_4,Length=0.026083000,Units=km
new line.3554389 bus1=BBT2680089.1.2.3.0,bus2=BBT2797199.1.2.3.0,Phases=3,Linecode=BT810_BT810_4_3_4,Length=0.039060000,Units=km
new line.3554396 bus1=BBT2680089.1.2.3.0,bus2=BBT2797241.1.2.3.0,Phases=3,Linecode=BT810_BT810_4_3_4,Length=0.035236000,Units=km
new line.3554403 bus1=BBT2680096.1.2.3.0,bus2=BBT2680103.1.2.3.0,Phases=3,Linecode=BT810_BT810_4_3_4,Length=0.032147000,Units=km
new line.3554417 bus1=BBT2679928.1.2.3.0,bus2=BBT2679935.1.2.3.0,Phases=3,Linecode=BT810_BT810_4_3_4,Length=0.044191000,Units=km
new line.3554424 bus1=BBT2679921.1.2.3.0,bus2=BBT2679928.1.2.3.0,Phases=3,Linecode=BT810_BT810_4_3_4,Length=0.045287000,Units=km
new line.3554431 bus1=BBT2679914.1.2.3.0,bus2=BBT2679921.1.2.3.0,Phases=3,Linecode=BT509_BT509_7_3_1,Length=0.000501000,Units=km
new line.3554438 bus1=BBT2679921.1.2.3.0,bus2=BBT2679970.1.2.3.0,Phases=3,Linecode=BT810_BT810_4_3_4,Length=0.034022000,Units=km
new line.3554445 bus1=BBT2679970.1.2.3.0,bus2=BBT2679977.1.2.3.0,Phases=3,Linecode=BT810_BT810_4_3_4,Length=0.030156000,Units=km
new line.3554466 bus1=BBT2679977.1.2.3.0,bus2=BBT2679984.1.2.3.0,Phases=3,Linecode=BT810_BT810_4_3_4,Length=0.037129000,Units=km
new line.3554473 bus1=BBT2679977.1.2.3.0,bus2=BBT2796240.1.2.3.0,Phases=3,Linecode=BT810_BT810_4_3_4,Length=0.039213000,Units=km
new line.3554648 bus1=BBT2679984.1.2.3.0,bus2=BBT2679991.1.2.3.0,Phases=3,Linecode=BT810_BT810_4_3_4,Length=0.035136000,Units=km
new line.3554690 bus1=BBT2679991.1.2.3.0,bus2=BBT2679998.1.2.3.0,Phases=3,Linecode=BT810_BT810_4_3_4,Length=0.043114000,Units=km
new line.3554732 bus1=BBT2679998.1.2.3.0,bus2=BBT2680005.1.2.3.0,Phases=3,Linecode=BT810_BT810_4_3_4,Length=0.034242000,Units=km
new line.3554746 bus1=BBT2680005.1.2.3.0,bus2=BBT2680012.1.2.3.0,Phases=3,Linecode=BT810_BT810_4_3_4,Length=0.031071000,Units=km
new line.3554753 bus1=BBT2680005.1.2.3.0,bus2=BBT2796261.1.2.3.0,Phases=3,Linecode=BT810_BT810_4_3_4,Length=0.035136000,Units=km
new line.3554767 bus1=BBT2680012.1.2.3.0,bus2=BBT2680019.1.2.3.0,Phases=3,Linecode=BT810_BT810_4_3_4,Length=0.030073000,Units=km
new line.3554788 bus1=BBT2680019.1.2.3.0,bus2=BBT2680026.1.2.3.0,Phases=3,Linecode=BT810_BT810_4_3_4,Length=0.022028000,Units=km
new line.3554795 bus1=BBT2680019.1.2.3.0,bus2=BBT2796191.1.2.3.0,Phases=3,Linecode=BT803_BT803_4_3_4,Length=0.032023000,Units=km
new line.3554928 bus1=BBT2680103.1.2.3.0,bus2=BBT2680110.1.2.3.0,Phases=3,Linecode=BT810_BT810_4_3_4,Length=0.029075000,Units=km
new line.3554935 bus1=BBT2680110.1.2.3.0,bus2=BBT2680124.1.2.3.0,Phases=3,Linecode=BT810_BT810_4_3_4,Length=0.029075000,Units=km
new line.3554942 bus1=BBT2680082.1.2.3.0,bus2=BBT2680075.1.2.3.0,Phases=3,Linecode=BT810_BT810_4_3_4,Length=0.041204000,Units=km
new line.3554949 bus1=BBT2796583.1.2.3.0,bus2=BBT2680082.1.2.3.0,Phases=3,Linecode=BT509_BT509_7_3_1,Length=0.000501000,Units=km
new line.3554956 bus1=BBT2680082.1.2.3.0,bus2=BBT2796961.1.2.3.0,Phases=3,Linecode=BT803_BT803_4_3_4,Length=0.034022000,Units=km
new line.3554963 bus1=BBT2680180.1.2.3.0,bus2=BBT2680187.1.2.3.0,Phases=3,Linecode=BT810_BT810_4_3_4,Length=0.043056000,Units=km
new line.3554970 bus1=BBT2680173.1.2.3.0,bus2=BBT2680180.1.2.3.0,Phases=3,Linecode=BT810_BT810_4_3_4,Length=0.041119000,Units=km
new line.3554977 bus1=BBT2680159.1.2.3.0,bus2=BBT2680173.1.2.3.0,Phases=3,Linecode=BT810_BT810_4_3_4,Length=0.033068000,Units=km
new line.3554984 bus1=BBT2680159.1.2.3.0,bus2=BBT2680166.1.2.3.0,Phases=3,Linecode=BT810_BT810_4_3_4,Length=0.038127000,Units=km
new line.3554991 bus1=BBT2680159.1.2.3.0,bus2=BBT2797010.1.2.3.0,Phases=3,Linecode=BT810_BT810_4_3_4,Length=0.038021000,Units=km
new line.3554998 bus1=BBT2680166.1.2.3.0,bus2=BBT2797052.1.2.3.0,Phases=3,Linecode=BT810_BT810_4_3_4,Length=0.037130000,Units=km
new line.3555005 bus1=BBT2680152.1.2.3.0,bus2=BBT2680159.1.2.3.0,Phases=3,Linecode=BT803_BT803_4_3_4,Length=0.041313000,Units=km
new line.3555012 bus1=BBT2680145.1.2.3.0,bus2=BBT2680152.1.2.3.0,Phases=3,Linecode=BT803_BT803_4_3_4,Length=0.043114000,Units=km
new line.3555019 bus1=BBT2680138.1.2.3.0,bus2=BBT2680145.1.2.3.0,Phases=3,Linecode=BT803_BT803_4_3_4,Length=0.032070000,Units=km
new line.3555026 bus1=BBT2680131.1.2.3.0,bus2=BBT2680138.1.2.3.0,Phases=3,Linecode=BT509_BT509_7_3_1,Length=0.000501000,Units=km
new line.3555033 bus1=BBT2680138.1.2.3.0,bus2=BBT2680194.1.2.3.0,Phases=3,Linecode=BT803_BT803_4_3_4,Length=0.032070000,Units=km
new line.3555040 bus1=BBT2680194.1.2.3.0,bus2=BBT2680201.1.2.3.0,Phases=3,Linecode=BT810_BT810_4_3_4,Length=0.040121000,Units=km
new line.3555047 bus1=BBT2680201.1.2.3.0,bus2=BBT2680208.1.2.3.0,Phases=3,Linecode=BT810_BT810_4_3_4,Length=0.034066000,Units=km
new line.3555054 bus1=BBT2680208.1.2.3.0,bus2=BBT2680215.1.2.3.0,Phases=3,Linecode=BT810_BT810_4_3_4,Length=0.038218000,Units=km
new line.3555061 bus1=BBT2680215.1.2.3.0,bus2=BBT2680222.1.2.3.0,Phases=3,Linecode=BT810_BT810_4_3_4,Length=0.040121000,Units=km
new line.3555068 bus1=BBT2680222.1.2.3.0,bus2=BBT2680229.1.2.3.0,Phases=3,Linecode=BT810_BT810_4_3_4,Length=0.035136000,Units=km
new line.3555614 bus1=BBT2680572.1.2.3.0,bus2=BBT2680600.1.2.3.0,Phases=3,Linecode=BT803_BT803_4_3_4,Length=0.038126000,Units=km
new line.3555621 bus1=BBT2680572.1.2.3.0,bus2=BBT2680586.1.2.3.0,Phases=3,Linecode=BT803_BT803_4_3_4,Length=0.034066000,Units=km
new line.3555649 bus1=BBT2680600.1.2.3.0,bus2=BBT2680607.1.2.3.0,Phases=3,Linecode=BT803_BT803_4_3_4,Length=0.037129000,Units=km
new line.3555663 bus1=BBT2680565.1.2.3.0,bus2=BBT2680572.1.2.3.0,Phases=3,Linecode=BT810_BT810_4_3_4,Length=0.031071000,Units=km
new line.3555670 bus1=BBT2680558.1.2.3.0,bus2=BBT2680565.1.2.3.0,Phases=3,Linecode=BT509_BT509_7_3_1,Length=0.000501000,Units=km
new line.3555677 bus1=BBT2680565.1.2.3.0,bus2=BBT2680579.1.2.3.0,Phases=3,Linecode=BT810_BT810_4_3_4,Length=0.033143000,Units=km
new line.3555684 bus1=BBT2680579.1.2.3.0,bus2=BBT2798977.1.2.3.0,Phases=3,Linecode=BT810_BT810_4_3_4,Length=0.034139000,Units=km
new line.3555691 bus1=BBT2680579.1.2.3.0,bus2=BBT2798956.1.2.3.0,Phases=3,Linecode=BT810_BT810_4_3_4,Length=0.036063000,Units=km
new line.3555705 bus1=BBT2680607.1.2.3.0,bus2=BBT2680614.1.2.3.0,Phases=3,Linecode=BT803_BT803_4_3_4,Length=0.039124000,Units=km
new line.3555719 bus1=BBT2680586.1.2.3.0,bus2=BBT2680593.1.2.3.0,Phases=3,Linecode=BT803_BT803_4_3_4,Length=0.033143000,Units=km
new line.3555726 bus1=BBT2680593.1.2.3.0,bus2=BBT2799166.1.2.3.0,Phases=3,Linecode=BT803_BT803_4_3_4,Length=0.041118000,Units=km
new line.3555789 bus1=BBT2680754.1.2.3.0,bus2=BBT2680747.1.2.3.0,Phases=3,Linecode=BT810_BT810_4_3_4,Length=0.030156000,Units=km
new line.3555796 bus1=BBT2680754.1.2.3.0,bus2=BBT2798431.1.2.3.0,Phases=3,Linecode=BT803_BT803_4_3_4,Length=0.040208000,Units=km
new line.3555803 bus1=BBT2680747.1.2.3.0,bus2=BBT2680740.1.2.3.0,Phases=3,Linecode=BT810_BT810_4_3_4,Length=0.033143000,Units=km
new line.3555810 bus1=BBT2680740.1.2.3.0,bus2=BBT2798501.1.2.3.0,Phases=3,Linecode=BT810_BT810_4_3_4,Length=0.042116000,Units=km
new line.3555817 bus1=BBT2680726.1.2.3.0,bus2=BBT2680733.1.2.3.0,Phases=3,Linecode=BT810_BT810_4_3_4,Length=0.038061000,Units=km
new line.3555824 bus1=BBT2680726.1.2.3.0,bus2=BBT2798704.1.2.3.0,Phases=3,Linecode=BT810_BT810_4_3_4,Length=0.030156000,Units=km
new line.3555831 bus1=BBT2680719.1.2.3.0,bus2=BBT2680726.1.2.3.0,Phases=3,Linecode=BT810_BT810_4_3_4,Length=0.036229000,Units=km
new line.3555866 bus1=BBT2680684.1.2.3.0,bus2=BBT2680719.1.2.3.0,Phases=3,Linecode=BT810_BT810_4_3_4,Length=0.037062000,Units=km
new line.3555873 bus1=BBT2680684.1.2.3.0,bus2=BBT2680691.1.2.3.0,Phases=3,Linecode=BT803_BT803_4_3_4,Length=0.025185000,Units=km
new line.3555894 bus1=BBT2680691.1.2.3.0,bus2=BBT2680698.1.2.3.0,Phases=3,Linecode=BT803_BT803_4_3_4,Length=0.034066000,Units=km
new line.3555901 bus1=BBT2680698.1.2.3.0,bus2=BBT2680705.1.2.3.0,Phases=3,Linecode=BT810_BT810_4_3_4,Length=0.032256000,Units=km
new line.3555908 bus1=BBT2680698.1.2.3.0,bus2=BBT2798879.1.2.3.0,Phases=3,Linecode=BT803_BT803_4_3_4,Length=0.037224000,Units=km
new line.3555915 bus1=BBT2798900.1.2.3.0,bus2=BBT157425732.1.2.3.0,Phases=3,Linecode=BT803_BT803_4_3_4,Length=0.038021000,Units=km
new line.3555929 bus1=BBT2680705.1.2.3.0,bus2=BBT2680712.1.2.3.0,Phases=3,Linecode=BT810_BT810_4_3_4,Length=0.040121000,Units=km
new line.3555943 bus1=BBT2680712.1.2.3.0,bus2=BBT2798767.1.2.3.0,Phases=3,Linecode=BT810_BT810_4_3_4,Length=0.039060000,Units=km
new line.3555950 bus1=BBT2680677.1.2.3.0,bus2=BBT2680684.1.2.3.0,Phases=3,Linecode=BT803_BT803_4_3_4,Length=0.025026000,Units=km
new line.3555957 bus1=BBT2680670.1.2.3.0,bus2=BBT2680677.1.2.3.0,Phases=3,Linecode=BT803_BT803_4_3_4,Length=0.030156000,Units=km
new line.3555964 bus1=BBT2680663.1.2.3.0,bus2=BBT2680670.1.2.3.0,Phases=3,Linecode=BT509_BT509_7_3_1,Length=0.000501000,Units=km
new line.3555971 bus1=BBT2680670.1.2.3.0,bus2=BBT2680761.1.2.3.0,Phases=3,Linecode=BT803_BT803_4_3_4,Length=0.032147000,Units=km
new line.3555985 bus1=BBT2680761.1.2.3.0,bus2=BBT2680768.1.2.3.0,Phases=3,Linecode=BT810_BT810_4_3_4,Length=0.040121000,Units=km
new line.3555992 bus1=BBT2680761.1.2.3.0,bus2=BBT2680782.1.2.3.0,Phases=3,Linecode=BT810_BT810_4_3_4,Length=0.032147000,Units=km
new line.3555999 bus1=BBT2680761.1.2.3.0,bus2=BBT2798606.1.2.3.0,Phases=3,Linecode=BT803_BT803_4_3_4,Length=0.034022000,Units=km
new line.3556006 bus1=BBT2680768.1.2.3.0,bus2=BBT2680775.1.2.3.0,Phases=3,Linecode=BT810_BT810_4_3_4,Length=0.031152000,Units=km
new line.3556013 bus1=BBT2680775.1.2.3.0,bus2=BBT2798585.1.2.3.0,Phases=3,Linecode=BT810_BT810_4_3_4,Length=0.038061000,Units=km
new line.3556020 bus1=BBT2680775.1.2.3.0,bus2=BBT2798550.1.2.3.0,Phases=3,Linecode=BT810_BT810_4_3_4,Length=0.033022000,Units=km
new line.3556027 bus1=BBT2680782.1.2.3.0,bus2=BBT2680789.1.2.3.0,Phases=3,Linecode=BT810_BT810_4_3_4,Length=0.037129000,Units=km
new line.3556034 bus1=BBT2680789.1.2.3.0,bus2=BBT2680796.1.2.3.0,Phases=3,Linecode=BT810_BT810_4_3_4,Length=0.037062000,Units=km
new line.3556041 bus1=BBT2680796.1.2.3.0,bus2=BBT2798676.1.2.3.0,Phases=3,Linecode=BT810_BT810_4_3_4,Length=0.043195000,Units=km
new line.3657128 bus1=BBT6195174.1.2.0,bus2=BBT6195181.1.2.0,Phases=2,Linecode=BT508_BT508_7_2_1,Length=0.000501000,Units=km
new line.3657296 bus1=BBT4070639.1.2.3.0,bus2=BBT4070646.1.2.3.0,Phases=3,Linecode=BT509_BT509_7_3_1,Length=0.000501000,Units=km
new line.3657380 bus1=BBT2797157.1.2.3.0,bus2=BBT2797164.1.2.3.0,Phases=3,Linecode=BT810_BT810_4_3_4,Length=0.031071000,Units=km
new line.3657408 bus1=BBT2797073.1.2.3.0,bus2=BBT2797150.1.2.3.0,Phases=3,Linecode=BT810_BT810_4_3_4,Length=0.043114000,Units=km
new line.3657863 bus1=BBT2797178.1.2.3.0,bus2=BBT2797185.1.2.3.0,Phases=3,Linecode=BT810_BT810_4_3_4,Length=0.041119000,Units=km
new line.3657891 bus1=BBT2797171.1.2.3.0,bus2=BBT2797178.1.2.3.0,Phases=3,Linecode=BT810_BT810_4_3_4,Length=0.042116000,Units=km
new line.3657919 bus1=BBT2797164.1.2.3.0,bus2=BBT2797171.1.2.3.0,Phases=3,Linecode=BT810_BT810_4_3_4,Length=0.044112000,Units=km
new line.3657968 bus1=BBT2797150.1.2.3.0,bus2=BBT2797157.1.2.3.0,Phases=3,Linecode=BT810_BT810_4_3_4,Length=0.033068000,Units=km
new line.3658038 bus1=BBT2797010.1.2.3.0,bus2=BBT2797017.1.2.3.0,Phases=3,Linecode=BT810_BT810_4_3_4,Length=0.036229000,Units=km
new line.3658073 bus1=BBT2797017.1.2.3.0,bus2=BBT2797038.1.2.3.0,Phases=3,Linecode=BT810_BT810_4_3_4,Length=0.031152000,Units=km
new line.3658080 bus1=BBT2797017.1.2.3.0,bus2=BBT2797024.1.2.3.0,Phases=3,Linecode=BT810_BT810_4_3_4,Length=0.039060000,Units=km
new line.3658122 bus1=BBT2797038.1.2.3.0,bus2=BBT2797045.1.2.3.0,Phases=3,Linecode=BT810_BT810_4_3_4,Length=0.042199000,Units=km
new line.3658136 bus1=BBT2797024.1.2.3.0,bus2=BBT2797031.1.2.3.0,Phases=3,Linecode=BT810_BT810_4_3_4,Length=0.046281000,Units=km
new line.3658157 bus1=BBT2797465.1.2.3.0,bus2=BBT2797486.1.2.3.0,Phases=3,Linecode=BT810_BT810_4_3_4,Length=0.041058000,Units=km
new line.3658164 bus1=BBT2797465.1.2.3.0,bus2=BBT2797472.1.2.3.0,Phases=3,Linecode=BT810_BT810_4_3_4,Length=0.039213000,Units=km
new line.3658234 bus1=BBT2797486.1.2.3.0,bus2=BBT2797493.1.2.3.0,Phases=3,Linecode=BT810_BT810_4_3_4,Length=0.033022000,Units=km
new line.3658262 bus1=BBT2797458.1.2.3.0,bus2=BBT2797465.1.2.3.0,Phases=3,Linecode=BT810_BT810_4_3_4,Length=0.035065000,Units=km
new line.3658290 bus1=BBT2797283.1.2.3.0,bus2=BBT2797458.1.2.3.0,Phases=3,Linecode=BT810_BT810_4_3_4,Length=0.041204000,Units=km
new line.3658297 bus1=BBT2797283.1.2.3.0,bus2=BBT2797346.1.2.3.0,Phases=3,Linecode=BT810_BT810_4_3_4,Length=0.042116000,Units=km
new line.3658304 bus1=BBT2797283.1.2.3.0,bus2=BBT2797290.1.2.3.0,Phases=3,Linecode=BT803_BT803_4_3_4,Length=0.041204000,Units=km
new line.3658353 bus1=BBT2797346.1.2.3.0,bus2=BBT2797353.1.2.3.0,Phases=3,Linecode=BT810_BT810_4_3_4,Length=0.039124000,Units=km
new line.3658374 bus1=BBT2797360.1.2.3.0,bus2=BBT2797367.1.2.3.0,Phases=3,Linecode=BT810_BT810_4_3_4,Length=0.038218000,Units=km
new line.3658395 bus1=BBT2797339.1.2.3.0,bus2=BBT2797360.1.2.3.0,Phases=3,Linecode=BT810_BT810_4_3_4,Length=0.029075000,Units=km
new line.3658416 bus1=BBT2797199.1.2.3.0,bus2=BBT2797206.1.2.3.0,Phases=3,Linecode=BT810_BT810_4_3_4,Length=0.034140000,Units=km
new line.3658458 bus1=BBT2797290.1.2.3.0,bus2=BBT2797297.1.2.3.0,Phases=3,Linecode=BT803_BT803_4_3_4,Length=0.031152000,Units=km
new line.3658465 bus1=BBT2797276.1.2.3.0,bus2=BBT2797283.1.2.3.0,Phases=3,Linecode=BT803_BT803_4_3_4,Length=0.034022000,Units=km
new line.3658472 bus1=BBT2797269.1.2.3.0,bus2=BBT2797276.1.2.3.0,Phases=3,Linecode=BT803_BT803_4_3_4,Length=0.030156000,Units=km
new line.3658479 bus1=BBT2797269.1.2.3.0,bus2=BBT2797374.1.2.3.0,Phases=3,Linecode=BT803_BT803_4_3_4,Length=0.038061000,Units=km
new line.3658486 bus1=BBT2797318.1.2.3.0,bus2=BBT2797332.1.2.3.0,Phases=3,Linecode=BT810_BT810_4_3_4,Length=0.030073000,Units=km
new line.3658493 bus1=BBT2797262.1.2.3.0,bus2=BBT2797269.1.2.3.0,Phases=3,Linecode=BT803_BT803_4_3_4,Length=0.044293000,Units=km
new line.3658500 bus1=BBT2797255.1.2.3.0,bus2=BBT2797262.1.2.3.0,Phases=3,Linecode=BT509_BT509_7_3_1,Length=0.000501000,Units=km
new line.3658507 bus1=BBT2797262.1.2.3.0,bus2=BBT2797304.1.2.3.0,Phases=3,Linecode=BT803_BT803_4_3_4,Length=0.044112000,Units=km
new line.3658514 bus1=BBT2797304.1.2.3.0,bus2=BBT2797311.1.2.3.0,Phases=3,Linecode=BT803_BT803_4_3_4,Length=0.033143000,Units=km
new line.3658521 bus1=BBT2797311.1.2.3.0,bus2=BBT2797318.1.2.3.0,Phases=3,Linecode=BT803_BT803_4_3_4,Length=0.027025000,Units=km
new line.3658528 bus1=BBT2797332.1.2.3.0,bus2=BBT2797339.1.2.3.0,Phases=3,Linecode=BT810_BT810_4_3_4,Length=0.034066000,Units=km
new line.3658535 bus1=BBT2797374.1.2.3.0,bus2=BBT2797381.1.2.3.0,Phases=3,Linecode=BT803_BT803_4_3_4,Length=0.039213000,Units=km
new line.3658542 bus1=BBT2797381.1.2.3.0,bus2=BBT2797388.1.2.3.0,Phases=3,Linecode=BT803_BT803_4_3_4,Length=0.039124000,Units=km
new line.3658549 bus1=BBT2797395.1.2.3.0,bus2=BBT2797402.1.2.3.0,Phases=3,Linecode=BT803_BT803_4_3_4,Length=0.042116000,Units=km
new line.3658556 bus1=BBT2797395.1.2.3.0,bus2=BBT2797423.1.2.3.0,Phases=3,Linecode=BT810_BT810_4_3_4,Length=0.034022000,Units=km
new line.3658570 bus1=BBT2797388.1.2.3.0,bus2=BBT2797395.1.2.3.0,Phases=3,Linecode=BT803_BT803_4_3_4,Length=0.044112000,Units=km
new line.3658633 bus1=BBT2795890.1.2.3.0,bus2=BBT2795897.1.2.3.0,Phases=3,Linecode=BT803_BT803_4_3_4,Length=0.040121000,Units=km
new line.3658640 bus1=BBT2795897.1.2.3.0,bus2=BBT2796163.1.2.3.0,Phases=3,Linecode=BT803_BT803_4_3_4,Length=0.041118000,Units=km
new line.3658647 bus1=BBT2796163.1.2.3.0,bus2=BBT2796170.1.2.3.0,Phases=3,Linecode=BT803_BT803_4_3_4,Length=0.038126000,Units=km
new line.3658661 bus1=BBT2796170.1.2.3.0,bus2=BBT2796737.1.2.3.0,Phases=3,Linecode=BT803_BT803_4_3_4,Length=0.034140000,Units=km
new line.3658668 bus1=BBT2796170.1.2.3.0,bus2=BBT2796177.1.2.3.0,Phases=3,Linecode=BT803_BT803_4_3_4,Length=0.036133000,Units=km
new line.3658703 bus1=BBT2796737.1.2.3.0,bus2=BBT2796744.1.2.3.0,Phases=3,Linecode=BT803_BT803_4_3_4,Length=0.030023000,Units=km
new line.3658738 bus1=BBT2796240.1.2.3.0,bus2=BBT2796247.1.2.3.0,Phases=3,Linecode=BT810_BT810_4_3_4,Length=0.035136000,Units=km
new line.3658745 bus1=BBT2796702.1.2.3.0,bus2=BBT2796709.1.2.3.0,Phases=3,Linecode=BT803_BT803_4_3_4,Length=0.038126000,Units=km
new line.3658801 bus1=BBT2797115.1.2.3.0,bus2=BBT2797136.1.2.3.0,Phases=3,Linecode=BT810_BT810_4_3_4,Length=0.037129000,Units=km
new line.3658808 bus1=BBT2797101.1.2.3.0,bus2=BBT2797115.1.2.3.0,Phases=3,Linecode=BT810_BT810_4_3_4,Length=0.038021000,Units=km
new line.3658815 bus1=BBT2796681.1.2.3.0,bus2=BBT2796688.1.2.3.0,Phases=3,Linecode=BT803_BT803_4_3_4,Length=0.041118000,Units=km
new line.3658822 bus1=BBT2796688.1.2.3.0,bus2=BBT2796695.1.2.3.0,Phases=3,Linecode=BT803_BT803_4_3_4,Length=0.043114000,Units=km
new line.3658829 bus1=BBT2796695.1.2.3.0,bus2=BBT2796702.1.2.3.0,Phases=3,Linecode=BT803_BT803_4_3_4,Length=0.033143000,Units=km
new line.3658836 bus1=BBT2796961.1.2.3.0,bus2=BBT2797073.1.2.3.0,Phases=3,Linecode=BT810_BT810_4_3_4,Length=0.042057000,Units=km
new line.3658843 bus1=BBT2796961.1.2.3.0,bus2=BBT2797080.1.2.3.0,Phases=3,Linecode=BT810_BT810_4_3_4,Length=0.036133000,Units=km
new line.3658857 bus1=BBT2797080.1.2.3.0,bus2=BBT2797087.1.2.3.0,Phases=3,Linecode=BT810_BT810_4_3_4,Length=0.035065000,Units=km
new line.3658878 bus1=BBT2797087.1.2.3.0,bus2=BBT2797094.1.2.3.0,Phases=3,Linecode=BT810_BT810_4_3_4,Length=0.040121000,Units=km
new line.3658885 bus1=BBT2797094.1.2.3.0,bus2=BBT2797101.1.2.3.0,Phases=3,Linecode=BT810_BT810_4_3_4,Length=0.043114000,Units=km
new line.3658906 bus1=BBT2796709.1.2.3.0,bus2=BBT2796716.1.2.3.0,Phases=3,Linecode=BT803_BT803_4_3_4,Length=0.031152000,Units=km
new line.3658913 bus1=BBT2796716.1.2.3.0,bus2=BBT2796723.1.2.3.0,Phases=3,Linecode=BT803_BT803_4_3_4,Length=0.038126000,Units=km
new line.3658920 bus1=BBT2796723.1.2.3.0,bus2=BBT2796730.1.2.3.0,Phases=3,Linecode=BT803_BT803_4_3_4,Length=0.041118000,Units=km
new line.3658934 bus1=BBT2796261.1.2.3.0,bus2=BBT2796268.1.2.3.0,Phases=3,Linecode=BT810_BT810_4_3_4,Length=0.040121000,Units=km
new line.3658962 bus1=BBT2796177.1.2.3.0,bus2=BBT2796233.1.2.3.0,Phases=3,Linecode=BT803_BT803_4_3_4,Length=0.039124000,Units=km
new line.3658976 bus1=BBT4117658.1.2.3.0,bus2=BBT4117665.1.2.3.0,Phases=3,Linecode=BT509_BT509_7_3_1,Length=0.000501000,Units=km
new line.3658990 bus1=BBT2796191.1.2.3.0,bus2=BBT2796184.1.2.3.0,Phases=3,Linecode=BT803_BT803_4_3_4,Length=0.042116000,Units=km
new line.3659284 bus1=BBT2996174.1.2.3.0,bus2=BBT2996181.1.2.3.0,Phases=3,Linecode=BT509_BT509_7_3_1,Length=0.000501000,Units=km
new line.3659704 bus1=BBT3288319.1.2.3.0,bus2=BBT3288326.1.2.3.0,Phases=3,Linecode=BT509_BT509_7_3_1,Length=0.000501000,Units=km
new line.3659872 bus1=BBT6195328.1.2.0,bus2=BBT6195335.1.2.0,Phases=2,Linecode=BT521_BT521_7_2_1,Length=0.000501000,Units=km
new line.3660096 bus1=BBT5362216.1.2.3.0,bus2=BBT5362223.1.2.3.0,Phases=3,Linecode=BT509_BT509_7_3_1,Length=0.000501000,Units=km
new line.3660593 bus1=BBT3761687.1.2.0,bus2=BBT3761694.1.2.0,Phases=2,Linecode=BT508_BT508_7_2_1,Length=0.000501000,Units=km
new line.3660733 bus1=BBT5325592.1.2.0,bus2=BBT5325599.1.2.0,Phases=2,Linecode=BT508_BT508_7_2_1,Length=0.000501000,Units=km
new line.3661223 bus1=BBT2797451.1.2.3.0,bus2=BBT2797479.1.2.3.0,Phases=3,Linecode=BT810_BT810_4_3_4,Length=0.044112000,Units=km
new line.3661244 bus1=BBT2797423.1.2.3.0,bus2=BBT2797451.1.2.3.0,Phases=3,Linecode=BT810_BT810_4_3_4,Length=0.029075000,Units=km
new line.3661251 bus1=BBT2797241.1.2.3.0,bus2=BBT2797248.1.2.3.0,Phases=3,Linecode=BT810_BT810_4_3_4,Length=0.039124000,Units=km
new line.3661643 bus1=BBT2798319.1.2.3.0,bus2=BBT2798326.1.2.3.0,Phases=3,Linecode=BT803_BT803_4_3_4,Length=0.035136000,Units=km
new line.3661650 bus1=BBT2798319.1.2.3.0,bus2=BBT2798333.1.2.3.0,Phases=3,Linecode=BT810_BT810_4_3_4,Length=0.031023000,Units=km
new line.3661657 bus1=BBT2798312.1.2.3.0,bus2=BBT2798319.1.2.3.0,Phases=3,Linecode=BT803_BT803_4_3_4,Length=0.033143000,Units=km
new line.3661664 bus1=BBT2798305.1.2.3.0,bus2=BBT2798312.1.2.3.0,Phases=3,Linecode=BT803_BT803_4_3_4,Length=0.041118000,Units=km
new line.3661671 bus1=BBT2798305.1.2.3.0,bus2=BBT2798347.1.2.3.0,Phases=3,Linecode=BT810_BT810_4_3_4,Length=0.030023000,Units=km
new line.3661678 bus1=BBT2798298.1.2.3.0,bus2=BBT2798305.1.2.3.0,Phases=3,Linecode=BT803_BT803_4_3_4,Length=0.031071000,Units=km
new line.3661699 bus1=BBT2798291.1.2.3.0,bus2=BBT2798298.1.2.3.0,Phases=3,Linecode=BT803_BT803_4_3_4,Length=0.042116000,Units=km
new line.3661706 bus1=BBT2798291.1.2.3.0,bus2=BBT2798382.1.2.3.0,Phases=3,Linecode=BT810_BT810_4_3_4,Length=0.028024000,Units=km
new line.3661713 bus1=BBT2798284.1.2.3.0,bus2=BBT2680754.1.2.3.0,Phases=3,Linecode=BT803_BT803_4_3_4,Length=0.028166000,Units=km
new line.3661720 bus1=BBT2798284.1.2.3.0,bus2=BBT2798291.1.2.3.0,Phases=3,Linecode=BT803_BT803_4_3_4,Length=0.031071000,Units=km
new line.3661727 bus1=BBT2798277.1.2.3.0,bus2=BBT2798284.1.2.3.0,Phases=3,Linecode=BT509_BT509_7_3_1,Length=0.000501000,Units=km
new line.3661734 bus1=BBT2798333.1.2.3.0,bus2=BBT2798340.1.2.3.0,Phases=3,Linecode=BT810_BT810_4_3_4,Length=0.033068000,Units=km
new line.3661741 bus1=BBT2798340.1.2.3.0,bus2=BBT2798368.1.2.3.0,Phases=3,Linecode=BT803_BT803_4_3_4,Length=0.030023000,Units=km
new line.3661748 bus1=BBT2798340.1.2.3.0,bus2=BBT2798361.1.2.3.0,Phases=3,Linecode=BT803_BT803_4_3_4,Length=0.036229000,Units=km
new line.3661769 bus1=BBT2798347.1.2.3.0,bus2=BBT2798354.1.2.3.0,Phases=3,Linecode=BT810_BT810_4_3_4,Length=0.034066000,Units=km
new line.3661776 bus1=BBT2798375.1.2.3.0,bus2=BBT2798396.1.2.3.0,Phases=3,Linecode=BT803_BT803_4_3_4,Length=0.032023000,Units=km
new line.3661783 bus1=BBT2798354.1.2.3.0,bus2=BBT2798781.1.2.3.0,Phases=3,Linecode=BT810_BT810_4_3_4,Length=0.046183000,Units=km
new line.3661790 bus1=BBT2798382.1.2.3.0,bus2=BBT2798389.1.2.3.0,Phases=3,Linecode=BT810_BT810_4_3_4,Length=0.036229000,Units=km
new line.3661797 bus1=BBT2798403.1.2.3.0,bus2=BBT2798410.1.2.3.0,Phases=3,Linecode=BT803_BT803_4_3_4,Length=0.031071000,Units=km
new line.3661804 bus1=BBT2798389.1.2.3.0,bus2=BBT2798711.1.2.3.0,Phases=3,Linecode=BT810_BT810_4_3_4,Length=0.041058000,Units=km
new line.3661811 bus1=BBT2798410.1.2.3.0,bus2=BBT2798417.1.2.3.0,Phases=3,Linecode=BT803_BT803_4_3_4,Length=0.029281000,Units=km
new line.3661818 bus1=BBT2798368.1.2.3.0,bus2=BBT2798375.1.2.3.0,Phases=3,Linecode=BT803_BT803_4_3_4,Length=0.044293000,Units=km
new line.3661825 bus1=BBT2798963.1.2.3.0,bus2=BBT2798970.1.2.3.0,Phases=3,Linecode=BT810_BT810_4_3_4,Length=0.036133000,Units=km
new line.3661832 bus1=BBT2798396.1.2.3.0,bus2=BBT2798403.1.2.3.0,Phases=3,Linecode=BT803_BT803_4_3_4,Length=0.043195000,Units=km
new line.3661853 bus1=BBT2798767.1.2.3.0,bus2=BBT2798774.1.2.3.0,Phases=3,Linecode=BT810_BT810_4_3_4,Length=0.034139000,Units=km
new line.3661860 bus1=BBT2798865.1.2.3.0,bus2=BBT2798872.1.2.3.0,Phases=3,Linecode=BT810_BT810_4_3_4,Length=0.039060000,Units=km
new line.3661867 bus1=BBT2798704.1.2.3.0,bus2=BBT2798725.1.2.3.0,Phases=3,Linecode=BT810_BT810_4_3_4,Length=0.030156000,Units=km