new load.3009019845M1 bus1=BMT145250536.1.2.3.0,Phases=3,kv=13.8,kW=251.21076,pf=0.92,Vminpu=0.93,Vmaxpu=1.5,model=8,zipv=[0.5,0,0.5,1,0,0,0],daily=A4-6,status=variable
new load.3009019846M1 bus1=BMT130384818.1.2.3.0,Phases=3,kv=13.8,kW=153.11514,pf=0.92,Vminpu=0.93,Vmaxpu=1.5,model=8,zipv=[0.5,0,0.5,1,0,0,0],daily=A4-4,status=variable
new load.3009020096M1 bus1=BMT122939093.1.2.3.0,Phases=3,kv=13.8,kW=27.0448,pf=0.92,Vminpu=0.93,Vmaxpu=1.5,model=8,zipv=[0.5,0,0.5,1,0,0,0],daily=A4-2,status=variable
new load.3009020113M1 bus1=BMT122937315.1.2.3.0,Phases=3,kv=13.8,kW=64.75268,pf=0.92,Vminpu=0.93,Vmaxpu=1.5,model=8,zipv=[0.5,0,0.5,1,0,0,0],daily=A4-3,status=variable
new load.3009020365M1 bus1=BMT167222112.1.2.3.0,Phases=3,kv=13.8,kW=45.81056,pf=0.92,Vminpu=0.93,Vmaxpu=1.5,model=8,zipv=[0.5,0,0.5,1,0,0,0],daily=A4-2,status=variable
new load.3009020366M1 bus1=BMT122939310.1.2.3.0,Phases=3,kv=13.8,kW=41.29734,pf=0.92,Vminpu=0.93,Vmaxpu=1.5,model=8,zipv=[0.5,0,0.5,1,0,0,0],daily=A4-4,status=variable
new load.3009020367M1 bus1=BMT122939506.1.2.3.0,Phases=3,kv=13.8,kW=80.2138,pf=0.92,Vminpu=0.93,Vmaxpu=1.5,model=8,zipv=[0.5,0,0.5,1,0,0,0],daily=A4-6,status=variable
new load.3009020369M1 bus1=BMT122939443.1.2.3.0,Phases=3,kv=13.8,kW=24.41092,pf=0.92,Vminpu=0.93,Vmaxpu=1.5,model=8,zipv=[0.5,0,0.5,1,0,0,0],daily=A4-4,status=variable
new load.3009020371M1 bus1=BMT122936986.1.2.3.0,Phases=3,kv=13.8,kW=23.73318,pf=0.92,Vminpu=0.93,Vmaxpu=1.5,model=8,zipv=[0.5,0,0.5,1,0,0,0],daily=A4-2,status=variable
new load.3009020372M1 bus1=BMT122937329.1.2.3.0,Phases=3,kv=13.8,kW=50.30926,pf=0.92,Vminpu=0.93,Vmaxpu=1.5,model=8,zipv=[0.5,0,0.5,1,0,0,0],daily=A4-4,status=variable
new load.3009020590M1 bus1=BMT122937343.1.2.3.0,Phases=3,kv=13.8,kW=54.73352,pf=0.92,Vminpu=0.93,Vmaxpu=1.5,model=8,zipv=[0.5,0,0.5,1,0,0,0],daily=A4-2,status=variable
new load.3009020698M1 bus1=BMT122939457.1.2.3.0,Phases=3,kv=13.8,kW=4.45006,pf=0.92,Vminpu=0.93,Vmaxpu=1.5,model=8,zipv=[0.5,0,0.5,1,0,0,0],daily=A4-1,status=variable
new load.3009020894M1 bus1=BMT122938043.1.2.3.0,Phases=3,kv=13.8,kW=36.03104,pf=0.92,Vminpu=0.93,Vmaxpu=1.5,model=8,zipv=[0.5,0,0.5,1,0,0,0],daily=A4-3,status=variable
new load.3009020895M1 bus1=BMT122937707.1.2.3.0,Phases=3,kv=13.8,kW=18.91844,pf=0.92,Vminpu=0.93,Vmaxpu=1.5,model=8,zipv=[0.5,0,0.5,1,0,0,0],daily=A4-3,status=variable
new load.3009021296M1 bus1=BMT122938400.1.2.3.0,Phases=3,kv=13.8,kW=35.43522,pf=0.92,Vminpu=0.93,Vmaxpu=1.5,model=8,zipv=[0.5,0,0.5,1,0,0,0],daily=A4-4,status=variable
new load.3009021297M1 bus1=BMT122939044.1.2.3.0,Phases=3,kv=13.8,kW=25.19592,pf=0.92,Vminpu=0.93,Vmaxpu=1.5,model=8,zipv=[0.5,0,0.5,1,0,0,0],daily=A4-3,status=variable
new load.3009021416M1 bus1=BMT122937154.1.2.3.0,Phases=3,kv=13.8,kW=251.37186,pf=0.92,Vminpu=0.93,Vmaxpu=1.5,model=8,zipv=[0.5,0,0.5,1,0,0,0],daily=A4-7,status=variable
new load.3009021467M1 bus1=BMT122938848.1.2.3.0,Phases=3,kv=13.8,kW=25.02394,pf=0.92,Vminpu=0.93,Vmaxpu=1.5,model=8,zipv=[0.5,0,0.5,1,0,0,0],daily=A4-3,status=variable
new load.3009021553M1 bus1=BMT122938029.1.2.3.0,Phases=3,kv=13.8,kW=17.84588,pf=0.92,Vminpu=0.93,Vmaxpu=1.5,model=8,zipv=[0.5,0,0.5,1,0,0,0],daily=A4-2,status=variable
new load.3009021554M1 bus1=BMT122937896.1.2.3.0,Phases=3,kv=13.8,kW=0.2555,pf=0.92,Vminpu=0.93,Vmaxpu=1.5,model=8,zipv=[0.5,0,0.5,1,0,0,0],daily=A4-5,status=variable
new load.3009021555M1 bus1=BMT122938141.1.2.3.0,Phases=3,kv=13.8,kW=77.13566,pf=0.92,Vminpu=0.93,Vmaxpu=1.5,model=8,zipv=[0.5,0,0.5,1,0,0,0],daily=A4-3,status=variable
new load.3009021649M1 bus1=BMT122938862.1.2.3.0,Phases=3,kv=13.8,kW=10.76272,pf=0.92,Vminpu=0.93,Vmaxpu=1.5,model=8,zipv=[0.5,0,0.5,1,0,0,0],daily=A4-2,status=variable
new load.3009022199M1 bus1=BMT122937721.1.2.3.0,Phases=3,kv=13.8,kW=62.34312,pf=0.92,Vminpu=0.93,Vmaxpu=1.5,model=8,zipv=[0.5,0,0.5,1,0,0,0],daily=A4-5,status=variable
new load.3009022312M1 bus1=BMT122938834.1.2.3.0,Phases=3,kv=13.8,kW=10.30278,pf=0.92,Vminpu=0.93,Vmaxpu=1.5,model=8,zipv=[0.5,0,0.5,1,0,0,0],daily=A4-2,status=variable
new load.3010000602M1 bus1=BMT122938183.1.2.3.0,Phases=3,kv=13.8,kW=10.14716,pf=0.92,Vminpu=0.93,Vmaxpu=1.5,model=8,zipv=[0.5,0,0.5,1,0,0,0],daily=A4-3,status=variable
new load.3010000780M1 bus1=BMT122938155.1.2.3.0,Phases=3,kv=13.8,kW=39.21278,pf=0.92,Vminpu=0.93,Vmaxpu=1.5,model=8,zipv=[0.5,0,0.5,1,0,0,0],daily=A4-3,status=variable
new load.3010003300M1 bus1=BMT122937749.1.2.3.0,Phases=3,kv=13.8,kW=113.10338,pf=0.92,Vminpu=0.93,Vmaxpu=1.5,model=8,zipv=[0.5,0,0.5,1,0,0,0],daily=A4-5,status=variable
new load.3010012755M1 bus1=BMT122938197.1.2.3.0,Phases=3,kv=13.8,kW=8.17614,pf=0.92,Vminpu=0.93,Vmaxpu=1.5,model=8,zipv=[0.5,0,0.5,1,0,0,0],daily=A4-5,status=variable
new load.3010012774M1 bus1=BMT122938302.1.2.3.0,Phases=3,kv=13.8,kW=17.71498,pf=0.92,Vminpu=0.93,Vmaxpu=1.5,model=8,zipv=[0.5,0,0.5,1,0,0,0],daily=A4-5,status=variable
new load.3010065821M1 bus1=BMT122939394.1.2.3.0,Phases=3,kv=13.8,kW=11.60904,pf=0.92,Vminpu=0.93,Vmaxpu=1.5,model=8,zipv=[0.5,0,0.5,1,0,0,0],daily=A4-3,status=variable
new load.3010087570M1 bus1=BMT122937840.1.2.3.0,Phases=3,kv=13.8,kW=29.12752,pf=0.92,Vminpu=0.93,Vmaxpu=1.5,model=8,zipv=[0.5,0,0.5,1,0,0,0],daily=A4-5,status=variable
new load.3010192065M1 bus1=BMT122938127.1.2.3.0,Phases=3,kv=13.8,kW=25.96986,pf=0.92,Vminpu=0.93,Vmaxpu=1.5,model=8,zipv=[0.5,0,0.5,1,0,0,0],daily=A4-3,status=variable
new load.3010211309M1 bus1=BMT122938330.1.2.3.0,Phases=3,kv=13.8,kW=15.1782,pf=0.92,Vminpu=0.93,Vmaxpu=1.5,model=8,zipv=[0.5,0,0.5,1,0,0,0],daily=A4-2,status=variable
new load.3010307026M1 bus1=BMT122938232.1.2.3.0,Phases=3,kv=13.8,kW=2.0287,pf=0.92,Vminpu=0.93,Vmaxpu=1.5,model=8,zipv=[0.5,0,0.5,1,0,0,0],daily=A4-1,status=variable
new load.3010307094M1 bus1=BMT122938169.1.2.3.0,Phases=3,kv=13.8,kW=14.62626,pf=0.92,Vminpu=0.93,Vmaxpu=1.5,model=8,zipv=[0.5,0,0.5,1,0,0,0],daily=A4-2,status=variable
new load.3010310776M1 bus1=BMT122938246.1.2.3.0,Phases=3,kv=13.8,kW=6.91206,pf=0.92,Vminpu=0.93,Vmaxpu=1.5,model=8,zipv=[0.5,0,0.5,1,0,0,0],daily=A4-4,status=variable
new load.3010370921M1 bus1=BMT122939338.1.2.3.0,Phases=3,kv=13.8,kW=17.62982,pf=0.92,Vminpu=0.93,Vmaxpu=1.5,model=8,zipv=[0.5,0,0.5,1,0,0,0],daily=A4-5,status=variable
new load.3010370964M1 bus1=BMT122939324.1.2.3.0,Phases=3,kv=13.8,kW=25.66496,pf=0.92,Vminpu=0.93,Vmaxpu=1.5,model=8,zipv=[0.5,0,0.5,1,0,0,0],daily=A4-2,status=variable
new load.3010385654M1 bus1=BMT122938246.1.2.3.0,Phases=3,kv=13.8,kW=6.53546,pf=0.92,Vminpu=0.93,Vmaxpu=1.5,model=8,zipv=[0.5,0,0.5,1,0,0,0],daily=A4-3,status=variable
new load.3010457849M1 bus1=BMT122939030.1.2.3.0,Phases=3,kv=13.8,kW=15.63814,pf=0.92,Vminpu=0.93,Vmaxpu=1.5,model=8,zipv=[0.5,0,0.5,1,0,0,0],daily=A4-2,status=variable
new load.3010465091M1 bus1=BMT122937882.1.2.3.0,Phases=3,kv=13.8,kW=66.58322,pf=0.92,Vminpu=0.93,Vmaxpu=1.5,model=8,zipv=[0.5,0,0.5,1,0,0,0],daily=A4-4,status=variable
new load.3010585028M1 bus1=BMT122937735.1.2.3.0,Phases=3,kv=13.8,kW=90.0317,pf=0.92,Vminpu=0.93,Vmaxpu=1.5,model=8,zipv=[0.5,0,0.5,1,0,0,0],daily=A4-4,status=variable
new load.3010673660M1 bus1=BMT122939107.1.2.3.0,Phases=3,kv=13.8,kW=20.7243,pf=0.92,Vminpu=0.93,Vmaxpu=1.5,model=8,zipv=[0.5,0,0.5,1,0,0,0],daily=A4-3,status=variable
new load.3010673661M1 bus1=BMT167220991.1.2.3.0,Phases=3,kv=13.8,kW=33.9366,pf=0.92,Vminpu=0.93,Vmaxpu=1.5,model=8,zipv=[0.5,0,0.5,1,0,0,0],daily=A4-6,status=variable
new load.3010795999M1 bus1=BMT122939016.1.2.3.0,Phases=3,kv=13.8,kW=24.65308,pf=0.92,Vminpu=0.93,Vmaxpu=1.5,model=8,zipv=[0.5,0,0.5,1,0,0,0],daily=A4-2,status=variable
new load.3010797834M1 bus1=BMT122938442.1.2.3.0,Phases=3,kv=13.8,kW=32.27876,pf=0.92,Vminpu=0.93,Vmaxpu=1.5,model=8,zipv=[0.5,0,0.5,1,0,0,0],daily=A4-5,status=variable
new load.3010816919M1 bus1=BMT122937812.1.2.3.0,Phases=3,kv=13.8,kW=125.99188,pf=0.92,Vminpu=0.93,Vmaxpu=1.5,model=8,zipv=[0.5,0,0.5,1,0,0,0],daily=A4-4,status=variable
new load.3010869912M1 bus1=BMT167222450.1.2.3.0,Phases=3,kv=13.8,kW=31.84794,pf=0.92,Vminpu=0.93,Vmaxpu=1.5,model=8,zipv=[0.5,0,0.5,1,0,0,0],daily=A4-4,status=variable
new load.3010922461M1 bus1=BMT122938778.1.2.3.0,Phases=3,kv=13.8,kW=20.05362,pf=0.92,Vminpu=0.93,Vmaxpu=1.5,model=8,zipv=[0.5,0,0.5,1,0,0,0],daily=A4-2,status=variable
new load.3010990172M1 bus1=BMT122937854.1.2.3.0,Phases=3,kv=13.8,kW=12.86168,pf=0.92,Vminpu=0.93,Vmaxpu=1.5,model=8,zipv=[0.5,0,0.5,1,0,0,0],daily=A4-4,status=variable
new load.3011035965M1 bus1=BMT122939296.1.2.3.0,Phases=3,kv=13.8,kW=35.23182,pf=0.92,Vminpu=0.93,Vmaxpu=1.5,model=8,zipv=[0.5,0,0.5,1,0,0,0],daily=A4-2,status=variable
new load.3011153485M1 bus1=BMT162984266.1.2.3.0,Phases=3,kv=13.8,kW=42.22252,pf=0.92,Vminpu=0.93,Vmaxpu=1.5,model=8,zipv=[0.5,0,0.5,1,0,0,0],daily=A4-3,status=variable
new load.3011253388M1 bus1=BMT122938316.1.2.3.0,Phases=3,kv=13.8,kW=12.77524,pf=0.92,Vminpu=0.93,Vmaxpu=1.5,model=8,zipv=[0.5,0,0.5,1,0,0,0],daily=A4-5,status=variable
new load.3011279470M1 bus1=BMT122937826.1.2.3.0,Phases=3,kv=13.8,kW=19.8442,pf=0.92,Vminpu=0.93,Vmaxpu=1.5,model=8,zipv=[0.5,0,0.5,1,0,0,0],daily=A4-5,status=variable
new load.3011486830M1 bus1=BMT167221817.1.2.3.0,Phases=3,kv=13.8,kW=0.77394,pf=0.92,Vminpu=0.93,Vmaxpu=1.5,model=8,zipv=[0.5,0,0.5,1,0,0,0],daily=A4-3,status=variable
new load.3011547120M1 bus1=BMT128337850.1.2.3.0,Phases=3,kv=13.8,kW=16.62392,pf=0.92,Vminpu=0.93,Vmaxpu=1.5,model=8,zipv=[0.5,0,0.5,1,0,0,0],daily=A4-4,status=variable
new load.3011547306M1 bus1=BMT127834326.1.2.3.0,Phases=3,kv=13.8,kW=17.54466,pf=0.92,Vminpu=0.93,Vmaxpu=1.5,model=8,zipv=[0.5,0,0.5,1,0,0,0],daily=A4-5,status=variable
new load.3011787719M1 bus1=BMT135181862.1.2.3.0,Phases=3,kv=13.8,kW=3.86354,pf=0.92,Vminpu=0.93,Vmaxpu=1.5,model=8,zipv=[0.5,0,0.5,1,0,0,0],daily=A4-2,status=variable
new load.3011966560M1 bus1=BMT159994963.1.2.3.0,Phases=3,kv=13.8,kW=22.87412,pf=0.92,Vminpu=0.93,Vmaxpu=1.5,model=8,zipv=[0.5,0,0.5,1,0,0,0],daily=A4-3,status=variable
new load.3012171878M1 bus1=BMT159576189.1.2.3.0,Phases=3,kv=13.8,kW=73.008,pf=0.92,Vminpu=0.93,Vmaxpu=1.5,model=8,zipv=[0.5,0,0.5,1,0,0,0],daily=A4-3,status=variable
new load.3012323783M1 bus1=BMT150844268.1.2.3.0,Phases=3,kv=13.8,kW=65.01066,pf=0.92,Vminpu=0.93,Vmaxpu=1.5,model=8,zipv=[0.5,0,0.5,1,0,0,0],daily=A4-3,status=variable
new load.3012336130M1 bus1=BMT150858404.1.2.3.0,Phases=3,kv=13.8,kW=3.6117,pf=0.92,Vminpu=0.93,Vmaxpu=1.5,model=8,zipv=[0.5,0,0.5,1,0,0,0],daily=A4-3,status=variable
new load.3012450728M1 bus1=BMT160805414.1.2.0,Phases=2,kv=13.8,kW=26.76882,pf=0.92,Vminpu=0.93,Vmaxpu=1.5,model=8,zipv=[0.5,0,0.5,1,0,0,0],daily=A4-2,status=variable
new load.3012626250M1 bus1=BMT160397394.1.2.3.0,Phases=3,kv=13.8,kW=17.97252,pf=0.92,Vminpu=0.93,Vmaxpu=1.5,model=8,zipv=[0.5,0,0.5,1,0,0,0],daily=A4-3,status=variable
new load.3012628814M1 bus1=BMT167219642.1.2.0,Phases=2,kv=13.8,kW=17.56992,pf=0.92,Vminpu=0.93,Vmaxpu=1.5,model=8,zipv=[0.5,0,0.5,1,0,0,0],daily=A4-2,status=variable
new load.3012630329M1 bus1=BMT159359994.1.2.3.0,Phases=3,kv=13.8,kW=12.32654,pf=0.92,Vminpu=0.93,Vmaxpu=1.5,model=8,zipv=[0.5,0,0.5,1,0,0,0],daily=A4-2,status=variable
new load.3012837636M1 bus1=BMT169945617.1.2.3.0,Phases=3,kv=13.8,kW=30.01056,pf=0.92,Vminpu=0.93,Vmaxpu=1.5,model=8,zipv=[0.5,0,0.5,1,0,0,0],daily=A4-4,status=variable
new load.3013122822M1 bus1=BMT160518318.1.2.3.0,Phases=3,kv=13.8,kW=63.46278,pf=0.92,Vminpu=0.93,Vmaxpu=1.5,model=8,zipv=[0.5,0,0.5,1,0,0,0],daily=A4-3,status=variable
new load.3013519960M1 bus1=BMT150858248.1.2.3.0,Phases=3,kv=13.8,kW=4.64638,pf=0.92,Vminpu=0.93,Vmaxpu=1.5,model=8,zipv=[0.5,0,0.5,1,0,0,0],daily=A4-1,status=variable
