new line.RML10041488 bus1=BBT146012066.1.2.3.0,bus2=RML1060041488.1.2.3.0,Phases=3,Linecode=CABBTG08_4_3,Length=0.017000000,Units=km
new line.RML10049310 bus1=BBT2798655.2.0,bus2=RML1060049310.2.0,Phases=1,Linecode=CABBTG02_4_1,Length=0.017000000,Units=km
new line.RML10049314 bus1=BBT2798935.1.0,bus2=RML1060049314.1.0,Phases=1,Linecode=CABBTG02_4_1,Length=0.017000000,Units=km
new line.RML10049319 bus1=BBT2798921.2.0,bus2=RML1060049319.2.0,Phases=1,Linecode=CABBTG02_4_1,Length=0.017000000,Units=km
new line.RML10049648 bus1=BBT2680026.1.2.3.0,bus2=RML1060049648.1.2.3.0,Phases=3,Linecode=CABBTG06_4_3,Length=0.017000000,Units=km
new line.RML10049747 bus1=BBT337336.1.2.0,bus2=RML1060049747.1.2.0,Phases=2,Linecode=CABBTG05_4_2,Length=0.017000000,Units=km
new line.RML10049749 bus1=BBT3916268.2.0,bus2=RML1060049749.2.0,Phases=1,Linecode=CABBTG02_4_1,Length=0.017000000,Units=km
new line.RML10049750 bus1=BBT136607615.1.2.3.0,bus2=RML1060049750.1.2.3.0,Phases=3,Linecode=CABBTG06_4_3,Length=0.017000000,Units=km
new line.RML10049803 bus1=BBT4989543.1.2.0,bus2=RML1060049803.1.2.0,Phases=2,Linecode=CABBTG05_4_2,Length=0.017000000,Units=km
new line.RML10059778 bus1=BBT148454211.1.2.0,bus2=RML1060059778.1.2.0,Phases=2,Linecode=CABBT808_4_2,Length=0.030000000,Units=km
new line.RML10074947 bus1=BBT2798641.1.0,bus2=RML1060074947.1.0,Phases=1,Linecode=CABBTG02_4_1,Length=0.017000000,Units=km
new line.RML10090331 bus1=BBT3196605.1.2.3.0,bus2=RML1060090331.1.2.3.0,Phases=3,Linecode=CABBTG06_4_3,Length=0.017000000,Units=km
new line.RML10108665 bus1=BBT2911467.1.2.0,bus2=RML1060108665.1.2.0,Phases=2,Linecode=CABBTG05_4_2,Length=0.017000000,Units=km
new line.RML10239772 bus1=BBT150844270.1.2.3.0,bus2=RML1060239772.1.2.3.0,Phases=3,Linecode=CABBTG08_4_3,Length=0.017000000,Units=km
new line.RML10239773 bus1=BBT150858406.1.2.3.0,bus2=RML1060239773.1.2.3.0,Phases=3,Linecode=CABBTG08_4_3,Length=0.017000000,Units=km
new line.RML10253002 bus1=BBT150853344.1.2.3.0,bus2=RML1060253002.1.2.3.0,Phases=3,Linecode=CABBTG08_4_3,Length=0.017000000,Units=km
new line.RML10313327 bus1=BBT151897237.1.2.0,bus2=RML1060313327.1.2.0,Phases=2,Linecode=CABBT808_4_2,Length=0.008000000,Units=km
new line.RML10354418 bus1=BBT152728762.1.2.3.0,bus2=RML1060354418.1.2.3.0,Phases=3,Linecode=CABBT810_4_3,Length=0.011000000,Units=km
new line.RML10387547 bus1=BBT153236920.1.2.3.0,bus2=RML1060387547.1.2.3.0,Phases=3,Linecode=CABBTG06_4_3,Length=0.017000000,Units=km
new line.RML10390150 bus1=BBT153245614.1.2.0,bus2=RML1060390150.1.2.0,Phases=2,Linecode=CABBTG05_4_2,Length=0.017000000,Units=km
new line.RML10391716 bus1=BBT153634864.1.2.3.0,bus2=RML1060391716.1.2.3.0,Phases=3,Linecode=CABBTG09_4_3,Length=0.017000000,Units=km
new line.RML10468247 bus1=BBT153247357.1.2.0,bus2=RML1060468247.1.2.0,Phases=2,Linecode=CABBT808_4_2,Length=0.016000000,Units=km
new line.RML10468258 bus1=BBT151898064.1.2.0,bus2=RML1060468258.1.2.0,Phases=2,Linecode=CABBTG05_4_2,Length=0.017000000,Units=km
new line.RML10473917 bus1=BBT2798655.1.0,bus2=RML1060473917.1.0,Phases=1,Linecode=CABBTG02_4_1,Length=0.017000000,Units=km
new line.RML10486228 bus1=BBT149750917.1.2.3.0,bus2=RML1060486228.1.2.3.0,Phases=3,Linecode=CABBTG08_4_3,Length=0.030000000,Units=km
new line.RML10499856 bus1=BBT155613348.1.2.3.0,bus2=RML1060499856.1.2.3.0,Phases=3,Linecode=CABBTG06_4_3,Length=0.025000000,Units=km
new line.RML10533807 bus1=BBT5793878.1.2.3.0,bus2=RML1060533807.1.2.3.0,Phases=3,Linecode=CABBTG06_4_3,Length=0.017000000,Units=km
new line.RML10632050 bus1=BBT337084.1.2.0,bus2=RML1060632050.1.2.0,Phases=2,Linecode=CABBTG05_4_2,Length=0.030000000,Units=km
new line.RML10636344 bus1=BBT8800798.1.2.3.0,bus2=RML1060636344.1.2.3.0,Phases=3,Linecode=CABBTG06_4_3,Length=0.017000000,Units=km
new line.RML10674248 bus1=BBT160300990.1.2.0,bus2=RML1060674248.1.2.0,Phases=2,Linecode=CABBTG05_4_2,Length=0.017000000,Units=km
new line.RML10697168 bus1=BBT160301200.1.2.0,bus2=RML1060697168.1.2.0,Phases=2,Linecode=CABBTG05_4_2,Length=0.017000000,Units=km
new line.RML10704663 bus1=BBT162051993.1.2.3.0,bus2=RML1060704663.1.2.3.0,Phases=3,Linecode=CABBTG06_4_3,Length=0.017000000,Units=km
new line.RML10717011 bus1=BBT160517476.1.2.3.0,bus2=RML1060717011.1.2.3.0,Phases=3,Linecode=CABBTG08_4_3,Length=0.017000000,Units=km
new line.RML10755648 bus1=BBT145250347.1.2.0,bus2=RML1060755648.1.2.0,Phases=2,Linecode=CABBTG05_4_2,Length=0.030000000,Units=km
new line.RML10766035 bus1=BBT150895594.1.2.0,bus2=RML1060766035.1.2.0,Phases=2,Linecode=CABBT811_4_2,Length=0.025000000,Units=km
new line.RML10771594 bus1=BBT162293917.1.2.0,bus2=RML1060771594.1.2.0,Phases=2,Linecode=CABBTG05_4_2,Length=0.017000000,Units=km
new line.RML10789094 bus1=BBT3761694.2.0,bus2=RML1060789094.2.0,Phases=1,Linecode=CABBT802_4_1,Length=0.025000000,Units=km
new line.RML10795373 bus1=BBT150858250.1.2.3.0,bus2=RML1060795373.1.2.3.0,Phases=3,Linecode=CABBTG07_4_3,Length=0.017000000,Units=km
new line.RML10801362 bus1=BBT163811141.1.2.3.0,bus2=RML1060801362.1.2.3.0,Phases=3,Linecode=CABBT809_4_3,Length=0.015000000,Units=km
new line.RML10812209 bus1=BBT164420305.1.2.3.0,bus2=RML1060812209.1.2.3.0,Phases=3,Linecode=CABBTG06_4_3,Length=0.020000000,Units=km
new line.RML10822445 bus1=BBT164454076.1.2.0,bus2=RML1060822445.1.2.0,Phases=2,Linecode=CABBT811_4_2,Length=0.022000000,Units=km
new line.RML10836102 bus1=BBT160301200.1.0,bus2=RML1060836102.1.0,Phases=1,Linecode=CABBTG02_4_1,Length=0.010000000,Units=km
new line.RML10896727 bus1=BBT6195335.2.0,bus2=RML1060896727.2.0,Phases=1,Linecode=CABBT802_4_1,Length=0.027000000,Units=km
new line.RML10896947 bus1=BBT4549845.1.2.3.0,bus2=RML1060896947.1.2.3.0,Phases=3,Linecode=CABBTG06_4_3,Length=0.017000000,Units=km
new line.RML10918441 bus1=BBT3937191.1.2.0,bus2=RML1060918441.1.2.0,Phases=2,Linecode=CABBT811_4_2,Length=0.026000000,Units=km
new line.RML10983254 bus1=BBT4168002.1.0,bus2=RML1060983254.1.0,Phases=1,Linecode=CABBTG02_4_1,Length=0.017000000,Units=km
new line.RML3246284 bus1=BBT166078757.1.0,bus2=RML1053246284.1.0,Phases=1,Linecode=CABBTG02_4_1,Length=0.017000000,Units=km
new line.RML3246291 bus1=BBT336916.1.2.0,bus2=RML1053246291.1.2.0,Phases=2,Linecode=CABBTG05_4_2,Length=0.017000000,Units=km
new line.RML3246312 bus1=BBT337378.1.2.0,bus2=RML1053246312.1.2.0,Phases=2,Linecode=CABBTG05_4_2,Length=0.017000000,Units=km
new line.RML3252549 bus1=BBT3916268.2.0,bus2=RML1053252549.2.0,Phases=1,Linecode=CABBTG02_4_1,Length=0.017000000,Units=km
new line.RML3252556 bus1=BBT337112.1.2.0,bus2=RML1053252556.1.2.0,Phases=2,Linecode=CABBTG05_4_2,Length=0.017000000,Units=km
new line.RML3254236 bus1=BBT3925368.1.2.0,bus2=RML1053254236.1.2.0,Phases=2,Linecode=CABBTG05_4_2,Length=0.017000000,Units=km
new line.RML3325650 bus1=BBT2499272.1.2.3.0,bus2=RML1053325650.1.2.3.0,Phases=3,Linecode=CABBTG06_4_3,Length=0.017000000,Units=km
new line.RML3751453 bus1=BBT145250347.1.2.3.0,bus2=RML1053751453.1.2.3.0,Phases=3,Linecode=CABBTG09_4_3,Length=0.017000000,Units=km
new line.RML3777073 bus1=BBT2680026.1.2.3.0,bus2=RML1053777073.1.2.3.0,Phases=3,Linecode=CABBTG07_4_3,Length=0.017000000,Units=km
new line.RML3797471 bus1=BBT2911551.1.2.0,bus2=RML1053797471.1.2.0,Phases=2,Linecode=CABBTG05_4_2,Length=0.017000000,Units=km
new line.RML3797478 bus1=BBT2911530.1.2.0,bus2=RML1053797478.1.2.0,Phases=2,Linecode=CABBTG05_4_2,Length=0.017000000,Units=km
new line.RML3802350 bus1=BBT2716832.1.2.3.0,bus2=RML1053802350.1.2.3.0,Phases=3,Linecode=CABBTG09_4_3,Length=0.017000000,Units=km
new line.RML3802357 bus1=BBT2787182.1.2.3.0,bus2=RML1053802357.1.2.3.0,Phases=3,Linecode=CABBTG09_4_3,Length=0.017000000,Units=km
new line.RML3805367 bus1=BBT3924024.1.2.3.0,bus2=RML1053805367.1.2.3.0,Phases=3,Linecode=CABBTG06_4_3,Length=0.017000000,Units=km
new line.RML3820298 bus1=BBT2915247.1.2.3.0,bus2=RML1053820298.1.2.3.0,Phases=3,Linecode=CABBTG09_4_3,Length=0.017000000,Units=km
new line.RML3820319 bus1=BBT2911733.1.2.3.0,bus2=RML1053820319.1.2.3.0,Phases=3,Linecode=CABBTG09_4_3,Length=0.017000000,Units=km
new line.RML3820340 bus1=BBT2914953.1.2.3.0,bus2=RML1053820340.1.2.3.0,Phases=3,Linecode=CABBTG09_4_3,Length=0.017000000,Units=km
new line.RML3820354 bus1=BBT2915282.1.2.3.0,bus2=RML1053820354.1.2.3.0,Phases=3,Linecode=CABBTG09_4_3,Length=0.017000000,Units=km
new line.RML3820375 bus1=BBT2931123.1.2.3.0,bus2=RML1053820375.1.2.3.0,Phases=3,Linecode=CABBTG09_4_3,Length=0.017000000,Units=km
new line.RML3820396 bus1=BBT2931830.1.2.3.0,bus2=RML1053820396.1.2.3.0,Phases=3,Linecode=CABBTG09_4_3,Length=0.017000000,Units=km
new line.RML3823497 bus1=BBT2957611.1.2.0,bus2=RML1053823497.1.2.0,Phases=2,Linecode=CABBTG05_4_2,Length=0.017000000,Units=km
new line.RML3830252 bus1=BBT2994445.1.2.3.0,bus2=RML1053830252.1.2.3.0,Phases=3,Linecode=CABBTG06_4_3,Length=0.017000000,Units=km
new line.RML3841333 bus1=BBT3008172.1.2.3.0,bus2=RML1053841333.1.2.3.0,Phases=3,Linecode=CABBTG06_4_3,Length=0.017000000,Units=km
new line.RML3841361 bus1=BBT3008228.1.2.0,bus2=RML1053841361.1.2.0,Phases=2,Linecode=CABBTG05_4_2,Length=0.017000000,Units=km
new line.RML3842719 bus1=BBT2996181.1.2.3.0,bus2=RML1053842719.1.2.3.0,Phases=3,Linecode=CABBTG06_4_3,Length=0.017000000,Units=km
new line.RML3842726 bus1=BBT162657238.1.2.3.0,bus2=RML1053842726.1.2.3.0,Phases=3,Linecode=CABBTG06_4_3,Length=0.017000000,Units=km
new line.RML3861325 bus1=BBT3008284.1.2.3.0,bus2=RML1053861325.1.2.3.0,Phases=3,Linecode=CABBTG09_4_3,Length=0.017000000,Units=km
new line.RML3861493 bus1=BBT3071151.1.2.3.0,bus2=RML1053861493.1.2.3.0,Phases=3,Linecode=CABBTG06_4_3,Length=0.017000000,Units=km
new line.RML3899048 bus1=BBT3160821.1.2.3.0,bus2=RML1053899048.1.2.3.0,Phases=3,Linecode=CABBTG06_4_3,Length=0.017000000,Units=km
new line.RML3900385 bus1=BBT3008109.1.2.3.0,bus2=RML1053900385.1.2.3.0,Phases=3,Linecode=CABBTG09_4_3,Length=0.017000000,Units=km
new line.RML3900392 bus1=BBT2957597.1.2.3.0,bus2=RML1053900392.1.2.3.0,Phases=3,Linecode=CABBTG09_4_3,Length=0.017000000,Units=km
new line.RML3944058 bus1=BBT2987970.1.2.3.0,bus2=RML1053944058.1.2.3.0,Phases=3,Linecode=CABBTG09_4_3,Length=0.017000000,Units=km
new line.RML3965156 bus1=BBT163811141.1.2.0,bus2=RML1053965156.1.2.0,Phases=2,Linecode=CABBTG05_4_2,Length=0.017000000,Units=km
new line.RML3970840 bus1=BBT3071865.1.2.3.0,bus2=RML1053970840.1.2.3.0,Phases=3,Linecode=CABBTG09_4_3,Length=0.017000000,Units=km
new line.RML3970861 bus1=BBT3015508.1.2.3.0,bus2=RML1053970861.1.2.3.0,Phases=3,Linecode=CABBTG09_4_3,Length=0.017000000,Units=km
new line.RML3977168 bus1=BBT3288326.1.2.3.0,bus2=RML1053977168.1.2.3.0,Phases=3,Linecode=CABBTG06_4_3,Length=0.017000000,Units=km
new line.RML3999729 bus1=BBT3203878.1.2.3.0,bus2=RML1053999729.1.2.3.0,Phases=3,Linecode=CABBTG09_4_3,Length=0.017000000,Units=km
new line.RML3999771 bus1=BBT3242518.1.2.3.0,bus2=RML1053999771.1.2.3.0,Phases=3,Linecode=CABBTG09_4_3,Length=0.017000000,Units=km
new line.RML4011580 bus1=BBT3333077.1.2.3.0,bus2=RML1054011580.1.2.3.0,Phases=3,Linecode=CABBTG09_4_3,Length=0.017000000,Units=km
new line.RML4028310 bus1=BBT3015571.1.2.3.0,bus2=RML1054028310.1.2.3.0,Phases=3,Linecode=CABBTG09_4_3,Length=0.017000000,Units=km
new line.RML4031250 bus1=BBT3228847.1.2.3.0,bus2=RML1054031250.1.2.3.0,Phases=3,Linecode=CABBTG09_4_3,Length=0.017000000,Units=km
new line.RML4031278 bus1=BBT3228994.1.2.3.0,bus2=RML1054031278.1.2.3.0,Phases=3,Linecode=CABBTG09_4_3,Length=0.017000000,Units=km
new line.RML4031292 bus1=BBT3228826.1.2.3.0,bus2=RML1054031292.1.2.3.0,Phases=3,Linecode=CABBTG09_4_3,Length=0.017000000,Units=km
new line.RML4063233 bus1=BBT3015389.1.2.3.0,bus2=RML1054063233.1.2.3.0,Phases=3,Linecode=CABBTG09_4_3,Length=0.017000000,Units=km
new line.RML4107823 bus1=BBT3568158.1.2.3.0,bus2=RML1054107823.1.2.3.0,Phases=3,Linecode=CABBTG06_4_3,Length=0.017000000,Units=km
new line.RML4158979 bus1=BBT2844659.1.2.3.0,bus2=RML1054158979.1.2.3.0,Phases=3,Linecode=CABBTG06_4_3,Length=0.017000000,Units=km
new line.RML4184389 bus1=BBT3761694.1.2.0,bus2=RML1054184389.1.2.0,Phases=2,Linecode=CABBTG05_4_2,Length=0.017000000,Units=km
new line.RML4212312 bus1=BBT336958.1.2.0,bus2=RML1054212312.1.2.0,Phases=2,Linecode=CABBTG05_4_2,Length=0.017000000,Units=km
new line.RML4212319 bus1=BBT336958.1.2.0,bus2=RML1054212319.1.2.0,Phases=2,Linecode=CABBTG05_4_2,Length=0.017000000,Units=km
new line.RML4212543 bus1=BBT3213048.1.2.3.0,bus2=RML1054212543.1.2.3.0,Phases=3,Linecode=CABBTG06_4_3,Length=0.017000000,Units=km
new line.RML4213180 bus1=BBT3918291.1.0,bus2=RML1054213180.1.0,Phases=1,Linecode=CABBTG02_4_1,Length=0.017000000,Units=km
new line.RML4213187 bus1=BBT3918256.1.0,bus2=RML1054213187.1.0,Phases=1,Linecode=CABBTG02_4_1,Length=0.017000000,Units=km
new line.RML4214335 bus1=BBT2798641.1.2.0,bus2=RML1054214335.1.2.0,Phases=2,Linecode=CABBTG05_4_2,Length=0.017000000,Units=km
new line.RML4216190 bus1=BBT3925018.1.0,bus2=RML1054216190.1.0,Phases=1,Linecode=CABBTG02_4_1,Length=0.017000000,Units=km
new line.RML4216379 bus1=BBT3925382.2.0,bus2=RML1054216379.2.0,Phases=1,Linecode=CABBTG02_4_1,Length=0.017000000,Units=km
new line.RML4218815 bus1=BBT3937086.1.0,bus2=RML1054218815.1.0,Phases=1,Linecode=CABBTG02_4_1,Length=0.017000000,Units=km
new line.RML4219186 bus1=BBT3937191.1.0,bus2=RML1054219186.1.0,Phases=1,Linecode=CABBTG02_4_1,Length=0.017000000,Units=km
new line.RML4220145 bus1=BBT3939375.1.2.3.0,bus2=RML1054220145.1.2.3.0,Phases=3,Linecode=CABBTG06_4_3,Length=0.017000000,Units=km
new line.RML4223050 bus1=BBT3196605.1.2.3.0,bus2=RML1054223050.1.2.3.0,Phases=3,Linecode=CABBTG06_4_3,Length=0.017000000,Units=km
new line.RML4240900 bus1=BBT3910766.1.2.3.0,bus2=RML1054240900.1.2.3.0,Phases=3,Linecode=CABBTG08_4_3,Length=0.017000000,Units=km
new line.RML4240907 bus1=BBT3761736.1.2.3.0,bus2=RML1054240907.1.2.3.0,Phases=3,Linecode=CABBTG09_4_3,Length=0.017000000,Units=km
new line.RML4262320 bus1=BBT4070646.1.2.3.0,bus2=RML1054262320.1.2.3.0,Phases=3,Linecode=CABBTG06_4_3,Length=0.017000000,Units=km
new line.RML4290831 bus1=BBT4117665.1.2.3.0,bus2=RML1054290831.1.2.3.0,Phases=3,Linecode=CABBTG06_4_3,Length=0.017000000,Units=km
new line.RML4295871 bus1=BBT4188407.1.2.0,bus2=RML1054295871.1.2.0,Phases=2,Linecode=CABBTG05_4_2,Length=0.017000000,Units=km
new line.RML4307687 bus1=BBT4253801.1.0,bus2=RML1054307687.1.0,Phases=1,Linecode=CABBTG02_4_1,Length=0.017000000,Units=km
new line.RML434860 bus1=BBT336902.1.2.0,bus2=RML1050434860.1.2.0,Phases=2,Linecode=CABBTG05_4_2,Length=0.017000000,Units=km
new line.RML434867 bus1=BBT3917934.1.2.0,bus2=RML1050434867.1.2.0,Phases=2,Linecode=CABBTG05_4_2,Length=0.017000000,Units=km
new line.RML434874 bus1=BBT3925368.1.0,bus2=RML1050434874.1.0,Phases=1,Linecode=CABBTG02_4_1,Length=0.017000000,Units=km
new line.RML434888 bus1=BBT336958.1.2.0,bus2=RML1050434888.1.2.0,Phases=2,Linecode=CABBTG05_4_2,Length=0.017000000,Units=km
new line.RML434895 bus1=BBT336972.1.2.0,bus2=RML1050434895.1.2.0,Phases=2,Linecode=CABBTG05_4_2,Length=0.017000000,Units=km
new line.RML434902 bus1=BBT3925011.1.0,bus2=RML1050434902.1.0,Phases=1,Linecode=CABBTG02_4_1,Length=0.017000000,Units=km
new line.RML434909 bus1=BBT3916247.1.0,bus2=RML1050434909.1.0,Phases=1,Linecode=CABBTG02_4_1,Length=0.017000000,Units=km
new line.RML434916 bus1=BBT3937079.2.0,bus2=RML1050434916.2.0,Phases=1,Linecode=CABBTG02_4_1,Length=0.017000000,Units=km
new line.RML434923 bus1=BBT3916380.1.0,bus2=RML1050434923.1.0,Phases=1,Linecode=CABBTG02_4_1,Length=0.017000000,Units=km
new line.RML434937 bus1=BBT337056.1.2.0,bus2=RML1050434937.1.2.0,Phases=2,Linecode=CABBTG05_4_2,Length=0.017000000,Units=km
new line.RML434944 bus1=BBT3918088.1.2.0,bus2=RML1050434944.1.2.0,Phases=2,Linecode=CABBTG05_4_2,Length=0.017000000,Units=km
new line.RML434951 bus1=BBT3918263.1.0,bus2=RML1050434951.1.0,Phases=1,Linecode=CABBTG02_4_1,Length=0.017000000,Units=km
new line.RML434958 bus1=BBT337098.1.2.0,bus2=RML1050434958.1.2.0,Phases=2,Linecode=CABBTG05_4_2,Length=0.017000000,Units=km
new line.RML434965 bus1=BBT337112.1.2.0,bus2=RML1050434965.1.2.0,Phases=2,Linecode=CABBTG05_4_2,Length=0.017000000,Units=km
new line.RML434979 bus1=BBT337140.1.2.0,bus2=RML1050434979.1.2.0,Phases=2,Linecode=CABBTG05_4_2,Length=0.017000000,Units=km
new line.RML434986 bus1=BBT337154.1.2.0,bus2=RML1050434986.1.2.0,Phases=2,Linecode=CABBTG05_4_2,Length=0.017000000,Units=km
new line.RML435070 bus1=BBT337336.1.0,bus2=RML1050435070.1.0,Phases=1,Linecode=CABBTG02_4_1,Length=0.017000000,Units=km
new line.RML435077 bus1=BBT337350.1.2.0,bus2=RML1050435077.1.2.0,Phases=2,Linecode=CABBTG05_4_2,Length=0.017000000,Units=km
new line.RML435084 bus1=BBT3916877.1.0,bus2=RML1050435084.1.0,Phases=1,Linecode=CABBTG02_4_1,Length=0.017000000,Units=km
new line.RML435091 bus1=BBT337378.1.2.0,bus2=RML1050435091.1.2.0,Phases=2,Linecode=CABBTG05_4_2,Length=0.017000000,Units=km
new line.RML435126 bus1=BBT3925347.1.0,bus2=RML1050435126.1.0,Phases=1,Linecode=CABBTG02_4_1,Length=0.017000000,Units=km
new line.RML435399 bus1=BBT2601318.1.2.3.0,bus2=RML1050435399.1.2.3.0,Phases=3,Linecode=CABBTG07_4_3,Length=0.017000000,Units=km
new line.RML438906 bus1=BBT341298.1.2.0,bus2=RML1050438906.1.2.0,Phases=2,Linecode=CABBTG05_4_2,Length=0.017000000,Units=km
new line.RML4404007 bus1=BBT4749884.1.2.0,bus2=RML1054404007.1.2.0,Phases=2,Linecode=CABBTG05_4_2,Length=0.017000000,Units=km
new line.RML4491227 bus1=BBT5012846.1.2.3.0,bus2=RML1054491227.1.2.3.0,Phases=3,Linecode=CABBTG09_4_3,Length=0.017000000,Units=km
new line.RML4491297 bus1=BBT4926557.1.2.3.0,bus2=RML1054491297.1.2.3.0,Phases=3,Linecode=CABBTG09_4_3,Length=0.017000000,Units=km
new line.RML4504835 bus1=BBT4264301.1.2.3.0,bus2=RML1054504835.1.2.3.0,Phases=3,Linecode=CABBTG09_4_3,Length=0.017000000,Units=km
new line.RML4504975 bus1=BBT4117686.1.2.3.0,bus2=RML1054504975.1.2.3.0,Phases=3,Linecode=CABBTG09_4_3,Length=0.017000000,Units=km
new line.RML4505003 bus1=BBT4168002.1.2.3.0,bus2=RML1054505003.1.2.3.0,Phases=3,Linecode=CABBTG09_4_3,Length=0.017000000,Units=km
new line.RML4505010 bus1=BBT4811449.1.2.3.0,bus2=RML1054505010.1.2.3.0,Phases=3,Linecode=CABBTG09_4_3,Length=0.017000000,Units=km
new line.RML4532373 bus1=BBT5239527.1.2.3.0,bus2=RML1054532373.1.2.3.0,Phases=3,Linecode=CABBTG09_4_3,Length=0.017000000,Units=km
new line.RML4560233 bus1=BBT5363154.1.2.3.0,bus2=RML1054560233.1.2.3.0,Phases=3,Linecode=CABBTG09_4_3,Length=0.017000000,Units=km
new line.RML4564734 bus1=BBT5362223.1.2.3.0,bus2=RML1054564734.1.2.3.0,Phases=3,Linecode=CABBTG06_4_3,Length=0.017000000,Units=km
new line.RML4564741 bus1=BBT5363168.1.2.0,bus2=RML1054564741.1.2.0,Phases=2,Linecode=CABBTG05_4_2,Length=0.017000000,Units=km
new line.RML4564748 bus1=BBT5363273.1.2.0,bus2=RML1054564748.1.2.0,Phases=2,Linecode=CABBTG05_4_2,Length=0.017000000,Units=km
new line.RML4567079 bus1=BBT5325599.1.2.0,bus2=RML1054567079.1.2.0,Phases=2,Linecode=CABBTG05_4_2,Length=0.017000000,Units=km
new line.RML4567345 bus1=BBT5363238.1.2.0,bus2=RML1054567345.1.2.0,Phases=2,Linecode=CABBTG05_4_2,Length=0.017000000,Units=km
new line.RML4572945 bus1=BBT4117686.1.2.3.0,bus2=RML1054572945.1.2.3.0,Phases=3,Linecode=CABBTG09_4_3,Length=0.017000000,Units=km
new line.RML4596913 bus1=BBT5232772.1.2.3.0,bus2=RML1054596913.1.2.3.0,Phases=3,Linecode=CABBTG09_4_3,Length=0.017000000,Units=km
new line.RML4597067 bus1=BBT5420092.1.2.3.0,bus2=RML1054597067.1.2.3.0,Phases=3,Linecode=CABBTG09_4_3,Length=0.017000000,Units=km
new line.RML4598103 bus1=BBT5415213.1.2.0,bus2=RML1054598103.1.2.0,Phases=2,Linecode=CABBTG05_4_2,Length=0.017000000,Units=km
new line.RML4598117 bus1=BBT5415409.1.2.3.0,bus2=RML1054598117.1.2.3.0,Phases=3,Linecode=CABBTG09_4_3,Length=0.017000000,Units=km
new line.RML4620769 bus1=BBT5537825.1.2.3.0,bus2=RML1054620769.1.2.3.0,Phases=3,Linecode=CABBTG06_4_3,Length=0.017000000,Units=km
new line.RML4642987 bus1=BBT5515915.1.2.3.0,bus2=RML1054642987.1.2.3.0,Phases=3,Linecode=CABBTG09_4_3,Length=0.017000000,Units=km
new line.RML4642994 bus1=BBT5515859.1.2.3.0,bus2=RML1054642994.1.2.3.0,Phases=3,Linecode=CABBTG09_4_3,Length=0.017000000,Units=km
new line.RML4643001 bus1=BBT5515243.1.2.3.0,bus2=RML1054643001.1.2.3.0,Phases=3,Linecode=CABBTG09_4_3,Length=0.017000000,Units=km
new line.RML4670868 bus1=BBT3015508.1.2.3.0,bus2=RML1054670868.1.2.3.0,Phases=3,Linecode=CABBTG09_4_3,Length=0.017000000,Units=km
new line.RML4671855 bus1=BBT5515243.1.2.3.0,bus2=RML1054671855.1.2.3.0,Phases=3,Linecode=CABBTG09_4_3,Length=0.017000000,Units=km
new line.RML4675096 bus1=BBT3825478.1.2.3.0,bus2=RML1054675096.1.2.3.0,Phases=3,Linecode=CABBTG09_4_3,Length=0.017000000,Units=km
new line.RML4696138 bus1=BBT5363329.1.2.3.0,bus2=RML1054696138.1.2.3.0,Phases=3,Linecode=CABBTG09_4_3,Length=0.017000000,Units=km
new line.RML4721954 bus1=BBT166078757.1.0,bus2=RML1054721954.1.0,Phases=1,Linecode=CABBTG02_4_1,Length=0.017000000,Units=km
new line.RML4731257 bus1=BBT5793878.1.2.3.0,bus2=RML1054731257.1.2.3.0,Phases=3,Linecode=CABBTG12_4_3,Length=0.017000000,Units=km
new line.RML4774503 bus1=BBT2872512.2.0,bus2=RML1054774503.2.0,Phases=1,Linecode=CABBTG01_4_1,Length=0.017000000,Units=km
new line.RML4790869 bus1=BBT6193599.1.2.0,bus2=RML1054790869.1.2.0,Phases=2,Linecode=CABBTG05_4_2,Length=0.017000000,Units=km
new line.RML4790932 bus1=BBT6194593.1.2.0,bus2=RML1054790932.1.2.0,Phases=2,Linecode=CABBTG05_4_2,Length=0.017000000,Units=km
new line.RML4790939 bus1=BBT6194719.1.2.0,bus2=RML1054790939.1.2.0,Phases=2,Linecode=CABBTG05_4_2,Length=0.017000000,Units=km
new line.RML4790946 bus1=BBT6194789.1.2.0,bus2=RML1054790946.1.2.0,Phases=2,Linecode=CABBTG05_4_2,Length=0.017000000,Units=km
new line.RML4790953 bus1=BBT6194803.1.2.0,bus2=RML1054790953.1.2.0,Phases=2,Linecode=CABBTG05_4_2,Length=0.017000000,Units=km
new line.RML4790960 bus1=BBT6194817.1.2.0,bus2=RML1054790960.1.2.0,Phases=2,Linecode=CABBTG05_4_2,Length=0.017000000,Units=km
new line.RML4790967 bus1=BBT6194831.1.2.0,bus2=RML1054790967.1.2.0,Phases=2,Linecode=CABBTG05_4_2,Length=0.017000000,Units=km
new line.RML4790974 bus1=BBT6194859.1.2.0,bus2=RML1054790974.1.2.0,Phases=2,Linecode=CABBTG05_4_2,Length=0.017000000,Units=km
new line.RML4790981 bus1=BBT6194901.1.2.0,bus2=RML1054790981.1.2.0,Phases=2,Linecode=CABBTG05_4_2,Length=0.017000000,Units=km
new line.RML4790988 bus1=BBT6194936.1.2.0,bus2=RML1054790988.1.2.0,Phases=2,Linecode=CABBTG05_4_2,Length=0.017000000,Units=km
new line.RML4790995 bus1=BBT6195055.1.2.0,bus2=RML1054790995.1.2.0,Phases=2,Linecode=CABBTG05_4_2,Length=0.017000000,Units=km
new line.RML4791002 bus1=BBT6195069.1.2.0,bus2=RML1054791002.1.2.0,Phases=2,Linecode=CABBTG05_4_2,Length=0.017000000,Units=km
new line.RML4791009 bus1=BBT6195181.1.2.0,bus2=RML1054791009.1.2.0,Phases=2,Linecode=CABBTG05_4_2,Length=0.017000000,Units=km
new line.RML4791016 bus1=BBT6195195.1.2.0,bus2=RML1054791016.1.2.0,Phases=2,Linecode=CABBTG05_4_2,Length=0.017000000,Units=km
new line.RML4791023 bus1=BBT6195258.1.2.0,bus2=RML1054791023.1.2.0,Phases=2,Linecode=CABBTG05_4_2,Length=0.017000000,Units=km
new line.RML4791030 bus1=BBT6195321.1.2.0,bus2=RML1054791030.1.2.0,Phases=2,Linecode=CABBTG05_4_2,Length=0.017000000,Units=km
new line.RML4791037 bus1=BBT6195335.1.2.0,bus2=RML1054791037.1.2.0,Phases=2,Linecode=CABBTG05_4_2,Length=0.017000000,Units=km
new line.RML4809041 bus1=BBT6000070.1.2.3.0,bus2=RML1054809041.1.2.3.0,Phases=3,Linecode=CABBTG06_4_3,Length=0.017000000,Units=km
new line.RML4809104 bus1=BBT6000133.1.2.3.0,bus2=RML1054809104.1.2.3.0,Phases=3,Linecode=CABBTG06_4_3,Length=0.017000000,Units=km
new line.RML4810028 bus1=BBT6285719.1.2.3.0,bus2=RML1054810028.1.2.3.0,Phases=3,Linecode=CABBTG12_4_3,Length=0.017000000,Units=km
new line.RML4973842 bus1=BBT2798655.1.0,bus2=RML1054973842.1.0,Phases=1,Linecode=CABBTG01_4_1,Length=0.017000000,Units=km
new line.RML4973877 bus1=BBT2798907.2.0,bus2=RML1054973877.2.0,Phases=1,Linecode=CABBTG02_4_1,Length=0.017000000,Units=km
new line.RML4973898 bus1=BBT2798928.3.0,bus2=RML1054973898.3.0,Phases=1,Linecode=CABBTG02_4_1,Length=0.017000000,Units=km
new line.RML4973905 bus1=BBT2798900.1.0,bus2=RML1054973905.1.0,Phases=1,Linecode=CABBTG02_4_1,Length=0.017000000,Units=km
new line.RML4973912 bus1=BBT2798900.2.0,bus2=RML1054973912.2.0,Phases=1,Linecode=CABBTG02_4_1,Length=0.017000000,Units=km
new line.RML4973919 bus1=BBT2798641.3.0,bus2=RML1054973919.3.0,Phases=1,Linecode=CABBTG02_4_1,Length=0.017000000,Units=km
new line.RML4973933 bus1=BBT2798655.3.0,bus2=RML1054973933.3.0,Phases=1,Linecode=CABBTG01_4_1,Length=0.017000000,Units=km
new line.RML4973940 bus1=BBT2798655.1.0,bus2=RML1054973940.1.0,Phases=1,Linecode=CABBTG01_4_1,Length=0.017000000,Units=km
new line.RML4973954 bus1=BBT2798655.3.0,bus2=RML1054973954.3.0,Phases=1,Linecode=CABBTG01_4_1,Length=0.017000000,Units=km
new line.RML4973968 bus1=BBT2798914.2.0,bus2=RML1054973968.2.0,Phases=1,Linecode=CABBTG02_4_1,Length=0.017000000,Units=km
new line.RML4973996 bus1=BBT2798921.2.0,bus2=RML1054973996.2.0,Phases=1,Linecode=CABBTG01_4_1,Length=0.017000000,Units=km
new line.RML4974066 bus1=BBT2798935.3.0,bus2=RML1054974066.3.0,Phases=1,Linecode=CABBTG01_4_1,Length=0.017000000,Units=km
new line.RML4974087 bus1=BBT2798935.1.0,bus2=RML1054974087.1.0,Phases=1,Linecode=CABBTG01_4_1,Length=0.017000000,Units=km
new line.RML4974115 bus1=BBT2798648.3.0,bus2=RML1054974115.3.0,Phases=1,Linecode=CABBTG02_4_1,Length=0.017000000,Units=km
new line.RML4992434 bus1=BBT6361284.1.2.3.0,bus2=RML1054992434.1.2.3.0,Phases=3,Linecode=CABBTG06_4_3,Length=0.017000000,Units=km
new line.RML4992441 bus1=BBT6362047.1.2.3.0,bus2=RML1054992441.1.2.3.0,Phases=3,Linecode=CABBTG06_4_3,Length=0.017000000,Units=km
new line.RML5018586 bus1=BBT6518049.1.2.3.0,bus2=RML1055018586.1.2.3.0,Phases=3,Linecode=CABBT815_4_3,Length=0.017000000,Units=km
new line.RML5019482 bus1=BBT24923464.1.2.0,bus2=RML1055019482.1.2.0,Phases=2,Linecode=CABBT808_4_2,Length=0.017000000,Units=km
new line.RML5030843 bus1=BBT2798942.1.2.0,bus2=RML1055030843.1.2.0,Phases=2,Linecode=CABBTG05_4_2,Length=0.017000000,Units=km
new line.RML5030850 bus1=BBT2798900.1.0,bus2=RML1055030850.1.0,Phases=1,Linecode=CABBTG02_4_1,Length=0.017000000,Units=km
new line.RML5042316 bus1=BBT27298389.1.2.3.0,bus2=RML1055042316.1.2.3.0,Phases=3,Linecode=CABBTG12_4_3,Length=0.017000000,Units=km
new line.RML5058339 bus1=BBT6295512.1.2.3.0,bus2=RML1055058339.1.2.3.0,Phases=3,Linecode=CABBT815_4_3,Length=0.017000000,Units=km
new line.RML5058381 bus1=BBT24269342.1.2.3.0,bus2=RML1055058381.1.2.3.0,Phases=3,Linecode=CABBT815_4_3,Length=0.017000000,Units=km
new line.RML5058444 bus1=BBT5415227.1.2.3.0,bus2=RML1055058444.1.2.3.0,Phases=3,Linecode=CABBT815_4_3,Length=0.017000000,Units=km
new line.RML5059452 bus1=BBT8886268.1.2.3.0,bus2=RML1055059452.1.2.3.0,Phases=3,Linecode=CABBT815_4_3,Length=0.017000000,Units=km
new line.RML5061853 bus1=BBT2798669.1.0,bus2=RML1055061853.1.0,Phases=1,Linecode=CABBTG01_4_1,Length=0.017000000,Units=km
new line.RML5066396 bus1=BBT28220135.1.2.3.0,bus2=RML1055066396.1.2.3.0,Phases=3,Linecode=CABBTG06_4_3,Length=0.017000000,Units=km
new line.RML5464260 bus1=BBT2798907.2.0,bus2=RML1055464260.2.0,Phases=1,Linecode=CABBTG02_4_1,Length=0.017000000,Units=km
new line.RML5551284 bus1=BBT2798914.2.0,bus2=RML1055551284.2.0,Phases=1,Linecode=CABBTG01_4_1,Length=0.017000000,Units=km
new line.RML5622614 bus1=BBT64671800.1.2.3.0,bus2=RML1055622614.1.2.3.0,Phases=3,Linecode=CABBT815_4_3,Length=0.017000000,Units=km
new line.RML5636474 bus1=BBT64635351.2.0,bus2=RML1055636474.2.0,Phases=1,Linecode=CABBTG02_4_1,Length=0.017000000,Units=km
new line.RML5670459 bus1=BBT71865882.1.2.0,bus2=RML1055670459.1.2.0,Phases=2,Linecode=CABBTG05_4_2,Length=0.017000000,Units=km
new line.RML5949444 bus1=BBT6285516.1.2.3.0,bus2=RML1055949444.1.2.3.0,Phases=3,Linecode=CABBTG06_4_3,Length=0.017000000,Units=km
new line.RML6068164 bus1=BBT2798935.2.0,bus2=RML1056068164.2.0,Phases=1,Linecode=CABBTG02_4_1,Length=0.017000000,Units=km
new line.RML6068199 bus1=BBT2798935.1.0,bus2=RML1056068199.1.0,Phases=1,Linecode=CABBTG02_4_1,Length=0.017000000,Units=km
new line.RML6183580 bus1=BBT115991649.1.2.0,bus2=RML1056183580.1.2.0,Phases=2,Linecode=CABBTG05_4_2,Length=0.017000000,Units=km
new line.RML6241148 bus1=BBT115962711.1.2.3.0,bus2=RML1056241148.1.2.3.0,Phases=3,Linecode=CABBTG09_4_3,Length=0.017000000,Units=km
new line.RML6356438 bus1=BBT2798655.1.0,bus2=RML1056356438.1.0,Phases=1,Linecode=CABBTG01_4_1,Length=0.017000000,Units=km
new line.RML6380469 bus1=BBT127834340.1.2.3.0,bus2=RML1056380469.1.2.3.0,Phases=3,Linecode=CABBTG08_4_3,Length=0.017000000,Units=km
new line.RML6492616 bus1=BBT2872512.1.2.3.0,bus2=RML1056492616.1.2.3.0,Phases=3,Linecode=CABBTG06_4_3,Length=0.017000000,Units=km
new line.RML6492742 bus1=BBT2872512.1.2.3.0,bus2=RML1056492742.1.2.3.0,Phases=3,Linecode=CABBTG06_4_3,Length=0.017000000,Units=km
new line.RML6516969 bus1=BBT3228826.1.2.3.0,bus2=RML1056516969.1.2.3.0,Phases=3,Linecode=CABBTG09_4_3,Length=0.017000000,Units=km
new line.RML6516983 bus1=BBT8787876.1.2.3.0,bus2=RML1056516983.1.2.3.0,Phases=3,Linecode=CABBTG08_4_3,Length=0.017000000,Units=km
new line.RML6528078 bus1=BBT135183997.1.2.0,bus2=RML1056528078.1.2.0,Phases=2,Linecode=CABBTG05_4_2,Length=0.017000000,Units=km
new line.RML6542652 bus1=BBT80804658.1.2.3.0,bus2=RML1056542652.1.2.3.0,Phases=3,Linecode=CABBTG09_4_3,Length=0.017000000,Units=km
new line.RML6597630 bus1=BBT131623608.1.0,bus2=RML1056597630.1.0,Phases=1,Linecode=CABBTG02_4_1,Length=0.017000000,Units=km
new line.RML6626141 bus1=BBT135179020.1.2.3.0,bus2=RML1056626141.1.2.3.0,Phases=3,Linecode=CABBTG12_4_3,Length=0.017000000,Units=km
new line.RML6697093 bus1=BBT128328827.1.2.3.0,bus2=RML1056697093.1.2.3.0,Phases=3,Linecode=CABBTG08_4_3,Length=0.017000000,Units=km
new line.RML6697107 bus1=BBT131428574.1.2.0,bus2=RML1056697107.1.2.0,Phases=2,Linecode=CABBTG05_4_2,Length=0.017000000,Units=km
new line.RML6729335 bus1=BBT4820157.1.2.3.0,bus2=RML1056729335.1.2.3.0,Phases=3,Linecode=CABBTG11_4_3,Length=0.017000000,Units=km
new line.RML6729342 bus1=BBT337336.1.2.0,bus2=RML1056729342.1.2.0,Phases=2,Linecode=CABBTG04_4_2,Length=0.017000000,Units=km