new load.3003129408M1 bus1=RML1050434860.1.2.0,Phases=2,kv=0.24,kW=0.98236,pf=0.92,Vminpu=0.92,Vmaxpu=1.5,model=8,zipv=[0.5,0,0.5,1,0,0,0],daily=RUR1_22,status=variable
new load.3003129412M1 bus1=RML1050435091.1.2.0,Phases=2,kv=0.24,kW=4.70372,pf=0.92,Vminpu=0.92,Vmaxpu=1.5,model=8,zipv=[0.5,0,0.5,1,0,0,0],daily=RUR4_18,status=variable
new load.3003129414M1 bus1=RML1050434888.1.2.0,Phases=2,kv=0.24,kW=0.76242,pf=0.92,Vminpu=0.92,Vmaxpu=1.5,model=8,zipv=[0.5,0,0.5,1,0,0,0],daily=RUR2_21,status=variable
new load.3003129415M1 bus1=RML1050434937.1.2.0,Phases=2,kv=0.24,kW=1.74604,pf=0.92,Vminpu=0.92,Vmaxpu=1.5,model=8,zipv=[0.5,0,0.5,1,0,0,0],daily=RUR4_18,status=variable
new load.3003129416M1 bus1=RML1050434979.1.2.0,Phases=2,kv=0.24,kW=1.52028,pf=0.92,Vminpu=0.92,Vmaxpu=1.5,model=8,zipv=[0.5,0,0.5,1,0,0,0],daily=RUR4_18,status=variable
new load.3003129418M1 bus1=RML1050434965.1.2.0,Phases=2,kv=0.24,kW=0.38746,pf=0.92,Vminpu=0.92,Vmaxpu=1.5,model=8,zipv=[0.5,0,0.5,1,0,0,0],daily=RUR2_21,status=variable
new load.3003129420M1 bus1=RML1050435126.1.0,Phases=1,kv=0.12,kW=0.4955,pf=0.92,Vminpu=0.92,Vmaxpu=1.5,model=8,zipv=[0.5,0,0.5,1,0,0,0],daily=RUR1_23,status=variable
new load.3003129422M1 bus1=RML1054216379.2.0,Phases=1,kv=0.12,kW=0.37014,pf=0.92,Vminpu=0.92,Vmaxpu=1.5,model=8,zipv=[0.5,0,0.5,1,0,0,0],daily=RUR1_23,status=variable
new load.3003129423M1 bus1=RML1054218815.1.0,Phases=1,kv=0.12,kW=0.1791,pf=0.92,Vminpu=0.92,Vmaxpu=1.5,model=8,zipv=[0.5,0,0.5,1,0,0,0],daily=RUR1_23,status=variable
new load.3003129425M1 bus1=RML1050434902.1.0,Phases=1,kv=0.12,kW=0.4358,pf=0.92,Vminpu=0.92,Vmaxpu=1.5,model=8,zipv=[0.5,0,0.5,1,0,0,0],daily=RUR1_23,status=variable
new load.3003129426M1 bus1=RML1054216190.1.0,Phases=1,kv=0.12,kW=0.94988,pf=0.92,Vminpu=0.92,Vmaxpu=1.5,model=8,zipv=[0.5,0,0.5,1,0,0,0],daily=RUR2_21,status=variable
new load.3007264772M1 bus1=RML1053842719.1.2.3.0,Phases=3,kv=0.22,kW=1.354,pf=0.92,Vminpu=0.92,Vmaxpu=1.5,model=8,zipv=[0.5,0,0.5,1,0,0,0],daily=RUR2_18,status=variable
new load.3007264787M1 bus1=RML1053842726.1.2.3.0,Phases=3,kv=0.22,kW=10.67108,pf=0.92,Vminpu=0.92,Vmaxpu=1.5,model=8,zipv=[0.5,0,0.5,1,0,0,0],daily=RUR4_12,status=variable
new load.3007314339M1 bus1=RML1053861493.1.2.3.0,Phases=3,kv=0.22,kW=0.6091,pf=0.92,Vminpu=0.92,Vmaxpu=1.5,model=8,zipv=[0.5,0,0.5,1,0,0,0],daily=RUR3_16,status=variable
new load.3007404367M1 bus1=RML1053830252.1.2.3.0,Phases=3,kv=0.22,kW=2.18768,pf=0.92,Vminpu=0.92,Vmaxpu=1.5,model=8,zipv=[0.5,0,0.5,1,0,0,0],daily=RES5_15,status=variable
new load.3007484003M1 bus1=RML1053977168.1.2.3.0,Phases=3,kv=0.22,kW=0.72302,pf=0.92,Vminpu=0.92,Vmaxpu=1.5,model=8,zipv=[0.5,0,0.5,1,0,0,0],daily=RUR3_22,status=variable
new load.3007723239M1 bus1=RML1054295871.1.2.0,Phases=2,kv=0.24,kW=1.75368,pf=0.92,Vminpu=0.92,Vmaxpu=1.5,model=8,zipv=[0.5,0,0.5,1,0,0,0],daily=RUR4_1,status=variable
new load.3010250728M1 bus1=RML1054564734.1.2.3.0,Phases=3,kv=0.22,kW=2.46422,pf=0.92,Vminpu=0.92,Vmaxpu=1.5,model=8,zipv=[0.5,0,0.5,1,0,0,0],daily=RUR4_2,status=variable
new load.3010250870M1 bus1=RML1054564741.1.2.0,Phases=2,kv=0.24,kW=1.61934,pf=0.92,Vminpu=0.92,Vmaxpu=1.5,model=8,zipv=[0.5,0,0.5,1,0,0,0],daily=RUR3_2,status=variable
new load.3010250875M1 bus1=RML1054564748.1.2.0,Phases=2,kv=0.24,kW=1.07434,pf=0.92,Vminpu=0.92,Vmaxpu=1.5,model=8,zipv=[0.5,0,0.5,1,0,0,0],daily=RUR2_3,status=variable
new load.3004906715M1 bus1=RML1050438906.1.2.0,Phases=2,kv=0.24,kW=0.9439,pf=0.92,Vminpu=0.92,Vmaxpu=1.5,model=8,zipv=[0.5,0,0.5,1,0,0,0],daily=COM1_12,status=variable
new load.3007287755M1 bus1=RML1054158979.1.2.3.0,Phases=3,kv=0.22,kW=20.3058,pf=0.92,Vminpu=0.92,Vmaxpu=1.5,model=8,zipv=[0.5,0,0.5,1,0,0,0],daily=RUR4_14,status=variable
new load.3007414118M1 bus1=RML1060090331.1.2.3.0,Phases=3,kv=0.22,kW=3.91786,pf=0.92,Vminpu=0.92,Vmaxpu=1.5,model=8,zipv=[0.5,0,0.5,1,0,0,0],daily=RUR4_18,status=variable
new load.3007654606M1 bus1=RML1054184389.1.2.0,Phases=2,kv=0.24,kW=6.5495,pf=0.92,Vminpu=0.92,Vmaxpu=1.5,model=8,zipv=[0.5,0,0.5,1,0,0,0],daily=RUR4_23,status=variable
new load.3010049629M1 bus1=RML1054731257.1.2.3.0,Phases=3,kv=0.22,kW=0.33506,pf=0.92,Vminpu=0.92,Vmaxpu=1.5,model=8,zipv=[0.5,0,0.5,1,0,0,0],daily=RUR4_1,status=variable
new load.3010609270M1 bus1=RML1054774503.2.0,Phases=1,kv=0.127,kW=0.45376,pf=0.92,Vminpu=0.92,Vmaxpu=1.5,model=8,zipv=[0.5,0,0.5,1,0,0,0],daily=COM1_15,status=variable
new load.3010753191M1 bus1=RML1054790869.1.2.0,Phases=2,kv=0.24,kW=0.11578,pf=0.92,Vminpu=0.92,Vmaxpu=1.5,model=8,zipv=[0.5,0,0.5,1,0,0,0],daily=RUR1_11,status=variable
new load.3010753219M1 bus1=RML1054790932.1.2.0,Phases=2,kv=0.24,kW=0.11578,pf=0.92,Vminpu=0.92,Vmaxpu=1.5,model=8,zipv=[0.5,0,0.5,1,0,0,0],daily=RUR1_11,status=variable
new load.3010753220M1 bus1=RML1054790967.1.2.0,Phases=2,kv=0.24,kW=0.13622,pf=0.92,Vminpu=0.92,Vmaxpu=1.5,model=8,zipv=[0.5,0,0.5,1,0,0,0],daily=RUR1_11,status=variable
new load.3010753221M1 bus1=RML1054791037.1.2.0,Phases=2,kv=0.24,kW=0.13622,pf=0.92,Vminpu=0.92,Vmaxpu=1.5,model=8,zipv=[0.5,0,0.5,1,0,0,0],daily=RUR1_11,status=variable
new load.3010753222M1 bus1=RML1054790939.1.2.0,Phases=2,kv=0.24,kW=0.1294,pf=0.92,Vminpu=0.92,Vmaxpu=1.5,model=8,zipv=[0.5,0,0.5,1,0,0,0],daily=RUR1_11,status=variable
new load.3010753223M1 bus1=RML1054790974.1.2.0,Phases=2,kv=0.24,kW=0.10896,pf=0.92,Vminpu=0.92,Vmaxpu=1.5,model=8,zipv=[0.5,0,0.5,1,0,0,0],daily=RUR1_11,status=variable
new load.3010753225M1 bus1=RML1054791009.1.2.0,Phases=2,kv=0.24,kW=0.14984,pf=0.92,Vminpu=0.92,Vmaxpu=1.5,model=8,zipv=[0.5,0,0.5,1,0,0,0],daily=RUR1_11,status=variable
new load.3010753226M1 bus1=RML1054790946.1.2.0,Phases=2,kv=0.24,kW=0.10896,pf=0.92,Vminpu=0.92,Vmaxpu=1.5,model=8,zipv=[0.5,0,0.5,1,0,0,0],daily=RUR1_11,status=variable
new load.3010753228M1 bus1=RML1054790981.1.2.0,Phases=2,kv=0.24,kW=0.11578,pf=0.92,Vminpu=0.92,Vmaxpu=1.5,model=8,zipv=[0.5,0,0.5,1,0,0,0],daily=RUR1_11,status=variable
new load.3010753229M1 bus1=RML1054791016.1.2.0,Phases=2,kv=0.24,kW=0.12258,pf=0.92,Vminpu=0.92,Vmaxpu=1.5,model=8,zipv=[0.5,0,0.5,1,0,0,0],daily=RUR1_11,status=variable
new load.3010753241M1 bus1=RML1054790953.1.2.0,Phases=2,kv=0.24,kW=0.10896,pf=0.92,Vminpu=0.92,Vmaxpu=1.5,model=8,zipv=[0.5,0,0.5,1,0,0,0],daily=RUR1_11,status=variable
new load.3010753242M1 bus1=RML1054790988.1.2.0,Phases=2,kv=0.24,kW=0.11578,pf=0.92,Vminpu=0.92,Vmaxpu=1.5,model=8,zipv=[0.5,0,0.5,1,0,0,0],daily=RUR1_11,status=variable
new load.3010753243M1 bus1=RML1054791023.1.2.0,Phases=2,kv=0.24,kW=0.14984,pf=0.92,Vminpu=0.92,Vmaxpu=1.5,model=8,zipv=[0.5,0,0.5,1,0,0,0],daily=RUR1_11,status=variable
new load.3010753244M1 bus1=RML1054790960.1.2.0,Phases=2,kv=0.24,kW=0.11578,pf=0.92,Vminpu=0.92,Vmaxpu=1.5,model=8,zipv=[0.5,0,0.5,1,0,0,0],daily=RUR1_11,status=variable
new load.3010753246M1 bus1=RML1054791030.1.2.0,Phases=2,kv=0.24,kW=0.1294,pf=0.92,Vminpu=0.92,Vmaxpu=1.5,model=8,zipv=[0.5,0,0.5,1,0,0,0],daily=RUR1_11,status=variable
new load.3010753998M1 bus1=RML1054791002.1.2.0,Phases=2,kv=0.24,kW=0.1294,pf=0.92,Vminpu=0.92,Vmaxpu=1.5,model=8,zipv=[0.5,0,0.5,1,0,0,0],daily=RUR1_11,status=variable
new load.3010801020M1 bus1=RML1054810028.1.2.3.0,Phases=3,kv=0.22,kW=7.09294,pf=0.92,Vminpu=0.92,Vmaxpu=1.5,model=8,zipv=[0.5,0,0.5,1,0,0,0],daily=RUR4_11,status=variable
new load.3010251475M1 bus1=RML1054567345.1.2.0,Phases=2,kv=0.24,kW=4.7492,pf=0.92,Vminpu=0.92,Vmaxpu=1.5,model=8,zipv=[0.5,0,0.5,1,0,0,0],daily=RUR4_2,status=variable
new load.3010954500M1 bus1=RML1054974066.3.0,Phases=1,kv=0.127,kW=0.06296,pf=0.92,Vminpu=0.92,Vmaxpu=1.5,model=8,zipv=[0.5,0,0.5,1,0,0,0],daily=RES1_18,status=variable
new load.3011229362M1 bus1=RML1060049747.1.2.0,Phases=2,kv=0.24,kW=0.08306,pf=0.92,Vminpu=0.92,Vmaxpu=1.5,model=8,zipv=[0.5,0,0.5,1,0,0,0],daily=RUR2_2,status=variable
new load.IP1146200M1 bus1=BBT2680229.1.2.0,Phases=2,kv=0.22,kW=0.08064,pf=0.92,Vminpu=0.92,Vmaxpu=1.5,model=8,zipv=[0.5,0,0.5,1,0,0,0],daily=IP,status=variable
new load.IP1146207M1 bus1=BBT2680222.1.3.0,Phases=2,kv=0.22,kW=0.08064,pf=0.92,Vminpu=0.92,Vmaxpu=1.5,model=8,zipv=[0.5,0,0.5,1,0,0,0],daily=IP,status=variable
new load.IP1146214M1 bus1=BBT2680215.2.3.0,Phases=2,kv=0.22,kW=0.08064,pf=0.92,Vminpu=0.92,Vmaxpu=1.5,model=8,zipv=[0.5,0,0.5,1,0,0,0],daily=IP,status=variable
new load.IP1146221M1 bus1=BBT2680208.1.3.0,Phases=2,kv=0.22,kW=0.08064,pf=0.92,Vminpu=0.92,Vmaxpu=1.5,model=8,zipv=[0.5,0,0.5,1,0,0,0],daily=IP,status=variable
new load.IP1146228M1 bus1=BBT2680208.1.3.0,Phases=2,kv=0.22,kW=0.08064,pf=0.92,Vminpu=0.92,Vmaxpu=1.5,model=8,zipv=[0.5,0,0.5,1,0,0,0],daily=IP,status=variable
new load.IP1146235M1 bus1=BBT2680201.2.3.0,Phases=2,kv=0.22,kW=0.08064,pf=0.92,Vminpu=0.92,Vmaxpu=1.5,model=8,zipv=[0.5,0,0.5,1,0,0,0],daily=IP,status=variable
new load.IP1146242M1 bus1=BBT2680194.1.2.0,Phases=2,kv=0.22,kW=0.08064,pf=0.92,Vminpu=0.92,Vmaxpu=1.5,model=8,zipv=[0.5,0,0.5,1,0,0,0],daily=IP,status=variable
new load.IP1146249M1 bus1=BBT2680194.1.2.0,Phases=2,kv=0.22,kW=0.08064,pf=0.92,Vminpu=0.92,Vmaxpu=1.5,model=8,zipv=[0.5,0,0.5,1,0,0,0],daily=IP,status=variable
new load.IP1146256M1 bus1=BBT2680138.1.2.0,Phases=2,kv=0.22,kW=0.08064,pf=0.92,Vminpu=0.92,Vmaxpu=1.5,model=8,zipv=[0.5,0,0.5,1,0,0,0],daily=IP,status=variable
new load.IP1146263M1 bus1=BBT2680145.1.3.0,Phases=2,kv=0.22,kW=0.08064,pf=0.92,Vminpu=0.92,Vmaxpu=1.5,model=8,zipv=[0.5,0,0.5,1,0,0,0],daily=IP,status=variable
new load.IP1146270M1 bus1=BBT2680152.2.3.0,Phases=2,kv=0.22,kW=0.08064,pf=0.92,Vminpu=0.92,Vmaxpu=1.5,model=8,zipv=[0.5,0,0.5,1,0,0,0],daily=IP,status=variable
new load.IP1146277M1 bus1=BBT2680166.1.3.0,Phases=2,kv=0.22,kW=0.08064,pf=0.92,Vminpu=0.92,Vmaxpu=1.5,model=8,zipv=[0.5,0,0.5,1,0,0,0],daily=IP,status=variable
new load.IP1146284M1 bus1=BBT2680159.1.3.0,Phases=2,kv=0.22,kW=0.08064,pf=0.92,Vminpu=0.92,Vmaxpu=1.5,model=8,zipv=[0.5,0,0.5,1,0,0,0],daily=IP,status=variable
new load.IP1146291M1 bus1=BBT2680159.1.3.0,Phases=2,kv=0.22,kW=0.08064,pf=0.92,Vminpu=0.92,Vmaxpu=1.5,model=8,zipv=[0.5,0,0.5,1,0,0,0],daily=IP,status=variable
new load.IP1146298M1 bus1=BBT2680173.1.3.0,Phases=2,kv=0.22,kW=0.08064,pf=0.92,Vminpu=0.92,Vmaxpu=1.5,model=8,zipv=[0.5,0,0.5,1,0,0,0],daily=IP,status=variable
new load.IP1146305M1 bus1=BBT2680180.1.3.0,Phases=2,kv=0.22,kW=0.08064,pf=0.92,Vminpu=0.92,Vmaxpu=1.5,model=8,zipv=[0.5,0,0.5,1,0,0,0],daily=IP,status=variable
new load.IP1146312M1 bus1=BBT2680187.1.2.0,Phases=2,kv=0.22,kW=0.08064,pf=0.92,Vminpu=0.92,Vmaxpu=1.5,model=8,zipv=[0.5,0,0.5,1,0,0,0],daily=IP,status=variable
new load.IP1146319M1 bus1=BBT2680103.2.3.0,Phases=2,kv=0.22,kW=0.08064,pf=0.92,Vminpu=0.92,Vmaxpu=1.5,model=8,zipv=[0.5,0,0.5,1,0,0,0],daily=IP,status=variable
new load.IP1146326M1 bus1=BBT2680096.1.2.0,Phases=2,kv=0.22,kW=0.08064,pf=0.92,Vminpu=0.92,Vmaxpu=1.5,model=8,zipv=[0.5,0,0.5,1,0,0,0],daily=IP,status=variable
new load.IP1146333M1 bus1=BBT2680089.2.3.0,Phases=2,kv=0.22,kW=0.08064,pf=0.92,Vminpu=0.92,Vmaxpu=1.5,model=8,zipv=[0.5,0,0.5,1,0,0,0],daily=IP,status=variable
new load.IP1146340M1 bus1=BBT2680082.1.2.0,Phases=2,kv=0.22,kW=0.08064,pf=0.92,Vminpu=0.92,Vmaxpu=1.5,model=8,zipv=[0.5,0,0.5,1,0,0,0],daily=IP,status=variable
new load.IP1146347M1 bus1=BBT2680075.1.3.0,Phases=2,kv=0.22,kW=0.08064,pf=0.92,Vminpu=0.92,Vmaxpu=1.5,model=8,zipv=[0.5,0,0.5,1,0,0,0],daily=IP,status=variable
new load.IP1146354M1 bus1=BBT2680075.1.3.0,Phases=2,kv=0.22,kW=0.08064,pf=0.92,Vminpu=0.92,Vmaxpu=1.5,model=8,zipv=[0.5,0,0.5,1,0,0,0],daily=IP,status=variable
new load.IP1146361M1 bus1=BBT2680068.2.3.0,Phases=2,kv=0.22,kW=0.08064,pf=0.92,Vminpu=0.92,Vmaxpu=1.5,model=8,zipv=[0.5,0,0.5,1,0,0,0],daily=IP,status=variable
new load.IP1146368M1 bus1=BBT2679935.1.2.0,Phases=2,kv=0.22,kW=0.08064,pf=0.92,Vminpu=0.92,Vmaxpu=1.5,model=8,zipv=[0.5,0,0.5,1,0,0,0],daily=IP,status=variable
new load.IP1146375M1 bus1=BBT2679942.1.3.0,Phases=2,kv=0.22,kW=0.08064,pf=0.92,Vminpu=0.92,Vmaxpu=1.5,model=8,zipv=[0.5,0,0.5,1,0,0,0],daily=IP,status=variable
new load.IP1146382M1 bus1=BBT2679949.1.3.0,Phases=2,kv=0.22,kW=0.08064,pf=0.92,Vminpu=0.92,Vmaxpu=1.5,model=8,zipv=[0.5,0,0.5,1,0,0,0],daily=IP,status=variable
new load.IP1146389M1 bus1=BBT2679949.1.3.0,Phases=2,kv=0.22,kW=0.08064,pf=0.92,Vminpu=0.92,Vmaxpu=1.5,model=8,zipv=[0.5,0,0.5,1,0,0,0],daily=IP,status=variable
new load.IP1146396M1 bus1=BBT2679956.1.2.0,Phases=2,kv=0.22,kW=0.08064,pf=0.92,Vminpu=0.92,Vmaxpu=1.5,model=8,zipv=[0.5,0,0.5,1,0,0,0],daily=IP,status=variable
new load.IP1146403M1 bus1=BBT2679928.1.3.0,Phases=2,kv=0.22,kW=0.08064,pf=0.92,Vminpu=0.92,Vmaxpu=1.5,model=8,zipv=[0.5,0,0.5,1,0,0,0],daily=IP,status=variable
new load.IP1146410M1 bus1=BBT2679921.2.3.0,Phases=2,kv=0.22,kW=0.08064,pf=0.92,Vminpu=0.92,Vmaxpu=1.5,model=8,zipv=[0.5,0,0.5,1,0,0,0],daily=IP,status=variable
new load.IP1146417M1 bus1=BBT2679970.1.2.0,Phases=2,kv=0.22,kW=0.08064,pf=0.92,Vminpu=0.92,Vmaxpu=1.5,model=8,zipv=[0.5,0,0.5,1,0,0,0],daily=IP,status=variable
new load.IP1146424M1 bus1=BBT2679977.1.2.0,Phases=2,kv=0.22,kW=0.08064,pf=0.92,Vminpu=0.92,Vmaxpu=1.5,model=8,zipv=[0.5,0,0.5,1,0,0,0],daily=IP,status=variable
new load.IP1146431M1 bus1=BBT2679984.1.3.0,Phases=2,kv=0.22,kW=0.08064,pf=0.92,Vminpu=0.92,Vmaxpu=1.5,model=8,zipv=[0.5,0,0.5,1,0,0,0],daily=IP,status=variable
new load.IP1146438M1 bus1=BBT2680005.1.3.0,Phases=2,kv=0.22,kW=0.08064,pf=0.92,Vminpu=0.92,Vmaxpu=1.5,model=8,zipv=[0.5,0,0.5,1,0,0,0],daily=IP,status=variable
new load.IP1146445M1 bus1=BBT2680005.1.3.0,Phases=2,kv=0.22,kW=0.08064,pf=0.92,Vminpu=0.92,Vmaxpu=1.5,model=8,zipv=[0.5,0,0.5,1,0,0,0],daily=IP,status=variable
new load.IP1146452M1 bus1=BBT2679991.2.3.0,Phases=2,kv=0.22,kW=0.08064,pf=0.92,Vminpu=0.92,Vmaxpu=1.5,model=8,zipv=[0.5,0,0.5,1,0,0,0],daily=IP,status=variable
new load.IP1146459M1 bus1=BBT2679998.1.2.0,Phases=2,kv=0.22,kW=0.08064,pf=0.92,Vminpu=0.92,Vmaxpu=1.5,model=8,zipv=[0.5,0,0.5,1,0,0,0],daily=IP,status=variable
new load.IP1146466M1 bus1=BBT2680012.1.2.0,Phases=2,kv=0.22,kW=0.08064,pf=0.92,Vminpu=0.92,Vmaxpu=1.5,model=8,zipv=[0.5,0,0.5,1,0,0,0],daily=IP,status=variable
new load.IP1146473M1 bus1=BBT2680019.1.2.0,Phases=2,kv=0.22,kW=0.08064,pf=0.92,Vminpu=0.92,Vmaxpu=1.5,model=8,zipv=[0.5,0,0.5,1,0,0,0],daily=IP,status=variable
new load.IP1146480M1 bus1=BBT2680019.1.2.0,Phases=2,kv=0.22,kW=0.08064,pf=0.92,Vminpu=0.92,Vmaxpu=1.5,model=8,zipv=[0.5,0,0.5,1,0,0,0],daily=IP,status=variable
new load.IP1146669M1 bus1=BBT2680593.2.3.0,Phases=2,kv=0.22,kW=0.1129,pf=0.92,Vminpu=0.92,Vmaxpu=1.5,model=8,zipv=[0.5,0,0.5,1,0,0,0],daily=IP,status=variable
new load.IP1146676M1 bus1=BBT2680586.1.3.0,Phases=2,kv=0.22,kW=0.1129,pf=0.92,Vminpu=0.92,Vmaxpu=1.5,model=8,zipv=[0.5,0,0.5,1,0,0,0],daily=IP,status=variable
new load.IP1146683M1 bus1=BBT2680572.1.2.0,Phases=2,kv=0.22,kW=0.1129,pf=0.92,Vminpu=0.92,Vmaxpu=1.5,model=8,zipv=[0.5,0,0.5,1,0,0,0],daily=IP,status=variable
new load.IP1146690M1 bus1=BBT2680565.2.3.0,Phases=2,kv=0.22,kW=0.08064,pf=0.92,Vminpu=0.92,Vmaxpu=1.5,model=8,zipv=[0.5,0,0.5,1,0,0,0],daily=IP,status=variable
new load.IP1146697M1 bus1=BBT2680579.1.2.0,Phases=2,kv=0.22,kW=0.08064,pf=0.92,Vminpu=0.92,Vmaxpu=1.5,model=8,zipv=[0.5,0,0.5,1,0,0,0],daily=IP,status=variable
new load.IP1146704M1 bus1=BBT2680579.1.2.0,Phases=2,kv=0.22,kW=0.08064,pf=0.92,Vminpu=0.92,Vmaxpu=1.5,model=8,zipv=[0.5,0,0.5,1,0,0,0],daily=IP,status=variable
new load.IP1146711M1 bus1=BBT2680600.2.3.0,Phases=2,kv=0.22,kW=0.1129,pf=0.92,Vminpu=0.92,Vmaxpu=1.5,model=8,zipv=[0.5,0,0.5,1,0,0,0],daily=IP,status=variable
new load.IP1146718M1 bus1=BBT2680607.2.3.0,Phases=2,kv=0.22,kW=0.1129,pf=0.92,Vminpu=0.92,Vmaxpu=1.5,model=8,zipv=[0.5,0,0.5,1,0,0,0],daily=IP,status=variable
new load.IP1146725M1 bus1=BBT2680614.1.3.0,Phases=2,kv=0.22,kW=0.1129,pf=0.92,Vminpu=0.92,Vmaxpu=1.5,model=8,zipv=[0.5,0,0.5,1,0,0,0],daily=IP,status=variable
new load.IP1146732M1 bus1=BBT2680796.1.2.0,Phases=2,kv=0.22,kW=0.08064,pf=0.92,Vminpu=0.92,Vmaxpu=1.5,model=8,zipv=[0.5,0,0.5,1,0,0,0],daily=IP,status=variable
new load.IP1146739M1 bus1=BBT2680789.1.3.0,Phases=2,kv=0.22,kW=0.08064,pf=0.92,Vminpu=0.92,Vmaxpu=1.5,model=8,zipv=[0.5,0,0.5,1,0,0,0],daily=IP,status=variable
new load.IP1146746M1 bus1=BBT2680782.2.3.0,Phases=2,kv=0.22,kW=0.08064,pf=0.92,Vminpu=0.92,Vmaxpu=1.5,model=8,zipv=[0.5,0,0.5,1,0,0,0],daily=IP,status=variable
new load.3004764950M1 bus1=RML1050435077.1.2.0,Phases=2,kv=0.24,kW=5.75222,pf=0.92,Vminpu=0.92,Vmaxpu=1.5,model=8,zipv=[0.5,0,0.5,1,0,0,0],daily=RUR4_5,status=variable
new load.3007756365M1 bus1=RML1054262320.1.2.3.0,Phases=3,kv=0.22,kW=8.04828,pf=0.92,Vminpu=0.92,Vmaxpu=1.5,model=8,zipv=[0.5,0,0.5,1,0,0,0],daily=RUR4_1,status=variable
new load.3010018164M1 bus1=RML1060896947.1.2.3.0,Phases=3,kv=0.22,kW=10.06368,pf=0.92,Vminpu=0.92,Vmaxpu=1.5,model=8,zipv=[0.5,0,0.5,1,0,0,0],daily=RUR4_1,status=variable
new load.3010940970M1 bus1=RML1054973933.3.0,Phases=1,kv=0.127,kW=1.19952,pf=0.92,Vminpu=0.92,Vmaxpu=1.5,model=8,zipv=[0.5,0,0.5,1,0,0,0],daily=RES2_20,status=variable
new load.3010942509M1 bus1=RML1054973898.3.0,Phases=1,kv=0.127,kW=0.14992,pf=0.92,Vminpu=0.92,Vmaxpu=1.5,model=8,zipv=[0.5,0,0.5,1,0,0,0],daily=RES1_18,status=variable
new load.3010943194M1 bus1=RML1055030843.1.2.0,Phases=2,kv=0.22,kW=0.05458,pf=0.92,Vminpu=0.92,Vmaxpu=1.5,model=8,zipv=[0.5,0,0.5,1,0,0,0],daily=RES3_16,status=variable
new load.3012074477M1 bus1=RML1060473917.1.0,Phases=1,kv=0.127,kW=1.3716,pf=0.92,Vminpu=0.92,Vmaxpu=1.5,model=8,zipv=[0.5,0,0.5,1,0,0,0],daily=RES1_13,status=variable
new load.3013454291M1 bus1=RML1060789094.2.0,Phases=1,kv=0.12,kW=0.59582,pf=0.92,Vminpu=0.92,Vmaxpu=1.5,model=8,zipv=[0.5,0,0.5,1,0,0,0],daily=RUR1_17,status=variable
new load.IP1181725M1 bus1=BBT2795890.1.2.0,Phases=2,kv=0.22,kW=0.08064,pf=0.92,Vminpu=0.92,Vmaxpu=1.5,model=8,zipv=[0.5,0,0.5,1,0,0,0],daily=IP,status=variable
new load.IP1181732M1 bus1=BBT2795897.1.3.0,Phases=2,kv=0.22,kW=0.08064,pf=0.92,Vminpu=0.92,Vmaxpu=1.5,model=8,zipv=[0.5,0,0.5,1,0,0,0],daily=IP,status=variable
new load.IP1181739M1 bus1=BBT2796163.1.2.0,Phases=2,kv=0.22,kW=0.08064,pf=0.92,Vminpu=0.92,Vmaxpu=1.5,model=8,zipv=[0.5,0,0.5,1,0,0,0],daily=IP,status=variable
new load.IP1181746M1 bus1=BBT2796170.2.3.0,Phases=2,kv=0.22,kW=0.08064,pf=0.92,Vminpu=0.92,Vmaxpu=1.5,model=8,zipv=[0.5,0,0.5,1,0,0,0],daily=IP,status=variable
new load.IP1181753M1 bus1=BBT2796177.1.2.0,Phases=2,kv=0.22,kW=0.08064,pf=0.92,Vminpu=0.92,Vmaxpu=1.5,model=8,zipv=[0.5,0,0.5,1,0,0,0],daily=IP,status=variable
new load.IP1181760M1 bus1=BBT2796184.1.3.0,Phases=2,kv=0.22,kW=0.08064,pf=0.92,Vminpu=0.92,Vmaxpu=1.5,model=8,zipv=[0.5,0,0.5,1,0,0,0],daily=IP,status=variable
new load.IP1181767M1 bus1=BBT2796191.2.3.0,Phases=2,kv=0.22,kW=0.08064,pf=0.92,Vminpu=0.92,Vmaxpu=1.5,model=8,zipv=[0.5,0,0.5,1,0,0,0],daily=IP,status=variable
new load.IP1181774M1 bus1=BBT2680026.1.2.0,Phases=2,kv=0.22,kW=0.08064,pf=0.92,Vminpu=0.92,Vmaxpu=1.5,model=8,zipv=[0.5,0,0.5,1,0,0,0],daily=IP,status=variable
new load.IP1181809M1 bus1=BBT2796261.1.3.0,Phases=2,kv=0.22,kW=0.08064,pf=0.92,Vminpu=0.92,Vmaxpu=1.5,model=8,zipv=[0.5,0,0.5,1,0,0,0],daily=IP,status=variable
new load.IP1181816M1 bus1=BBT2796268.1.2.0,Phases=2,kv=0.22,kW=0.08064,pf=0.92,Vminpu=0.92,Vmaxpu=1.5,model=8,zipv=[0.5,0,0.5,1,0,0,0],daily=IP,status=variable
new load.IP1181823M1 bus1=BBT2796681.1.2.0,Phases=2,kv=0.22,kW=0.08064,pf=0.92,Vminpu=0.92,Vmaxpu=1.5,model=8,zipv=[0.5,0,0.5,1,0,0,0],daily=IP,status=variable
new load.IP1181830M1 bus1=BBT2796688.1.3.0,Phases=2,kv=0.22,kW=0.08064,pf=0.92,Vminpu=0.92,Vmaxpu=1.5,model=8,zipv=[0.5,0,0.5,1,0,0,0],daily=IP,status=variable
new load.IP1181837M1 bus1=BBT2796695.2.3.0,Phases=2,kv=0.22,kW=0.08064,pf=0.92,Vminpu=0.92,Vmaxpu=1.5,model=8,zipv=[0.5,0,0.5,1,0,0,0],daily=IP,status=variable
new load.IP1181844M1 bus1=BBT2796247.1.2.0,Phases=2,kv=0.22,kW=0.08064,pf=0.92,Vminpu=0.92,Vmaxpu=1.5,model=8,zipv=[0.5,0,0.5,1,0,0,0],daily=IP,status=variable
new load.IP1181907M1 bus1=BBT2796709.1.3.0,Phases=2,kv=0.22,kW=0.08064,pf=0.92,Vminpu=0.92,Vmaxpu=1.5,model=8,zipv=[0.5,0,0.5,1,0,0,0],daily=IP,status=variable
new load.IP1181914M1 bus1=BBT2796716.2.3.0,Phases=2,kv=0.22,kW=0.08064,pf=0.92,Vminpu=0.92,Vmaxpu=1.5,model=8,zipv=[0.5,0,0.5,1,0,0,0],daily=IP,status=variable
new load.IP1181921M1 bus1=BBT2796723.2.3.0,Phases=2,kv=0.22,kW=0.08064,pf=0.92,Vminpu=0.92,Vmaxpu=1.5,model=8,zipv=[0.5,0,0.5,1,0,0,0],daily=IP,status=variable
new load.IP1182054M1 bus1=BBT2796240.1.3.0,Phases=2,kv=0.22,kW=0.08064,pf=0.92,Vminpu=0.92,Vmaxpu=1.5,model=8,zipv=[0.5,0,0.5,1,0,0,0],daily=IP,status=variable
new load.IP1182061M1 bus1=BBT2797115.1.3.0,Phases=2,kv=0.22,kW=0.08064,pf=0.92,Vminpu=0.92,Vmaxpu=1.5,model=8,zipv=[0.5,0,0.5,1,0,0,0],daily=IP,status=variable
new load.IP1182068M1 bus1=BBT2797101.1.2.0,Phases=2,kv=0.22,kW=0.08064,pf=0.92,Vminpu=0.92,Vmaxpu=1.5,model=8,zipv=[0.5,0,0.5,1,0,0,0],daily=IP,status=variable
new load.IP1182075M1 bus1=BBT2797101.1.2.0,Phases=2,kv=0.22,kW=0.08064,pf=0.92,Vminpu=0.92,Vmaxpu=1.5,model=8,zipv=[0.5,0,0.5,1,0,0,0],daily=IP,status=variable
new load.IP1182082M1 bus1=BBT2797094.2.3.0,Phases=2,kv=0.22,kW=0.08064,pf=0.92,Vminpu=0.92,Vmaxpu=1.5,model=8,zipv=[0.5,0,0.5,1,0,0,0],daily=IP,status=variable
new load.IP1182089M1 bus1=BBT2797087.1.3.0,Phases=2,kv=0.22,kW=0.08064,pf=0.92,Vminpu=0.92,Vmaxpu=1.5,model=8,zipv=[0.5,0,0.5,1,0,0,0],daily=IP,status=variable
new load.IP1182096M1 bus1=BBT2797080.1.2.0,Phases=2,kv=0.22,kW=0.08064,pf=0.92,Vminpu=0.92,Vmaxpu=1.5,model=8,zipv=[0.5,0,0.5,1,0,0,0],daily=IP,status=variable
new load.IP1182103M1 bus1=BBT2796961.2.3.0,Phases=2,kv=0.22,kW=0.08064,pf=0.92,Vminpu=0.92,Vmaxpu=1.5,model=8,zipv=[0.5,0,0.5,1,0,0,0],daily=IP,status=variable
new load.IP1182110M1 bus1=BBT2796961.2.3.0,Phases=2,kv=0.22,kW=0.08064,pf=0.92,Vminpu=0.92,Vmaxpu=1.5,model=8,zipv=[0.5,0,0.5,1,0,0,0],daily=IP,status=variable
new load.IP1182117M1 bus1=BBT2797073.1.2.0,Phases=2,kv=0.22,kW=0.08064,pf=0.92,Vminpu=0.92,Vmaxpu=1.5,model=8,zipv=[0.5,0,0.5,1,0,0,0],daily=IP,status=variable
new load.IP1182124M1 bus1=BBT2797073.1.2.0,Phases=2,kv=0.22,kW=0.08064,pf=0.92,Vminpu=0.92,Vmaxpu=1.5,model=8,zipv=[0.5,0,0.5,1,0,0,0],daily=IP,status=variable
new load.IP1182131M1 bus1=BBT2797024.1.3.0,Phases=2,kv=0.22,kW=0.08064,pf=0.92,Vminpu=0.92,Vmaxpu=1.5,model=8,zipv=[0.5,0,0.5,1,0,0,0],daily=IP,status=variable
new load.IP1182138M1 bus1=BBT2797017.2.3.0,Phases=2,kv=0.22,kW=0.08064,pf=0.92,Vminpu=0.92,Vmaxpu=1.5,model=8,zipv=[0.5,0,0.5,1,0,0,0],daily=IP,status=variable
new load.IP1182145M1 bus1=BBT2797010.1.3.0,Phases=2,kv=0.22,kW=0.08064,pf=0.92,Vminpu=0.92,Vmaxpu=1.5,model=8,zipv=[0.5,0,0.5,1,0,0,0],daily=IP,status=variable
new load.IP1182152M1 bus1=BBT2797185.2.3.0,Phases=2,kv=0.22,kW=0.08064,pf=0.92,Vminpu=0.92,Vmaxpu=1.5,model=8,zipv=[0.5,0,0.5,1,0,0,0],daily=IP,status=variable
new load.IP1182159M1 bus1=BBT2797185.2.3.0,Phases=2,kv=0.22,kW=0.08064,pf=0.92,Vminpu=0.92,Vmaxpu=1.5,model=8,zipv=[0.5,0,0.5,1,0,0,0],daily=IP,status=variable
new load.IP1182166M1 bus1=BBT2797178.1.2.0,Phases=2,kv=0.22,kW=0.08064,pf=0.92,Vminpu=0.92,Vmaxpu=1.5,model=8,zipv=[0.5,0,0.5,1,0,0,0],daily=IP,status=variable
new load.IP1182173M1 bus1=BBT2797171.2.3.0,Phases=2,kv=0.22,kW=0.08064,pf=0.92,Vminpu=0.92,Vmaxpu=1.5,model=8,zipv=[0.5,0,0.5,1,0,0,0],daily=IP,status=variable
new load.IP1182180M1 bus1=BBT2797164.1.3.0,Phases=2,kv=0.22,kW=0.08064,pf=0.92,Vminpu=0.92,Vmaxpu=1.5,model=8,zipv=[0.5,0,0.5,1,0,0,0],daily=IP,status=variable
new load.IP1182187M1 bus1=BBT2797157.2.3.0,Phases=2,kv=0.22,kW=0.08064,pf=0.92,Vminpu=0.92,Vmaxpu=1.5,model=8,zipv=[0.5,0,0.5,1,0,0,0],daily=IP,status=variable
new load.IP1182194M1 bus1=BBT2797150.1.2.0,Phases=2,kv=0.22,kW=0.08064,pf=0.92,Vminpu=0.92,Vmaxpu=1.5,model=8,zipv=[0.5,0,0.5,1,0,0,0],daily=IP,status=variable
new load.IP1182208M1 bus1=BBT2797318.2.3.0,Phases=2,kv=0.22,kW=0.08064,pf=0.92,Vminpu=0.92,Vmaxpu=1.5,model=8,zipv=[0.5,0,0.5,1,0,0,0],daily=IP,status=variable
new load.IP1182215M1 bus1=BBT2797318.2.3.0,Phases=2,kv=0.22,kW=0.08064,pf=0.92,Vminpu=0.92,Vmaxpu=1.5,model=8,zipv=[0.5,0,0.5,1,0,0,0],daily=IP,status=variable
new load.IP1182229M1 bus1=BBT2797311.1.2.0,Phases=2,kv=0.22,kW=0.08064,pf=0.92,Vminpu=0.92,Vmaxpu=1.5,model=8,zipv=[0.5,0,0.5,1,0,0,0],daily=IP,status=variable
new load.IP1182250M1 bus1=BBT2797304.1.3.0,Phases=2,kv=0.22,kW=0.08064,pf=0.92,Vminpu=0.92,Vmaxpu=1.5,model=8,zipv=[0.5,0,0.5,1,0,0,0],daily=IP,status=variable
new load.IP1182264M1 bus1=BBT2797262.2.3.0,Phases=2,kv=0.22,kW=0.08064,pf=0.92,Vminpu=0.92,Vmaxpu=1.5,model=8,zipv=[0.5,0,0.5,1,0,0,0],daily=IP,status=variable
new load.IP1182292M1 bus1=BBT2797269.1.2.0,Phases=2,kv=0.22,kW=0.08064,pf=0.92,Vminpu=0.92,Vmaxpu=1.5,model=8,zipv=[0.5,0,0.5,1,0,0,0],daily=IP,status=variable
new load.IP1182306M1 bus1=BBT2797269.1.2.0,Phases=2,kv=0.22,kW=0.08064,pf=0.92,Vminpu=0.92,Vmaxpu=1.5,model=8,zipv=[0.5,0,0.5,1,0,0,0],daily=IP,status=variable
new load.IP1182327M1 bus1=BBT2797374.1.3.0,Phases=2,kv=0.22,kW=0.08064,pf=0.92,Vminpu=0.92,Vmaxpu=1.5,model=8,zipv=[0.5,0,0.5,1,0,0,0],daily=IP,status=variable
new load.IP1182334M1 bus1=BBT2797381.2.3.0,Phases=2,kv=0.22,kW=0.08064,pf=0.92,Vminpu=0.92,Vmaxpu=1.5,model=8,zipv=[0.5,0,0.5,1,0,0,0],daily=IP,status=variable
new load.IP1182341M1 bus1=BBT2797388.1.2.0,Phases=2,kv=0.22,kW=0.08064,pf=0.92,Vminpu=0.92,Vmaxpu=1.5,model=8,zipv=[0.5,0,0.5,1,0,0,0],daily=IP,status=variable
new load.IP1182348M1 bus1=BBT2797395.2.3.0,Phases=2,kv=0.22,kW=0.08064,pf=0.92,Vminpu=0.92,Vmaxpu=1.5,model=8,zipv=[0.5,0,0.5,1,0,0,0],daily=IP,status=variable
new load.IP1182355M1 bus1=BBT2797423.1.2.0,Phases=2,kv=0.22,kW=0.08064,pf=0.92,Vminpu=0.92,Vmaxpu=1.5,model=8,zipv=[0.5,0,0.5,1,0,0,0],daily=IP,status=variable
new load.IP1182362M1 bus1=BBT2797451.1.2.0,Phases=2,kv=0.22,kW=0.08064,pf=0.92,Vminpu=0.92,Vmaxpu=1.5,model=8,zipv=[0.5,0,0.5,1,0,0,0],daily=IP,status=variable
new load.IP1182369M1 bus1=BBT2797472.2.3.0,Phases=2,kv=0.22,kW=0.08064,pf=0.92,Vminpu=0.92,Vmaxpu=1.5,model=8,zipv=[0.5,0,0.5,1,0,0,0],daily=IP,status=variable
new load.IP1182376M1 bus1=BBT2797465.1.3.0,Phases=2,kv=0.22,kW=0.08064,pf=0.92,Vminpu=0.92,Vmaxpu=1.5,model=8,zipv=[0.5,0,0.5,1,0,0,0],daily=IP,status=variable
new load.IP1182383M1 bus1=BBT2797458.1.2.0,Phases=2,kv=0.22,kW=0.08064,pf=0.92,Vminpu=0.92,Vmaxpu=1.5,model=8,zipv=[0.5,0,0.5,1,0,0,0],daily=IP,status=variable
new load.IP1182390M1 bus1=BBT2797283.1.3.0,Phases=2,kv=0.22,kW=0.08064,pf=0.92,Vminpu=0.92,Vmaxpu=1.5,model=8,zipv=[0.5,0,0.5,1,0,0,0],daily=IP,status=variable
new load.IP1182397M1 bus1=BBT2797283.1.3.0,Phases=2,kv=0.22,kW=0.08064,pf=0.92,Vminpu=0.92,Vmaxpu=1.5,model=8,zipv=[0.5,0,0.5,1,0,0,0],daily=IP,status=variable
new load.IP1182404M1 bus1=BBT2797346.1.2.0,Phases=2,kv=0.22,kW=0.08064,pf=0.92,Vminpu=0.92,Vmaxpu=1.5,model=8,zipv=[0.5,0,0.5,1,0,0,0],daily=IP,status=variable
new load.IP1182411M1 bus1=BBT2797353.2.3.0,Phases=2,kv=0.22,kW=0.08064,pf=0.92,Vminpu=0.92,Vmaxpu=1.5,model=8,zipv=[0.5,0,0.5,1,0,0,0],daily=IP,status=variable
new load.IP1182418M1 bus1=BBT2797360.1.3.0,Phases=2,kv=0.22,kW=0.08064,pf=0.92,Vminpu=0.92,Vmaxpu=1.5,model=8,zipv=[0.5,0,0.5,1,0,0,0],daily=IP,status=variable
new load.IP1182425M1 bus1=BBT2797339.1.2.0,Phases=2,kv=0.22,kW=0.08064,pf=0.92,Vminpu=0.92,Vmaxpu=1.5,model=8,zipv=[0.5,0,0.5,1,0,0,0],daily=IP,status=variable
new load.IP1182432M1 bus1=BBT2797339.1.2.0,Phases=2,kv=0.22,kW=0.08064,pf=0.92,Vminpu=0.92,Vmaxpu=1.5,model=8,zipv=[0.5,0,0.5,1,0,0,0],daily=IP,status=variable
new load.IP1182439M1 bus1=BBT2797332.1.3.0,Phases=2,kv=0.22,kW=0.08064,pf=0.92,Vminpu=0.92,Vmaxpu=1.5,model=8,zipv=[0.5,0,0.5,1,0,0,0],daily=IP,status=variable
new load.IP1182446M1 bus1=BBT2797290.1.2.0,Phases=2,kv=0.22,kW=0.08064,pf=0.92,Vminpu=0.92,Vmaxpu=1.5,model=8,zipv=[0.5,0,0.5,1,0,0,0],daily=IP,status=variable
new load.IP1182453M1 bus1=BBT2797486.1.3.0,Phases=2,kv=0.22,kW=0.08064,pf=0.92,Vminpu=0.92,Vmaxpu=1.5,model=8,zipv=[0.5,0,0.5,1,0,0,0],daily=IP,status=variable
new load.IP1182460M1 bus1=BBT2797045.1.3.0,Phases=2,kv=0.22,kW=0.08064,pf=0.92,Vminpu=0.92,Vmaxpu=1.5,model=8,zipv=[0.5,0,0.5,1,0,0,0],daily=IP,status=variable
new load.IP1182467M1 bus1=BBT2797493.1.3.0,Phases=2,kv=0.22,kW=0.08064,pf=0.92,Vminpu=0.92,Vmaxpu=1.5,model=8,zipv=[0.5,0,0.5,1,0,0,0],daily=IP,status=variable
new load.IP1182474M1 bus1=BBT2797241.2.3.0,Phases=2,kv=0.22,kW=0.08064,pf=0.92,Vminpu=0.92,Vmaxpu=1.5,model=8,zipv=[0.5,0,0.5,1,0,0,0],daily=IP,status=variable
new load.IP1182558M1 bus1=BBT2680222.1.3.0,Phases=2,kv=0.22,kW=0.08064,pf=0.92,Vminpu=0.92,Vmaxpu=1.5,model=8,zipv=[0.5,0,0.5,1,0,0,0],daily=IP,status=variable
new load.IP1182943M1 bus1=BBT2798284.1.3.0,Phases=2,kv=0.22,kW=0.1129,pf=0.92,Vminpu=0.92,Vmaxpu=1.5,model=8,zipv=[0.5,0,0.5,1,0,0,0],daily=IP,status=variable
new load.IP1182950M1 bus1=BBT2798291.2.3.0,Phases=2,kv=0.22,kW=0.1129,pf=0.92,Vminpu=0.92,Vmaxpu=1.5,model=8,zipv=[0.5,0,0.5,1,0,0,0],daily=IP,status=variable
new load.IP1182957M1 bus1=BBT2798291.2.3.0,Phases=2,kv=0.22,kW=0.1129,pf=0.92,Vminpu=0.92,Vmaxpu=1.5,model=8,zipv=[0.5,0,0.5,1,0,0,0],daily=IP,status=variable
new load.IP1182964M1 bus1=BBT2798298.1.2.0,Phases=2,kv=0.22,kW=0.1129,pf=0.92,Vminpu=0.92,Vmaxpu=1.5,model=8,zipv=[0.5,0,0.5,1,0,0,0],daily=IP,status=variable
new load.IP1182971M1 bus1=BBT2798305.1.3.0,Phases=2,kv=0.22,kW=0.1129,pf=0.92,Vminpu=0.92,Vmaxpu=1.5,model=8,zipv=[0.5,0,0.5,1,0,0,0],daily=IP,status=variable
new load.IP1182978M1 bus1=BBT2798305.1.3.0,Phases=2,kv=0.22,kW=0.1129,pf=0.92,Vminpu=0.92,Vmaxpu=1.5,model=8,zipv=[0.5,0,0.5,1,0,0,0],daily=IP,status=variable
new load.IP1182985M1 bus1=BBT2798312.2.3.0,Phases=2,kv=0.22,kW=0.1129,pf=0.92,Vminpu=0.92,Vmaxpu=1.5,model=8,zipv=[0.5,0,0.5,1,0,0,0],daily=IP,status=variable
new load.IP1182992M1 bus1=BBT2798319.1.2.0,Phases=2,kv=0.22,kW=0.1129,pf=0.92,Vminpu=0.92,Vmaxpu=1.5,model=8,zipv=[0.5,0,0.5,1,0,0,0],daily=IP,status=variable
new load.IP1182999M1 bus1=BBT2798319.1.2.0,Phases=2,kv=0.22,kW=0.1129,pf=0.92,Vminpu=0.92,Vmaxpu=1.5,model=8,zipv=[0.5,0,0.5,1,0,0,0],daily=IP,status=variable