new transformer.RT6886-1 Phases=1,windings=2,buses=[BMT169770510.1.0 BMT169770511.1.0],conns=[LN LN],kvs=[7.967 7.967],kvas=[1500.000000000 1500.000000000],xhl=0.700000000,%loadloss=0.115000000,%noloadloss=0.0279
new RegControl.RC6886-1 transformer=RT6886-1,winding=2,PTphase=1,ptratio=66.4,band=2,vreg=125.004
new transformer.RT6886-2 Phases=1,windings=2,buses=[BMT169770510.2.0 BMT169770511.2.0],conns=[LN LN],kvs=[7.967 7.967],kvas=[1500.000000000 1500.000000000],xhl=0.700000000,%loadloss=0.115000000,%noloadloss=0.0279
new RegControl.RC6886-2 transformer=RT6886-2,winding=2,PTphase=1,ptratio=66.4,band=2,vreg=125.004
new transformer.RT6886-3 Phases=1,windings=2,buses=[BMT169770510.3.0 BMT169770511.3.0],conns=[LN LN],kvs=[7.967 7.967],kvas=[1500.000000000 1500.000000000],xhl=0.700000000,%loadloss=0.115000000,%noloadloss=0.0279
new RegControl.RC6886-3 transformer=RT6886-3,winding=2,PTphase=1,ptratio=66.4,band=2,vreg=125.004
