! manter este comentario para compatibilidade do C#
new circuit.alimMAGC513 bus1=BMT122936741.1.2.3,basekv=13.800000000,pu=1.040000000