new line.TR12530751 bus1=BMT122938358.1.2.3,bus2=BMT164785818.1.2.3,Phases=3,Linecode=CAB103_3_3,Length=0.037744000,Units=km
new line.TR12624953 bus1=BMT1731463C.1.2.3,bus2=BMT4064941B.1.2.3,Phases=3,Linecode=CAB108_3_3,Length=0.053049000,Units=km
new line.TR12624964 bus1=BMT169945610.3,bus2=BMT169945611.3,Phases=1,Linecode=CAB103_3_1,Length=0.029212000,Units=km
new line.TR12624975 bus1=BMT167219641.1.2.3,bus2=BMT167219642.1.2.3,Phases=3,Linecode=CAB103_3_3,Length=0.027172000,Units=km
new line.TR12624991 bus1=BMT167220990.1.2.3,bus2=BMT167220991.1.2.3,Phases=3,Linecode=CAB103_3_3,Length=0.017892000,Units=km
new line.TR12625008 bus1=BMT167221816.1.2.3,bus2=BMT167221817.1.2.3,Phases=3,Linecode=CAB103_3_3,Length=0.021959000,Units=km
new line.TR12625017 bus1=BMT167222111.1.2.3,bus2=BMT167222112.1.2.3,Phases=3,Linecode=CAB103_3_3,Length=0.021100000,Units=km
new line.TR12625020 bus1=BMT169945616.1.2.3,bus2=BMT169945617.1.2.3,Phases=3,Linecode=CAB103_3_3,Length=0.020228000,Units=km
new line.TR12625021 bus1=BMT167222449.1.2.3,bus2=BMT167222450.1.2.3,Phases=3,Linecode=CAB103_3_3,Length=0.020596000,Units=km
new line.TR2226153 bus1=BMT2910900B.1.2.3,bus2=BMT2910907B.1.2.3,Phases=3,Linecode=CAB108_3_3,Length=0.084113000,Units=km
new line.TR2226160 bus1=BMT2910907B.1.2.3,bus2=BMT2910935B.1.2.3,Phases=3,Linecode=CAB108_3_3,Length=0.067379000,Units=km
new line.TR2226188 bus1=BMT2910935B.1.2.3,bus2=BMT2910942B.1.2.3,Phases=3,Linecode=CAB108_3_3,Length=0.050260000,Units=km
new line.TR2226195 bus1=BMT2910935B.1.2.3,bus2=BMT2910963B.1.2.3,Phases=3,Linecode=CAB108_3_3,Length=0.053096000,Units=km
new line.TR2226216 bus1=BMT2910963B.1.2.3,bus2=BMT2910977B.1.2.3,Phases=3,Linecode=CAB108_3_3,Length=0.062215000,Units=km
new line.TR2226230 bus1=BMT2910977B.1.2.3,bus2=BMT2910984B.1.2.3,Phases=3,Linecode=CAB108_3_3,Length=0.061144000,Units=km
new line.TR2226237 bus1=BMT2910984B.1.2.3,bus2=BMT2910991B.1.2.3,Phases=3,Linecode=CAB108_3_3,Length=0.057231000,Units=km
new line.TR2226244 bus1=BMT2910991B.1.2.3,bus2=BMT2910998B.1.2.3,Phases=3,Linecode=CAB108_3_3,Length=0.061413000,Units=km
new line.TR2226251 bus1=BMT2910998B.1.2.3,bus2=BMT2911005B.1.2.3,Phases=3,Linecode=CAB108_3_3,Length=0.065045000,Units=km
new line.TR2226258 bus1=BMT2911005B.1.2.3,bus2=BMT2911012B.1.2.3,Phases=3,Linecode=CAB108_3_3,Length=0.065206000,Units=km
new line.TR2226265 bus1=BMT2911012B.1.2.3,bus2=BMT162051990.1.2.3,Phases=3,Linecode=CAB108_3_3,Length=0.066625000,Units=km
new line.TR2226279 bus1=BMT2911040B.1.2.3,bus2=BMT2911047B.1.2.3,Phases=3,Linecode=CAB108_3_3,Length=0.061144000,Units=km
new line.TR2226286 bus1=BMT2911047B.1.2.3,bus2=BMT2911061B.1.2.3,Phases=3,Linecode=CAB108_3_3,Length=0.068132000,Units=km
new line.TR2226293 bus1=BMT2911061B.1.2.3,bus2=BMT2911082B.1.2.3,Phases=3,Linecode=CAB108_3_3,Length=0.070471000,Units=km
new line.TR2226300 bus1=BMT2911082B.1.2.3,bus2=BMT2911096B.1.2.3,Phases=3,Linecode=CAB108_3_3,Length=0.071464000,Units=km
new line.TR2226307 bus1=BMT2911096B.1.2.3,bus2=BMT2911103B.1.2.3,Phases=3,Linecode=CAB108_3_3,Length=0.073350000,Units=km
new line.TR2226314 bus1=BMT2911103B.1.2.3,bus2=BMT2911117B.1.2.3,Phases=3,Linecode=CAB108_3_3,Length=0.061013000,Units=km
new line.TR2226342 bus1=BMT2911117B.1.2.3,bus2=BMT2911124B.1.2.3,Phases=3,Linecode=CAB108_3_3,Length=0.064209000,Units=km
new line.TR2226349 bus1=BMT2911124B.1.2.3,bus2=BMT162051991.1.2.3,Phases=3,Linecode=CAB108_3_3,Length=0.071359000,Units=km
new line.TR2226741 bus1=BMT2911670B.1.2.3,bus2=BMT2911691B.1.2.3,Phases=3,Linecode=CAB203_3_3,Length=0.120440000,Units=km
new line.TR2226755 bus1=BMT2911691B.1.2.3,bus2=BMT164785815.1.2.3,Phases=3,Linecode=CAB203_3_3,Length=0.120228000,Units=km
new line.TR2226776 bus1=BMT164785815.1.2.3,bus2=BMT2911789B.1.2.3,Phases=3,Linecode=CAB203_3_3,Length=0.119364000,Units=km
new line.TR2226825 bus1=BMT2911782B.1.2.3,bus2=BMT2911796B.1.2.3,Phases=3,Linecode=CAB203_3_3,Length=0.120623000,Units=km
new line.TR2226832 bus1=BMT2911789B.1.2.3,bus2=BMT2911782B.1.2.3,Phases=3,Linecode=CAB203_3_3,Length=0.116299000,Units=km
new line.TR2226839 bus1=BMT2911796B.1.2.3,bus2=BMT2911810B.1.2.3,Phases=3,Linecode=CAB203_3_3,Length=0.122356000,Units=km
new line.TR2226846 bus1=BMT2911803B.1.2.3,bus2=BMT2911831B.1.2.3,Phases=3,Linecode=CAB203_3_3,Length=0.119443000,Units=km
new line.TR2226853 bus1=BMT2911810B.1.2.3,bus2=BMT2911803B.1.2.3,Phases=3,Linecode=CAB203_3_3,Length=0.120290000,Units=km
new line.TR2226874 bus1=BMT2911831B.1.2.3,bus2=BMT2911838B.1.2.3,Phases=3,Linecode=CAB203_3_3,Length=0.119364000,Units=km
new line.TR2226881 bus1=BMT2911838B.1.2.3,bus2=BMT164785816.1.2.3,Phases=3,Linecode=CAB203_3_3,Length=0.131574000,Units=km
new line.TR2226895 bus1=BMT164785816.1.2.3,bus2=BMT2911859B.1.2.3,Phases=3,Linecode=CAB203_3_3,Length=0.111135000,Units=km
new line.TR2226902 bus1=BMT2911859B.1.2.3,bus2=BMT2911908B.1.2.3,Phases=3,Linecode=CAB203_3_3,Length=0.116642000,Units=km
new line.TR2226930 bus1=BMT2911908B.1.2.3,bus2=BMT2911922B.1.2.3,Phases=3,Linecode=CAB203_3_3,Length=0.119443000,Units=km
new line.TR2226937 bus1=BMT2911922B.1.2.3,bus2=BMT2911964B.1.2.3,Phases=3,Linecode=CAB203_3_3,Length=0.121226000,Units=km
new line.TR2226951 bus1=BMT2911964B.1.2.3,bus2=BMT2911985B.1.2.3,Phases=3,Linecode=CAB203_3_3,Length=0.119443000,Units=km
new line.TR2226958 bus1=BMT122938358.1.2.3,bus2=BMT164785817.1.2.3,Phases=3,Linecode=CAB203_3_3,Length=0.101198000,Units=km
new line.TR2226965 bus1=BMT122938393.1.2.3,bus2=BMT122938400.1.2.3,Phases=3,Linecode=CAB103_3_3,Length=0.017004000,Units=km
new line.TR2226972 bus1=BMT2911985B.1.2.3,bus2=BMT122938358.1.2.3,Phases=3,Linecode=CAB203_3_3,Length=0.117450000,Units=km
new line.TR2226979 bus1=BMT164785817.1.2.3,bus2=BMT4297985B.1.2.3,Phases=3,Linecode=CAB103_3_3,Length=0.082751000,Units=km
new line.TR2227091 bus1=BMT2912181B.1.2.3,bus2=BMT2912195B.1.2.3,Phases=3,Linecode=CAB203_3_3,Length=0.101263000,Units=km
new line.TR2227112 bus1=BMT2912195B.1.2.3,bus2=BMT2912251B.1.2.3,Phases=3,Linecode=CAB203_3_3,Length=0.119627000,Units=km
new line.TR2227182 bus1=BMT2912251B.1.2.3,bus2=BMT2912265B.1.2.3,Phases=3,Linecode=CAB203_3_3,Length=0.122172000,Units=km
new line.TR2227203 bus1=BMT2912265B.1.2.3,bus2=BMT122937476.1.2.3,Phases=3,Linecode=CAB203_3_3,Length=0.118632000,Units=km
new line.TR2227238 bus1=BMT122937476.1.2.3,bus2=BMT2912307B.1.2.3,Phases=3,Linecode=CAB203_3_3,Length=0.120361000,Units=km
new line.TR2227252 bus1=BMT2912307B.1.2.3,bus2=BMT2912363B.1.2.3,Phases=3,Linecode=CAB203_3_3,Length=0.118535000,Units=km
new line.TR2227301 bus1=BMT2912349B.1.2.3,bus2=BMT2912384B.1.2.3,Phases=3,Linecode=CAB203_3_3,Length=0.118446000,Units=km
new line.TR2227308 bus1=BMT2912363B.1.2.3,bus2=BMT2912349B.1.2.3,Phases=3,Linecode=CAB203_3_3,Length=0.122715000,Units=km
new line.TR12375437 bus1=BMT157420288.1.2.3,bus2=BMT2812921B.1.2.3,Phases=3,Linecode=CABA06_3_3,Length=0.025185000,Units=km
new line.TR12375440 bus1=BMT2812921B.1.2.3,bus2=BMT2812928B.1.2.3,Phases=3,Linecode=CABA06_3_3,Length=0.034066000,Units=km
new line.TR12375441 bus1=BMT2812928B.1.2.3,bus2=BMT2916689B.1.2.3,Phases=3,Linecode=CABA06_3_3,Length=0.038021000,Units=km
new line.TR12375442 bus1=BMT2916689B.1.2.3,bus2=BMT2916710B.1.2.3,Phases=3,Linecode=CABA06_3_3,Length=0.035136000,Units=km
new line.TR12375443 bus1=BMT2916710B.1.2.3,bus2=BMT157420290.1.2.3,Phases=3,Linecode=CABA06_3_3,Length=0.037344000,Units=km
new line.TR125208 bus1=BMT158675843.1.2.3,bus2=BMT4052684B.1.2.3,Phases=3,Linecode=CAB108_3_3,Length=0.082314000,Units=km
new line.TR2158442 bus1=BMT2811346B.1.2.3,bus2=BMT2811353B.1.2.3,Phases=3,Linecode=CAB103_3_3,Length=0.074258000,Units=km
new line.TR2158449 bus1=BMT2811353B.1.2.3,bus2=BMT162659047.1.2.3,Phases=3,Linecode=CAB103_3_3,Length=0.080117000,Units=km
new line.TR2158456 bus1=BMT162659047.1.2.3,bus2=BMT2811367B.1.2.3,Phases=3,Linecode=CAB103_3_3,Length=0.074258000,Units=km
new line.TR2158463 bus1=BMT2811367B.1.2.3,bus2=BMT2811395B.1.2.3,Phases=3,Linecode=CAB103_3_3,Length=0.074258000,Units=km
new line.TR2158491 bus1=BMT2811395B.1.2.3,bus2=BMT2811402B.1.2.3,Phases=3,Linecode=CAB103_3_3,Length=0.074184000,Units=km
new line.TR2158498 bus1=BMT2811402B.1.2.3,bus2=BMT2811409B.1.2.3,Phases=3,Linecode=CAB103_3_3,Length=0.077250000,Units=km
new line.TR2158505 bus1=BMT2811409B.1.2.3,bus2=BMT2811416B.1.2.3,Phases=3,Linecode=CAB103_3_3,Length=0.080242000,Units=km
new line.TR2158512 bus1=BMT2811416B.1.2.3,bus2=BMT122938946.1.2.3,Phases=3,Linecode=CAB103_3_3,Length=0.018004000,Units=km
new line.TR2158519 bus1=BMT122938953.1.2.3,bus2=BMT122938960.1.2.3,Phases=3,Linecode=CABA06_3_3,Length=0.022209000,Units=km
new line.TR2158526 bus1=BMT122938960.1.2.3,bus2=BMT2811444B.1.2.3,Phases=3,Linecode=CABA06_3_3,Length=0.033143000,Units=km
new line.TR2158533 bus1=BMT122938960.1.2.3,bus2=BMT2912930B.1.2.3,Phases=3,Linecode=CABA06_3_3,Length=0.042116000,Units=km
new line.TR2158540 bus1=BMT2811444B.1.2.3,bus2=BMT122938967.1.2.3,Phases=3,Linecode=CABA06_3_3,Length=0.031071000,Units=km
new line.TR2158638 bus1=BMT122938967.1.2.3,bus2=BMT2811549B.1.2.3,Phases=3,Linecode=CABA06_3_3,Length=0.039124000,Units=km
new line.TR2158645 bus1=BMT122938967.1.2.3,bus2=BMT2811584B.1.2.3,Phases=3,Linecode=CABA06_3_3,Length=0.044191000,Units=km
new line.TR2158652 bus1=BMT2811549B.1.2.3,bus2=BMT122938981.1.2.3,Phases=3,Linecode=CABA06_3_3,Length=0.033068000,Units=km
new line.TR2158659 bus1=BMT122938981.1.2.3,bus2=BMT2811563B.1.2.3,Phases=3,Linecode=CABA06_3_3,Length=0.042199000,Units=km
new line.TR2158666 bus1=BMT122938981.1.2.3,bus2=BMT122939002.1.2.3,Phases=3,Linecode=CABA06_3_3,Length=0.041204000,Units=km
new line.TR2158673 bus1=BMT2811563B.1.2.3,bus2=BMT2811570B.1.2.3,Phases=3,Linecode=CABA06_3_3,Length=0.026083000,Units=km
new line.TR2158680 bus1=BMT2811570B.1.2.3,bus2=BMT2811997B.1.2.3,Phases=3,Linecode=CABA06_3_3,Length=0.032147000,Units=km
new line.TR2158694 bus1=BMT2811584B.1.2.3,bus2=BMT122938988.1.2.3,Phases=3,Linecode=CABA06_3_3,Length=0.045287000,Units=km
new line.TR2159065 bus1=BMT2811997B.1.2.3,bus2=BMT2812004B.1.2.3,Phases=3,Linecode=CABA06_3_3,Length=0.029075000,Units=km
new line.TR2159072 bus1=BMT2812004B.1.2.3,bus2=BMT2812046B.1.2.3,Phases=3,Linecode=CABA06_3_3,Length=0.029075000,Units=km
new line.TR2159079 bus1=BMT2812046B.1.2.3,bus2=BMT2812053B.1.2.3,Phases=3,Linecode=CABA06_3_3,Length=0.043056000,Units=km
new line.TR2159086 bus1=BMT2812053B.1.2.3,bus2=BMT2812060B.1.2.3,Phases=3,Linecode=CABA06_3_3,Length=0.041119000,Units=km
new line.TR2159093 bus1=BMT2812060B.1.2.3,bus2=BMT2812067B.1.2.3,Phases=3,Linecode=CABA06_3_3,Length=0.033068000,Units=km
new line.TR2159100 bus1=BMT2812067B.1.2.3,bus2=BMT2812074B.1.2.3,Phases=3,Linecode=CABA06_3_3,Length=0.038127000,Units=km
new line.TR2159107 bus1=BMT2812067B.1.2.3,bus2=BMT2812081B.1.2.3,Phases=3,Linecode=CABA06_3_3,Length=0.041313000,Units=km
new line.TR2159114 bus1=BMT2812081B.1.2.3,bus2=BMT2812088B.1.2.3,Phases=3,Linecode=CABA06_3_3,Length=0.043114000,Units=km
new line.TR2159121 bus1=BMT2812088B.1.2.3,bus2=BMT122938995.1.2.3,Phases=3,Linecode=CABA06_3_3,Length=0.032070000,Units=km
new line.TR2159541 bus1=BMT169769942.1.2.3,bus2=BMT2812690B.1.2.3,Phases=3,Linecode=CAB108_3_3,Length=0.038126000,Units=km
new line.TR2159548 bus1=BMT169769942.1.2.3,bus2=BMT169769944.1.2.3,Phases=3,Linecode=CABA06_3_3,Length=0.031071000,Units=km
new line.TR2159576 bus1=BMT2812690B.1.2.3,bus2=BMT2812725B.1.2.3,Phases=3,Linecode=CAB108_3_3,Length=0.037129000,Units=km
new line.TR2159597 bus1=BMT2812725B.1.2.3,bus2=BMT2812739B.1.2.3,Phases=3,Linecode=CAB108_3_3,Length=0.039124000,Units=km
new line.TR2159611 bus1=BMT2812739B.1.2.3,bus2=BMT2915961B.1.2.3,Phases=3,Linecode=CAB108_3_3,Length=0.035136000,Units=km
new line.TR2159618 bus1=BMT2812746B.1.2.3,bus2=BMT169769942.1.2.3,Phases=3,Linecode=CAB108_3_3,Length=0.034066000,Units=km
new line.TR2159625 bus1=BMT2812753B.1.2.3,bus2=BMT2812746B.1.2.3,Phases=3,Linecode=CAB108_3_3,Length=0.033143000,Units=km
new line.TR2159688 bus1=BMT157420287.1.2.3,bus2=BMT2812823B.1.2.3,Phases=3,Linecode=CABA06_3_3,Length=0.030156000,Units=km
new line.TR2159695 bus1=BMT122937210.1.2.3,bus2=BMT2916297B.1.2.3,Phases=3,Linecode=CAB108_3_3,Length=0.040208000,Units=km
new line.TR2159702 bus1=BMT2812823B.1.2.3,bus2=BMT2812844B.1.2.3,Phases=3,Linecode=CABA06_3_3,Length=0.033143000,Units=km
new line.TR2159709 bus1=BMT2812844B.1.2.3,bus2=BMT2812851B.1.2.3,Phases=3,Linecode=CABA06_3_3,Length=0.042116000,Units=km
new line.TR2159716 bus1=BMT2812851B.1.2.3,bus2=BMT2812858B.1.2.3,Phases=3,Linecode=CABA06_3_3,Length=0.038061000,Units=km
new line.TR2159723 bus1=BMT2812858B.1.2.3,bus2=BMT2812865B.1.2.3,Phases=3,Linecode=CABA06_3_3,Length=0.036229000,Units=km
new line.TR2159730 bus1=BMT2812865B.1.2.3,bus2=BMT157420288.1.2.3,Phases=3,Linecode=CABA06_3_3,Length=0.037062000,Units=km
new line.TR2159765 bus1=BMT157420288.1.2.3,bus2=BMT2812963B.1.2.3,Phases=3,Linecode=CABA06_3_3,Length=0.025026000,Units=km
new line.TR2159800 bus1=BMT2812963B.1.2.3,bus2=BMT157420289.1.2.3,Phases=3,Linecode=CABA06_3_3,Length=0.030156000,Units=km
new line.TR2222639 bus1=BMT122937308.1.2.3,bus2=BMT122937315.1.2.3,Phases=3,Linecode=CAB103_3_3,Length=0.021029000,Units=km
new line.TR2222646 bus1=BMT122937273.1.2.3,bus2=BMT122937280.1.2.3,Phases=3,Linecode=CAB203_3_3,Length=0.039213000,Units=km
new line.TR2224655 bus1=BMT122937364.1.2.3,bus2=BMT2908555B.1.2.3,Phases=3,Linecode=CAB108_3_3,Length=0.029127000,Units=km
new line.TR2224662 bus1=BMT122937168.1.2.3,bus2=BMT4052600B.1.2.3,Phases=3,Linecode=CAB108_3_3,Length=0.095151000,Units=km
new line.TR2224676 bus1=BMT2908555B.1.2.3,bus2=BMT2908562B.1.2.3,Phases=3,Linecode=CAB108_3_3,Length=0.075122000,Units=km
new line.TR2224683 bus1=BMT2908562B.1.2.3,bus2=BMT2908660B.1.2.3,Phases=3,Linecode=CAB108_3_3,Length=0.073452000,Units=km
new line.TR2224690 bus1=BMT2908660B.1.2.3,bus2=BMT122937371.1.2.3,Phases=3,Linecode=CAB108_3_3,Length=0.075182000,Units=km
new line.TR2224697 bus1=BMT122937371.1.2.3,bus2=BMT2908674B.1.2.3,Phases=3,Linecode=CAB108_3_3,Length=0.075554000,Units=km
new line.TR2224704 bus1=BMT2908674B.1.2.3,bus2=BMT122937378.1.2.3,Phases=3,Linecode=CAB108_3_3,Length=0.077042000,Units=km
new line.TR2224711 bus1=BMT122937378.1.2.3,bus2=BMT2908688B.1.2.3,Phases=3,Linecode=CAB108_3_3,Length=0.072264000,Units=km
new line.TR2224718 bus1=BMT164785814.1.2.3,bus2=BMT2911670B.1.2.3,Phases=3,Linecode=CAB203_3_3,Length=0.118738000,Units=km
new line.TR2224725 bus1=BMT2908688B.1.2.3,bus2=BMT2908695B.1.2.3,Phases=3,Linecode=CAB108_3_3,Length=0.083041000,Units=km
new line.TR2224732 bus1=BMT2908695B.1.2.3,bus2=BMT2908702B.1.2.3,Phases=3,Linecode=CAB108_3_3,Length=0.080521000,Units=km
new line.TR2224739 bus1=BMT2908702B.1.2.3,bus2=BMT2908709B.1.2.3,Phases=3,Linecode=CAB108_3_3,Length=0.067282000,Units=km
new line.TR2224746 bus1=BMT2908709B.1.2.3,bus2=BMT2908716B.1.2.3,Phases=3,Linecode=CAB108_3_3,Length=0.078246000,Units=km
new line.TR2224753 bus1=BMT2908716B.1.2.3,bus2=BMT2908723B.1.2.3,Phases=3,Linecode=CAB108_3_3,Length=0.064208000,Units=km
new line.TR2224760 bus1=BMT2908723B.1.2.3,bus2=BMT2908737B.1.2.3,Phases=3,Linecode=CAB108_3_3,Length=0.080241000,Units=km
new line.TR2224767 bus1=BMT2908737B.1.2.3,bus2=BMT2908772B.1.2.3,Phases=3,Linecode=CAB108_3_3,Length=0.081319000,Units=km
new line.TR2224774 bus1=BMT2908772B.1.2.3,bus2=BMT2908793B.1.2.3,Phases=3,Linecode=CAB108_3_3,Length=0.079244000,Units=km
new line.TR2224781 bus1=BMT2908793B.1.2.3,bus2=BMT2908807B.1.2.3,Phases=3,Linecode=CAB108_3_3,Length=0.079244000,Units=km
new line.TR2224788 bus1=BMT2908807B.1.2.3,bus2=BMT2908835B.1.2.3,Phases=3,Linecode=CAB108_3_3,Length=0.080172000,Units=km
new line.TR2224802 bus1=BMT2908835B.1.2.3,bus2=BMT2908842B.1.2.3,Phases=3,Linecode=CAB108_3_3,Length=0.042305000,Units=km
new line.TR2224809 bus1=BMT2908835B.1.2.3,bus2=BMT2908856B.1.2.3,Phases=3,Linecode=CAB108_3_3,Length=0.058150000,Units=km
new line.TR2224816 bus1=BMT2908856B.1.2.3,bus2=BMT2908884B.1.2.3,Phases=3,Linecode=CAB108_3_3,Length=0.059224000,Units=km
new line.TR2224823 bus1=BMT2908884B.1.2.3,bus2=BMT2908891B.1.2.3,Phases=3,Linecode=CAB108_3_3,Length=0.078329000,Units=km
new line.TR2224830 bus1=BMT2908891B.1.2.3,bus2=BMT2908898B.1.2.3,Phases=3,Linecode=CAB108_3_3,Length=0.083113000,Units=km
new line.TR2224837 bus1=BMT2908898B.1.2.3,bus2=BMT2908905B.1.2.3,Phases=3,Linecode=CAB108_3_3,Length=0.079244000,Units=km
new line.TR2224844 bus1=BMT2908905B.1.2.3,bus2=BMT2908912B.1.2.3,Phases=3,Linecode=CAB108_3_3,Length=0.081411000,Units=km
new line.TR2224851 bus1=BMT2908912B.1.2.3,bus2=BMT2908919B.1.2.3,Phases=3,Linecode=CAB108_3_3,Length=0.079244000,Units=km
new line.TR2224858 bus1=BMT2908919B.1.2.3,bus2=BMT2908926B.1.2.3,Phases=3,Linecode=CAB108_3_3,Length=0.079244000,Units=km
new line.TR2224865 bus1=BMT2908926B.1.2.3,bus2=BMT2908933B.1.2.3,Phases=3,Linecode=CAB108_3_3,Length=0.061217000,Units=km
new line.TR2224872 bus1=BMT2908933B.1.2.3,bus2=BMT2908954B.1.2.3,Phases=3,Linecode=CAB108_3_3,Length=0.059224000,Units=km
new line.TR2224879 bus1=BMT2908954B.1.2.3,bus2=BMT122937385.1.2.3,Phases=3,Linecode=CAB108_3_3,Length=0.054242000,Units=km
new line.TR2224886 bus1=BMT122937385.1.2.3,bus2=BMT122937392.1.2.3,Phases=3,Linecode=CAB108_3_3,Length=0.043299000,Units=km
new line.TR2224893 bus1=BMT122937392.1.2.3,bus2=BMT122937399.1.2.3,Phases=3,Linecode=CAB108_3_3,Length=0.093067000,Units=km
new line.TR2224900 bus1=BMT122937392.1.2.3,bus2=BMT2908982B.1.2.3,Phases=3,Linecode=CAB108_3_3,Length=0.067378000,Units=km
new line.TR2224907 bus1=BMT122937469.1.2.3,bus2=BMT2912181B.1.2.3,Phases=3,Linecode=CAB203_3_3,Length=0.095444000,Units=km
new line.TR2224914 bus1=BMT2908982B.1.2.3,bus2=BMT2909003B.1.2.3,Phases=3,Linecode=CAB108_3_3,Length=0.070271000,Units=km
new line.TR2224921 bus1=BMT2909003B.1.2.3,bus2=BMT2909101B.1.2.3,Phases=3,Linecode=CAB108_3_3,Length=0.078246000,Units=km
new line.TR2224935 bus1=BMT2909101B.1.2.3,bus2=BMT2909108B.1.2.3,Phases=3,Linecode=CAB108_3_3,Length=0.077249000,Units=km
new line.TR2224942 bus1=BMT2909108B.1.2.3,bus2=BMT2909115B.1.2.3,Phases=3,Linecode=CAB108_3_3,Length=0.084166000,Units=km
new line.TR2224949 bus1=BMT2909115B.1.2.3,bus2=BMT122937406.1.2.3,Phases=3,Linecode=CAB108_3_3,Length=0.082624000,Units=km
new line.TR2224956 bus1=BMT122937406.1.2.3,bus2=BMT2909129B.1.2.3,Phases=3,Linecode=CAB108_3_3,Length=0.076075000,Units=km
new line.TR2224963 bus1=BMT122938323.1.2.3,bus2=BMT122938330.1.2.3,Phases=3,Linecode=CAB103_3_3,Length=0.022208000,Units=km
new line.TR2224970 bus1=BMT2909129B.1.2.3,bus2=BMT2909136B.1.2.3,Phases=3,Linecode=CAB108_3_3,Length=0.080172000,Units=km
new line.TR2224977 bus1=BMT2909136B.1.2.3,bus2=BMT2909143B.1.2.3,Phases=3,Linecode=CAB108_3_3,Length=0.081411000,Units=km
new line.TR2224984 bus1=BMT2909143B.1.2.3,bus2=BMT2909150B.1.2.3,Phases=3,Linecode=CAB108_3_3,Length=0.079244000,Units=km
new line.TR2224991 bus1=BMT2909150B.1.2.3,bus2=BMT122937413.1.2.3,Phases=3,Linecode=CAB108_3_3,Length=0.072706000,Units=km
new line.TR2224998 bus1=BMT122937413.1.2.3,bus2=BMT2909164B.1.2.3,Phases=3,Linecode=CAB108_3_3,Length=0.080072000,Units=km
new line.TR2225005 bus1=BMT122938253.1.2.3,bus2=BMT2912594B.1.2.3,Phases=3,Linecode=CAB203_3_3,Length=0.121358000,Units=km
new line.TR2225012 bus1=BMT2909164B.1.2.3,bus2=BMT2909171B.1.2.3,Phases=3,Linecode=CAB108_3_3,Length=0.080241000,Units=km
new line.TR2225019 bus1=BMT2909171B.1.2.3,bus2=BMT2909178B.1.2.3,Phases=3,Linecode=CAB108_3_3,Length=0.077119000,Units=km
new line.TR2225026 bus1=BMT2909178B.1.2.3,bus2=BMT2909185B.1.2.3,Phases=3,Linecode=CAB108_3_3,Length=0.080521000,Units=km
new line.TR2225033 bus1=BMT2909185B.1.2.3,bus2=BMT2909192B.1.2.3,Phases=3,Linecode=CAB108_3_3,Length=0.080241000,Units=km
new line.TR2225040 bus1=BMT2909192B.1.2.3,bus2=BMT2909199B.1.2.3,Phases=3,Linecode=CAB108_3_3,Length=0.074042000,Units=km
new line.TR2225047 bus1=BMT2909199B.1.2.3,bus2=BMT2909220B.1.2.3,Phases=3,Linecode=CAB108_3_3,Length=0.084231000,Units=km
new line.TR2225068 bus1=BMT2909220B.1.2.3,bus2=BMT2909227B.1.2.3,Phases=3,Linecode=CAB108_3_3,Length=0.083401000,Units=km
new line.TR2225075 bus1=BMT2909227B.1.2.3,bus2=BMT2909241B.1.2.3,Phases=3,Linecode=CAB108_3_3,Length=0.080172000,Units=km
new line.TR2225089 bus1=BMT2909241B.1.2.3,bus2=BMT2909283B.1.2.3,Phases=3,Linecode=CAB108_3_3,Length=0.077249000,Units=km
new line.TR2227322 bus1=BMT2912384B.1.2.3,bus2=BMT2912496B.1.2.3,Phases=3,Linecode=CAB203_3_3,Length=0.120290000,Units=km
new line.TR2227385 bus1=BMT2912475B.1.2.3,bus2=BMT2912482B.1.2.3,Phases=3,Linecode=CAB203_3_3,Length=0.118446000,Units=km
new line.TR2227392 bus1=BMT2912482B.1.2.3,bus2=BMT2912531B.1.2.3,Phases=3,Linecode=CAB203_3_3,Length=0.112307000,Units=km
new line.TR2227399 bus1=BMT2912496B.1.2.3,bus2=BMT2912475B.1.2.3,Phases=3,Linecode=CAB203_3_3,Length=0.122171000,Units=km
new line.TR2227469 bus1=BMT2912594B.1.2.3,bus2=BMT2912601B.1.2.3,Phases=3,Linecode=CAB203_3_3,Length=0.121358000,Units=km
new line.TR2227476 bus1=BMT2912601B.1.2.3,bus2=BMT122938260.1.2.3,Phases=3,Linecode=CAB203_3_3,Length=0.120440000,Units=km
new line.TR2227483 bus1=BMT2912615B.1.2.3,bus2=BMT2912629B.1.2.3,Phases=3,Linecode=CAB203_3_3,Length=0.120361000,Units=km
new line.TR2227490 bus1=BMT122938260.1.2.3,bus2=BMT2912615B.1.2.3,Phases=3,Linecode=CAB203_3_3,Length=0.118535000,Units=km
new line.TR2227497 bus1=BMT122938309.1.2.3,bus2=BMT122938316.1.2.3,Phases=3,Linecode=CAB103_3_3,Length=0.014145000,Units=km
new line.TR2227504 bus1=BMT2912629B.1.2.3,bus2=BMT2912650B.1.2.3,Phases=3,Linecode=CAB203_3_3,Length=0.118632000,Units=km
new line.TR2227511 bus1=BMT2912636B.1.2.3,bus2=BMT2912664B.1.2.3,Phases=3,Linecode=CAB203_3_3,Length=0.120290000,Units=km
new line.TR2227518 bus1=BMT2912650B.1.2.3,bus2=BMT2912636B.1.2.3,Phases=3,Linecode=CAB203_3_3,Length=0.121173000,Units=km
new line.TR2227525 bus1=BMT2912664B.1.2.3,bus2=BMT2912685B.1.2.3,Phases=3,Linecode=CAB203_3_3,Length=0.119531000,Units=km
new line.TR2227546 bus1=BMT2912685B.1.2.3,bus2=BMT2912699B.1.2.3,Phases=3,Linecode=CAB203_3_3,Length=0.118446000,Units=km
new line.TR2227553 bus1=BMT2912692B.1.2.3,bus2=BMT122938267.1.2.3,Phases=3,Linecode=CAB203_3_3,Length=0.115647000,Units=km
new line.TR2227560 bus1=BMT2912699B.1.2.3,bus2=BMT2912692B.1.2.3,Phases=3,Linecode=CAB203_3_3,Length=0.120173000,Units=km
new line.TR2227567 bus1=BMT122938295.1.2.3,bus2=BMT122938302.1.2.3,Phases=3,Linecode=CAB103_3_3,Length=0.015560000,Units=km
new line.TR2227574 bus1=BMT122938267.1.2.3,bus2=BMT122938274.1.2.3,Phases=3,Linecode=CAB203_3_3,Length=0.048269000,Units=km
new line.TR2227588 bus1=BMT2912734B.1.2.3,bus2=BMT2912727B.1.2.3,Phases=3,Linecode=CAB203_3_3,Length=0.112467000,Units=km
new line.TR2227658 bus1=BMT122938204.1.2.3,bus2=BMT2912846B.1.2.3,Phases=3,Linecode=CAB203_3_3,Length=0.099428000,Units=km
new line.TR2227665 bus1=BMT2912846B.1.2.3,bus2=BMT122938211.1.2.3,Phases=3,Linecode=CAB203_3_3,Length=0.109315000,Units=km
new line.TR2227672 bus1=BMT2912874B.1.2.3,bus2=BMT122938974.1.2.3,Phases=3,Linecode=CABA06_3_3,Length=0.044293000,Units=km
new line.TR2227679 bus1=BMT2912916B.1.2.3,bus2=BMT2912874B.1.2.3,Phases=3,Linecode=CABA06_3_3,Length=0.038061000,Units=km
new line.TR2227686 bus1=BMT2912923B.1.2.3,bus2=BMT2912916B.1.2.3,Phases=3,Linecode=CABA06_3_3,Length=0.039213000,Units=km
new line.TR2227693 bus1=BMT2912930B.1.2.3,bus2=BMT2912944B.1.2.3,Phases=3,Linecode=CABA06_3_3,Length=0.044112000,Units=km
new line.TR2227700 bus1=BMT2912944B.1.2.3,bus2=BMT2912923B.1.2.3,Phases=3,Linecode=CABA06_3_3,Length=0.039124000,Units=km
new line.TR2227707 bus1=BMT122938211.1.2.3,bus2=BMT2912979B.1.2.3,Phases=3,Linecode=CAB203_3_3,Length=0.120361000,Units=km
new line.TR2227714 bus1=BMT122938239.1.2.3,bus2=BMT122938246.1.2.3,Phases=3,Linecode=CAB103_3_3,Length=0.027592000,Units=km
new line.TR2227721 bus1=BMT2912979B.1.2.3,bus2=BMT2912986B.1.2.3,Phases=3,Linecode=CAB203_3_3,Length=0.122356000,Units=km
new line.TR2227728 bus1=BMT2912986B.1.2.3,bus2=BMT2913000B.1.2.3,Phases=3,Linecode=CAB203_3_3,Length=0.115236000,Units=km
new line.TR2227735 bus1=BMT2912993B.1.2.3,bus2=BMT2913042B.1.2.3,Phases=3,Linecode=CAB203_3_3,Length=0.120290000,Units=km
new line.TR2227742 bus1=BMT2913000B.1.2.3,bus2=BMT2912993B.1.2.3,Phases=3,Linecode=CAB203_3_3,Length=0.118535000,Units=km
new line.TR2227749 bus1=BMT2913028B.1.2.3,bus2=BMT2913056B.1.2.3,Phases=3,Linecode=CAB203_3_3,Length=0.119531000,Units=km
new line.TR2227756 bus1=BMT2913042B.1.2.3,bus2=BMT2913028B.1.2.3,Phases=3,Linecode=CAB203_3_3,Length=0.121436000,Units=km
new line.TR2227763 bus1=BMT122938218.1.2.3,bus2=BMT2913070B.1.2.3,Phases=3,Linecode=CAB203_3_3,Length=0.121288000,Units=km
new line.TR2227770 bus1=BMT122938225.1.2.3,bus2=BMT122938232.1.2.3,Phases=3,Linecode=CAB103_3_3,Length=0.009222000,Units=km
new line.TR2227777 bus1=BMT2913056B.1.2.3,bus2=BMT122938218.1.2.3,Phases=3,Linecode=CAB203_3_3,Length=0.117539000,Units=km
new line.TR2227784 bus1=BMT2913070B.1.2.3,bus2=BMT2913084B.1.2.3,Phases=3,Linecode=CAB203_3_3,Length=0.123515000,Units=km
new line.TR2227791 bus1=BMT2913084B.1.2.3,bus2=BMT2913091B.1.2.3,Phases=3,Linecode=CAB203_3_3,Length=0.120361000,Units=km
new line.TR2227798 bus1=BMT2913091B.1.2.3,bus2=BMT2913098B.1.2.3,Phases=3,Linecode=CAB203_3_3,Length=0.100424000,Units=km
new line.TR2227812 bus1=BMT2913133B.1.2.3,bus2=BMT2913140B.1.2.3,Phases=3,Linecode=CAB203_3_3,Length=0.101021000,Units=km
new line.TR2227819 bus1=BMT2913140B.1.2.3,bus2=BMT2913147B.1.2.3,Phases=3,Linecode=CAB203_3_3,Length=0.097765000,Units=km
new line.TR2227826 bus1=BMT2913147B.1.2.3,bus2=BMT122937868.1.2.3,Phases=3,Linecode=CAB203_3_3,Length=0.092782000,Units=km
new line.TR2227854 bus1=BMT2913259B.1.2.3,bus2=BMT2913266B.1.2.3,Phases=3,Linecode=CAB203_3_3,Length=0.095790000,Units=km
new line.TR2227861 bus1=BMT2913266B.1.2.3,bus2=BMT2913273B.1.2.3,Phases=3,Linecode=CAB203_3_3,Length=0.105140000,Units=km
new line.TR2227903 bus1=BMT164420053.1.2.3,bus2=BMT2913371B.1.2.3,Phases=3,Linecode=CAB203_3_3,Length=0.112241000,Units=km
new line.TR2227910 bus1=BMT2913371B.1.2.3,bus2=BMT2913427B.1.2.3,Phases=3,Linecode=CAB203_3_3,Length=0.107320000,Units=km
new line.TR2227966 bus1=BMT2913427B.1.2.3,bus2=BMT122937917.1.2.3,Phases=3,Linecode=CAB203_3_3,Length=0.104410000,Units=km
new line.TR2227973 bus1=BMT122938176.1.2.3,bus2=BMT122938183.1.2.3,Phases=3,Linecode=CAB103_3_3,Length=0.019214000,Units=km
new line.TR2227980 bus1=BMT122937917.1.2.3,bus2=BMT164420054.1.2.3,Phases=3,Linecode=CAB203_3_3,Length=0.075255000,Units=km
new line.TR2227994 bus1=BMT150858207.1.2.3,bus2=BMT122938057.1.2.3,Phases=3,Linecode=CAB203_3_3,Length=0.102612000,Units=km
new line.TR2228001 bus1=BMT122937931.1.2.3,bus2=BMT2913483B.1.2.3,Phases=3,Linecode=CAB203_3_3,Length=0.109576000,Units=km
new line.TR2228029 bus1=BMT122938057.1.2.3,bus2=BMT2913672B.1.2.3,Phases=3,Linecode=CAB203_3_3,Length=0.098147000,Units=km
new line.TR2228036 bus1=BMT122938162.1.2.3,bus2=BMT122938169.1.2.3,Phases=3,Linecode=CAB103_3_3,Length=0.017033000,Units=km
new line.TR2228043 bus1=BMT2913483B.1.2.3,bus2=BMT2913518B.1.2.3,Phases=3,Linecode=CAB203_3_3,Length=0.110245000,Units=km
new line.TR2225145 bus1=BMT2909283B.1.2.3,bus2=BMT122937420.1.2.3,Phases=3,Linecode=CAB108_3_3,Length=0.070363000,Units=km
new line.TR2225152 bus1=BMT122937420.1.2.3,bus2=BMT2909304B.1.2.3,Phases=3,Linecode=CAB108_3_3,Length=0.059148000,Units=km
new line.TR2225159 bus1=BMT122937420.1.2.3,bus2=BMT122937434.1.2.3,Phases=3,Linecode=CAB108_3_3,Length=0.076252000,Units=km
new line.TR2225173 bus1=BMT2909304B.1.2.3,bus2=BMT2909318B.1.2.3,Phases=3,Linecode=CAB108_3_3,Length=0.072264000,Units=km
new line.TR2225187 bus1=BMT2909318B.1.2.3,bus2=BMT2909360B.1.2.3,Phases=3,Linecode=CAB108_3_3,Length=0.072354000,Units=km
new line.TR2225236 bus1=BMT2909360B.1.2.3,bus2=BMT2909374B.1.2.3,Phases=3,Linecode=CAB108_3_3,Length=0.074123000,Units=km
new line.TR2225257 bus1=BMT2909374B.1.2.3,bus2=BMT122937427.1.2.3,Phases=3,Linecode=CAB108_3_3,Length=0.074345000,Units=km
new line.TR2225264 bus1=BMT122937427.1.2.3,bus2=BMT122937441.1.2.3,Phases=3,Linecode=CAB108_3_3,Length=0.074184000,Units=km
new line.TR2225278 bus1=BMT122937441.1.2.3,bus2=BMT2909409B.1.2.3,Phases=3,Linecode=CAB108_3_3,Length=0.076180000,Units=km
new line.TR2225285 bus1=BMT122938190.1.2.3,bus2=BMT122938197.1.2.3,Phases=3,Linecode=CAB103_3_3,Length=0.031151000,Units=km
new line.TR2225299 bus1=BMT2909409B.1.2.3,bus2=BMT2909430B.1.2.3,Phases=3,Linecode=CAB108_3_3,Length=0.079647000,Units=km
new line.TR2225320 bus1=BMT2909430B.1.2.3,bus2=BMT2909479B.1.2.3,Phases=3,Linecode=CAB108_3_3,Length=0.080116000,Units=km
new line.TR2225362 bus1=BMT2909479B.1.2.3,bus2=BMT2909486B.1.2.3,Phases=3,Linecode=CAB108_3_3,Length=0.079326000,Units=km
new line.TR2225369 bus1=BMT2909486B.1.2.3,bus2=BMT2909493B.1.2.3,Phases=3,Linecode=CAB108_3_3,Length=0.080241000,Units=km
new line.TR2225376 bus1=BMT2909493B.1.2.3,bus2=BMT2909500B.1.2.3,Phases=3,Linecode=CAB108_3_3,Length=0.080241000,Units=km
new line.TR2225383 bus1=BMT2909500B.1.2.3,bus2=BMT2909507B.1.2.3,Phases=3,Linecode=CAB108_3_3,Length=0.080241000,Units=km
new line.TR2225390 bus1=BMT2909507B.1.2.3,bus2=BMT2909514B.1.2.3,Phases=3,Linecode=CAB108_3_3,Length=0.078329000,Units=km
new line.TR2225397 bus1=BMT2909514B.1.2.3,bus2=BMT2909521B.1.2.3,Phases=3,Linecode=CAB108_3_3,Length=0.078425000,Units=km
new line.TR2225404 bus1=BMT2909521B.1.2.3,bus2=BMT2909528B.1.2.3,Phases=3,Linecode=CAB108_3_3,Length=0.080172000,Units=km
new line.TR2225411 bus1=BMT2909528B.1.2.3,bus2=BMT2909535B.1.2.3,Phases=3,Linecode=CAB108_3_3,Length=0.080322000,Units=km
new line.TR2225418 bus1=BMT2909535B.1.2.3,bus2=BMT2909556B.1.2.3,Phases=3,Linecode=CAB108_3_3,Length=0.080116000,Units=km
new line.TR2225439 bus1=BMT2909556B.1.2.3,bus2=BMT2909563B.1.2.3,Phases=3,Linecode=CAB108_3_3,Length=0.077178000,Units=km
new line.TR2225446 bus1=BMT2909563B.1.2.3,bus2=BMT2909570B.1.2.3,Phases=3,Linecode=CAB108_3_3,Length=0.080322000,Units=km
new line.TR2225453 bus1=BMT2909570B.1.2.3,bus2=BMT2909577B.1.2.3,Phases=3,Linecode=CAB108_3_3,Length=0.077333000,Units=km