! manter este comentario para compatibilidade do C#
new circuit.alimIRO17 bus1=BMT137001197.1.2.3,basekv=13.800000000,pu=1.040000000