new line.RML10031534 bus1=BBT3067881.2.0,bus2=RML1060031534.2.0,Phases=1,Linecode=CABBTG01_4_1,Length=0.017000000,Units=km
new line.RML10031538 bus1=BBT1713801.1.2.0,bus2=RML1060031538.1.2.0,Phases=2,Linecode=CABBTG05_4_2,Length=0.017000000,Units=km
new line.RML10031539 bus1=BBT1713843.1.2.0,bus2=RML1060031539.1.2.0,Phases=2,Linecode=CABBTG13_4_2,Length=0.017000000,Units=km
new line.RML10031541 bus1=BBT1734283.1.2.0,bus2=RML1060031541.1.2.0,Phases=2,Linecode=CABBTG05_4_2,Length=0.017000000,Units=km
new line.RML10031548 bus1=BBT1713780.2.0,bus2=RML1060031548.2.0,Phases=1,Linecode=CABBTG01_4_1,Length=0.017000000,Units=km
new line.RML10031551 bus1=BBT2931017.1.2.0,bus2=RML1060031551.1.2.0,Phases=2,Linecode=CABBTG05_4_2,Length=0.017000000,Units=km
new line.RML10032878 bus1=BBT2792081.1.2.0,bus2=RML1060032878.1.2.0,Phases=2,Linecode=CABBTG04_4_2,Length=0.017000000,Units=km
new line.RML10033078 bus1=BBT1719779.1.2.0,bus2=RML1060033078.1.2.0,Phases=2,Linecode=CABBTG05_4_2,Length=0.017000000,Units=km
new line.RML10033082 bus1=BBT1743558.1.0,bus2=RML1060033082.1.0,Phases=1,Linecode=CABBTG01_4_1,Length=0.017000000,Units=km
new line.RML10038233 bus1=BBT1724035.1.2.3.0,bus2=RML1060038233.1.2.3.0,Phases=3,Linecode=CABBTG06_4_3,Length=0.017000000,Units=km
new line.RML10038246 bus1=BBT1725400.1.2.3.0,bus2=RML1060038246.1.2.3.0,Phases=3,Linecode=CABBTG06_4_3,Length=0.017000000,Units=km
new line.RML10038319 bus1=BBT1721746.2.3.0,bus2=RML1060038319.2.3.0,Phases=2,Linecode=CABBTG05_4_2,Length=0.017000000,Units=km
new line.RML10038373 bus1=BBT2715172.1.2.0,bus2=RML1060038373.1.2.0,Phases=2,Linecode=CABBTG05_4_2,Length=0.017000000,Units=km
new line.RML10038662 bus1=BBT147007165.1.2.0,bus2=RML1060038662.1.2.0,Phases=2,Linecode=CABBTG05_4_2,Length=0.017000000,Units=km
new line.RML10038663 bus1=BBT2262958.2.3.0,bus2=RML1060038663.2.3.0,Phases=2,Linecode=CABBTG05_4_2,Length=0.017000000,Units=km
new line.RML10038669 bus1=BBT1735368.1.2.3.0,bus2=RML1060038669.1.2.3.0,Phases=3,Linecode=CABBTG06_4_3,Length=0.017000000,Units=km
new line.RML10038697 bus1=BBT1721116.1.2.3.0,bus2=RML1060038697.1.2.3.0,Phases=3,Linecode=CABBTG06_4_3,Length=0.017000000,Units=km
new line.RML10038724 bus1=BBT3138644.1.2.0,bus2=RML1060038724.1.2.0,Phases=2,Linecode=CABBTG05_4_2,Length=0.017000000,Units=km
new line.RML10038725 bus1=BBT3138644.1.2.0,bus2=RML1060038725.1.2.0,Phases=2,Linecode=CABBTG05_4_2,Length=0.017000000,Units=km
new line.RML10038924 bus1=BBT1710462.1.0,bus2=RML1060038924.1.0,Phases=1,Linecode=CABBTG02_4_1,Length=0.017000000,Units=km
new line.RML10038926 bus1=BBT147884804.1.2.0,bus2=RML1060038926.1.2.0,Phases=2,Linecode=CABBTG13_4_2,Length=0.017000000,Units=km
new line.RML10038936 bus1=BBT2365844.1.2.0,bus2=RML1060038936.1.2.0,Phases=2,Linecode=CABBTG05_4_2,Length=0.017000000,Units=km
new line.RML10038962 bus1=BBT1736740.1.0,bus2=RML1060038962.1.0,Phases=1,Linecode=CABBTG02_4_1,Length=0.017000000,Units=km
new line.RML10038963 bus1=BBT1711267.1.2.0,bus2=RML1060038963.1.2.0,Phases=2,Linecode=CABBTG05_4_2,Length=0.017000000,Units=km
new line.RML10038970 bus1=BBT1710462.1.2.0,bus2=RML1060038970.1.2.0,Phases=2,Linecode=CABBTG05_4_2,Length=0.017000000,Units=km
new line.RML10039541 bus1=BBT1717721.1.2.3.0,bus2=RML1060039541.1.2.3.0,Phases=3,Linecode=CABBTG06_4_3,Length=0.012000000,Units=km
new line.RML10039560 bus1=BBT2180372.1.0,bus2=RML1060039560.1.0,Phases=1,Linecode=CABBTG02_4_1,Length=0.017000000,Units=km
new line.RML10039597 bus1=BBT1739379.1.0,bus2=RML1060039597.1.0,Phases=1,Linecode=CABBTG01_4_1,Length=0.017000000,Units=km
new line.RML10039613 bus1=BBT1727906.1.0,bus2=RML1060039613.1.0,Phases=1,Linecode=CABBTG02_4_1,Length=0.017000000,Units=km
new line.RML10039619 bus1=BBT2177838.1.2.0,bus2=RML1060039619.1.2.0,Phases=2,Linecode=CABBTG05_4_2,Length=0.017000000,Units=km
new line.RML10039847 bus1=BBT3591488.1.2.0,bus2=RML1060039847.1.2.0,Phases=2,Linecode=CABBTG05_4_2,Length=0.017000000,Units=km
new line.RML10040440 bus1=BBT3591432.1.0,bus2=RML1060040440.1.0,Phases=1,Linecode=CABBTG02_4_1,Length=0.017000000,Units=km
new line.RML10040494 bus1=BBT3591418.1.0,bus2=RML1060040494.1.0,Phases=1,Linecode=CABBTG01_4_1,Length=0.017000000,Units=km
new line.RML10040737 bus1=BBT3102531.1.0,bus2=RML1060040737.1.0,Phases=1,Linecode=CABBTG02_4_1,Length=0.017000000,Units=km
new line.RML10043855 bus1=BBT2366418.1.0,bus2=RML1060043855.1.0,Phases=1,Linecode=CABBTG01_4_1,Length=0.017000000,Units=km
new line.RML10044348 bus1=BBT1720437.1.2.3.0,bus2=RML1060044348.1.2.3.0,Phases=3,Linecode=CABBTG07_4_3,Length=0.017000000,Units=km
new line.RML10048070 bus1=BBT2717874.1.2.0,bus2=RML1060048070.1.2.0,Phases=2,Linecode=CABBTG05_4_2,Length=0.006000000,Units=km
new line.RML10050073 bus1=BBT1730146.1.2.0,bus2=RML1060050073.1.2.0,Phases=2,Linecode=CABBTG13_4_2,Length=0.017000000,Units=km
new line.RML10050566 bus1=BBT148406301.1.0,bus2=RML1060050566.1.0,Phases=1,Linecode=CABBTG01_4_1,Length=0.017000000,Units=km
new line.RML10050885 bus1=BBT2262720.1.2.3.0,bus2=RML1060050885.1.2.3.0,Phases=3,Linecode=CABBTG06_4_3,Length=0.017000000,Units=km
new line.RML10050944 bus1=BBT3545540.1.2.0,bus2=RML1060050944.1.2.0,Phases=2,Linecode=CABBTG05_4_2,Length=0.017000000,Units=km
new line.RML10051073 bus1=BBT3654103.1.2.3.0,bus2=RML1060051073.1.2.3.0,Phases=3,Linecode=CABBTG06_4_3,Length=0.017000000,Units=km
new line.RML10051086 bus1=BBT1726954.2.0,bus2=RML1060051086.2.0,Phases=1,Linecode=CABBTG01_4_1,Length=0.012000000,Units=km
new line.RML10051554 bus1=BBT2262769.2.0,bus2=RML1060051554.2.0,Phases=1,Linecode=CABBTG02_4_1,Length=0.017000000,Units=km
new line.RML10055693 bus1=BBT1717994.1.0,bus2=RML1060055693.1.0,Phases=1,Linecode=CABBTG02_4_1,Length=0.017000000,Units=km
new line.RML10056860 bus1=BBT1726408.1.0,bus2=RML1060056860.1.0,Phases=1,Linecode=CABBTG02_4_1,Length=0.017000000,Units=km
new line.RML10059280 bus1=BBT1743194.1.2.0,bus2=RML1060059280.1.2.0,Phases=2,Linecode=CABBTG05_4_2,Length=0.017000000,Units=km
new line.RML10063537 bus1=BBT2082120.1.2.0,bus2=RML1060063537.1.2.0,Phases=2,Linecode=CABBTG05_4_2,Length=0.011000000,Units=km
new line.RML10063544 bus1=BBT6087632.1.0,bus2=RML1060063544.1.0,Phases=1,Linecode=CABBTG02_4_1,Length=0.016000000,Units=km
new line.RML10063735 bus1=BBT1721718.1.2.0,bus2=RML1060063735.1.2.0,Phases=2,Linecode=CABBTG05_4_2,Length=0.012000000,Units=km
new line.RML10063790 bus1=BBT148860761.1.2.0,bus2=RML1060063790.1.2.0,Phases=2,Linecode=CABBTG05_4_2,Length=0.025000000,Units=km
new line.RML10064099 bus1=BBT1719338.1.2.0,bus2=RML1060064099.1.2.0,Phases=2,Linecode=CABBTG05_4_2,Length=0.017000000,Units=km
new line.RML10064184 bus1=BBT1720227.1.2.0,bus2=RML1060064184.1.2.0,Phases=2,Linecode=CABBTG05_4_2,Length=0.010000000,Units=km
new line.RML10064192 bus1=BBT1728809.1.2.0,bus2=RML1060064192.1.2.0,Phases=2,Linecode=CABBTG05_4_2,Length=0.012000000,Units=km
new line.RML10064275 bus1=BBT1729845.1.2.0,bus2=RML1060064275.1.2.0,Phases=2,Linecode=CABBTG05_4_2,Length=0.017000000,Units=km
new line.RML10064292 bus1=BBT2366439.1.2.0,bus2=RML1060064292.1.2.0,Phases=2,Linecode=CABBTG05_4_2,Length=0.017000000,Units=km
new line.RML10064408 bus1=BBT2696237.1.0,bus2=RML1060064408.1.0,Phases=1,Linecode=CABBTG01_4_1,Length=0.006000000,Units=km
new line.RML10064420 bus1=BBT2366383.1.0,bus2=RML1060064420.1.0,Phases=1,Linecode=CABBTG02_4_1,Length=0.007000000,Units=km
new line.RML10064436 bus1=BBT1730503.3.0,bus2=RML1060064436.3.0,Phases=1,Linecode=CABBTG02_4_1,Length=0.012000000,Units=km
new line.RML10064566 bus1=BBT1719086.2.3.0,bus2=RML1060064566.2.3.0,Phases=2,Linecode=CABBTG05_4_2,Length=0.010000000,Units=km
new line.RML10067667 bus1=BBT148406303.1.2.3.0,bus2=RML1060067667.1.2.3.0,Phases=3,Linecode=CABBTG06_4_3,Length=0.030000000,Units=km
new line.RML10067880 bus1=BBT1726653.1.2.3.0,bus2=RML1060067880.1.2.3.0,Phases=3,Linecode=CABBTG06_4_3,Length=0.012000000,Units=km
new line.RML10067913 bus1=BBT1713584.1.2.0,bus2=RML1060067913.1.2.0,Phases=2,Linecode=CABBTG05_4_2,Length=0.010000000,Units=km
new line.RML10068281 bus1=BBT1715691.1.2.0,bus2=RML1060068281.1.2.0,Phases=2,Linecode=CABBTG05_4_2,Length=0.025000000,Units=km
new line.RML10070555 bus1=BBT1728746.1.2.0,bus2=RML1060070555.1.2.0,Phases=2,Linecode=CABBTG05_4_2,Length=0.017000000,Units=km
new line.RML10070556 bus1=BBT2366390.1.2.0,bus2=RML1060070556.1.2.0,Phases=2,Linecode=CABBTG05_4_2,Length=0.017000000,Units=km
new line.RML10070557 bus1=BBT3089896.1.0,bus2=RML1060070557.1.0,Phases=1,Linecode=CABBTG02_4_1,Length=0.017000000,Units=km
new line.RML10070559 bus1=BBT2366551.1.2.0,bus2=RML1060070559.1.2.0,Phases=2,Linecode=CABBTG05_4_2,Length=0.017000000,Units=km
new line.RML10070560 bus1=BBT2366551.1.2.0,bus2=RML1060070560.1.2.0,Phases=2,Linecode=CABBTG05_4_2,Length=0.017000000,Units=km
new line.RML10070561 bus1=BBT3291069.2.3.0,bus2=RML1060070561.2.3.0,Phases=2,Linecode=CABBTG05_4_2,Length=0.017000000,Units=km
new line.RML10070562 bus1=BBT3291069.2.3.0,bus2=RML1060070562.2.3.0,Phases=2,Linecode=CABBTG05_4_2,Length=0.017000000,Units=km
new line.RML10072234 bus1=BBT1713542.1.2.0,bus2=RML1060072234.1.2.0,Phases=2,Linecode=CABBTG05_4_2,Length=0.017000000,Units=km
new line.RML10072940 bus1=BBT2971015.1.2.0,bus2=RML1060072940.1.2.0,Phases=2,Linecode=CABBTG05_4_2,Length=0.017000000,Units=km
new line.RML10073695 bus1=BBT3916939.1.2.3.0,bus2=RML1060073695.1.2.3.0,Phases=3,Linecode=CABBTG06_4_3,Length=0.017000000,Units=km
new line.RML10073739 bus1=BBT3259737.1.2.0,bus2=RML1060073739.1.2.0,Phases=2,Linecode=CABBTG05_4_2,Length=0.017000000,Units=km
new line.RML10074546 bus1=BBT2129230.1.2.0,bus2=RML1060074546.1.2.0,Phases=2,Linecode=CABBTG05_4_2,Length=0.017000000,Units=km
new line.RML10074695 bus1=BBT1744909.1.2.0,bus2=RML1060074695.1.2.0,Phases=2,Linecode=CABBTG05_4_2,Length=0.017000000,Units=km
new line.RML10079988 bus1=BBT2523771.1.2.0,bus2=RML1060079988.1.2.0,Phases=2,Linecode=CABBTG05_4_2,Length=0.017000000,Units=km
new line.RML10080020 bus1=BBT1934406.1.2.0,bus2=RML1060080020.1.2.0,Phases=2,Linecode=CABBTG04_4_2,Length=0.017000000,Units=km
new line.RML10080777 bus1=BBT3200636.1.2.0,bus2=RML1060080777.1.2.0,Phases=2,Linecode=CABBTG05_4_2,Length=0.017000000,Units=km
new line.RML10080924 bus1=BBT1714991.1.2.0,bus2=RML1060080924.1.2.0,Phases=2,Linecode=CABBTG05_4_2,Length=0.017000000,Units=km
new line.RML10080927 bus1=BBT1714991.1.2.0,bus2=RML1060080927.1.2.0,Phases=2,Linecode=CABBTG05_4_2,Length=0.017000000,Units=km
new line.RML10081111 bus1=BBT3346453.1.2.0,bus2=RML1060081111.1.2.0,Phases=2,Linecode=CABBTG05_4_2,Length=0.017000000,Units=km
new line.RML10081608 bus1=BBT3683538.1.2.0,bus2=RML1060081608.1.2.0,Phases=2,Linecode=CABBTG04_4_2,Length=0.017000000,Units=km
new line.RML10081950 bus1=BBT1717364.1.2.0,bus2=RML1060081950.1.2.0,Phases=2,Linecode=CABBTG05_4_2,Length=0.017000000,Units=km
new line.RML10082108 bus1=BBT1724861.2.0,bus2=RML1060082108.2.0,Phases=1,Linecode=CABBTG02_4_1,Length=0.017000000,Units=km
new line.RML10082448 bus1=BBT1728074.1.0,bus2=RML1060082448.1.0,Phases=1,Linecode=CABBTG01_4_1,Length=0.017000000,Units=km
new line.RML10082482 bus1=BBT1730097.1.2.0,bus2=RML1060082482.1.2.0,Phases=2,Linecode=CABBTG05_4_2,Length=0.018000000,Units=km
new line.RML10082495 bus1=BBT148860776.1.0,bus2=RML1060082495.1.0,Phases=1,Linecode=CABBTG02_4_1,Length=0.020000000,Units=km
new line.RML10082499 bus1=BBT1715187.1.2.0,bus2=RML1060082499.1.2.0,Phases=2,Linecode=CABBTG05_4_2,Length=0.012000000,Units=km
new line.RML10082928 bus1=BBT3916848.1.2.3.0,bus2=RML1060082928.1.2.3.0,Phases=3,Linecode=CABBTG06_4_3,Length=0.017000000,Units=km
new line.RML10083015 bus1=BBT1722768.1.2.3.0,bus2=RML1060083015.1.2.3.0,Phases=3,Linecode=CABBTG06_4_3,Length=0.009000000,Units=km
new line.RML10083055 bus1=BBT3290397.1.0,bus2=RML1060083055.1.0,Phases=1,Linecode=CABBTG01_4_1,Length=0.012000000,Units=km
new line.RML10083077 bus1=BBT1733296.1.2.0,bus2=RML1060083077.1.2.0,Phases=2,Linecode=CABBTG05_4_2,Length=0.017000000,Units=km
new line.RML10083350 bus1=BBT1714914.1.2.0,bus2=RML1060083350.1.2.0,Phases=2,Linecode=CABBTG05_4_2,Length=0.017000000,Units=km
new line.RML10092304 bus1=BBT2177866.1.0,bus2=RML1060092304.1.0,Phases=1,Linecode=CABBTG01_4_1,Length=0.016000000,Units=km
new line.RML10092310 bus1=BBT1729901.1.0,bus2=RML1060092310.1.0,Phases=1,Linecode=CABBTG01_4_1,Length=0.008000000,Units=km
new line.RML10092328 bus1=BBT2696216.1.2.0,bus2=RML1060092328.1.2.0,Phases=2,Linecode=CABBTG05_4_2,Length=0.017000000,Units=km
new line.RML10092357 bus1=BBT2366558.1.2.0,bus2=RML1060092357.1.2.0,Phases=2,Linecode=CABBTG05_4_2,Length=0.017000000,Units=km
new line.RML10092720 bus1=BBT1715964.1.2.3.0,bus2=RML1060092720.1.2.3.0,Phases=3,Linecode=CABBTG07_4_3,Length=0.017000000,Units=km
new line.RML10101202 bus1=BBT1722971.1.2.0,bus2=RML1060101202.1.2.0,Phases=2,Linecode=CABBTG04_4_2,Length=0.017000000,Units=km
new line.RML10104409 bus1=BBT1740492.1.0,bus2=RML1060104409.1.0,Phases=1,Linecode=CABBTG02_4_1,Length=0.030000000,Units=km
new line.RML10104495 bus1=BBT3594099.1.2.0,bus2=RML1060104495.1.2.0,Phases=2,Linecode=CABBTG05_4_2,Length=0.006000000,Units=km
new line.RML10104740 bus1=BBT1720773.2.3.0,bus2=RML1060104740.2.3.0,Phases=2,Linecode=CABBTG05_4_2,Length=0.007000000,Units=km
new line.RML10104945 bus1=BBT1720780.1.2.0,bus2=RML1060104945.1.2.0,Phases=2,Linecode=CABBTG05_4_2,Length=0.013000000,Units=km
new line.RML10104947 bus1=BBT3557216.2.0,bus2=RML1060104947.2.0,Phases=1,Linecode=CABBTG02_4_1,Length=0.006000000,Units=km
new line.RML10105039 bus1=BBT1733030.1.2.0,bus2=RML1060105039.1.2.0,Phases=2,Linecode=CABBTG05_4_2,Length=0.010000000,Units=km
new line.RML10105044 bus1=BBT2177684.1.2.0,bus2=RML1060105044.1.2.0,Phases=2,Linecode=CABBTG05_4_2,Length=0.010000000,Units=km
new line.RML10105079 bus1=BBT1712527.1.2.0,bus2=RML1060105079.1.2.0,Phases=2,Linecode=CABBTG05_4_2,Length=0.010000000,Units=km
new line.RML10105088 bus1=BBT2696237.1.2.0,bus2=RML1060105088.1.2.0,Phases=2,Linecode=CABBTG05_4_2,Length=0.016000000,Units=km
new line.RML10105091 bus1=BBT1725652.1.3.0,bus2=RML1060105091.1.3.0,Phases=2,Linecode=CABBTG05_4_2,Length=0.010000000,Units=km
new line.RML10105177 bus1=BBT2366166.1.3.0,bus2=RML1060105177.1.3.0,Phases=2,Linecode=CABBTG05_4_2,Length=0.006000000,Units=km
new line.RML10106361 bus1=BBT1734983.2.0,bus2=RML1060106361.2.0,Phases=1,Linecode=CABBTG02_4_1,Length=0.010000000,Units=km
new line.RML10106362 bus1=BBT2366887.1.2.0,bus2=RML1060106362.1.2.0,Phases=2,Linecode=CABBTG05_4_2,Length=0.012000000,Units=km
new line.RML10106365 bus1=BBT148860776.1.2.0,bus2=RML1060106365.1.2.0,Phases=2,Linecode=CABBTG05_4_2,Length=0.010000000,Units=km
new line.RML10106497 bus1=BBT1721977.1.2.0,bus2=RML1060106497.1.2.0,Phases=2,Linecode=CABBTG05_4_2,Length=0.028000000,Units=km
new line.RML10106555 bus1=BBT148855750.1.2.0,bus2=RML1060106555.1.2.0,Phases=2,Linecode=CABBTG05_4_2,Length=0.015000000,Units=km
new line.RML10107056 bus1=BBT1731392.1.2.0,bus2=RML1060107056.1.2.0,Phases=2,Linecode=CABBTG05_4_2,Length=0.025000000,Units=km
new line.RML10107248 bus1=BBT144485982.1.2.0,bus2=RML1060107248.1.2.0,Phases=2,Linecode=CABBTG05_4_2,Length=0.010000000,Units=km
new line.RML10107262 bus1=BBT2180225.2.0,bus2=RML1060107262.2.0,Phases=1,Linecode=CABBTG02_4_1,Length=0.008000000,Units=km
new line.RML10107278 bus1=BBT1734766.1.2.0,bus2=RML1060107278.1.2.0,Phases=2,Linecode=CABBTG05_4_2,Length=0.010000000,Units=km
new line.RML10107297 bus1=BBT148406298.1.0,bus2=RML1060107297.1.0,Phases=1,Linecode=CABBTG02_4_1,Length=0.010000000,Units=km
new line.RML10107473 bus1=BBT1720437.2.3.0,bus2=RML1060107473.2.3.0,Phases=2,Linecode=CABBTG05_4_2,Length=0.006000000,Units=km
new line.RML10107512 bus1=BBT1732344.1.2.0,bus2=RML1060107512.1.2.0,Phases=2,Linecode=CABBTG05_4_2,Length=0.017000000,Units=km
new line.RML10107516 bus1=BBT139958284.1.0,bus2=RML1060107516.1.0,Phases=1,Linecode=CABBTG02_4_1,Length=0.008000000,Units=km
new line.RML10107602 bus1=BBT2366537.1.2.0,bus2=RML1060107602.1.2.0,Phases=2,Linecode=CABBTG05_4_2,Length=0.012000000,Units=km
new line.RML10109141 bus1=BBT1720164.1.2.0,bus2=RML1060109141.1.2.0,Phases=2,Linecode=CABBTG05_4_2,Length=0.012000000,Units=km
new line.RML10112745 bus1=BBT149101360.1.2.0,bus2=RML1060112745.1.2.0,Phases=2,Linecode=CABBTG05_4_2,Length=0.017000000,Units=km
new line.RML10113921 bus1=BBT1726548.1.0,bus2=RML1060113921.1.0,Phases=1,Linecode=CABBTG01_4_1,Length=0.017000000,Units=km
new line.RML10115444 bus1=BBT1725673.1.2.0,bus2=RML1060115444.1.2.0,Phases=2,Linecode=CABBTG05_4_2,Length=0.017000000,Units=km
new line.RML10115449 bus1=BBT1725673.1.2.0,bus2=RML1060115449.1.2.0,Phases=2,Linecode=CABBTG05_4_2,Length=0.017000000,Units=km
new line.RML10117279 bus1=BBT1712527.1.2.0,bus2=RML1060117279.1.2.0,Phases=2,Linecode=CABBTG05_4_2,Length=0.010000000,Units=km
new line.RML10117384 bus1=BBT1735298.1.2.0,bus2=RML1060117384.1.2.0,Phases=2,Linecode=CABBTG05_4_2,Length=0.025000000,Units=km
new line.RML10127229 bus1=BBT1856832.1.2.3.0,bus2=RML1060127229.1.2.3.0,Phases=3,Linecode=CABBTG12_4_3,Length=0.017000000,Units=km
new line.RML10127356 bus1=BBT1732876.1.2.0,bus2=RML1060127356.1.2.0,Phases=2,Linecode=CABBTG05_4_2,Length=0.017000000,Units=km
new line.RML10128785 bus1=BBT1714536.1.2.0,bus2=RML1060128785.1.2.0,Phases=2,Linecode=CABBTG05_4_2,Length=0.010000000,Units=km
new line.RML10129842 bus1=BBT2263168.1.2.0,bus2=RML1060129842.1.2.0,Phases=2,Linecode=CABBTG05_4_2,Length=0.008000000,Units=km
new line.RML10129853 bus1=BBT1714550.1.2.0,bus2=RML1060129853.1.2.0,Phases=2,Linecode=CABBTG05_4_2,Length=0.020000000,Units=km
new line.RML10129971 bus1=BBT1724483.1.2.3.0,bus2=RML1060129971.1.2.3.0,Phases=3,Linecode=CABBT815_4_3,Length=0.013000000,Units=km
new line.RML10129976 bus1=BBT1727654.1.2.3.0,bus2=RML1060129976.1.2.3.0,Phases=3,Linecode=CABBT815_4_3,Length=0.010000000,Units=km
new line.RML10132997 bus1=BBT1734549.1.2.0,bus2=RML1060132997.1.2.0,Phases=2,Linecode=CABBTG05_4_2,Length=0.017000000,Units=km
new line.RML10133000 bus1=BBT1734759.1.2.0,bus2=RML1060133000.1.2.0,Phases=2,Linecode=CABBTG05_4_2,Length=0.017000000,Units=km
new line.RML10133034 bus1=BBT1734458.1.0,bus2=RML1060133034.1.0,Phases=1,Linecode=CABBTG02_4_1,Length=0.017000000,Units=km
new line.RML10138062 bus1=BBT1722950.3.0,bus2=RML1060138062.3.0,Phases=1,Linecode=CABBTG02_4_1,Length=0.016000000,Units=km
new line.RML10146919 bus1=BBT1723573.1.2.0,bus2=RML1060146919.1.2.0,Phases=2,Linecode=CABBTG05_4_2,Length=0.017000000,Units=km
new line.RML10147189 bus1=BBT1732078.1.0,bus2=RML1060147189.1.0,Phases=1,Linecode=CABBTG02_4_1,Length=0.017000000,Units=km
new line.RML10147192 bus1=BBT1732785.1.0,bus2=RML1060147192.1.0,Phases=1,Linecode=CABBTG01_4_1,Length=0.017000000,Units=km
new line.RML10147194 bus1=BBT1737062.1.0,bus2=RML1060147194.1.0,Phases=1,Linecode=CABBTG01_4_1,Length=0.017000000,Units=km
new line.RML10147198 bus1=BBT1720619.1.2.0,bus2=RML1060147198.1.2.0,Phases=2,Linecode=CABBTG04_4_2,Length=0.017000000,Units=km
new line.RML10147204 bus1=BBT1730846.2.0,bus2=RML1060147204.2.0,Phases=1,Linecode=CABBTG02_4_1,Length=0.017000000,Units=km
new line.RML10151811 bus1=BBT5237419.1.2.0,bus2=RML1060151811.1.2.0,Phases=2,Linecode=CABBTG05_4_2,Length=0.017000000,Units=km
new line.RML10151850 bus1=BBT139981230.1.3.0,bus2=RML1060151850.1.3.0,Phases=2,Linecode=CABBTG05_4_2,Length=0.017000000,Units=km
new line.RML10151969 bus1=BBT146930907.1.2.0,bus2=RML1060151969.1.2.0,Phases=2,Linecode=CABBTG05_4_2,Length=0.012000000,Units=km
new line.RML10152265 bus1=BBT2262762.1.2.0,bus2=RML1060152265.1.2.0,Phases=2,Linecode=CABBTG05_4_2,Length=0.017000000,Units=km
new line.RML10152429 bus1=BBT1720129.1.2.0,bus2=RML1060152429.1.2.0,Phases=2,Linecode=CABBTG05_4_2,Length=0.017000000,Units=km
new line.RML10152447 bus1=BBT1732631.1.2.0,bus2=RML1060152447.1.2.0,Phases=2,Linecode=CABBTG05_4_2,Length=0.022000000,Units=km
new line.RML10152483 bus1=BBT1726296.3.0,bus2=RML1060152483.3.0,Phases=1,Linecode=CABBTG01_4_1,Length=0.006000000,Units=km
new line.RML10152509 bus1=BBT148406337.1.2.0,bus2=RML1060152509.1.2.0,Phases=2,Linecode=CABBTG05_4_2,Length=0.017000000,Units=km
new line.RML10152513 bus1=BBT1740737.1.2.0,bus2=RML1060152513.1.2.0,Phases=2,Linecode=CABBTG05_4_2,Length=0.007000000,Units=km
new line.RML10152524 bus1=BBT1715712.1.2.0,bus2=RML1060152524.1.2.0,Phases=2,Linecode=CABBTG05_4_2,Length=0.011000000,Units=km
new line.RML10152530 bus1=BBT2696237.1.0,bus2=RML1060152530.1.0,Phases=1,Linecode=CABBTG02_4_1,Length=0.008000000,Units=km
new line.RML10158624 bus1=BBT1714914.1.2.0,bus2=RML1060158624.1.2.0,Phases=2,Linecode=CABBTG05_4_2,Length=0.017000000,Units=km
new line.RML10158794 bus1=BBT1718834.1.2.0,bus2=RML1060158794.1.2.0,Phases=2,Linecode=CABBTG05_4_2,Length=0.017000000,Units=km
new line.RML10158809 bus1=BBT3903499.1.2.0,bus2=RML1060158809.1.2.0,Phases=2,Linecode=CABBTG05_4_2,Length=0.017000000,Units=km
new line.RML10158818 bus1=BBT3743542.1.2.0,bus2=RML1060158818.1.2.0,Phases=2,Linecode=CABBTG05_4_2,Length=0.017000000,Units=km
new line.RML10158911 bus1=BBT3669797.1.2.0,bus2=RML1060158911.1.2.0,Phases=2,Linecode=CABBTG05_4_2,Length=0.017000000,Units=km
new line.RML10158925 bus1=BBT3882800.1.2.0,bus2=RML1060158925.1.2.0,Phases=2,Linecode=CABBTG05_4_2,Length=0.017000000,Units=km
new line.RML10158940 bus1=BBT3376154.1.2.0,bus2=RML1060158940.1.2.0,Phases=2,Linecode=CABBTG05_4_2,Length=0.017000000,Units=km
new line.RML10159231 bus1=BBT3022458.1.2.0,bus2=RML1060159231.1.2.0,Phases=2,Linecode=CABBTG05_4_2,Length=0.017000000,Units=km
new line.RML10162330 bus1=BBT2696314.1.2.0,bus2=RML1060162330.1.2.0,Phases=2,Linecode=CABBTG05_4_2,Length=0.017000000,Units=km
new line.RML10162675 bus1=BBT2262601.1.2.0,bus2=RML1060162675.1.2.0,Phases=2,Linecode=CABBTG05_4_2,Length=0.015000000,Units=km
new line.RML10162697 bus1=BBT2518990.1.2.0,bus2=RML1060162697.1.2.0,Phases=2,Linecode=CABBTG05_4_2,Length=0.017000000,Units=km
new line.RML10162787 bus1=BBT1734696.1.2.0,bus2=RML1060162787.1.2.0,Phases=2,Linecode=CABBTG05_4_2,Length=0.017000000,Units=km
new line.RML10162818 bus1=BBT1710308.1.2.0,bus2=RML1060162818.1.2.0,Phases=2,Linecode=CABBTG05_4_2,Length=0.017000000,Units=km
new line.RML10162820 bus1=BBT1710308.1.2.0,bus2=RML1060162820.1.2.0,Phases=2,Linecode=CABBTG05_4_2,Length=0.017000000,Units=km
new line.RML10162821 bus1=BBT10884426.1.2.0,bus2=RML1060162821.1.2.0,Phases=2,Linecode=CABBTG05_4_2,Length=0.017000000,Units=km
new line.RML10162823 bus1=BBT10884426.1.2.0,bus2=RML1060162823.1.2.0,Phases=2,Linecode=CABBTG05_4_2,Length=0.017000000,Units=km
new line.RML10162825 bus1=BBT1733317.1.2.0,bus2=RML1060162825.1.2.0,Phases=2,Linecode=CABBTG05_4_2,Length=0.017000000,Units=km
new line.RML10162857 bus1=BBT1723650.1.2.0,bus2=RML1060162857.1.2.0,Phases=2,Linecode=CABBTG05_4_2,Length=0.017000000,Units=km
new line.RML10162863 bus1=BBT1723650.1.2.0,bus2=RML1060162863.1.2.0,Phases=2,Linecode=CABBTG05_4_2,Length=0.017000000,Units=km
new line.RML10162881 bus1=BBT1712282.1.2.0,bus2=RML1060162881.1.2.0,Phases=2,Linecode=CABBTG05_4_2,Length=0.017000000,Units=km
new line.RML10164149 bus1=BBT1720696.1.2.0,bus2=RML1060164149.1.2.0,Phases=2,Linecode=CABBTG05_4_2,Length=0.017000000,Units=km
new line.RML10164192 bus1=BBT2287262.1.2.0,bus2=RML1060164192.1.2.0,Phases=2,Linecode=CABBTG05_4_2,Length=0.017000000,Units=km
new line.RML10164193 bus1=BBT148406253.1.0,bus2=RML1060164193.1.0,Phases=1,Linecode=CABBTG02_4_1,Length=0.017000000,Units=km
new line.RML10164204 bus1=BBT2262853.2.3.0,bus2=RML1060164204.2.3.0,Phases=2,Linecode=CABBTG05_4_2,Length=0.017000000,Units=km
new line.RML10164387 bus1=BBT1730279.1.2.0,bus2=RML1060164387.1.2.0,Phases=2,Linecode=CABBTG05_4_2,Length=0.017000000,Units=km
new line.RML10168421 bus1=BBT1713416.1.0,bus2=RML1060168421.1.0,Phases=1,Linecode=CABBTG02_4_1,Length=0.017000000,Units=km
new line.RML10168425 bus1=BBT1723573.1.2.0,bus2=RML1060168425.1.2.0,Phases=2,Linecode=CABBTG05_4_2,Length=0.017000000,Units=km
new line.RML10168432 bus1=BBT1730188.1.2.0,bus2=RML1060168432.1.2.0,Phases=2,Linecode=CABBTG05_4_2,Length=0.017000000,Units=km
new line.RML10168440 bus1=BBT1730531.1.2.0,bus2=RML1060168440.1.2.0,Phases=2,Linecode=CABBTG05_4_2,Length=0.017000000,Units=km
new line.RML10168445 bus1=BBT1713934.1.0,bus2=RML1060168445.1.0,Phases=1,Linecode=CABBTG02_4_1,Length=0.017000000,Units=km
new line.RML10168448 bus1=BBT2366397.1.2.0,bus2=RML1060168448.1.2.0,Phases=2,Linecode=CABBTG05_4_2,Length=0.017000000,Units=km
new line.RML10171777 bus1=BBT1730531.1.3.0,bus2=RML1060171777.1.3.0,Phases=2,Linecode=CABBTG05_4_2,Length=0.017000000,Units=km
new line.RML10171790 bus1=BBT1728179.1.0,bus2=RML1060171790.1.0,Phases=1,Linecode=CABBTG01_4_1,Length=0.017000000,Units=km
new line.RML10171792 bus1=BBT1730181.1.2.0,bus2=RML1060171792.1.2.0,Phases=2,Linecode=CABBTG04_4_2,Length=0.017000000,Units=km
new line.RML10171803 bus1=BBT1713507.1.2.3.0,bus2=RML1060171803.1.2.3.0,Phases=3,Linecode=CABBTG06_4_3,Length=0.017000000,Units=km
new line.RML10173035 bus1=BBT147980956.1.0,bus2=RML1060173035.1.0,Phases=1,Linecode=CABBTG02_4_1,Length=0.017000000,Units=km
new line.RML10174166 bus1=BBT1720619.1.2.0,bus2=RML1060174166.1.2.0,Phases=2,Linecode=CABBTG05_4_2,Length=0.006000000,Units=km
new line.RML10174220 bus1=BBT3155500.1.0,bus2=RML1060174220.1.0,Phases=1,Linecode=CABBTG01_4_1,Length=0.012000000,Units=km
new line.RML10174737 bus1=BBT2180400.1.2.0,bus2=RML1060174737.1.2.0,Phases=2,Linecode=CABBTG05_4_2,Length=0.012000000,Units=km
new line.RML10174764 bus1=BBT1735921.1.0,bus2=RML1060174764.1.0,Phases=1,Linecode=CABBTG02_4_1,Length=0.008000000,Units=km
new line.RML10175914 bus1=BBT2200861.1.2.0,bus2=RML1060175914.1.2.0,Phases=2,Linecode=CABBTG05_4_2,Length=0.017000000,Units=km
new line.RML10176041 bus1=BBT1719793.1.2.3.0,bus2=RML1060176041.1.2.3.0,Phases=3,Linecode=CABBTG06_4_3,Length=0.017000000,Units=km
new line.RML10177650 bus1=BBT1713465.1.2.0,bus2=RML1060177650.1.2.0,Phases=2,Linecode=CABBTG05_4_2,Length=0.017000000,Units=km
new line.RML10177864 bus1=BBT1715572.1.2.0,bus2=RML1060177864.1.2.0,Phases=2,Linecode=CABBTG05_4_2,Length=0.017000000,Units=km
new line.RML10177926 bus1=BBT1724707.1.2.0,bus2=RML1060177926.1.2.0,Phases=2,Linecode=CABBTG05_4_2,Length=0.017000000,Units=km
new line.RML10177933 bus1=BBT133078145.1.0,bus2=RML1060177933.1.0,Phases=1,Linecode=CABBTG02_4_1,Length=0.017000000,Units=km
new line.RML10178244 bus1=BBT1720192.1.2.0,bus2=RML1060178244.1.2.0,Phases=2,Linecode=CABBTG05_4_2,Length=0.017000000,Units=km
new line.RML10178920 bus1=BBT149867476.2.3.0,bus2=RML1060178920.2.3.0,Phases=2,Linecode=CABBTG05_4_2,Length=0.017000000,Units=km
new line.RML10184864 bus1=BBT1710252.1.2.0,bus2=RML1060184864.1.2.0,Phases=2,Linecode=CABBTG05_4_2,Length=0.017000000,Units=km
new line.RML10184904 bus1=BBT1729859.1.2.3.0,bus2=RML1060184904.1.2.3.0,Phases=3,Linecode=CABBTG06_4_3,Length=0.017000000,Units=km
new line.RML10184943 bus1=BBT1733464.1.0,bus2=RML1060184943.1.0,Phases=1,Linecode=CABBTG01_4_1,Length=0.017000000,Units=km
new line.RML10184951 bus1=BBT1731413.1.2.3.0,bus2=RML1060184951.1.2.3.0,Phases=3,Linecode=CABBTG06_4_3,Length=0.017000000,Units=km
new line.RML10185045 bus1=BBT149867476.1.2.0,bus2=RML1060185045.1.2.0,Phases=2,Linecode=CABBTG05_4_2,Length=0.017000000,Units=km
new line.RML10185048 bus1=BBT149865542.1.2.3.0,bus2=RML1060185048.1.2.3.0,Phases=3,Linecode=CABBTG06_4_3,Length=0.017000000,Units=km
new line.RML10185050 bus1=BBT1726051.1.2.3.0,bus2=RML1060185050.1.2.3.0,Phases=3,Linecode=CABBTG06_4_3,Length=0.017000000,Units=km
new line.RML10185268 bus1=BBT1719107.1.2.0,bus2=RML1060185268.1.2.0,Phases=2,Linecode=CABBTG05_4_2,Length=0.017000000,Units=km
new line.RML10185271 bus1=BBT1735578.2.0,bus2=RML1060185271.2.0,Phases=1,Linecode=CABBTG02_4_1,Length=0.017000000,Units=km
new line.RML10185405 bus1=BBT1716272.1.2.0,bus2=RML1060185405.1.2.0,Phases=2,Linecode=CABBTG05_4_2,Length=0.017000000,Units=km
new line.RML10185411 bus1=BBT1716300.1.2.0,bus2=RML1060185411.1.2.0,Phases=2,Linecode=CABBTG05_4_2,Length=0.017000000,Units=km
new line.RML10185840 bus1=BBT3566393.1.0,bus2=RML1060185840.1.0,Phases=1,Linecode=CABBTG01_4_1,Length=0.017000000,Units=km
new line.RML10190979 bus1=BBT2366390.1.2.0,bus2=RML1060190979.1.2.0,Phases=2,Linecode=CABBTG05_4_2,Length=0.017000000,Units=km
new line.RML10191958 bus1=BBT1743376.1.2.0,bus2=RML1060191958.1.2.0,Phases=2,Linecode=CABBTG05_4_2,Length=0.017000000,Units=km
new line.RML10191968 bus1=BBT1719870.2.3.0,bus2=RML1060191968.2.3.0,Phases=2,Linecode=CABBTG05_4_2,Length=0.017000000,Units=km
new line.RML10191976 bus1=BBT2180428.1.0,bus2=RML1060191976.1.0,Phases=1,Linecode=CABBTG02_4_1,Length=0.017000000,Units=km
new line.RML10197523 bus1=BBT2717881.1.0,bus2=RML1060197523.1.0,Phases=1,Linecode=CABBTG02_4_1,Length=0.017000000,Units=km
new line.RML10197582 bus1=BBT1729817.1.2.0,bus2=RML1060197582.1.2.0,Phases=2,Linecode=CABBTG05_4_2,Length=0.017000000,Units=km
new line.RML10210167 bus1=BBT1734150.1.2.0,bus2=RML1060210167.1.2.0,Phases=2,Linecode=CABBTG05_4_2,Length=0.017000000,Units=km
new line.RML10210172 bus1=BBT1741745.1.2.0,bus2=RML1060210172.1.2.0,Phases=2,Linecode=CABBTG05_4_2,Length=0.017000000,Units=km
new line.RML10210295 bus1=BBT1729397.1.2.0,bus2=RML1060210295.1.2.0,Phases=2,Linecode=CABBTG05_4_2,Length=0.017000000,Units=km
new line.RML10210299 bus1=BBT2696279.1.2.0,bus2=RML1060210299.1.2.0,Phases=2,Linecode=CABBTG05_4_2,Length=0.017000000,Units=km
new line.RML10210311 bus1=BBT1721893.1.2.0,bus2=RML1060210311.1.2.0,Phases=2,Linecode=CABBTG05_4_2,Length=0.017000000,Units=km
new line.RML10210452 bus1=BBT1714935.1.2.0,bus2=RML1060210452.1.2.0,Phases=2,Linecode=CABBTG05_4_2,Length=0.017000000,Units=km
new line.RML10210465 bus1=BBT1725701.1.2.0,bus2=RML1060210465.1.2.0,Phases=2,Linecode=CABBTG05_4_2,Length=0.017000000,Units=km
new line.RML10210476 bus1=BBT1717826.1.2.0,bus2=RML1060210476.1.2.0,Phases=2,Linecode=CABBTG05_4_2,Length=0.017000000,Units=km
new line.RML10210481 bus1=BBT2180365.1.0,bus2=RML1060210481.1.0,Phases=1,Linecode=CABBTG02_4_1,Length=0.017000000,Units=km