new line.TR12115174 bus1=BMT171572972.1.2.3,bus2=BMT1672543B.1.2.3,Phases=3,Linecode=CAB103_3_3,Length=0.028867000,Units=km
new line.TR12115178 bus1=BMT148341697.1.2.3,bus2=BMT122067635.1.2.3,Phases=3,Linecode=CAB103_3_3,Length=0.061304000,Units=km
new line.TR12143492 bus1=BMT1668693B.1.2.3,bus2=BMT8738190B.1.2.3,Phases=3,Linecode=CAB103_3_3,Length=0.029160000,Units=km
new line.TR12143493 bus1=BMT1668700B.1.2.3,bus2=BMT8738190B.1.2.3,Phases=3,Linecode=CAB103_3_3,Length=0.007617000,Units=km
new line.TR12143670 bus1=BMT170124458.3,bus2=BMT170124460.3,Phases=1,Linecode=CAB103_3_1,Length=0.036721000,Units=km
new line.TR12160037 bus1=BMT153058645.1.2.3,bus2=BMT8443609B.1.2.3,Phases=3,Linecode=CABA06_3_3,Length=0.049051000,Units=km
new line.TR12160038 bus1=BMT8443609B.1.2.3,bus2=BMT8443749B.1.2.3,Phases=3,Linecode=CABA06_3_3,Length=0.044191000,Units=km
new line.TR12160039 bus1=BMT8443749B.1.2.3,bus2=BMT8756230B.1.2.3,Phases=3,Linecode=CABA06_3_3,Length=0.025715000,Units=km
new line.TR12160040 bus1=BMT8756230B.1.2.3,bus2=BMT149866048.1.2.3,Phases=3,Linecode=CABA06_3_3,Length=0.037223000,Units=km
new line.TR12160041 bus1=BMT149867368.1.2.3,bus2=BMT8756236B.1.2.3,Phases=3,Linecode=CABA06_3_3,Length=0.033248000,Units=km
new line.TR12160047 bus1=BMT8756236B.1.2.3,bus2=BMT8756285B.1.2.3,Phases=3,Linecode=CABA06_3_3,Length=0.043941000,Units=km
new line.TR12160048 bus1=BMT8756285B.1.2.3,bus2=BMT8756289B.1.2.3,Phases=3,Linecode=CABA06_3_3,Length=0.045131000,Units=km
new line.TR12160049 bus1=BMT8756289B.1.2.3,bus2=BMT149867369.1.2.3,Phases=3,Linecode=CABA06_3_3,Length=0.040270000,Units=km
new line.TR12160050 bus1=BMT149867369.1.2.3,bus2=BMT8756303B.1.2.3,Phases=3,Linecode=CABA06_3_3,Length=0.040862000,Units=km
new line.TR12160051 bus1=BMT8756303B.1.2.3,bus2=BMT149865966.1.2.3,Phases=3,Linecode=CABA06_3_3,Length=0.038634000,Units=km
new line.TR12160058 bus1=BMT149885954.1.2.3,bus2=BMT8756310B.1.2.3,Phases=3,Linecode=CABA06_3_3,Length=0.021005000,Units=km
new line.TR12160059 bus1=BMT8756310B.1.2.3,bus2=BMT8756316B.1.2.3,Phases=3,Linecode=CABA06_3_3,Length=0.029161000,Units=km
new line.TR12160060 bus1=BMT8756316B.1.2.3,bus2=BMT149885955.1.2.3,Phases=3,Linecode=CABA06_3_3,Length=0.040862000,Units=km
new line.TR12160061 bus1=BMT149885955.1.2.3,bus2=BMT8756352B.1.2.3,Phases=3,Linecode=CABA06_3_3,Length=0.030469000,Units=km
new line.TR12160067 bus1=BMT8756352B.1.2.3,bus2=BMT8756357B.1.2.3,Phases=3,Linecode=CABA06_3_3,Length=0.040616000,Units=km
new line.TR12160068 bus1=BMT8756357B.1.2.3,bus2=BMT8756360B.1.2.3,Phases=3,Linecode=CABA06_3_3,Length=0.025812000,Units=km
new line.TR12160069 bus1=BMT8756360B.1.2.3,bus2=BMT8756361B.1.2.3,Phases=3,Linecode=CABA06_3_3,Length=0.039416000,Units=km
new line.TR12160070 bus1=BMT8756361B.1.2.3,bus2=BMT8756362B.1.2.3,Phases=3,Linecode=CABA06_3_3,Length=0.045231000,Units=km
new line.TR12160071 bus1=BMT8756362B.1.2.3,bus2=BMT149885956.1.2.3,Phases=3,Linecode=CABA06_3_3,Length=0.035812000,Units=km
new line.TR12160079 bus1=BMT149885955.1.2.3,bus2=BMT8756321B.1.2.3,Phases=3,Linecode=CABA06_3_3,Length=0.009489000,Units=km
new line.TR12160080 bus1=BMT8756321B.1.2.3,bus2=BMT8756322B.1.2.3,Phases=3,Linecode=CABA06_3_3,Length=0.036627000,Units=km
new line.TR12160081 bus1=BMT8756322B.1.2.3,bus2=BMT8756323B.1.2.3,Phases=3,Linecode=CABA06_3_3,Length=0.035007000,Units=km
new line.TR12160082 bus1=BMT8756323B.1.2.3,bus2=BMT8756324B.1.2.3,Phases=3,Linecode=CABA06_3_3,Length=0.039669000,Units=km
new line.TR12160083 bus1=BMT8756324B.1.2.3,bus2=BMT149885957.1.2.3,Phases=3,Linecode=CABA06_3_3,Length=0.036627000,Units=km
new line.TR12160095 bus1=BMT149865966.1.2.3,bus2=BMT149866346.1.2.3,Phases=3,Linecode=CABA06_3_3,Length=0.044954000,Units=km
new line.TR12160096 bus1=BMT156837812.1.2.3,bus2=BMT8756459B.1.2.3,Phases=3,Linecode=CABA06_3_3,Length=0.037598000,Units=km
new line.TR12160097 bus1=BMT8756459B.1.2.3,bus2=BMT8756505B.1.2.3,Phases=3,Linecode=CABA06_3_3,Length=0.044111000,Units=km
new line.TR12160098 bus1=BMT8756505B.1.2.3,bus2=BMT8756510B.1.2.3,Phases=3,Linecode=CABA06_3_3,Length=0.043275000,Units=km
new line.TR12160099 bus1=BMT8756510B.1.2.3,bus2=BMT8756513B.1.2.3,Phases=3,Linecode=CABA06_3_3,Length=0.041349000,Units=km
new line.TR12160103 bus1=BMT8756513B.1.2.3,bus2=BMT156837813.1.2.3,Phases=3,Linecode=CABA06_3_3,Length=0.041239000,Units=km
new line.TR12160104 bus1=BMT156837813.1.2.3,bus2=BMT8756529B.1.2.3,Phases=3,Linecode=CABA06_3_3,Length=0.022808000,Units=km
new line.TR12160105 bus1=BMT8756529B.1.2.3,bus2=BMT156837814.1.2.3,Phases=3,Linecode=CABA06_3_3,Length=0.043667000,Units=km
new line.TR12160111 bus1=BMT156837815.1.2.3,bus2=BMT8756519B.1.2.3,Phases=3,Linecode=CABA06_3_3,Length=0.042494000,Units=km
new line.TR12160112 bus1=BMT8756519B.1.2.3,bus2=BMT8756525B.1.2.3,Phases=3,Linecode=CABA06_3_3,Length=0.020104000,Units=km
new line.TR12160113 bus1=BMT8756525B.1.2.3,bus2=BMT156837816.1.2.3,Phases=3,Linecode=CABA06_3_3,Length=0.023264000,Units=km
new line.TR12160114 bus1=BMT156837816.1.2.3,bus2=BMT156837817.1.2.3,Phases=3,Linecode=CABA06_3_3,Length=0.044416000,Units=km
new line.TR12160124 bus1=BMT156837816.1.2.3,bus2=BMT8756500B.1.2.3,Phases=3,Linecode=CABA06_3_3,Length=0.018389000,Units=km
new line.TR12160125 bus1=BMT8756500B.1.2.3,bus2=BMT8756549B.1.2.3,Phases=3,Linecode=CABA06_3_3,Length=0.041686000,Units=km
new line.TR12160126 bus1=BMT8756549B.1.2.3,bus2=BMT156837818.1.2.3,Phases=3,Linecode=CABA06_3_3,Length=0.043090000,Units=km
new line.TR12160127 bus1=BMT156837818.1.2.3,bus2=BMT8756552B.1.2.3,Phases=3,Linecode=CABA06_3_3,Length=0.037704000,Units=km
new line.TR12160131 bus1=BMT8756552B.1.2.3,bus2=BMT8756553B.1.2.3,Phases=3,Linecode=CABA06_3_3,Length=0.039008000,Units=km
new line.TR12160136 bus1=BMT8756553B.1.2.3,bus2=BMT156837819.1.2.3,Phases=3,Linecode=CABA06_3_3,Length=0.023775000,Units=km
new line.TR12160141 bus1=BMT156837818.1.2.3,bus2=BMT8756567B.1.2.3,Phases=3,Linecode=CABA06_3_3,Length=0.009851000,Units=km
new line.TR12160142 bus1=BMT8756567B.1.2.3,bus2=BMT8756566B.1.2.3,Phases=3,Linecode=CABA06_3_3,Length=0.047105000,Units=km
new line.TR12160143 bus1=BMT8756566B.1.2.3,bus2=BMT8756565B.1.2.3,Phases=3,Linecode=CABA06_3_3,Length=0.048176000,Units=km
new line.TR12160144 bus1=BMT8756565B.1.2.3,bus2=BMT156837820.1.2.3,Phases=3,Linecode=CABA06_3_3,Length=0.039858000,Units=km
new line.TR12197787 bus1=BMT159295050.3,bus2=BMT8799187B.3,Phases=1,Linecode=CAB102_3_1,Length=0.029160000,Units=km
new line.TR12197788 bus1=BMT8799187B.3,bus2=BMT159295051.3,Phases=1,Linecode=CAB102_3_1,Length=0.051633000,Units=km
new line.TR12209663 bus1=BMT159295042.3,bus2=BMT159295043.3,Phases=1,Linecode=CAB202_3_1,Length=0.132764000,Units=km
new line.TR12209664 bus1=BMT159295043.3,bus2=BMT159295044.3,Phases=1,Linecode=CAB202_3_1,Length=0.100517000,Units=km
new line.TR12109337 bus1=BMT148132449.3,bus2=BMT148085090.3,Phases=1,Linecode=CAB102_3_1,Length=0.015234000,Units=km
new line.TR12109338 bus1=BMT148085123.3,bus2=BMT148085124.3,Phases=1,Linecode=CAB102_3_1,Length=0.015559000,Units=km
new line.TR12109360 bus1=BMT148132452.3,bus2=BMT148086250.3,Phases=1,Linecode=CAB202_3_1,Length=0.043006000,Units=km
new line.TR12109361 bus1=BMT148086547.3,bus2=BMT148086548.3,Phases=1,Linecode=CAB202_3_1,Length=0.025004000,Units=km
new line.TR12129098 bus1=BMT159318771.3,bus2=BMT8722814B.3,Phases=1,Linecode=CAB103_3_1,Length=0.052211000,Units=km
new line.TR12129099 bus1=BMT8722814B.3,bus2=BMT8722815B.3,Phases=1,Linecode=CAB103_3_1,Length=0.060756000,Units=km
new line.TR12129100 bus1=BMT8722815B.3,bus2=BMT8722816B.3,Phases=1,Linecode=CAB103_3_1,Length=0.060682000,Units=km
new line.TR12129101 bus1=BMT8722816B.3,bus2=BMT159318773.3,Phases=1,Linecode=CAB103_3_1,Length=0.060310000,Units=km
new line.TR12190073 bus1=BMT151139452.1,bus2=BMT1653797B.1,Phases=1,Linecode=CABA06_3_1,Length=0.025323000,Units=km
new line.TR12190075 bus1=BMT1653797B.1,bus2=BMT1653790B.1,Phases=1,Linecode=CABA06_3_1,Length=0.040033000,Units=km
new line.TR12190077 bus1=BMT1653790B.1,bus2=BMT1653776B.1,Phases=1,Linecode=CABA06_3_1,Length=0.037343000,Units=km
new line.TR12190080 bus1=BMT1653776B.1,bus2=BMT1653762B.1,Phases=1,Linecode=CABA06_3_1,Length=0.040812000,Units=km
new line.TR12190081 bus1=BMT1653762B.1,bus2=BMT2991504B.1,Phases=1,Linecode=CABA06_3_1,Length=0.034792000,Units=km
new line.TR12190082 bus1=BMT2991504B.1,bus2=BMT151139454.1,Phases=1,Linecode=CABA06_3_1,Length=0.035121000,Units=km
new line.TR12242680 bus1=BMT2080181B.2,bus2=BMT159003661.2,Phases=1,Linecode=CAB202_3_1,Length=0.060934000,Units=km
new line.TR12242681 bus1=BMT2080188B.2,bus2=BMT159003661.2,Phases=1,Linecode=CAB202_3_1,Length=0.014320000,Units=km
new line.TR12242682 bus1=BMT159003661.2,bus2=BMT8844381B.2,Phases=1,Linecode=CAB103_3_1,Length=0.056443000,Units=km
new line.TR12242683 bus1=BMT8844381B.2,bus2=BMT159003662.2,Phases=1,Linecode=CAB103_3_1,Length=0.063254000,Units=km
new line.TR12242700 bus1=BMT169888159.3,bus2=BMT169888161.3,Phases=1,Linecode=CAB202_3_1,Length=0.209424000,Units=km
new line.TR12244447 bus1=BMT169601509.3,bus2=BMT8846031B.3,Phases=1,Linecode=CAB103_3_1,Length=0.044561000,Units=km
new line.TR12244448 bus1=BMT8846031B.3,bus2=BMT169601512.3,Phases=1,Linecode=CAB103_3_1,Length=0.059826000,Units=km
new line.TR12323800 bus1=BMT2442536B.1,bus2=BMT155664136.1,Phases=1,Linecode=CAB202_3_1,Length=0.045547000,Units=km
new line.TR12323801 bus1=BMT155664136.1,bus2=BMT155664137.1,Phases=1,Linecode=CAB202_3_1,Length=0.161296000,Units=km
new line.TR12323803 bus1=BMT155665985.1,bus2=BMT8924796B.1,Phases=1,Linecode=CAB202_3_1,Length=0.132534000,Units=km
new line.TR12323806 bus1=BMT8924796B.1,bus2=BMT8924797B.1,Phases=1,Linecode=CAB202_3_1,Length=0.072906000,Units=km
new line.TR12323809 bus1=BMT8924797B.1,bus2=BMT155665986.1,Phases=1,Linecode=CAB202_3_1,Length=0.138588000,Units=km
new line.TR12323810 bus1=BMT155665986.1,bus2=BMT8924803B.1,Phases=1,Linecode=CAB103_3_1,Length=0.069902000,Units=km
new line.TR12323814 bus1=BMT8924803B.1,bus2=BMT8924807B.1,Phases=1,Linecode=CAB103_3_1,Length=0.027022000,Units=km
new line.TR12323815 bus1=BMT8924807B.1,bus2=BMT8924808B.1,Phases=1,Linecode=CAB103_3_1,Length=0.064506000,Units=km
new line.TR12323816 bus1=BMT8924808B.1,bus2=BMT8924809B.1,Phases=1,Linecode=CAB103_3_1,Length=0.029210000,Units=km
new line.TR12323818 bus1=BMT8924809B.1,bus2=BMT8924811B.1,Phases=1,Linecode=CAB103_3_1,Length=0.019029000,Units=km
new line.TR12323820 bus1=BMT8924811B.1,bus2=BMT8924812B.1,Phases=1,Linecode=CAB103_3_1,Length=0.024087000,Units=km
new line.TR12323822 bus1=BMT8924812B.1,bus2=BMT8924813B.1,Phases=1,Linecode=CAB103_3_1,Length=0.048100000,Units=km
new line.TR12323827 bus1=BMT8924813B.1,bus2=BMT8924814B.1,Phases=1,Linecode=CAB103_3_1,Length=0.039565000,Units=km
new line.TR12323830 bus1=BMT8924814B.1,bus2=BMT8924815B.1,Phases=1,Linecode=CAB103_3_1,Length=0.059041000,Units=km
new line.TR12323831 bus1=BMT8924815B.1,bus2=BMT155665987.1,Phases=1,Linecode=CAB103_3_1,Length=0.052780000,Units=km
new line.TR12323833 bus1=BMT155665987.1,bus2=BMT8924818B.1,Phases=1,Linecode=CAB202_3_1,Length=0.132440000,Units=km
new line.TR12323848 bus1=BMT8924818B.1,bus2=BMT8924839B.1,Phases=1,Linecode=CAB202_3_1,Length=0.095096000,Units=km
new line.TR12323849 bus1=BMT8924839B.1,bus2=BMT8924840B.1,Phases=1,Linecode=CAB202_3_1,Length=0.087103000,Units=km
new line.TR12323852 bus1=BMT8924840B.1,bus2=BMT8924842B.1,Phases=1,Linecode=CAB202_3_1,Length=0.069579000,Units=km
new line.TR12323854 bus1=BMT8924842B.1,bus2=BMT8924843B.1,Phases=1,Linecode=CAB202_3_1,Length=0.119488000,Units=km
new line.TR12323855 bus1=BMT8924843B.1,bus2=BMT155665988.1,Phases=1,Linecode=CAB202_3_1,Length=0.197763000,Units=km
new line.TR12326348 bus1=BMT1657220B.1.2.3,bus2=BMT155752340.1.2.3,Phases=3,Linecode=CAB102_3_3,Length=0.028641000,Units=km
new line.TR12326349 bus1=BMT155752340.1.2.3,bus2=BMT1657213B.1.2.3,Phases=3,Linecode=CAB102_3_3,Length=0.007618000,Units=km
new line.TR12326383 bus1=BMT155752340.1.2.3,bus2=BMT8927364B.1.2.3,Phases=3,Linecode=CABA06_3_3,Length=0.040257000,Units=km
new line.TR12326384 bus1=BMT8927364B.1.2.3,bus2=BMT8927367B.1.2.3,Phases=3,Linecode=CABA06_3_3,Length=0.030812000,Units=km
new line.TR12326385 bus1=BMT8927367B.1.2.3,bus2=BMT8927369B.1.2.3,Phases=3,Linecode=CABA06_3_3,Length=0.038020000,Units=km
new line.TR12326386 bus1=BMT8927369B.1.2.3,bus2=BMT8927374B.1.2.3,Phases=3,Linecode=CABA06_3_3,Length=0.025617000,Units=km
new line.TR12326387 bus1=BMT8927374B.1.2.3,bus2=BMT155752342.1.2.3,Phases=3,Linecode=CABA06_3_3,Length=0.025461000,Units=km
new line.TR12327197 bus1=BMT159010961.3,bus2=BMT159010964.3,Phases=1,Linecode=CAB202_3_1,Length=0.060913000,Units=km
new line.TR12651871 bus1=BMT2433667B.2,bus2=BMT168113241.2,Phases=1,Linecode=CAB202_3_1,Length=0.084494000,Units=km
new line.TR12651872 bus1=BMT168113241.2,bus2=BMT168113242.2,Phases=1,Linecode=CAB202_3_1,Length=0.132873000,Units=km
new line.TR12651875 bus1=BMT168113241.2,bus2=BMT168113243.2,Phases=1,Linecode=CAB202_3_1,Length=0.154348000,Units=km
new line.TR12714966 bus1=BMT170187810.2,bus2=BMT9322632B.2,Phases=1,Linecode=CAB202_3_1,Length=0.301195000,Units=km
new line.TR12714968 bus1=BMT9322632B.2,bus2=BMT9322634B.2,Phases=1,Linecode=CAB202_3_1,Length=0.095227000,Units=km
new line.TR12714970 bus1=BMT9322634B.2,bus2=BMT9322635B.2,Phases=1,Linecode=CAB202_3_1,Length=0.095525000,Units=km
new line.TR12117066 bus1=BMT148406502.1.2.3,bus2=BMT8709826B.1.2.3,Phases=3,Linecode=CABA06_3_3,Length=0.042727000,Units=km
new line.TR12117067 bus1=BMT8709826B.1.2.3,bus2=BMT8709827B.1.2.3,Phases=3,Linecode=CABA06_3_3,Length=0.042445000,Units=km
new line.TR12117068 bus1=BMT8709827B.1.2.3,bus2=BMT8709828B.1.2.3,Phases=3,Linecode=CABA06_3_3,Length=0.043274000,Units=km
new line.TR12117069 bus1=BMT8709828B.1.2.3,bus2=BMT173210112.1.2.3,Phases=3,Linecode=CABA06_3_3,Length=0.041888000,Units=km
new line.TR12117075 bus1=BMT2753007B.1.2.3,bus2=BMT8709809B.1.2.3,Phases=3,Linecode=CABA06_3_3,Length=0.038125000,Units=km
new line.TR12117076 bus1=BMT8709809B.1.2.3,bus2=BMT8709811B.1.2.3,Phases=3,Linecode=CABA06_3_3,Length=0.030811000,Units=km
new line.TR12117077 bus1=BMT8709811B.1.2.3,bus2=BMT8709812B.1.2.3,Phases=3,Linecode=CABA06_3_3,Length=0.031070000,Units=km
new line.TR12117078 bus1=BMT8709812B.1.2.3,bus2=BMT8709813B.1.2.3,Phases=3,Linecode=CABA06_3_3,Length=0.031070000,Units=km
new line.TR12117079 bus1=BMT8709813B.1.2.3,bus2=BMT148406507.1.2.3,Phases=3,Linecode=CABA06_3_3,Length=0.039326000,Units=km
new line.TR12118261 bus1=BMT160190844.2,bus2=BMT160190846.2,Phases=1,Linecode=CAB202_3_1,Length=0.024190000,Units=km
new line.TR12118262 bus1=BMT160190846.2,bus2=BMT160190847.2,Phases=1,Linecode=CAB202_3_1,Length=0.016127000,Units=km
new line.TR12118265 bus1=BMT160190846.2,bus2=BMT8710958B.2,Phases=1,Linecode=CAB103_3_1,Length=0.051007000,Units=km
new line.TR12118266 bus1=BMT8710958B.2,bus2=BMT8710959B.2,Phases=1,Linecode=CAB103_3_1,Length=0.029971000,Units=km
new line.TR12118267 bus1=BMT8710959B.2,bus2=BMT8710960B.2,Phases=1,Linecode=CAB103_3_1,Length=0.050938000,Units=km
new line.TR12118268 bus1=BMT8710960B.2,bus2=BMT160190848.2,Phases=1,Linecode=CAB103_3_1,Length=0.056946000,Units=km
new line.TR12119878 bus1=BMT172043853.1,bus2=BMT3068070B.1,Phases=1,Linecode=CABA06_3_1,Length=0.035783000,Units=km
new line.TR12119879 bus1=BMT3068070B.1,bus2=BMT3068077B.1,Phases=1,Linecode=CABA06_3_1,Length=0.036680000,Units=km
new line.TR12119880 bus1=BMT3068077B.1,bus2=BMT3068084B.1,Phases=1,Linecode=CABA06_3_1,Length=0.033112000,Units=km
new line.TR12119881 bus1=BMT3068084B.1,bus2=BMT8712633B.1,Phases=1,Linecode=CABA06_3_1,Length=0.053263000,Units=km
new line.TR12119882 bus1=BMT8712633B.1,bus2=BMT8712639B.1,Phases=1,Linecode=CABA06_3_1,Length=0.056374000,Units=km
new line.TR12119887 bus1=BMT8712639B.1,bus2=BMT8712647B.1,Phases=1,Linecode=CABA06_3_1,Length=0.058610000,Units=km
new line.TR12119888 bus1=BMT8712647B.1,bus2=BMT172043854.1,Phases=1,Linecode=CABA06_3_1,Length=0.060425000,Units=km
new line.TR12119889 bus1=BMT172043854.1,bus2=BMT8712649B.1,Phases=1,Linecode=CABA06_3_1,Length=0.068633000,Units=km
new line.TR12119892 bus1=BMT8712649B.1,bus2=BMT172043855.1,Phases=1,Linecode=CABA06_3_1,Length=0.077349000,Units=km
new line.TR12372452 bus1=BMT157795320.1.2.3,bus2=BMT1655939B.1.2.3,Phases=3,Linecode=CABA06_3_3,Length=0.031151000,Units=km
new line.TR12372455 bus1=BMT1655939B.1.2.3,bus2=BMT1655925B.1.2.3,Phases=3,Linecode=CABA06_3_3,Length=0.039706000,Units=km
new line.TR12372457 bus1=BMT1655925B.1.2.3,bus2=BMT1655806B.1.2.3,Phases=3,Linecode=CABA06_3_3,Length=0.036062000,Units=km
new line.TR12372458 bus1=BMT1655806B.1.2.3,bus2=BMT1655799B.1.2.3,Phases=3,Linecode=CABA06_3_3,Length=0.029417000,Units=km
new line.TR12372459 bus1=BMT1655799B.1.2.3,bus2=BMT1655785B.1.2.3,Phases=3,Linecode=CABA06_3_3,Length=0.031327000,Units=km
new line.TR12372461 bus1=BMT1655785B.1.2.3,bus2=BMT1655771B.1.2.3,Phases=3,Linecode=CABA06_3_3,Length=0.031407000,Units=km
new line.TR12372462 bus1=BMT1655771B.1.2.3,bus2=BMT1655764B.1.2.3,Phases=3,Linecode=CABA06_3_3,Length=0.032069000,Units=km
new line.TR12372464 bus1=BMT1655764B.1.2.3,bus2=BMT1655757B.1.2.3,Phases=3,Linecode=CABA06_3_3,Length=0.033006000,Units=km
new line.TR12372475 bus1=BMT157795322.1.2.3,bus2=BMT157795323.1.2.3,Phases=3,Linecode=CABA06_3_3,Length=0.052402000,Units=km
new line.TR12375078 bus1=BMT1829301B.2,bus2=BMT157405925.2,Phases=1,Linecode=CAB202_3_1,Length=0.044110000,Units=km
new line.TR12375079 bus1=BMT157405925.2,bus2=BMT1829308B.2,Phases=1,Linecode=CAB202_3_1,Length=0.033021000,Units=km
new line.TR12576868 bus1=BMT165562978.1.2.3,bus2=BMT122061454.1.2.3,Phases=3,Linecode=CAB207_3_3,Length=0.089459000,Units=km
new line.TR12576907 bus1=BMT165562981.1.2.3,bus2=BMT165562982.1.2.3,Phases=3,Linecode=CAB207_3_3,Length=0.030022000,Units=km
new line.TR12576908 bus1=BMT165562983.1.2.3,bus2=BMT1830281B.1.2.3,Phases=3,Linecode=CAB207_3_3,Length=0.065875000,Units=km
new line.TR12577886 bus1=BMT165596946.1,bus2=BMT9186881B.1,Phases=1,Linecode=CAB202_3_1,Length=0.144920000,Units=km
new line.TR12577887 bus1=BMT9186881B.1,bus2=BMT165596948.1,Phases=1,Linecode=CAB202_3_1,Length=0.118084000,Units=km
new line.TR12677051 bus1=BMT168937764.3,bus2=BMT9285969B.3,Phases=1,Linecode=CAB202_3_1,Length=0.280899000,Units=km
new line.TR12677054 bus1=BMT9285969B.3,bus2=BMT9285974B.3,Phases=1,Linecode=CAB202_3_1,Length=0.106023000,Units=km
new line.TR12677055 bus1=BMT9285974B.3,bus2=BMT9285977B.3,Phases=1,Linecode=CAB202_3_1,Length=0.065814000,Units=km
new line.TR12677056 bus1=BMT9285977B.3,bus2=BMT168937766.3,Phases=1,Linecode=CAB202_3_1,Length=0.076936000,Units=km
new line.TR12678874 bus1=BMT8441460B.1.2.3,bus2=BMT169535871.1.2.3,Phases=3,Linecode=CABA06_3_3,Length=0.021845000,Units=km
new line.TR12679146 bus1=BMT169008923.3,bus2=BMT1654931B.3,Phases=1,Linecode=CABA06_3_1,Length=0.045008000,Units=km
new line.TR12679147 bus1=BMT1654931B.3,bus2=BMT2134592B.3,Phases=1,Linecode=CABA06_3_1,Length=0.045263000,Units=km
new line.TR12679149 bus1=BMT2134592B.3,bus2=BMT2134599B.3,Phases=1,Linecode=CABA06_3_1,Length=0.044110000,Units=km
new line.TR12679151 bus1=BMT2134599B.3,bus2=BMT2134606B.3,Phases=1,Linecode=CABA06_3_1,Length=0.041984000,Units=km
new line.TR12679152 bus1=BMT2134606B.3,bus2=BMT2134613B.3,Phases=1,Linecode=CABA06_3_1,Length=0.044156000,Units=km
new line.TR12679180 bus1=BMT2134613B.3,bus2=BMT2134620B.3,Phases=1,Linecode=CABA06_3_1,Length=0.046699000,Units=km
new line.TR12679182 bus1=BMT2134620B.3,bus2=BMT169008924.3,Phases=1,Linecode=CABA06_3_1,Length=0.040120000,Units=km
new line.TR12727888 bus1=BMT3109090B.1.2.3,bus2=BMT170615112.1.2.3,Phases=3,Linecode=CABA08_3_3,Length=0.019109000,Units=km
new line.TR12727889 bus1=BMT170615112.1.2.3,bus2=BMT3109097B.1.2.3,Phases=3,Linecode=CABA08_3_3,Length=0.026311000,Units=km
new line.TR12727894 bus1=BMT170615120.1.2.3,bus2=BMT9334850B.1.2.3,Phases=3,Linecode=CABA06_3_3,Length=0.032021000,Units=km
new line.TR12258921 bus1=BMT1828286B.1,bus2=BMT153364206.1,Phases=1,Linecode=CAB202_3_1,Length=0.044663000,Units=km
new line.TR12258922 bus1=BMT153364206.1,bus2=BMT153364217.1,Phases=1,Linecode=CAB202_3_1,Length=0.027465000,Units=km
new line.TR12645795 bus1=BMT167899131.1.2.3,bus2=BMT9256484B.1.2.3,Phases=3,Linecode=CABA06_3_3,Length=0.032563000,Units=km
new line.TR12645796 bus1=BMT9256484B.1.2.3,bus2=BMT167899132.1.2.3,Phases=3,Linecode=CABA06_3_3,Length=0.034138000,Units=km
new line.TR12645797 bus1=BMT167899132.1.2.3,bus2=BMT167899133.1.2.3,Phases=3,Linecode=CABA06_3_3,Length=0.044415000,Units=km
new line.TR12645798 bus1=BMT167899133.1.2.3,bus2=BMT9256486B.1.2.3,Phases=3,Linecode=CABA06_3_3,Length=0.014321000,Units=km
new line.TR12645799 bus1=BMT9256486B.1.2.3,bus2=BMT9256487B.1.2.3,Phases=3,Linecode=CABA06_3_3,Length=0.033606000,Units=km
new line.TR12645800 bus1=BMT9256487B.1.2.3,bus2=BMT167899136.1.2.3,Phases=3,Linecode=CABA06_3_3,Length=0.030811000,Units=km
new line.TR12645801 bus1=BMT167899132.1.2.3,bus2=BMT167899134.1.2.3,Phases=3,Linecode=CABA06_3_3,Length=0.038594000,Units=km
new line.TR12645802 bus1=BMT167899134.1.2.3,bus2=BMT9256494B.1.2.3,Phases=3,Linecode=CABA06_3_3,Length=0.038425000,Units=km
new line.TR12645803 bus1=BMT9256494B.1.2.3,bus2=BMT9256495B.1.2.3,Phases=3,Linecode=CABA06_3_3,Length=0.037209000,Units=km
new line.TR12645804 bus1=BMT9256495B.1.2.3,bus2=BMT9256496B.1.2.3,Phases=3,Linecode=CABA06_3_3,Length=0.037450000,Units=km
new line.TR12645805 bus1=BMT9256496B.1.2.3,bus2=BMT9256497B.1.2.3,Phases=3,Linecode=CABA06_3_3,Length=0.035234000,Units=km
new line.TR12645806 bus1=BMT9256497B.1.2.3,bus2=BMT9256498B.1.2.3,Phases=3,Linecode=CABA06_3_3,Length=0.037596000,Units=km
new line.TR12645807 bus1=BMT9256498B.1.2.3,bus2=BMT9256499B.1.2.3,Phases=3,Linecode=CABA06_3_3,Length=0.027208000,Units=km
new line.TR12645808 bus1=BMT9256499B.1.2.3,bus2=BMT167899135.1.2.3,Phases=3,Linecode=CABA06_3_3,Length=0.030616000,Units=km
new line.TR12645809 bus1=BMT167899133.1.2.3,bus2=BMT167899137.1.2.3,Phases=3,Linecode=CABA06_3_3,Length=0.027790000,Units=km
new line.TR12645810 bus1=BMT167899137.1.2.3,bus2=BMT9256517B.1.2.3,Phases=3,Linecode=CABA06_3_3,Length=0.041117000,Units=km
new line.TR12645811 bus1=BMT167899137.1.2.3,bus2=BMT9256508B.1.2.3,Phases=3,Linecode=CABA06_3_3,Length=0.006710000,Units=km
new line.TR12645812 bus1=BMT9256508B.1.2.3,bus2=BMT9256509B.1.2.3,Phases=3,Linecode=CABA06_3_3,Length=0.034372000,Units=km
new line.TR12645813 bus1=BMT9256509B.1.2.3,bus2=BMT9256510B.1.2.3,Phases=3,Linecode=CABA06_3_3,Length=0.018977000,Units=km
new line.TR12645814 bus1=BMT9256510B.1.2.3,bus2=BMT9256511B.1.2.3,Phases=3,Linecode=CABA06_3_3,Length=0.024191000,Units=km
new line.TR12645815 bus1=BMT9256511B.1.2.3,bus2=BMT9256512B.1.2.3,Phases=3,Linecode=CABA06_3_3,Length=0.032563000,Units=km
new line.TR12645816 bus1=BMT9256512B.1.2.3,bus2=BMT167899139.1.2.3,Phases=3,Linecode=CABA06_3_3,Length=0.044606000,Units=km
new line.TR12645817 bus1=BMT9256517B.1.2.3,bus2=BMT167899138.1.2.3,Phases=3,Linecode=CABA06_3_3,Length=0.036803000,Units=km
new line.TR12645818 bus1=BMT167899138.1.2.3,bus2=BMT9256523B.1.2.3,Phases=3,Linecode=CABA06_3_3,Length=0.038955000,Units=km
new line.TR12645819 bus1=BMT9256523B.1.2.3,bus2=BMT9256524B.1.2.3,Phases=3,Linecode=CABA06_3_3,Length=0.036131000,Units=km
new line.TR12645820 bus1=BMT167899138.1.2.3,bus2=BMT9256519B.1.2.3,Phases=3,Linecode=CABA06_3_3,Length=0.042197000,Units=km
new line.TR12645821 bus1=BMT9256519B.1.2.3,bus2=BMT167899141.1.2.3,Phases=3,Linecode=CABA06_3_3,Length=0.036407000,Units=km
new line.TR12645822 bus1=BMT9256524B.1.2.3,bus2=BMT9256527B.1.2.3,Phases=3,Linecode=CABA06_3_3,Length=0.040007000,Units=km
new line.TR12645823 bus1=BMT9256527B.1.2.3,bus2=BMT167899140.1.2.3,Phases=3,Linecode=CABA06_3_3,Length=0.036407000,Units=km
new line.TR12666262 bus1=BMT168599930.3,bus2=BMT168599932.3,Phases=1,Linecode=CAB202_3_1,Length=0.025084000,Units=km
new line.TR12666263 bus1=BMT168599932.3,bus2=BMT168599933.3,Phases=1,Linecode=CAB202_3_1,Length=0.283142000,Units=km
new line.TR12697181 bus1=BMT172612476.2,bus2=BMT9305694B.2,Phases=1,Linecode=CAB103_3_1,Length=0.035348000,Units=km
new line.TR12697182 bus1=BMT9305694B.2,bus2=BMT172612479.2,Phases=1,Linecode=CAB103_3_1,Length=0.033844000,Units=km
new line.TR12697338 bus1=BMT1829763B.3,bus2=BMT169601514.3,Phases=1,Linecode=CAB202_3_1,Length=0.254740000,Units=km
new line.TR12697339 bus1=BMT169601514.3,bus2=BMT169601513.3,Phases=1,Linecode=CAB202_3_1,Length=0.049485000,Units=km
new line.TR12697353 bus1=BMT169601514.3,bus2=BMT9305774B.3,Phases=1,Linecode=CAB103_3_1,Length=0.058533000,Units=km
new line.TR12697354 bus1=BMT9305774B.3,bus2=BMT169601516.3,Phases=1,Linecode=CAB103_3_1,Length=0.029160000,Units=km
new line.TR12718876 bus1=BMT170334541.1.2.3,bus2=BMT170301323.1.2.3,Phases=3,Linecode=CABA08_3_3,Length=0.058533000,Units=km
new line.TR12718897 bus1=BMT1666943B.1.2.3,bus2=BMT170301957.1.2.3,Phases=3,Linecode=CABA08_3_3,Length=0.045801000,Units=km
new line.TR12718898 bus1=BMT172195457.1.2.3,bus2=BMT172195458.1.2.3,Phases=3,Linecode=CABA08_3_3,Length=0.021405000,Units=km
new line.TR12719605 bus1=BMT170349489.1.2.3,bus2=BMT170334001.1.2.3,Phases=3,Linecode=CABA06_3_3,Length=0.041154000,Units=km
new line.TR12721996 bus1=BMT170420985.1.2.3,bus2=BMT170420987.1.2.3,Phases=3,Linecode=CAB204_3_3,Length=0.173766000,Units=km
new line.TR12721997 bus1=BMT170420987.1.2.3,bus2=BMT170420988.1.2.3,Phases=3,Linecode=CAB204_3_3,Length=0.131904000,Units=km
new line.TR12722000 bus1=BMT170420987.1,bus2=BMT170420989.1,Phases=1,Linecode=CAB202_3_1,Length=0.102642000,Units=km
new line.TR12754644 bus1=BMT171572977.3,bus2=BMT1672004B.3,Phases=1,Linecode=CAB103_3_1,Length=0.013419000,Units=km
new line.TR12754650 bus1=BMT1672004B.3,bus2=BMT1672011B.3,Phases=1,Linecode=CAB103_3_1,Length=0.031070000,Units=km
new line.TR12754651 bus1=BMT1672011B.3,bus2=BMT1672018B.3,Phases=1,Linecode=CAB103_3_1,Length=0.029022000,Units=km
new line.TR12754654 bus1=BMT1672018B.3,bus2=BMT1671997B.3,Phases=1,Linecode=CAB103_3_1,Length=0.050367000,Units=km
new line.TR12754660 bus1=BMT1671997B.3,bus2=BMT171572979.3,Phases=1,Linecode=CAB103_3_1,Length=0.029211000,Units=km
new line.TR12786845 bus1=BMT2995809B.2,bus2=BMT172615165.2,Phases=1,Linecode=CAB202_3_1,Length=0.100591000,Units=km
new line.TR12786846 bus1=BMT172615165.2,bus2=BMT2995816B.2,Phases=1,Linecode=CAB202_3_1,Length=0.491555000,Units=km
new line.TR12786871 bus1=BMT172615565.2,bus2=BMT9388420B.2,Phases=1,Linecode=CAB202_3_1,Length=0.052352000,Units=km
new line.TR12786872 bus1=BMT9388420B.2,bus2=BMT172615566.2,Phases=1,Linecode=CAB202_3_1,Length=0.072348000,Units=km
new line.TR12130562 bus1=BMT171741373.3,bus2=BMT171741378.3,Phases=1,Linecode=CAB103_3_1,Length=0.053496000,Units=km
new line.TR12130685 bus1=BMT172789985.2,bus2=BMT172789987.2,Phases=1,Linecode=CABA06_3_1,Length=0.026689000,Units=km
new line.TR12130694 bus1=BMT172789985.2,bus2=BMT2742584B.2,Phases=1,Linecode=CABA06_3_1,Length=0.024336000,Units=km
new line.TR12130696 bus1=BMT2742584B.2,bus2=BMT1652096B.2,Phases=1,Linecode=CABA06_3_1,Length=0.033143000,Units=km
new line.TR12130697 bus1=BMT1652096B.2,bus2=BMT1652103B.2,Phases=1,Linecode=CABA06_3_1,Length=0.028798000,Units=km
new line.TR12130701 bus1=BMT1652103B.2,bus2=BMT1652117B.2,Phases=1,Linecode=CABA06_3_1,Length=0.027736000,Units=km
new line.TR12130702 bus1=BMT1652117B.2,bus2=BMT8724392B.2,Phases=1,Linecode=CABA06_3_1,Length=0.018792000,Units=km
new line.TR12130708 bus1=BMT8724392B.2,bus2=BMT1652131B.2,Phases=1,Linecode=CABA06_3_1,Length=0.018872000,Units=km
new line.TR12130709 bus1=BMT1652131B.2,bus2=BMT172789988.2,Phases=1,Linecode=CABA06_3_1,Length=0.046052000,Units=km
new line.TR12180519 bus1=BMT170124456.3,bus2=BMT1671570B.3,Phases=1,Linecode=CAB103_3_1,Length=0.055794000,Units=km
new line.TR12180520 bus1=BMT1671570B.3,bus2=BMT1671577B.3,Phases=1,Linecode=CAB103_3_1,Length=0.044415000,Units=km
new line.TR12180521 bus1=BMT1671577B.3,bus2=BMT170124465.3,Phases=1,Linecode=CAB103_3_1,Length=0.039058000,Units=km
new line.TR12180549 bus1=BMT170124465.3,bus2=BMT8779557B.3,Phases=1,Linecode=CAB103_3_1,Length=0.029619000,Units=km
new line.TR12180550 bus1=BMT8779557B.3,bus2=BMT155104713.3,Phases=1,Linecode=CAB103_3_1,Length=0.022676000,Units=km
new line.TR12180551 bus1=BMT169601508.3,bus2=BMT169601509.3,Phases=1,Linecode=CAB202_3_1,Length=0.374590000,Units=km
new line.TR12333351 bus1=BMT156007437.3,bus2=BMT156007438.3,Phases=1,Linecode=CAB202_3_1,Length=0.006326000,Units=km
new line.TR12333352 bus1=BMT156007438.3,bus2=BMT156007439.3,Phases=1,Linecode=CAB202_3_1,Length=0.153332000,Units=km
new line.TR12333353 bus1=BMT156007438.3,bus2=BMT2475534B.3,Phases=1,Linecode=CAB202_3_1,Length=0.019213000,Units=km
new line.TR12333992 bus1=BMT3028513B.1.2.3,bus2=BMT156028512.1.2.3,Phases=3,Linecode=CAB207_3_3,Length=0.177042000,Units=km
new line.TR12334005 bus1=BMT156622779.1.2.3,bus2=BMT8936129B.1.2.3,Phases=3,Linecode=CAB207_3_3,Length=0.049019000,Units=km
new line.TR12334006 bus1=BMT8936129B.1.2.3,bus2=BMT156622780.1.2.3,Phases=3,Linecode=CAB207_3_3,Length=0.075020000,Units=km
new line.TR12334832 bus1=BMT170615107.1.2.3,bus2=BMT3094544B.1.2.3,Phases=3,Linecode=CABA08_3_3,Length=0.046182000,Units=km
new line.TR12334833 bus1=BMT3094544B.1.2.3,bus2=BMT3094551B.1.2.3,Phases=3,Linecode=CABA08_3_3,Length=0.047768000,Units=km
new line.TR12334835 bus1=BMT3094551B.1.2.3,bus2=BMT3094558B.1.2.3,Phases=3,Linecode=CABA08_3_3,Length=0.046398000,Units=km
new line.TR12334836 bus1=BMT3094558B.1.2.3,bus2=BMT8804971B.1.2.3,Phases=3,Linecode=CABA08_3_3,Length=0.046246000,Units=km
new line.TR12334837 bus1=BMT8804971B.1.2.3,bus2=BMT8804972B.1.2.3,Phases=3,Linecode=CABA08_3_3,Length=0.034182000,Units=km
new line.TR12334838 bus1=BMT8804972B.1.2.3,bus2=BMT8804974B.1.2.3,Phases=3,Linecode=CABA08_3_3,Length=0.033247000,Units=km
new line.TR12334843 bus1=BMT8804974B.1.2.3,bus2=BMT170615109.1.2.3,Phases=3,Linecode=CABA08_3_3,Length=0.019701000,Units=km
new line.TR12334862 bus1=BMT156059303.1.2.3,bus2=BMT8937130B.1.2.3,Phases=3,Linecode=CABA06_3_3,Length=0.006710000,Units=km