new load.3000210476M1 bus1=RML1052522266.1.2.3.0,Phases=3,kv=0.22,kW=1.21104,pf=0.92,Vminpu=0.92,Vmaxpu=1.5,model=1,daily=RES2_4,status=variable
new load.3000210484M1 bus1=RML1052522336.1.0,Phases=1,kv=0.127,kW=1.40016,pf=0.92,Vminpu=0.92,Vmaxpu=1.5,model=1,daily=RES3_4,status=variable
new load.3000210495M1 bus1=RML1052522854.3.0,Phases=1,kv=0.127,kW=1.14376,pf=0.92,Vminpu=0.92,Vmaxpu=1.5,model=1,daily=RES2_4,status=variable
new load.3000210506M1 bus1=RML1052524240.1.2.0,Phases=2,kv=0.22,kW=0.98038,pf=0.92,Vminpu=0.92,Vmaxpu=1.5,model=1,daily=RES2_4,status=variable
new load.3000210515M1 bus1=RML1052524310.3.0,Phases=1,kv=0.127,kW=0.89386,pf=0.92,Vminpu=0.92,Vmaxpu=1.5,model=1,daily=RES2_4,status=variable
new load.3000210523M1 bus1=RML1052524366.1.2.0,Phases=2,kv=0.22,kW=0.00704,pf=0.92,Vminpu=0.92,Vmaxpu=1.5,model=1,daily=RES4_5,status=variable
new load.3000210531M1 bus1=RML1052524387.2.0,Phases=1,kv=0.127,kW=1.22896,pf=0.92,Vminpu=0.92,Vmaxpu=1.5,model=1,daily=RES3_4,status=variable
new load.3000210548M1 bus1=RML1052524100.1.2.3.0,Phases=3,kv=0.22,kW=1.41288,pf=0.92,Vminpu=0.92,Vmaxpu=1.5,model=1,daily=RES2_4,status=variable
new load.3000210557M1 bus1=RML1052524170.2.3.0,Phases=2,kv=0.22,kW=1.35124,pf=0.92,Vminpu=0.92,Vmaxpu=1.5,model=1,daily=RES3_4,status=variable
new load.3000210565M1 bus1=RML1052524219.1.3.0,Phases=2,kv=0.22,kW=0.5564,pf=0.92,Vminpu=0.92,Vmaxpu=1.5,model=1,daily=RES3_4,status=variable
new load.3000210576M1 bus1=RML1052524184.3.0,Phases=1,kv=0.127,kW=0.82482,pf=0.92,Vminpu=0.92,Vmaxpu=1.5,model=1,daily=RES1_2,status=variable
new load.3000210584M1 bus1=RML1052524044.2.0,Phases=1,kv=0.127,kW=0.80736,pf=0.92,Vminpu=0.92,Vmaxpu=1.5,model=1,daily=RES2_4,status=variable
new load.3000210592M1 bus1=RML1052523561.3.0,Phases=1,kv=0.127,kW=0.31422,pf=0.92,Vminpu=0.92,Vmaxpu=1.5,model=1,daily=RES1_2,status=variable
new load.3000210600M1 bus1=RML1052522791.2.0,Phases=1,kv=0.127,kW=1.22896,pf=0.92,Vminpu=0.92,Vmaxpu=1.5,model=1,daily=RES3_4,status=variable
new load.3000210608M1 bus1=RML1052522280.1.2.3.0,Phases=3,kv=0.22,kW=0.07842,pf=0.92,Vminpu=0.92,Vmaxpu=1.5,model=1,daily=COM1_5,status=variable
new load.3000210616M1 bus1=RML1052521958.3.0,Phases=1,kv=0.127,kW=0.85542,pf=0.92,Vminpu=0.92,Vmaxpu=1.5,model=1,daily=RES2_4,status=variable
new load.3000210626M1 bus1=RML1052522035.2.3.0,Phases=2,kv=0.22,kW=1.57628,pf=0.92,Vminpu=0.92,Vmaxpu=1.5,model=1,daily=RES2_4,status=variable
new load.3000210634M1 bus1=RML1052521874.1.2.0,Phases=2,kv=0.22,kW=0.05892,pf=0.92,Vminpu=0.92,Vmaxpu=1.5,model=1,daily=RES1_2,status=variable
new load.3000210650M1 bus1=RML1052522231.1.2.3.0,Phases=3,kv=0.22,kW=1.5859,pf=0.92,Vminpu=0.92,Vmaxpu=1.5,model=1,daily=RES2_4,status=variable
new load.3000737544M1 bus1=RML1052519844.1.0,Phases=1,kv=0.127,kW=0.76632,pf=0.92,Vminpu=0.92,Vmaxpu=1.5,model=1,daily=RES1_14,status=variable
new load.3000737553M1 bus1=RML1052519508.1.0,Phases=1,kv=0.127,kW=0.83106,pf=0.92,Vminpu=0.92,Vmaxpu=1.5,model=1,daily=RES1_14,status=variable
new load.3000737633M1 bus1=RML1052520957.1.0,Phases=1,kv=0.127,kW=1.035,pf=0.92,Vminpu=0.92,Vmaxpu=1.5,model=1,daily=RES2_15,status=variable
new load.3000737641M1 bus1=RML1052520250.2.0,Phases=1,kv=0.127,kW=0.9377,pf=0.92,Vminpu=0.92,Vmaxpu=1.5,model=1,daily=RES2_15,status=variable
new load.3000737649M1 bus1=RML1052520649.1.2.0,Phases=2,kv=0.22,kW=0.80596,pf=0.92,Vminpu=0.92,Vmaxpu=1.5,model=1,daily=RES3_13,status=variable
new load.3000737659M1 bus1=RML1052520348.1.0,Phases=1,kv=0.127,kW=0.85266,pf=0.92,Vminpu=0.92,Vmaxpu=1.5,model=1,daily=RES1_14,status=variable
new load.3000737667M1 bus1=RML1052520509.3.0,Phases=1,kv=0.127,kW=0.23744,pf=0.92,Vminpu=0.92,Vmaxpu=1.5,model=1,daily=RES1_14,status=variable
new load.3000210478M1 bus1=RML1052522287.1.3.0,Phases=2,kv=0.22,kW=1.10056,pf=0.92,Vminpu=0.92,Vmaxpu=1.5,model=1,daily=RES3_4,status=variable
new load.3000210486M1 bus1=RML1052522693.2.0,Phases=1,kv=0.127,kW=0.74008,pf=0.92,Vminpu=0.92,Vmaxpu=1.5,model=1,daily=RES2_4,status=variable
new load.3000210497M1 bus1=RML1052522875.2.3.0,Phases=2,kv=0.22,kW=0.29458,pf=0.92,Vminpu=0.92,Vmaxpu=1.5,model=1,daily=RES1_2,status=variable
new load.3000210509M1 bus1=RML1052524303.2.0,Phases=1,kv=0.127,kW=1.3456,pf=0.92,Vminpu=0.92,Vmaxpu=1.5,model=1,daily=RES2_4,status=variable
new load.3000210517M1 bus1=RML1052524359.2.0,Phases=1,kv=0.127,kW=0.47132,pf=0.92,Vminpu=0.92,Vmaxpu=1.5,model=1,daily=RES1_2,status=variable
new load.3000210525M1 bus1=RML1052524422.3.0,Phases=1,kv=0.127,kW=0.91102,pf=0.92,Vminpu=0.92,Vmaxpu=1.5,model=1,daily=RES3_4,status=variable
new load.3000210533M1 bus1=RML1052524394.1.2.0,Phases=2,kv=0.22,kW=1.40016,pf=0.92,Vminpu=0.92,Vmaxpu=1.5,model=1,daily=RES3_4,status=variable
new load.3000210541M1 bus1=RML1052524023.1.2.0,Phases=2,kv=0.22,kW=0.67754,pf=0.92,Vminpu=0.92,Vmaxpu=1.5,model=1,daily=RES1_2,status=variable
new load.3000210559M1 bus1=RML1052524177.2.0,Phases=1,kv=0.127,kW=1.509,pf=0.92,Vminpu=0.92,Vmaxpu=1.5,model=1,daily=RES2_4,status=variable
new load.3000210578M1 bus1=RML1052524121.1.2.0,Phases=2,kv=0.22,kW=1.682,pf=0.92,Vminpu=0.92,Vmaxpu=1.5,model=1,daily=RES2_4,status=variable
new load.3000210586M1 bus1=RML1052524065.3.0,Phases=1,kv=0.127,kW=1.55302,pf=0.92,Vminpu=0.92,Vmaxpu=1.5,model=1,daily=RES3_4,status=variable
new load.3000210594M1 bus1=RML1052522889.2.0,Phases=1,kv=0.127,kW=0.85542,pf=0.92,Vminpu=0.92,Vmaxpu=1.5,model=1,daily=RES2_4,status=variable
new load.3000210602M1 bus1=RML1052522805.2.3.0,Phases=2,kv=0.22,kW=1.39404,pf=0.92,Vminpu=0.92,Vmaxpu=1.5,model=1,daily=RES3_4,status=variable
new load.3000210618M1 bus1=RML1052521909.3.0,Phases=1,kv=0.127,kW=0.13856,pf=0.92,Vminpu=0.92,Vmaxpu=1.5,model=1,daily=COM1_5,status=variable
new load.3000210628M1 bus1=RML1052521923.1.0,Phases=1,kv=0.127,kW=0.93232,pf=0.92,Vminpu=0.92,Vmaxpu=1.5,model=1,daily=RES2_4,status=variable
new load.3000210636M1 bus1=RML1052521888.1.2.0,Phases=2,kv=0.22,kW=1.40328,pf=0.92,Vminpu=0.92,Vmaxpu=1.5,model=1,daily=RES2_4,status=variable
new load.3000210652M1 bus1=RML1052522224.1.2.0,Phases=2,kv=0.22,kW=0.00262,pf=0.92,Vminpu=0.92,Vmaxpu=1.5,model=1,daily=COM1_5,status=variable
new load.3000737546M1 bus1=RML1052519837.2.0,Phases=1,kv=0.127,kW=0.71234,pf=0.92,Vminpu=0.92,Vmaxpu=1.5,model=1,daily=RES1_14,status=variable
new load.3000737555M1 bus1=RML1052519480.2.0,Phases=1,kv=0.127,kW=1.60116,pf=0.92,Vminpu=0.92,Vmaxpu=1.5,model=1,daily=RES2_15,status=variable
new load.3000737643M1 bus1=RML1052520383.3.0,Phases=1,kv=0.127,kW=0.77846,pf=0.92,Vminpu=0.92,Vmaxpu=1.5,model=1,daily=RES2_15,status=variable
new load.3000737652M1 bus1=RML1052519487.1.0,Phases=1,kv=0.127,kW=1.43308,pf=0.92,Vminpu=0.92,Vmaxpu=1.5,model=1,daily=RES2_15,status=variable
new load.3000737669M1 bus1=RML1052520418.3.0,Phases=1,kv=0.127,kW=0.98192,pf=0.92,Vminpu=0.92,Vmaxpu=1.5,model=1,daily=RES2_15,status=variable
new load.3000210485M1 bus1=RML1052522343.3.0,Phases=1,kv=0.127,kW=0.3044,pf=0.92,Vminpu=0.92,Vmaxpu=1.5,model=1,daily=RES1_2,status=variable
new load.3000210496M1 bus1=RML1052522861.2.0,Phases=1,kv=0.127,kW=1.6724,pf=0.92,Vminpu=0.92,Vmaxpu=1.5,model=1,daily=RES2_4,status=variable
new load.3000210507M1 bus1=RML1052524254.1.0,Phases=1,kv=0.127,kW=1.04766,pf=0.92,Vminpu=0.92,Vmaxpu=1.5,model=1,daily=RES2_4,status=variable
new load.3000210516M1 bus1=RML1052524359.2.0,Phases=1,kv=0.127,kW=0.56952,pf=0.92,Vminpu=0.92,Vmaxpu=1.5,model=1,daily=RES1_2,status=variable
new load.3000210524M1 bus1=RML1052524429.1.3.0,Phases=2,kv=0.22,kW=0.90348,pf=0.92,Vminpu=0.92,Vmaxpu=1.5,model=1,daily=RES2_4,status=variable
new load.3000210532M1 bus1=RML1052524387.2.0,Phases=1,kv=0.127,kW=0.72086,pf=0.92,Vminpu=0.92,Vmaxpu=1.5,model=1,daily=RES2_4,status=variable
new load.3000210540M1 bus1=RML1052523981.1.2.0,Phases=2,kv=0.22,kW=1.38792,pf=0.92,Vminpu=0.92,Vmaxpu=1.5,model=1,daily=RES3_4,status=variable
new load.3000210549M1 bus1=RML1052524100.1.2.3.0,Phases=3,kv=0.22,kW=0.93232,pf=0.92,Vminpu=0.92,Vmaxpu=1.5,model=1,daily=RES2_4,status=variable
new load.3000210558M1 bus1=RML1052524170.2.3.0,Phases=2,kv=0.22,kW=0.19222,pf=0.92,Vminpu=0.92,Vmaxpu=1.5,model=1,daily=RES2_4,status=variable
new load.3000210566M1 bus1=RML1052524212.1.2.3.0,Phases=3,kv=0.22,kW=0.18038,pf=0.92,Vminpu=0.92,Vmaxpu=1.5,model=1,daily=COM1_5,status=variable
new load.3000210577M1 bus1=RML1052524163.1.0,Phases=1,kv=0.127,kW=1.19182,pf=0.92,Vminpu=0.92,Vmaxpu=1.5,model=1,daily=RES2_4,status=variable
new load.3000210585M1 bus1=RML1052524058.1.2.0,Phases=2,kv=0.22,kW=1.32678,pf=0.92,Vminpu=0.92,Vmaxpu=1.5,model=1,daily=RES3_4,status=variable
new load.3000210593M1 bus1=RML1052523554.1.0,Phases=1,kv=0.127,kW=0.06796,pf=0.92,Vminpu=0.92,Vmaxpu=1.5,model=1,daily=COM1_5,status=variable
new load.3000210601M1 bus1=RML1052522784.2.0,Phases=1,kv=0.127,kW=0.69202,pf=0.92,Vminpu=0.92,Vmaxpu=1.5,model=1,daily=RES2_4,status=variable
new load.3000210617M1 bus1=RML1052521909.3.0,Phases=1,kv=0.127,kW=0.9131,pf=0.92,Vminpu=0.92,Vmaxpu=1.5,model=1,daily=RES2_4,status=variable
new load.3000210627M1 bus1=RML1052522014.3.0,Phases=1,kv=0.127,kW=0.88426,pf=0.92,Vminpu=0.92,Vmaxpu=1.5,model=1,daily=RES2_4,status=variable
new load.3000210635M1 bus1=RML1052521895.3.0,Phases=1,kv=0.127,kW=1.34512,pf=0.92,Vminpu=0.92,Vmaxpu=1.5,model=1,daily=RES3_4,status=variable
new load.3000210643M1 bus1=RML1052521986.1.2.3.0,Phases=3,kv=0.22,kW=1.1189,pf=0.92,Vminpu=0.92,Vmaxpu=1.5,model=1,daily=RES3_4,status=variable
new load.3000737545M1 bus1=RML1052519837.2.0,Phases=1,kv=0.127,kW=0.313,pf=0.92,Vminpu=0.92,Vmaxpu=1.5,model=1,daily=RES1_14,status=variable
new load.3000737554M1 bus1=RML1052519466.3.0,Phases=1,kv=0.127,kW=1.30924,pf=0.92,Vminpu=0.92,Vmaxpu=1.5,model=1,daily=RES2_15,status=variable
new load.3000737642M1 bus1=RML1052520362.2.0,Phases=1,kv=0.127,kW=1.04386,pf=0.92,Vminpu=0.92,Vmaxpu=1.5,model=1,daily=RES2_15,status=variable
new load.3000737660M1 bus1=RML1052520439.3.0,Phases=1,kv=0.127,kW=1.36814,pf=0.92,Vminpu=0.92,Vmaxpu=1.5,model=1,daily=RES3_13,status=variable
new load.3000210475M1 bus1=RML1052522266.1.2.3.0,Phases=3,kv=0.22,kW=1.63754,pf=0.92,Vminpu=0.92,Vmaxpu=1.5,model=1,daily=COM2_4,status=variable
new load.3000210483M1 bus1=RML1052522322.1.3.0,Phases=2,kv=0.22,kW=0.06536,pf=0.92,Vminpu=0.92,Vmaxpu=1.5,model=1,daily=COM1_5,status=variable
new load.3000210494M1 bus1=RML1052522833.3.0,Phases=1,kv=0.127,kW=1.47056,pf=0.92,Vminpu=0.92,Vmaxpu=1.5,model=1,daily=RES2_4,status=variable
new load.3000210505M1 bus1=RML1052524240.1.2.0,Phases=2,kv=0.22,kW=1.17394,pf=0.92,Vminpu=0.92,Vmaxpu=1.5,model=1,daily=RES3_4,status=variable
new load.3000210514M1 bus1=RML1052524310.3.0,Phases=1,kv=0.127,kW=1.37444,pf=0.92,Vminpu=0.92,Vmaxpu=1.5,model=1,daily=RES2_4,status=variable
new load.3000210522M1 bus1=RML1052524366.1.2.0,Phases=2,kv=0.22,kW=0.92302,pf=0.92,Vminpu=0.92,Vmaxpu=1.5,model=1,daily=RES1_2,status=variable
new load.3000210530M1 bus1=RML1052524401.1.0,Phases=1,kv=0.127,kW=0.4615,pf=0.92,Vminpu=0.92,Vmaxpu=1.5,model=1,daily=RES1_2,status=variable
new load.3000210538M1 bus1=RML1052524324.3.0,Phases=1,kv=0.127,kW=1.51862,pf=0.92,Vminpu=0.92,Vmaxpu=1.5,model=1,daily=RES2_4,status=variable
new load.3000210564M1 bus1=RML1052524219.1.3.0,Phases=2,kv=0.22,kW=1.0761,pf=0.92,Vminpu=0.92,Vmaxpu=1.5,model=1,daily=RES3_4,status=variable
new load.3000210575M1 bus1=RML1052524198.2.0,Phases=1,kv=0.127,kW=0.86504,pf=0.92,Vminpu=0.92,Vmaxpu=1.5,model=1,daily=RES2_4,status=variable
new load.3000210583M1 bus1=RML1052524086.1.0,Phases=1,kv=0.127,kW=0.92936,pf=0.92,Vminpu=0.92,Vmaxpu=1.5,model=1,daily=RES3_4,status=variable
new load.3000210591M1 bus1=RML1052523568.1.0,Phases=1,kv=0.127,kW=0.90348,pf=0.92,Vminpu=0.92,Vmaxpu=1.5,model=1,daily=RES2_4,status=variable
new load.3000210599M1 bus1=RML1052522826.1.3.0,Phases=2,kv=0.22,kW=0.46136,pf=0.92,Vminpu=0.92,Vmaxpu=1.5,model=1,daily=RES2_4,status=variable
new load.3000210607M1 bus1=RML1052522280.1.2.3.0,Phases=3,kv=0.22,kW=0.20914,pf=0.92,Vminpu=0.92,Vmaxpu=1.5,model=1,daily=COM1_5,status=variable
new load.3000210615M1 bus1=RML1052521958.3.0,Phases=1,kv=0.127,kW=4.68848,pf=0.92,Vminpu=0.92,Vmaxpu=1.5,model=1,daily=RES5_5,status=variable
new load.3000210625M1 bus1=RML1052522042.1.0,Phases=1,kv=0.127,kW=0.02946,pf=0.92,Vminpu=0.92,Vmaxpu=1.5,model=1,daily=RES1_2,status=variable
new load.3000210633M1 bus1=RML1052521874.1.2.0,Phases=2,kv=0.22,kW=0.68492,pf=0.92,Vminpu=0.92,Vmaxpu=1.5,model=1,daily=COM1_5,status=variable
new load.3000737543M1 bus1=RML1052519711.1.2.0,Phases=2,kv=0.22,kW=0.51806,pf=0.92,Vminpu=0.92,Vmaxpu=1.5,model=1,daily=RES1_14,status=variable
new load.3000737552M1 bus1=RML1052519585.2.0,Phases=1,kv=0.127,kW=0.18348,pf=0.92,Vminpu=0.92,Vmaxpu=1.5,model=1,daily=RES1_14,status=variable
new load.3000737632M1 bus1=RML1052520915.1.0,Phases=1,kv=0.127,kW=1.6277,pf=0.92,Vminpu=0.92,Vmaxpu=1.5,model=1,daily=RES2_15,status=variable
new load.3000737640M1 bus1=RML1052520831.2.0,Phases=1,kv=0.127,kW=1.70732,pf=0.92,Vminpu=0.92,Vmaxpu=1.5,model=1,daily=RES2_15,status=variable
new load.3000737658M1 bus1=RML1052520600.1.2.0,Phases=2,kv=0.22,kW=1.61886,pf=0.92,Vminpu=0.92,Vmaxpu=1.5,model=1,daily=RES2_15,status=variable
new load.3000737666M1 bus1=RML1052520488.1.0,Phases=1,kv=0.127,kW=1.27858,pf=0.92,Vminpu=0.92,Vmaxpu=1.5,model=1,daily=RES3_13,status=variable
new load.3000210474M1 bus1=RML1052522273.3.0,Phases=1,kv=0.127,kW=0.9908,pf=0.92,Vminpu=0.92,Vmaxpu=1.5,model=1,daily=COM1_5,status=variable
new load.3000210482M1 bus1=RML1052522322.1.3.0,Phases=2,kv=0.22,kW=2.68696,pf=0.92,Vminpu=0.92,Vmaxpu=1.5,model=1,daily=RES6_6,status=variable
new load.3000210493M1 bus1=RML1052522819.2.0,Phases=1,kv=0.127,kW=0.80736,pf=0.92,Vminpu=0.92,Vmaxpu=1.5,model=1,daily=RES2_4,status=variable
new load.3000210504M1 bus1=RML1052524233.3.0,Phases=1,kv=0.127,kW=0.80736,pf=0.92,Vminpu=0.92,Vmaxpu=1.5,model=1,daily=RES2_4,status=variable
new load.3000210513M1 bus1=RML1052524317.3.0,Phases=1,kv=0.127,kW=1.13416,pf=0.92,Vminpu=0.92,Vmaxpu=1.5,model=1,daily=RES2_4,status=variable
new load.3000210521M1 bus1=RML1052524373.1.2.3.0,Phases=3,kv=0.22,kW=1.05726,pf=0.92,Vminpu=0.92,Vmaxpu=1.5,model=1,daily=RES2_4,status=variable
new load.3000210529M1 bus1=RML1052524408.2.3.0,Phases=2,kv=0.22,kW=1.74928,pf=0.92,Vminpu=0.92,Vmaxpu=1.5,model=1,daily=RES2_4,status=variable
new load.3000210537M1 bus1=RML1052524345.1.2.0,Phases=2,kv=0.22,kW=1.33902,pf=0.92,Vminpu=0.92,Vmaxpu=1.5,model=1,daily=RES3_4,status=variable
new load.3000210545M1 bus1=RML1052524037.1.2.0,Phases=2,kv=0.22,kW=1.31678,pf=0.92,Vminpu=0.92,Vmaxpu=1.5,model=1,daily=RES2_4,status=variable
new load.3000210555M1 bus1=RML1052524156.1.0,Phases=1,kv=0.127,kW=0.88426,pf=0.92,Vminpu=0.92,Vmaxpu=1.5,model=1,daily=RES2_4,status=variable
new load.3000210563M1 bus1=RML1052524443.3.0,Phases=1,kv=0.127,kW=1.61472,pf=0.92,Vminpu=0.92,Vmaxpu=1.5,model=1,daily=RES2_4,status=variable
new load.3000210582M1 bus1=RML1052524093.3.0,Phases=1,kv=0.127,kW=1.48576,pf=0.92,Vminpu=0.92,Vmaxpu=1.5,model=1,daily=RES3_4,status=variable
new load.3000210590M1 bus1=RML1052523974.1.2.0,Phases=2,kv=0.22,kW=0.79484,pf=0.92,Vminpu=0.92,Vmaxpu=1.5,model=1,daily=RES3_4,status=variable
new load.3000210598M1 bus1=RML1052522840.1.2.3.0,Phases=3,kv=0.22,kW=0.03928,pf=0.92,Vminpu=0.92,Vmaxpu=1.5,model=1,daily=RES1_2,status=variable
new load.3000210606M1 bus1=RML1052522329.1.2.0,Phases=2,kv=0.22,kW=1.23988,pf=0.92,Vminpu=0.92,Vmaxpu=1.5,model=1,daily=RES2_4,status=variable
new load.3000210622M1 bus1=RML1052522000.1.3.0,Phases=2,kv=0.22,kW=1.74866,pf=0.92,Vminpu=0.92,Vmaxpu=1.5,model=1,daily=RES3_4,status=variable
new load.3000210632M1 bus1=RML1052521860.1.2.0,Phases=2,kv=0.22,kW=2.73482,pf=0.92,Vminpu=0.92,Vmaxpu=1.5,model=1,daily=RES4_5,status=variable
new load.3000210640M1 bus1=RML1052521930.1.2.0,Phases=2,kv=0.22,kW=0.39998,pf=0.92,Vminpu=0.92,Vmaxpu=1.5,model=1,daily=COM1_5,status=variable
new load.3000210648M1 bus1=RML1052522231.1.2.3.0,Phases=3,kv=0.22,kW=4.96514,pf=0.92,Vminpu=0.92,Vmaxpu=1.5,model=1,daily=RES5_5,status=variable
new load.3000737542M1 bus1=RML1052519725.3.0,Phases=1,kv=0.127,kW=0.00498,pf=0.92,Vminpu=0.92,Vmaxpu=1.5,model=1,daily=RES3_13,status=variable
new load.3000737551M1 bus1=RML1052519697.2.3.0,Phases=2,kv=0.22,kW=1.73386,pf=0.92,Vminpu=0.92,Vmaxpu=1.5,model=1,daily=RES2_15,status=variable
new load.3000737631M1 bus1=RML1052520894.1.2.3.0,Phases=3,kv=0.22,kW=0.74308,pf=0.92,Vminpu=0.92,Vmaxpu=1.5,model=1,daily=RES2_15,status=variable
new load.3000737639M1 bus1=RML1052520908.1.2.3.0,Phases=3,kv=0.22,kW=1.21194,pf=0.92,Vminpu=0.92,Vmaxpu=1.5,model=1,daily=RES2_15,status=variable
new load.3000737647M1 bus1=RML1052520684.1.2.3.0,Phases=3,kv=0.22,kW=0.80948,pf=0.92,Vminpu=0.92,Vmaxpu=1.5,model=1,daily=RES1_14,status=variable
new load.3000737657M1 bus1=RML1052520607.3.0,Phases=1,kv=0.127,kW=1.495,pf=0.92,Vminpu=0.92,Vmaxpu=1.5,model=1,daily=RES2_15,status=variable
new load.3000737665M1 bus1=RML1052520460.1.2.3.0,Phases=3,kv=0.22,kW=0.06476,pf=0.92,Vminpu=0.92,Vmaxpu=1.5,model=1,daily=RES1_14,status=variable
new load.3000210473M1 bus1=RML1052522217.1.2.3.0,Phases=3,kv=0.22,kW=13.294,pf=0.92,Vminpu=0.92,Vmaxpu=1.5,model=1,daily=COM4_4,status=variable
new load.3000210481M1 bus1=RML1052522315.3.0,Phases=1,kv=0.127,kW=0.9227,pf=0.92,Vminpu=0.92,Vmaxpu=1.5,model=1,daily=RES2_4,status=variable
new load.3000210490M1 bus1=RML1052522777.2.3.0,Phases=2,kv=0.22,kW=1.18222,pf=0.92,Vminpu=0.92,Vmaxpu=1.5,model=1,daily=RES2_4,status=variable
new load.3000210503M1 bus1=RML1052523988.3.0,Phases=1,kv=0.127,kW=1.37444,pf=0.92,Vminpu=0.92,Vmaxpu=1.5,model=1,daily=RES2_4,status=variable
new load.3000210512M1 bus1=RML1052524289.3.0,Phases=1,kv=0.127,kW=1.46094,pf=0.92,Vminpu=0.92,Vmaxpu=1.5,model=1,daily=RES2_4,status=variable
new load.3000210520M1 bus1=RML1052524373.1.2.3.0,Phases=3,kv=0.22,kW=0.1712,pf=0.92,Vminpu=0.92,Vmaxpu=1.5,model=1,daily=RES3_4,status=variable
new load.3000210528M1 bus1=RML1052524408.2.3.0,Phases=2,kv=0.22,kW=0.06728,pf=0.92,Vminpu=0.92,Vmaxpu=1.5,model=1,daily=RES2_4,status=variable
new load.3000210536M1 bus1=RML1052524345.1.2.0,Phases=2,kv=0.22,kW=1.02842,pf=0.92,Vminpu=0.92,Vmaxpu=1.5,model=1,daily=RES2_4,status=variable
new load.3000210544M1 bus1=RML1052524051.3.0,Phases=1,kv=0.127,kW=1.28794,pf=0.92,Vminpu=0.92,Vmaxpu=1.5,model=1,daily=RES2_4,status=variable
new load.3000210554M1 bus1=RML1052524114.1.2.0,Phases=2,kv=0.22,kW=0.52042,pf=0.92,Vminpu=0.92,Vmaxpu=1.5,model=1,daily=RES1_2,status=variable
new load.3000210562M1 bus1=RML1052524443.3.0,Phases=1,kv=0.127,kW=0.73116,pf=0.92,Vminpu=0.92,Vmaxpu=1.5,model=1,daily=RES4_5,status=variable
new load.3000210572M1 bus1=RML1052524772.1.2.0,Phases=2,kv=0.22,kW=1.52822,pf=0.92,Vminpu=0.92,Vmaxpu=1.5,model=1,daily=RES2_4,status=variable
new load.3000210581M1 bus1=RML1052524079.1.0,Phases=1,kv=0.127,kW=1.46742,pf=0.92,Vminpu=0.92,Vmaxpu=1.5,model=1,daily=RES3_4,status=variable
new load.3000210597M1 bus1=RML1052522847.1.2.0,Phases=2,kv=0.22,kW=1.53466,pf=0.92,Vminpu=0.92,Vmaxpu=1.5,model=1,daily=RES3_4,status=variable
new load.3000210605M1 bus1=RML1052522707.1.3.0,Phases=2,kv=0.22,kW=0.76892,pf=0.92,Vminpu=0.92,Vmaxpu=1.5,model=1,daily=RES2_4,status=variable
new load.3000210613M1 bus1=RML1052521944.1.2.3.0,Phases=3,kv=0.22,kW=0.23566,pf=0.92,Vminpu=0.92,Vmaxpu=1.5,model=1,daily=RES1_2,status=variable
new load.3000210631M1 bus1=RML1052521433.1.2.3.0,Phases=3,kv=0.22,kW=0.94192,pf=0.92,Vminpu=0.92,Vmaxpu=1.5,model=1,daily=RES2_4,status=variable
new load.3000210639M1 bus1=RML1052521846.1.0,Phases=1,kv=0.127,kW=1.13416,pf=0.92,Vminpu=0.92,Vmaxpu=1.5,model=1,daily=RES2_4,status=variable
new load.3000737550M1 bus1=RML1052519690.1.0,Phases=1,kv=0.127,kW=1.02486,pf=0.92,Vminpu=0.92,Vmaxpu=1.5,model=1,daily=RES3_13,status=variable
new load.3000737630M1 bus1=RML1052520803.1.2.3.0,Phases=3,kv=0.22,kW=0.88462,pf=0.92,Vminpu=0.92,Vmaxpu=1.5,model=1,daily=RES2_15,status=variable
new load.3000737638M1 bus1=RML1052520943.2.0,Phases=1,kv=0.127,kW=1.42424,pf=0.92,Vminpu=0.92,Vmaxpu=1.5,model=1,daily=RES2_15,status=variable
new load.3000737646M1 bus1=RML1052520691.1.0,Phases=1,kv=0.127,kW=1.0045,pf=0.92,Vminpu=0.92,Vmaxpu=1.5,model=1,daily=RES4_16,status=variable
new load.3000737656M1 bus1=RML1052520642.3.0,Phases=1,kv=0.127,kW=1.15886,pf=0.92,Vminpu=0.92,Vmaxpu=1.5,model=1,daily=RES2_15,status=variable
new load.3000737664M1 bus1=RML1052520467.3.0,Phases=1,kv=0.127,kW=0.69076,pf=0.92,Vminpu=0.92,Vmaxpu=1.5,model=1,daily=RES1_14,status=variable
new load.3000737676M1 bus1=RML1052520572.3.0,Phases=1,kv=0.127,kW=1.38234,pf=0.92,Vminpu=0.92,Vmaxpu=1.5,model=1,daily=RES4_16,status=variable
new load.3000557447M1 bus1=RML1052515861.1.2.3.0,Phases=3,kv=0.22,kW=2.26868,pf=0.92,Vminpu=0.92,Vmaxpu=1.5,model=1,daily=RES4_11,status=variable
new load.3000557455M1 bus1=RML1052515805.1.0,Phases=1,kv=0.127,kW=0.98074,pf=0.92,Vminpu=0.92,Vmaxpu=1.5,model=1,daily=RES2_9,status=variable
new load.3000557471M1 bus1=RML1052514727.1.2.0,Phases=2,kv=0.22,kW=0.73922,pf=0.92,Vminpu=0.92,Vmaxpu=1.5,model=1,daily=RES2_9,status=variable
new load.3000557480M1 bus1=RML1052514825.1.2.3.0,Phases=3,kv=0.22,kW=0.96734,pf=0.92,Vminpu=0.92,Vmaxpu=1.5,model=1,daily=RES3_11,status=variable
new load.3000557488M1 bus1=RML1052514776.1.0,Phases=1,kv=0.127,kW=0.6148,pf=0.92,Vminpu=0.92,Vmaxpu=1.5,model=1,daily=RES2_9,status=variable
new load.3000557497M1 bus1=RML1052514258.2.0,Phases=1,kv=0.12,kW=1.09052,pf=0.92,Vminpu=0.92,Vmaxpu=1.5,model=1,daily=RES2_9,status=variable
new load.3000557505M1 bus1=RML1052513936.1.0,Phases=1,kv=0.127,kW=1.09052,pf=0.92,Vminpu=0.92,Vmaxpu=1.5,model=1,daily=RES2_9,status=variable
new load.3000557513M1 bus1=RML1052513740.1.2.3.0,Phases=3,kv=0.22,kW=0.73922,pf=0.92,Vminpu=0.92,Vmaxpu=1.5,model=1,daily=RES2_9,status=variable
new load.3000557522M1 bus1=RML1052513698.2.0,Phases=1,kv=0.127,kW=0.72066,pf=0.92,Vminpu=0.92,Vmaxpu=1.5,model=1,daily=RES1_9,status=variable
new load.3000557578M1 bus1=RML1052513299.2.0,Phases=1,kv=0.127,kW=1.12712,pf=0.92,Vminpu=0.92,Vmaxpu=1.5,model=1,daily=RES2_9,status=variable
new load.3000557595M1 bus1=RML1052514475.2.0,Phases=1,kv=0.127,kW=0.81202,pf=0.92,Vminpu=0.92,Vmaxpu=1.5,model=1,daily=RES1_9,status=variable
new load.3000557603M1 bus1=RML1052514580.2.3.0,Phases=2,kv=0.22,kW=0.53796,pf=0.92,Vminpu=0.92,Vmaxpu=1.5,model=1,daily=RES1_9,status=variable
new load.3000557611M1 bus1=RML1052514356.1.0,Phases=1,kv=0.12,kW=0.76118,pf=0.92,Vminpu=0.92,Vmaxpu=1.5,model=1,daily=RES2_9,status=variable
new load.3000557619M1 bus1=RML1052514426.1.0,Phases=1,kv=0.12,kW=1.17836,pf=0.92,Vminpu=0.92,Vmaxpu=1.5,model=1,daily=RES2_9,status=variable
new load.3000557627M1 bus1=RML1052515308.1.2.3.0,Phases=3,kv=0.22,kW=1.0772,pf=0.92,Vminpu=0.92,Vmaxpu=1.5,model=1,daily=COM1_14,status=variable
new load.3000557635M1 bus1=RML1052515434.1.0,Phases=1,kv=0.127,kW=1.0832,pf=0.92,Vminpu=0.92,Vmaxpu=1.5,model=1,daily=RES2_9,status=variable
new load.3000557651M1 bus1=RML1052516799.2.0,Phases=1,kv=0.12,kW=0.68066,pf=0.92,Vminpu=0.92,Vmaxpu=1.5,model=1,daily=RES2_9,status=variable
new load.3000557659M1 bus1=RML1052516778.2.0,Phases=1,kv=0.12,kW=1.5613,pf=0.92,Vminpu=0.92,Vmaxpu=1.5,model=1,daily=RES4_11,status=variable
new load.3000557675M1 bus1=RML1052515623.3.0,Phases=1,kv=0.127,kW=0.29436,pf=0.92,Vminpu=0.92,Vmaxpu=1.5,model=1,daily=RES1_9,status=variable
new load.3000557683M1 bus1=RML1052515497.1.0,Phases=1,kv=0.127,kW=0.203,pf=0.92,Vminpu=0.92,Vmaxpu=1.5,model=1,daily=RES1_9,status=variable
new load.3000557691M1 bus1=RML1052515896.2.0,Phases=1,kv=0.127,kW=1.06126,pf=0.92,Vminpu=0.92,Vmaxpu=1.5,model=1,daily=RES2_9,status=variable
new load.3001089026M1 bus1=RML1052533046.2.0,Phases=1,kv=0.12,kW=0.61868,pf=0.92,Vminpu=0.92,Vmaxpu=1.5,model=1,daily=COM1_26,status=variable
new load.3001089038M1 bus1=RML1052532388.1.2.0,Phases=2,kv=0.24,kW=0.56944,pf=0.92,Vminpu=0.92,Vmaxpu=1.5,model=1,daily=RES3_20,status=variable
new load.3001089213M1 bus1=RML1052519970.2.0,Phases=1,kv=0.127,kW=0.71334,pf=0.92,Vminpu=0.92,Vmaxpu=1.5,model=1,daily=RES3_20,status=variable
new load.3000557448M1 bus1=RML1052515861.1.2.3.0,Phases=3,kv=0.22,kW=1.2369,pf=0.92,Vminpu=0.92,Vmaxpu=1.5,model=1,daily=RES2_9,status=variable
new load.3000557456M1 bus1=RML1052515833.1.0,Phases=1,kv=0.127,kW=0.9661,pf=0.92,Vminpu=0.92,Vmaxpu=1.5,model=1,daily=RES2_9,status=variable
new load.3000557464M1 bus1=RML1052515364.3.0,Phases=1,kv=0.127,kW=0.87096,pf=0.92,Vminpu=0.92,Vmaxpu=1.5,model=1,daily=RES2_9,status=variable
new load.3000557472M1 bus1=RML1052514720.1.2.0,Phases=2,kv=0.22,kW=0.6148,pf=0.92,Vminpu=0.92,Vmaxpu=1.5,model=1,daily=RES2_9,status=variable
new load.3000557481M1 bus1=RML1052514818.1.2.3.0,Phases=3,kv=0.22,kW=0.92218,pf=0.92,Vminpu=0.92,Vmaxpu=1.5,model=1,daily=RES2_9,status=variable
new load.3000557490M1 bus1=RML1052514314.1.2.0,Phases=2,kv=0.24,kW=1.22958,pf=0.92,Vminpu=0.92,Vmaxpu=1.5,model=1,daily=RES2_9,status=variable
new load.3000557498M1 bus1=RML1052514265.1.0,Phases=1,kv=0.12,kW=0.849,pf=0.92,Vminpu=0.92,Vmaxpu=1.5,model=1,daily=RES2_9,status=variable
new load.3000557506M1 bus1=RML1052513887.3.0,Phases=1,kv=0.127,kW=1.02466,pf=0.92,Vminpu=0.92,Vmaxpu=1.5,model=1,daily=RES2_9,status=variable
new load.3000557514M1 bus1=RML1052513719.2.0,Phases=1,kv=0.127,kW=0.83436,pf=0.92,Vminpu=0.92,Vmaxpu=1.5,model=1,daily=RES2_9,status=variable
new load.3000557523M1 bus1=RML1052513656.1.0,Phases=1,kv=0.127,kW=0.44662,pf=0.92,Vminpu=0.92,Vmaxpu=1.5,model=1,daily=RES1_9,status=variable
new load.3000557579M1 bus1=RML1052513292.1.2.3.0,Phases=3,kv=0.22,kW=0.81202,pf=0.92,Vminpu=0.92,Vmaxpu=1.5,model=1,daily=RES1_9,status=variable
new load.3000557588M1 bus1=RML1052514664.3.0,Phases=1,kv=0.127,kW=0.72458,pf=0.92,Vminpu=0.92,Vmaxpu=1.5,model=1,daily=RES2_9,status=variable
new load.3000557596M1 bus1=RML1052514573.3.0,Phases=1,kv=0.127,kW=0.8026,pf=0.92,Vminpu=0.92,Vmaxpu=1.5,model=1,daily=RES3_11,status=variable
new load.3000557604M1 bus1=RML1052514552.1.3.0,Phases=2,kv=0.22,kW=0.87864,pf=0.92,Vminpu=0.92,Vmaxpu=1.5,model=1,daily=RES3_11,status=variable
new load.3000557612M1 bus1=RML1052514363.1.2.0,Phases=2,kv=0.24,kW=0.79838,pf=0.92,Vminpu=0.92,Vmaxpu=1.5,model=1,daily=RES3_11,status=variable
new load.3000557620M1 bus1=RML1052514419.2.0,Phases=1,kv=0.12,kW=0.35526,pf=0.92,Vminpu=0.92,Vmaxpu=1.5,model=1,daily=RES1_9,status=variable
new load.3000557636M1 bus1=RML1052516701.1.2.0,Phases=2,kv=0.24,kW=0.51964,pf=0.92,Vminpu=0.92,Vmaxpu=1.5,model=1,daily=RES2_9,status=variable
new load.3000557652M1 bus1=RML1052516792.1.0,Phases=1,kv=0.12,kW=0.84168,pf=0.92,Vminpu=0.92,Vmaxpu=1.5,model=1,daily=RES2_9,status=variable
new load.3000557660M1 bus1=RML1052516687.2.0,Phases=1,kv=0.12,kW=1.0027,pf=0.92,Vminpu=0.92,Vmaxpu=1.5,model=1,daily=RES2_9,status=variable
new load.3000557668M1 bus1=RML1052515693.3.0,Phases=1,kv=0.127,kW=0.80508,pf=0.92,Vminpu=0.92,Vmaxpu=1.5,model=1,daily=RES2_9,status=variable
new load.3000557676M1 bus1=RML1052515637.1.2.3.0,Phases=3,kv=0.22,kW=0.75386,pf=0.92,Vminpu=0.92,Vmaxpu=1.5,model=1,daily=RES2_9,status=variable
new load.3000557684M1 bus1=RML1052515525.3.0,Phases=1,kv=0.127,kW=0.6148,pf=0.92,Vminpu=0.92,Vmaxpu=1.5,model=1,daily=RES2_9,status=variable
new load.3000557692M1 bus1=RML1052515889.1.2.3.0,Phases=3,kv=0.22,kW=0.39522,pf=0.92,Vminpu=0.92,Vmaxpu=1.5,model=1,daily=RES2_9,status=variable
new load.3001089027M1 bus1=RML1052533039.1.0,Phases=1,kv=0.12,kW=0.82102,pf=0.92,Vminpu=0.92,Vmaxpu=1.5,model=1,daily=RES1_26,status=variable
new load.3001089039M1 bus1=RML1052532381.2.0,Phases=1,kv=0.12,kW=0.32178,pf=0.92,Vminpu=0.92,Vmaxpu=1.5,model=1,daily=RES2_28,status=variable
new load.3001089214M1 bus1=RML1052519949.1.2.3.0,Phases=3,kv=0.22,kW=0.46508,pf=0.92,Vminpu=0.92,Vmaxpu=1.5,model=1,daily=RES2_28,status=variable
new load.3000557454M1 bus1=RML1052515791.1.2.3.0,Phases=3,kv=0.22,kW=0.97342,pf=0.92,Vminpu=0.92,Vmaxpu=1.5,model=1,daily=RES2_9,status=variable
new load.3000557462M1 bus1=RML1052515476.1.0,Phases=1,kv=0.127,kW=0.40986,pf=0.92,Vminpu=0.92,Vmaxpu=1.5,model=1,daily=RES2_9,status=variable
new load.3000557470M1 bus1=RML1052515301.1.0,Phases=1,kv=0.127,kW=1.01002,pf=0.92,Vminpu=0.92,Vmaxpu=1.5,model=1,daily=RES2_9,status=variable
new load.3000557478M1 bus1=RML1052514797.3.0,Phases=1,kv=0.127,kW=0.76118,pf=0.92,Vminpu=0.92,Vmaxpu=1.5,model=1,daily=RES2_9,status=variable
new load.3000557487M1 bus1=RML1052514762.2.0,Phases=1,kv=0.127,kW=0.46692,pf=0.92,Vminpu=0.92,Vmaxpu=1.5,model=1,daily=RES1_9,status=variable
new load.3000557496M1 bus1=RML1052514251.2.0,Phases=1,kv=0.12,kW=1.0393,pf=0.92,Vminpu=0.92,Vmaxpu=1.5,model=1,daily=RES2_9,status=variable
new load.3000557512M1 bus1=RML1052513782.2.3.0,Phases=2,kv=0.22,kW=0.95878,pf=0.92,Vminpu=0.92,Vmaxpu=1.5,model=1,daily=RES2_9,status=variable
new load.3000557521M1 bus1=RML1052513691.1.2.0,Phases=2,kv=0.22,kW=0.70994,pf=0.92,Vminpu=0.92,Vmaxpu=1.5,model=1,daily=RES2_9,status=variable
new load.3000557577M1 bus1=RML1052513264.1.0,Phases=1,kv=0.127,kW=0.88286,pf=0.92,Vminpu=0.92,Vmaxpu=1.5,model=1,daily=RES3_11,status=variable
new load.3000557586M1 bus1=RML1052514678.3.0,Phases=1,kv=0.127,kW=0.77726,pf=0.92,Vminpu=0.92,Vmaxpu=1.5,model=1,daily=RES3_11,status=variable
new load.3000557594M1 bus1=RML1052514517.3.0,Phases=1,kv=0.127,kW=0.7519,pf=0.92,Vminpu=0.92,Vmaxpu=1.5,model=1,daily=RES3_11,status=variable
new load.3000557602M1 bus1=RML1052514601.1.0,Phases=1,kv=0.127,kW=0.90756,pf=0.92,Vminpu=0.92,Vmaxpu=1.5,model=1,daily=RES2_9,status=variable
new load.3000557610M1 bus1=RML1052514468.2.0,Phases=1,kv=0.127,kW=0.2639,pf=0.92,Vminpu=0.92,Vmaxpu=1.5,model=1,daily=RES1_9,status=variable
new load.3000557618M1 bus1=RML1052514412.1.2.0,Phases=2,kv=0.24,kW=0.7319,pf=0.92,Vminpu=0.92,Vmaxpu=1.5,model=1,daily=RES2_9,status=variable
new load.3000557626M1 bus1=RML1052515329.2.0,Phases=1,kv=0.127,kW=1.33206,pf=0.92,Vminpu=0.92,Vmaxpu=1.5,model=1,daily=RES2_9,status=variable
new load.3000557634M1 bus1=RML1052515427.1.2.3.0,Phases=3,kv=0.22,kW=0.68798,pf=0.92,Vminpu=0.92,Vmaxpu=1.5,model=1,daily=RES2_9,status=variable