new line.CTR123758 bus1=BMT122073711.3,bus2=BMT155899300.3,Phases=1,LineCode=tieSwitch1,Length=0.001,Units=km,switch=T !numEQ 94592
new line.CTR123863 bus1=BMT122073837.3,bus2=BMT156378668.3,Phases=1,LineCode=tieSwitch1,Length=0.001,Units=km,switch=T !numEQ 94711
new line.CTR123905 bus1=BMT170128942.1.2.3,bus2=BMT170129075.1.2.3,Phases=3,LineCode=tieSwitch,Length=0.001,Units=km,switch=T !numEQ 94555
open line.CTR123905 term=1
new line.CTR123912 bus1=BMT122061202.1.2.3,bus2=BMT155318680.1.2.3,Phases=3,LineCode=tieSwitch,Length=0.001,Units=km,switch=T !numEQ 94554
new line.CTR123926 bus1=BMT122073746.3,bus2=BMT122073893.3,Phases=1,LineCode=tieSwitch1,Length=0.001,Units=km,switch=T !numEQ 94553
new line.CTR123933 bus1=BMT122061069.1.2.3,bus2=BMT144064148.1.2.3,Phases=3,LineCode=tieSwitch,Length=0.001,Units=km,switch=T !numEQ 94576
new line.CTR123940 bus1=BMT122061237.3,bus2=BMT122073634.3,Phases=1,LineCode=tieSwitch1,Length=0.001,Units=km,switch=T !numEQ 94583
new line.CTR123961 bus1=BMT122070316.1,bus2=BMT162991122.1,Phases=1,LineCode=tieSwitch1,Length=0.001,Units=km,switch=T !numEQ 94593
new line.CTR124024 bus1=BMT122067691.2,bus2=BMT122067978.2,Phases=1,LineCode=tieSwitch1,Length=0.001,Units=km,switch=T !numEQ 94648
new line.CTR124066 bus1=BMT148947257.3,bus2=BMT148947284.3,Phases=1,LineCode=tieSwitch1,Length=0.001,Units=km,switch=T !numEQ 94590
new line.CTR124073 bus1=BMT122072948.3,bus2=BMT137448000.3,Phases=1,LineCode=tieSwitch1,Length=0.001,Units=km,switch=T !numEQ 94535
new line.CTR124094 bus1=BMT136614076.3,bus2=BMT169888158.3,Phases=1,LineCode=tieSwitch1,Length=0.001,Units=km,switch=T !numEQ 94634
new line.CTR124108 bus1=BMT122071737.2,bus2=BMT144667667.2,Phases=1,LineCode=tieSwitch1,Length=0.001,Units=km,switch=T !numEQ 94669
new line.CTR124115 bus1=BMT122068097.3,bus2=BMT132962540.3,Phases=1,LineCode=tieSwitch1,Length=0.001,Units=km,switch=T !numEQ 95964
new line.CTR124129 bus1=BMT122067887.3,bus2=BMT128317627.3,Phases=1,LineCode=tieSwitch1,Length=0.001,Units=km,switch=T !numEQ 94823
new line.CTR124136 bus1=BMT122070659.3,bus2=BMT137448238.3,Phases=1,LineCode=tieSwitch1,Length=0.001,Units=km,switch=T !numEQ 94527
new line.CTR124143 bus1=BMT122070673.3,bus2=BMT137448266.3,Phases=1,LineCode=tieSwitch1,Length=0.001,Units=km,switch=T !numEQ 94624
new line.CTR124150 bus1=BMT122070470.2,bus2=BMT122073389.2,Phases=1,LineCode=tieSwitch1,Length=0.001,Units=km,switch=T !numEQ 94539
new line.CTR124157 bus1=BMT122070491.3,bus2=BMT132809219.3,Phases=1,LineCode=tieSwitch1,Length=0.001,Units=km,switch=T !numEQ 94540
new line.CTR124164 bus1=BMT122061426.1,bus2=BMT149371217.1,Phases=1,LineCode=tieSwitch1,Length=0.001,Units=km,switch=T !numEQ 94567
new line.CTR124171 bus1=BMT122061454.1,bus2=BMT122069840.1,Phases=1,LineCode=tieSwitch1,Length=0.001,Units=km,switch=T !numEQ 94488
new line.CTR124185 bus1=BMT122061706.2,bus2=BMT165937504.2,Phases=1,LineCode=tieSwitch1,Length=0.001,Units=km,switch=T !numEQ 94604
new line.CTR124311 bus1=BMT122061062.1.2.3,bus2=BMT147834453.1.2.3,Phases=3,LineCode=tieSwitch,Length=0.001,Units=km,switch=T !numEQ 94551
new line.CTR124318 bus1=BMT122061188.1,bus2=BMT153364204.1,Phases=1,LineCode=tieSwitch1,Length=0.001,Units=km,switch=T !numEQ 94579
new line.CTR124353 bus1=BMT122067635.2,bus2=BMT149089922.2,Phases=1,LineCode=tieSwitch1,Length=0.001,Units=km,switch=T !numEQ 94644
new line.CTR124360 bus1=BMT122069924.1,bus2=BMT132813958.1,Phases=1,LineCode=tieSwitch1,Length=0.001,Units=km,switch=T !numEQ 94521
new line.CTR124367 bus1=BMT149377548.1.2.3,bus2=BMT155319931.1.2.3,Phases=3,LineCode=tieSwitch,Length=0.001,Units=km,switch=T !numEQ 94611
new line.CTR124388 bus1=BMT150046765.1,bus2=BMT150047414.1,Phases=1,LineCode=tieSwitch1,Length=0.001,Units=km,switch=T !numEQ 94630
new line.CTR124409 bus1=BMT122063008.1.2.3,bus2=BMT122068671.1.2.3,Phases=3,LineCode=tieSwitch,Length=0.001,Units=km,switch=T !numEQ 94666
new line.CTR124430 bus1=BMT122065472.3,bus2=BMT122066347.3,Phases=1,LineCode=tieSwitch1,Length=0.001,Units=km,switch=T !numEQ 94712
new line.CTR124444 bus1=BMT122065766.1,bus2=BMT169359407.1,Phases=1,LineCode=tieSwitch1,Length=0.001,Units=km,switch=T !numEQ 94629
new line.CTR124577 bus1=BMT122067698.3,bus2=BMT155517148.3,Phases=1,LineCode=tieSwitch1,Length=0.001,Units=km,switch=T !numEQ 95590
new line.CTR124626 bus1=BMT122060957.3,bus2=BMT131297121.3,Phases=1,LineCode=tieSwitch1,Length=0.001,Units=km,switch=T !numEQ 94960
new line.CTR124633 bus1=BMT122061244.1.2.3,bus2=BMT155319167.1.2.3,Phases=3,LineCode=tieSwitch,Length=0.001,Units=km,switch=T !numEQ 94575
new line.CTR124640 bus1=BMT136546701.1.2.3,bus2=BMT155737305.1.2.3,Phases=3,LineCode=tieSwitch,Length=0.001,Units=km,switch=T !numEQ 94560
new line.CTR124675 bus1=BMT122072045.2,bus2=BMT122072332.2,Phases=1,LineCode=tieSwitch1,Length=0.001,Units=km,switch=T !numEQ 95521
new line.CTR124682 bus1=BMT122071100.2,bus2=BMT170187732.2,Phases=1,LineCode=tieSwitch1,Length=0.001,Units=km,switch=T !numEQ 94642
new line.CTR124689 bus1=BMT122071352.2,bus2=BMT162944351.2,Phases=1,LineCode=tieSwitch1,Length=0.001,Units=km,switch=T !numEQ 94641
new line.CTR124710 bus1=BMT122070701.3,bus2=BMT137448294.3,Phases=1,LineCode=tieSwitch1,Length=0.001,Units=km,switch=T !numEQ 94571
new line.CTR124717 bus1=BMT122070715.3,bus2=BMT137448336.3,Phases=1,LineCode=tieSwitch1,Length=0.001,Units=km,switch=T !numEQ 94528
new line.CTR124724 bus1=BMT122070043.1,bus2=BMT132814245.1,Phases=1,LineCode=tieSwitch1,Length=0.001,Units=km,switch=T !numEQ 94531
new line.CTR124731 bus1=BMT122069952.3,bus2=BMT122069959.3,Phases=1,LineCode=tieSwitch1,Length=0.001,Units=km,switch=T !numEQ 94572
new line.CTR124738 bus1=BMT165562754.1.2.3,bus2=BMT165562978.1.2.3,Phases=3,LineCode=tieSwitch,Length=0.001,Units=km,switch=T !numEQ 94023
new line.CTR124752 bus1=BMT122061776.2,bus2=BMT148695773.2,Phases=1,LineCode=tieSwitch1,Length=0.001,Units=km,switch=T !numEQ 94617
new line.CTR124808 bus1=BMT129972357.1.2.3,bus2=BMT132938033.1.2.3,Phases=3,LineCode=tieSwitch,Length=0.001,Units=km,switch=T !numEQ 94697
new line.CTR124815 bus1=BMT122062973.1.2.3,bus2=BMT122068804.1.2.3,Phases=3,LineCode=tieSwitch,Length=0.001,Units=km,switch=T !numEQ 94661
new line.CTR124822 bus1=BMT122063071.1.2.3,bus2=BMT122063085.1.2.3,Phases=3,LineCode=tieSwitch,Length=0.001,Units=km,switch=T !numEQ 94766
new line.CTR124836 bus1=BMT168385710.1.2.3,bus2=BMT122064842.1.2.3,Phases=3,LineCode=tieSwitch,Length=0.001,Units=km,switch=T !numEQ 94679
open line.CTR124836 term=1
new line.CTR124850 bus1=BMT122068545.1,bus2=BMT122068566.1,Phases=1,LineCode=tieSwitch1,Length=0.001,Units=km,switch=T !numEQ 94654
new line.CTR135553 bus1=BMT156028512.1.2.3,bus2=BMT156622779.1.2.3,Phases=3,LineCode=tieSwitch,Length=0.001,Units=km,switch=T !numEQ 154563
new line.CTR135609 bus1=BMT122066725.3,bus2=BMT122066788.3,Phases=1,LineCode=tieSwitch1,Length=0.001,Units=km,switch=T !numEQ 94131
new line.CTR135630 bus1=BMT132944389.2,bus2=BMT122065885.2,Phases=1,LineCode=tieSwitch1,Length=0.001,Units=km,switch=T !numEQ 135978
new line.CTR15034 bus1=BMT122061034.1.2.3,bus2=BMT122074166.1.2.3,Phases=3,LineCode=tieSwitch,Length=0.001,Units=km,switch=T !numEQ 136862
new line.CTR150407 bus1=BMT134896122.2,bus2=BMT144969787.2,Phases=1,LineCode=tieSwitch1,Length=0.001,Units=km,switch=T !numEQ 94665
new line.CTR150792 bus1=BMT122063519.1.2.3,bus2=BMT122063729.1.2.3,Phases=3,LineCode=tieSwitch,Length=0.001,Units=km,switch=T !numEQ 142456
new line.CTR150806 bus1=BMT122068419.1,bus2=BMT132933259.1,Phases=1,LineCode=tieSwitch1,Length=0.001,Units=km,switch=T !numEQ 142749
new line.CTR150834 bus1=BMT122068412.1,bus2=BMT132933273.1,Phases=1,LineCode=tieSwitch1,Length=0.001,Units=km,switch=T !numEQ 142748
new line.CTR179702 bus1=BMT122061881.1,bus2=BMT122061888.1,Phases=1,LineCode=tieSwitch1,Length=0.001,Units=km,switch=T !numEQ 191447
new line.CTR186086 bus1=BMT129971244.1.2.3,bus2=BMT129971412.1.2.3,Phases=3,LineCode=tieSwitch,Length=0.001,Units=km,switch=T !numEQ 154575
new line.CTR186093 bus1=BMT148341697.1.2.3,bus2=BMT171572972.1.2.3,Phases=3,LineCode=tieSwitch,Length=0.001,Units=km,switch=T !numEQ 94645
new line.CTR186121 bus1=BMT168820999.1.2.3,bus2=BMT122067712.1.2.3,Phases=3,LineCode=tieSwitch,Length=0.001,Units=km,switch=T !numEQ 154577
open line.CTR186121 term=1
new line.CTR186128 bus1=BMT122065122.3,bus2=BMT132962225.3,Phases=1,LineCode=tieSwitch1,Length=0.001,Units=km,switch=T !numEQ 154570
new line.CTR186135 bus1=BMT122065143.3,bus2=BMT122068377.3,Phases=1,LineCode=tieSwitch1,Length=0.001,Units=km,switch=T !numEQ 154571
new line.CTR186142 bus1=BMT122065157.1,bus2=BMT158274489.1,Phases=1,LineCode=tieSwitch1,Length=0.001,Units=km,switch=T !numEQ 154572
new line.CTR186149 bus1=BMT122065192.1.2.3,bus2=BMT122065199.1.2.3,Phases=3,LineCode=tieSwitch,Length=0.001,Units=km,switch=T !numEQ 154573
new line.CTR186156 bus1=BMT122065220.1.2.3,bus2=BMT129971237.1.2.3,Phases=3,LineCode=tieSwitch,Length=0.001,Units=km,switch=T !numEQ 154574
new line.CTR20004 bus1=BMT122071723.2,bus2=BMT122072374.2,Phases=1,LineCode=tieSwitch1,Length=0.001,Units=km,switch=T !numEQ 142250
new line.CTR20011 bus1=BMT122071877.2,bus2=BMT122071933.2,Phases=1,LineCode=tieSwitch1,Length=0.001,Units=km,switch=T !numEQ 142252
new line.CTR23574 bus1=BMT129979063.1.2.3,bus2=BMT156007415.1.2.3,Phases=3,LineCode=tieSwitch,Length=0.001,Units=km,switch=T !numEQ 154776
new line.CTR23651 bus1=BMT122072941.3,bus2=BMT172041854.3,Phases=1,LineCode=tieSwitch1,Length=0.001,Units=km,switch=T !numEQ 154672
new line.CTR350902 bus1=BMT122064926.2,bus2=BMT122064933.2,Phases=1,LineCode=tieSwitch1,Length=0.001,Units=km,switch=T !numEQ 283377
new line.CTR354080 bus1=BMT122070106.1,bus2=BMT132814217.1,Phases=1,LineCode=tieSwitch1,Length=0.001,Units=km,switch=T !numEQ 286592
new line.CTR397683 bus1=BMT137413924.1.2.3,bus2=BMT170128935.1.2.3,Phases=3,LineCode=tieSwitch,Length=0.001,Units=km,switch=T !numEQ 230032
new line.CTR401393 bus1=BMT129979259.2,bus2=BMT155736863.2,Phases=1,LineCode=tieSwitch1,Length=0.001,Units=km,switch=T !numEQ 286680
new line.CTR401400 bus1=BMT156007418.3,bus2=BMT156007437.3,Phases=1,LineCode=tieSwitch1,Length=0.001,Units=km,switch=T !numEQ 286681
new line.CTR401470 bus1=BMT130013055.1.2.3,bus2=BMT155737178.1.2.3,Phases=3,LineCode=tieSwitch,Length=0.001,Units=km,switch=T !numEQ 286683
new line.CTR401533 bus1=BMT130034510.1,bus2=BMT168737602.1,Phases=1,LineCode=tieSwitch1,Length=0.001,Units=km,switch=T !numEQ 286679
new line.CTR44868 bus1=BMT122063022.1.2.3,bus2=BMT122063029.1.2.3,Phases=3,LineCode=tieSwitch,Length=0.001,Units=km,switch=T !numEQ 154600
new line.CTR44952 bus1=BMT122063624.1,bus2=BMT122063680.1,Phases=1,LineCode=tieSwitch1,Length=0.001,Units=km,switch=T !numEQ 155258
new line.CTR45113 bus1=BMT122062021.1,bus2=BMT155147540.1,Phases=1,LineCode=tieSwitch1,Length=0.001,Units=km,switch=T !numEQ 155457
new line.CTR50384 bus1=BMT122064212.1.2.3,bus2=BMT148815010.1.2.3,Phases=3,LineCode=tieSwitch,Length=0.001,Units=km,switch=T !numEQ 120055
new line.CTR854271 bus1=BMT151149658.1.2.3,bus2=BMT170334540.1.2.3,Phases=3,LineCode=tieSwitch,Length=0.001,Units=km,switch=T !numEQ 381546
new line.CTR871107 bus1=BMT166065553.1.2.3,bus2=BMT166065554.1.2.3,Phases=3,LineCode=tieSwitch,Length=0.001,Units=km,switch=T !numEQ 242221
new line.CTR871330 bus1=BMT170615115.1.2.3,bus2=BMT170156453.1.2.3,Phases=3,LineCode=tieSwitch,Length=0.001,Units=km,switch=T !numEQ 243234
open line.CTR871330 term=1
new line.CTR871835 bus1=BMT156279160.1.2.3,bus2=BMT156634589.1.2.3,Phases=3,LineCode=tieSwitch,Length=0.001,Units=km,switch=T !numEQ 243233
new line.CTR872687 bus1=BMT156543589.2,bus2=BMT156543612.2,Phases=1,LineCode=tieSwitch1,Length=0.001,Units=km,switch=T !numEQ 242162
new line.CTR892544 bus1=BMT164107077.1,bus2=BMT164107363.1,Phases=1,LineCode=tieSwitch1,Length=0.001,Units=km,switch=T !numEQ 402102
new line.CTR123702 bus1=BMT122061111.2,bus2=BMT122061146.2,Phases=1,LineCode=tieSwitch1,Length=0.001,Units=km,switch=T !numEQ 94896
new line.CTR151863 bus1=BMT122068902.1,bus2=BMT163678100.1,Phases=1,LineCode=tieSwitch1,Length=0.001,Units=km,switch=T !numEQ 124773
new line.CTR151919 bus1=BMT122063526.1.2.3,bus2=BMT122063715.1.2.3,Phases=3,LineCode=tieSwitch,Length=0.001,Units=km,switch=T !numEQ 142455
new line.CTR152444 bus1=BMT122066067.2,bus2=BMT160190842.2,Phases=1,LineCode=tieSwitch1,Length=0.001,Units=km,switch=T !numEQ 142411
new line.CTR152752 bus1=BMT122070568.3,bus2=BMT159010941.3,Phases=1,LineCode=tieSwitch1,Length=0.001,Units=km,switch=T !numEQ 94813
new line.CTR152773 bus1=BMT122067999.2,bus2=BMT168113240.2,Phases=1,LineCode=tieSwitch1,Length=0.001,Units=km,switch=T !numEQ 94647
new line.CTR152787 bus1=BMT122073284.1,bus2=BMT137447237.1,Phases=1,LineCode=tieSwitch1,Length=0.001,Units=km,switch=T !numEQ 94522
new line.CTR152794 bus1=BMT122061384.1.2.3,bus2=BMT132841881.1.2.3,Phases=3,LineCode=tieSwitch,Length=0.001,Units=km,switch=T !numEQ 94474
new line.CTR152829 bus1=BMT122074047.1,bus2=BMT122074054.1,Phases=1,LineCode=tieSwitch1,Length=0.001,Units=km,switch=T !numEQ 94580
new line.CTR152843 bus1=BMT167280563.3,bus2=BMT167280731.3,Phases=1,LineCode=tieSwitch1,Length=0.001,Units=km,switch=T !numEQ 95619
new line.CTR152850 bus1=BMT122069147.1.2.3,bus2=BMT172324294.1.2.3,Phases=3,LineCode=tieSwitch,Length=0.001,Units=km,switch=T !numEQ 95813
new line.CTR152864 bus1=BMT122068930.1,bus2=BMT122068972.1,Phases=1,LineCode=tieSwitch1,Length=0.001,Units=km,switch=T !numEQ 142449
new line.CTR152871 bus1=BMT122067593.2,bus2=BMT122068181.2,Phases=1,LineCode=tieSwitch1,Length=0.001,Units=km,switch=T !numEQ 94649
new line.CTR152899 bus1=BMT122062357.2,bus2=BMT144970067.2,Phases=1,LineCode=tieSwitch1,Length=0.001,Units=km,switch=T !numEQ 135936
new line.CTR152920 bus1=BMT122062903.1.2.3,bus2=BMT159208081.1.2.3,Phases=3,LineCode=tieSwitch,Length=0.001,Units=km,switch=T !numEQ 94618
new line.CTR152934 bus1=BMT122066830.3,bus2=BMT122066865.3,Phases=1,LineCode=tieSwitch1,Length=0.001,Units=km,switch=T !numEQ 95550
new line.CTR152997 bus1=BMT122062896.3,bus2=BMT168937755.3,Phases=1,LineCode=tieSwitch1,Length=0.001,Units=km,switch=T !numEQ 94614
new line.CTR153004 bus1=BMT122065311.2,bus2=BMT132936276.2,Phases=1,LineCode=tieSwitch1,Length=0.001,Units=km,switch=T !numEQ 286678
new line.CTR153011 bus1=BMT122063631.1,bus2=BMT122063645.1,Phases=1,LineCode=tieSwitch1,Length=0.001,Units=km,switch=T !numEQ 94758
new line.CTR168383 bus1=BMT122072997.3,bus2=BMT159318766.3,Phases=1,LineCode=tieSwitch1,Length=0.001,Units=km,switch=T !numEQ 94556
new line.CTR168453 bus1=BMT122069749.1,bus2=BMT155319819.1,Phases=1,LineCode=tieSwitch1,Length=0.001,Units=km,switch=T !numEQ 154617
new line.CTR184378 bus1=BMT122068559.1,bus2=BMT122068503.1,Phases=1,LineCode=tieSwitch1,Length=0.001,Units=km,switch=T !numEQ 195418
open line.CTR184378 term=1
new line.CTR184406 bus1=BMT122067677.2,bus2=BMT122068055.2,Phases=1,LineCode=tieSwitch1,Length=0.001,Units=km,switch=T !numEQ 154578
new line.CTR18443 bus1=BMT169871862.1.2.3,bus2=BMT122064037.1.2.3,Phases=3,LineCode=tieSwitch,Length=0.001,Units=km,switch=T !numEQ 94672
new line.CTR184623 bus1=BMT122067649.3,bus2=BMT132962519.3,Phases=1,LineCode=tieSwitch1,Length=0.001,Units=km,switch=T !numEQ 201508
new line.CTR19234 bus1=BMT122069343.1.2.3,bus2=BMT122069455.1.2.3,Phases=3,LineCode=tieSwitch,Length=0.001,Units=km,switch=T !numEQ 130367
new line.CTR19241 bus1=BMT122069378.1.2.3,bus2=BMT122069427.1.2.3,Phases=3,LineCode=tieSwitch,Length=0.001,Units=km,switch=T !numEQ 130366
new line.CTR24204 bus1=BMT122069616.2,bus2=BMT132857974.2,Phases=1,LineCode=tieSwitch1,Length=0.001,Units=km,switch=T !numEQ 94826
new line.CTR403745 bus1=BMT130565985.1.2.3,bus2=BMT130565999.1.2.3,Phases=3,LineCode=tieSwitch,Length=0.001,Units=km,switch=T !numEQ 286701
new line.CTR40444 bus1=BMT139170000.1.2.3,bus2=BMT170333880.1.2.3,Phases=3,LineCode=tieSwitch,Length=0.001,Units=km,switch=T !numEQ 155262
new line.CTR453403 bus1=BMT144064183.1.2.3,bus2=BMT163618805.1.2.3,Phases=3,LineCode=tieSwitch,Length=0.001,Units=km,switch=T !numEQ 310480
new line.CTR453417 bus1=BMT144064624.1.2.3,bus2=BMT163624229.1.2.3,Phases=3,LineCode=tieSwitch,Length=0.001,Units=km,switch=T !numEQ 310481
new line.CTR455622 bus1=BMT144667597.2,bus2=BMT144667639.2,Phases=1,LineCode=tieSwitch1,Length=0.001,Units=km,switch=T !numEQ 289679
new line.CTR58000 bus1=BMT122061769.2,bus2=BMT151491955.2,Phases=1,LineCode=tieSwitch1,Length=0.001,Units=km,switch=T !numEQ 95487
new line.CTR856277 bus1=BMT151703203.1.2.3,bus2=BMT159341566.1.2.3,Phases=3,LineCode=tieSwitch,Length=0.001,Units=km,switch=T !numEQ 384704
new line.CTR873917 bus1=BMT156837813.1.2.3,bus2=BMT156837815.1.2.3,Phases=3,LineCode=tieSwitch,Length=0.001,Units=km,switch=T !numEQ 142818
new line.CTR874530 bus1=BMT157024107.3,bus2=BMT157024112.3,Phases=1,LineCode=tieSwitch1,Length=0.001,Units=km,switch=T !numEQ 143333
new line.CTR910770 bus1=BMT170333881.1.2.3,bus2=BMT170349485.1.2.3,Phases=3,LineCode=tieSwitch,Length=0.001,Units=km,switch=T !numEQ 242260
new line.CTR910771 bus1=BMT170334001.1.2.3,bus2=BMT170334002.1.2.3,Phases=3,LineCode=tieSwitch,Length=0.001,Units=km,switch=T !numEQ 242281
new line.CTR911552 bus1=BMT170615112.1.2.3,bus2=BMT170615120.1.2.3,Phases=3,LineCode=tieSwitch,Length=0.001,Units=km,switch=T !numEQ 278034
new line.CTRR19053 bus1=BMT155737307.1.2.3,bus2=BMT155737308.1.2.3,Phases=3,LineCode=tieSwitch,Length=0.001,Units=km,switch=T !numEQ 286652
new line.CTRR2245 bus1=BMT122065206.1.2.3,bus2=BMT122065213.1.2.3,Phases=3,LineCode=tieSwitch,Length=0.001,Units=km,switch=T !numEQ 94685
new line.CTRR2252 bus1=BMT122065269.1.2.3,bus2=BMT129972350.1.2.3,Phases=3,LineCode=tieSwitch,Length=0.001,Units=km,switch=T !numEQ 154576
new line.CTR124857 bus1=BMT122067327.1,bus2=BMT132937809.1,Phases=1,LineCode=tieSwitch1,Length=0.001,Units=km,switch=T !numEQ 94651
new line.CTR124878 bus1=BMT122064429.1.2.3,bus2=BMT122064443.1.2.3,Phases=3,LineCode=tieSwitch,Length=0.001,Units=km,switch=T !numEQ 95592
new line.CTR124899 bus1=BMT122064051.3,bus2=BMT168313045.3,Phases=1,LineCode=tieSwitch1,Length=0.001,Units=km,switch=T !numEQ 94667
new line.CTR124920 bus1=BMT122063246.1.2.3,bus2=BMT122063260.1.2.3,Phases=3,LineCode=tieSwitch,Length=0.001,Units=km,switch=T !numEQ 94680
new line.CTR124927 bus1=BMT122063533.1.2.3,bus2=BMT122063694.1.2.3,Phases=3,LineCode=tieSwitch,Length=0.001,Units=km,switch=T !numEQ 94720
new line.CTR125011 bus1=BMT122070253.1,bus2=BMT132814350.1,Phases=1,LineCode=tieSwitch1,Length=0.001,Units=km,switch=T !numEQ 94524
new line.CTR125025 bus1=BMT122067369.1,bus2=BMT132937865.1,Phases=1,LineCode=tieSwitch1,Length=0.001,Units=km,switch=T !numEQ 94639
new line.CTR125256 bus1=BMT122062987.1.2.3,bus2=BMT122068734.1.2.3,Phases=3,LineCode=tieSwitch,Length=0.001,Units=km,switch=T !numEQ 94605
new line.CTR125263 bus1=BMT122063141.1.2.3,bus2=BMT169871850.1.2.3,Phases=3,LineCode=tieSwitch,Length=0.001,Units=km,switch=T !numEQ 94628
new line.CTR125270 bus1=BMT129971251.1.2.3,bus2=BMT122065248.1.2.3,Phases=3,LineCode=tieSwitch,Length=0.001,Units=km,switch=T !numEQ 94705
new line.CTR125305 bus1=BMT170301323.1.2.3,bus2=BMT170301327.1.2.3,Phases=3,LineCode=tieSwitch,Length=0.001,Units=km,switch=T !numEQ 94717
new line.CTR125312 bus1=BMT122064821.1.2.3,bus2=BMT167151770.1.2.3,Phases=3,LineCode=tieSwitch,Length=0.001,Units=km,switch=T !numEQ 94640
new line.CTR125501 bus1=BMT122063134.1.2.3,bus2=BMT150045121.1.2.3,Phases=3,LineCode=tieSwitch,Length=0.001,Units=km,switch=T !numEQ 94602
new line.CTR125508 bus1=BMT122063176.1.2.3,bus2=BMT155314642.1.2.3,Phases=3,LineCode=tieSwitch,Length=0.001,Units=km,switch=T !numEQ 94670
new line.CTR125522 bus1=BMT122063323.1.2.3,bus2=BMT173197187.1.2.3,Phases=3,LineCode=tieSwitch,Length=0.001,Units=km,switch=T !numEQ 95778
new line.CTR125564 bus1=BMT122063855.1.2.3,bus2=BMT122063890.1.2.3,Phases=3,LineCode=tieSwitch,Length=0.001,Units=km,switch=T !numEQ 94676
new line.CTR156385 bus1=BMT122066753.3,bus2=BMT122066767.3,Phases=1,LineCode=tieSwitch1,Length=0.001,Units=km,switch=T !numEQ 125472
new line.CTR157197 bus1=BMT122062028.1,bus2=BMT122062035.1,Phases=1,LineCode=tieSwitch1,Length=0.001,Units=km,switch=T !numEQ 94610
new line.CTR170784 bus1=BMT122066200.1,bus2=BMT165596945.1,Phases=1,LineCode=tieSwitch1,Length=0.001,Units=km,switch=T !numEQ 135950
new line.CTR19395 bus1=BMT122061615.2,bus2=BMT132857918.2,Phases=1,LineCode=tieSwitch1,Length=0.001,Units=km,switch=T !numEQ 94616
new line.CTR22923 bus1=BMT122073641.3,bus2=BMT122073655.3,Phases=1,LineCode=tieSwitch1,Length=0.001,Units=km,switch=T !numEQ 153453
new line.CTR23014 bus1=BMT122066984.3,bus2=BMT122066998.3,Phases=1,LineCode=tieSwitch1,Length=0.001,Units=km,switch=T !numEQ 154408
new line.CTR23021 bus1=BMT122066543.3,bus2=BMT122066977.3,Phases=1,LineCode=tieSwitch1,Length=0.001,Units=km,switch=T !numEQ 154433
new line.CTR2469 bus1=BMT122063281.1.2.3,bus2=BMT168054209.1.2.3,Phases=3,LineCode=tieSwitch,Length=0.001,Units=km,switch=T !numEQ 143942
new line.CTR344014 bus1=BMT122074145.1.2.3,bus2=BMT149399344.1.2.3,Phases=3,LineCode=tieSwitch,Length=0.001,Units=km,switch=T !numEQ 232288
new line.CTR344021 bus1=BMT122061041.1.2.3,bus2=BMT149399446.1.2.3,Phases=3,LineCode=tieSwitch,Length=0.001,Units=km,switch=T !numEQ 232287
new line.CTR34445 bus1=BMT122061027.1.2.3,bus2=BMT169535867.1.2.3,Phases=3,LineCode=tieSwitch,Length=0.001,Units=km,switch=T !numEQ 122214
new line.CTR344469 bus1=BMT122060964.1.2.3,bus2=BMT166065552.1.2.3,Phases=3,LineCode=tieSwitch,Length=0.001,Units=km,switch=T !numEQ 283349
new line.CTR43342 bus1=BMT122061496.1,bus2=BMT122069728.1,Phases=1,LineCode=tieSwitch1,Length=0.001,Units=km,switch=T !numEQ 94601
new line.CTR434531 bus1=BMT139197678.1.2.3,bus2=BMT139199309.1.2.3,Phases=3,LineCode=tieSwitch,Length=0.001,Units=km,switch=T !numEQ 309546
new line.CTR437240 bus1=BMT139985703.1.2.3,bus2=BMT153058641.1.2.3,Phases=3,LineCode=tieSwitch,Length=0.001,Units=km,switch=T !numEQ 295062
new line.CTR84775 bus1=BMT122064674.1.2.3,bus2=BMT122064681.1.2.3,Phases=3,LineCode=tieSwitch,Length=0.001,Units=km,switch=T !numEQ 94622
new line.CTR859196 bus1=BMT152579764.1.2.3,bus2=BMT170615103.1.2.3,Phases=3,LineCode=tieSwitch,Length=0.001,Units=km,switch=T !numEQ 384769
new line.CTR869977 bus1=BMT155664136.1,bus2=BMT155665985.1,Phases=1,LineCode=tieSwitch1,Length=0.001,Units=km,switch=T !numEQ 313424
new line.CTR870404 bus1=BMT155773177.1.2.3,bus2=BMT165562748.1.2.3,Phases=3,LineCode=tieSwitch,Length=0.001,Units=km,switch=T !numEQ 242229
new line.CTR881187 bus1=BMT159341500.1.2.3,bus2=BMT159341501.1.2.3,Phases=3,LineCode=tieSwitch,Length=0.001,Units=km,switch=T !numEQ 153978
new line.CTR906211 bus1=BMT168820996.1.2.3,bus2=BMT168820997.1.2.3,Phases=3,LineCode=tieSwitch,Length=0.001,Units=km,switch=T !numEQ 218949
new line.CTR906706 bus1=BMT168937760.3,bus2=BMT168937763.3,Phases=1,LineCode=tieSwitch1,Length=0.001,Units=km,switch=T !numEQ 230463
new line.CTRR3659 bus1=BMT154165296.2,bus2=BMT169226084.2,Phases=1,LineCode=tieSwitch1,Length=0.001,Units=km,switch=T !numEQ 201833
new line.CTR105537 bus1=BMT122064240.1.2.3,bus2=BMT122063295.1.2.3,Phases=3,LineCode=tieSwitch,Length=0.001,Units=km,switch=T !numEQ 94675
open line.CTR105537 term=1
new line.CTR133341 bus1=BMT122064142.1.2.3,bus2=BMT168385703.1.2.3,Phases=3,LineCode=tieSwitch,Length=0.001,Units=km,switch=T !numEQ 141560
new line.CTR134286 bus1=BMT122072395.2,bus2=BMT122072528.2,Phases=1,LineCode=tieSwitch1,Length=0.001,Units=km,switch=T !numEQ 141570
new line.CTR134293 bus1=BMT122071681.2,bus2=BMT166331146.2,Phases=1,LineCode=tieSwitch1,Length=0.001,Units=km,switch=T !numEQ 201828
new line.CTR134307 bus1=BMT122071653.2,bus2=BMT138626891.2,Phases=1,LineCode=tieSwitch1,Length=0.001,Units=km,switch=T !numEQ 201829
new line.CTR134734 bus1=BMT122066088.2,bus2=BMT172615164.2,Phases=1,LineCode=tieSwitch1,Length=0.001,Units=km,switch=T !numEQ 152861
new line.CTR14810 bus1=BMT122062420.2,bus2=BMT144969962.2,Phases=1,LineCode=tieSwitch1,Length=0.001,Units=km,switch=T !numEQ 94603
new line.CTR14978 bus1=BMT122062882.1.2.3,bus2=BMT163418686.1.2.3,Phases=3,LineCode=tieSwitch,Length=0.001,Units=km,switch=T !numEQ 94668
new line.CTR149882 bus1=BMT122061629.1,bus2=BMT132858107.1,Phases=1,LineCode=tieSwitch1,Length=0.001,Units=km,switch=T !numEQ 142761
new line.CTR163336 bus1=BMT122061664.1.2.3,bus2=BMT155773050.1.2.3,Phases=3,LineCode=tieSwitch,Length=0.001,Units=km,switch=T !numEQ 141574
new line.CTR164001 bus1=BMT122066249.1,bus2=BMT167341715.1,Phases=1,LineCode=tieSwitch1,Length=0.001,Units=km,switch=T !numEQ 95023
new line.CTR164022 bus1=BMT122066431.3,bus2=BMT122067026.3,Phases=1,LineCode=tieSwitch1,Length=0.001,Units=km,switch=T !numEQ 142396
new line.CTR164029 bus1=BMT122065668.2,bus2=BMT168431366.2,Phases=1,LineCode=tieSwitch1,Length=0.001,Units=km,switch=T !numEQ 94723
new line.CTR164057 bus1=BMT122065703.1,bus2=BMT132942898.1,Phases=1,LineCode=tieSwitch1,Length=0.001,Units=km,switch=T !numEQ 94714
new line.CTR164064 bus1=BMT122065724.1,bus2=BMT155664131.1,Phases=1,LineCode=tieSwitch1,Length=0.001,Units=km,switch=T !numEQ 131621
new line.CTR164141 bus1=BMT122063540.1,bus2=BMT122063617.1,Phases=1,LineCode=tieSwitch1,Length=0.001,Units=km,switch=T !numEQ 94760
new line.CTR16441 bus1=BMT141664086.1.2.3,bus2=BMT163487204.1.2.3,Phases=3,LineCode=tieSwitch,Length=0.001,Units=km,switch=T !numEQ 94727
new line.CTR164652 bus1=BMT122065059.1.2.3,bus2=BMT167899118.1.2.3,Phases=3,LineCode=tieSwitch,Length=0.001,Units=km,switch=T !numEQ 94653
new line.CTR180017 bus1=BMT122062280.2,bus2=BMT144969934.2,Phases=1,LineCode=tieSwitch1,Length=0.001,Units=km,switch=T !numEQ 191548
new line.CTR180164 bus1=BMT135395642.3,bus2=BMT167280560.3,Phases=1,LineCode=tieSwitch1,Length=0.001,Units=km,switch=T !numEQ 141566
new line.CTR180178 bus1=BMT122065493.1,bus2=BMT132939643.1,Phases=1,LineCode=tieSwitch1,Length=0.001,Units=km,switch=T !numEQ 94699
new line.CTR180185 bus1=BMT122071142.3,bus2=BMT168599929.3,Phases=1,LineCode=tieSwitch1,Length=0.001,Units=km,switch=T !numEQ 141581
new line.CTR180192 bus1=BMT122063988.1.2.3,bus2=BMT122068629.1.2.3,Phases=3,LineCode=tieSwitch,Length=0.001,Units=km,switch=T !numEQ 141563
new line.CTR180199 bus1=BMT122071821.2,bus2=BMT157405924.2,Phases=1,LineCode=tieSwitch1,Length=0.001,Units=km,switch=T !numEQ 141559
new line.CTR180213 bus1=BMT122072073.2,bus2=BMT122072283.2,Phases=1,LineCode=tieSwitch1,Length=0.001,Units=km,switch=T !numEQ 141569
new line.CTR180500 bus1=BMT122061874.1,bus2=BMT155517088.1,Phases=1,LineCode=tieSwitch1,Length=0.001,Units=km,switch=T !numEQ 95915
new line.CTR180675 bus1=BMT122065983.2,bus2=BMT132944522.2,Phases=1,LineCode=tieSwitch1,Length=0.001,Units=km,switch=T !numEQ 154733
new line.CTR18723 bus1=BMT172195463.1.2.3,bus2=BMT173197100.1.2.3,Phases=3,LineCode=tieSwitch,Length=0.001,Units=km,switch=T !numEQ 119703
open line.CTR18723 term=1
new line.CTR444149 bus1=BMT156059301.1.2.3,bus2=BMT156059303.1.2.3,Phases=3,LineCode=tieSwitch,Length=0.001,Units=km,switch=T !numEQ 305478
new line.CTR843745 bus1=BMT148085090.3,bus2=BMT148085123.3,Phases=1,LineCode=tieSwitch1,Length=0.001,Units=km,switch=T !numEQ 313346
new line.CTR843748 bus1=BMT148085294.3,bus2=BMT148132447.3,Phases=1,LineCode=tieSwitch1,Length=0.001,Units=km,switch=T !numEQ 313340
new line.CTR843756 bus1=BMT148086250.3,bus2=BMT148086547.3,Phases=1,LineCode=tieSwitch1,Length=0.001,Units=km,switch=T !numEQ 313342
new line.CTR843757 bus1=BMT148086548.3,bus2=BMT171741368.3,Phases=1,LineCode=tieSwitch1,Length=0.001,Units=km,switch=T !numEQ 313343
new line.CTR843887 bus1=BMT148132449.3,bus2=BMT148132450.3,Phases=1,LineCode=tieSwitch1,Length=0.001,Units=km,switch=T !numEQ 313341
new line.CTR844790 bus1=BMT148406502.1.2.3,bus2=BMT148406505.1.2.3,Phases=3,LineCode=tieSwitch,Length=0.001,Units=km,switch=T !numEQ 315432
new line.CTR868027 bus1=BMT155104713.3,bus2=BMT169601508.3,Phases=1,LineCode=tieSwitch1,Length=0.001,Units=km,switch=T !numEQ 238750
new line.CTR868030 bus1=BMT155105017.2,bus2=BMT155105019.2,Phases=1,LineCode=tieSwitch1,Length=0.001,Units=km,switch=T !numEQ 238748
new line.CTR868031 bus1=BMT155105361.2,bus2=BMT155105381.2,Phases=1,LineCode=tieSwitch1,Length=0.001,Units=km,switch=T !numEQ 238757
new line.CTR868032 bus1=BMT155105594.2,bus2=BMT155105611.2,Phases=1,LineCode=tieSwitch1,Length=0.001,Units=km,switch=T !numEQ 238752
new line.CTRR5500 bus1=BMT122066354.3,bus2=BMT154520302.3,Phases=1,LineCode=tieSwitch1,Length=0.001,Units=km,switch=T !numEQ 224592
new line.CTRR5759 bus1=BMT122070029.1,bus2=BMT151139450.1,Phases=1,LineCode=tieSwitch1,Length=0.001,Units=km,switch=T !numEQ 229977
new line.CTRR8427 bus1=BMT134895443.2,bus2=BMT172789975.2,Phases=1,LineCode=tieSwitch1,Length=0.001,Units=km,switch=T !numEQ 229920
new line.CTRR8441 bus1=BMT155517149.3,bus2=BMT170124446.3,Phases=1,LineCode=tieSwitch1,Length=0.001,Units=km,switch=T !numEQ 229979
new line.CTRR8448 bus1=BMT155517089.1,bus2=BMT157316587.1,Phases=1,LineCode=tieSwitch1,Length=0.001,Units=km,switch=T !numEQ 229978
new line.CTR10274 bus1=BMT122062350.2,bus2=BMT144969997.2,Phases=1,LineCode=tieSwitch1,Length=0.001,Units=km,switch=T !numEQ 107183
new line.CTR132319 bus1=BMT122061699.1.2.3,bus2=BMT155752334.1.2.3,Phases=3,LineCode=tieSwitch,Length=0.001,Units=km,switch=T !numEQ 142189
new line.CTR132326 bus1=BMT122063169.1.2.3,bus2=BMT159997894.1.2.3,Phases=3,LineCode=tieSwitch,Length=0.001,Units=km,switch=T !numEQ 141561
new line.CTR146508 bus1=BMT122072206.2,bus2=BMT122072255.2,Phases=1,LineCode=tieSwitch1,Length=0.001,Units=km,switch=T !numEQ 142253
new line.CTR14789 bus1=BMT122064520.1.2.3,bus2=BMT173208352.1.2.3,Phases=3,LineCode=tieSwitch,Length=0.001,Units=km,switch=T !numEQ 141562
new line.CTR14796 bus1=BMT122062322.2,bus2=BMT144969948.2,Phases=1,LineCode=tieSwitch1,Length=0.001,Units=km,switch=T !numEQ 135975
new line.CTR161684 bus1=BMT122073445.1,bus2=BMT122073452.1,Phases=1,LineCode=tieSwitch1,Length=0.001,Units=km,switch=T !numEQ 201811