new line.10075820 bus1=BBT147253215.1.2.3.0,bus2=BBT1722775.1.2.3.0,Phases=3,Linecode=BT803_BT803_4_3_4,Length=0.019929000,Units=km
new line.18747137 bus1=BBT149862838.1.2.3.0,bus2=BBT149862839.1.2.3.0,Phases=3,Linecode=BT513_BT513_7_3_1,Length=0.000501000,Units=km
new line.18747142 bus1=BBT149862839.1.2.3.0,bus2=BBT149862905.1.2.3.0,Phases=3,Linecode=BT803_BT803_4_3_4,Length=0.035136000,Units=km
new line.18747143 bus1=BBT149862905.1.2.3.0,bus2=BBT149862906.1.2.3.0,Phases=3,Linecode=BT803_BT803_4_3_4,Length=0.035064000,Units=km
new line.18747144 bus1=BBT149862906.1.2.3.0,bus2=BBT149862907.1.2.3.0,Phases=3,Linecode=BT803_BT803_4_3_4,Length=0.036132000,Units=km
new line.18747145 bus1=BBT149862907.1.2.3.0,bus2=BBT149862913.1.2.3.0,Phases=3,Linecode=BT803_BT803_4_3_4,Length=0.044562000,Units=km
new line.18747149 bus1=BBT149862906.1.2.3.0,bus2=BBT149862933.1.2.3.0,Phases=3,Linecode=BT803_BT803_4_3_4,Length=0.034936000,Units=km
new line.18747150 bus1=BBT149862933.1.2.3.0,bus2=BBT149862973.1.2.3.0,Phases=3,Linecode=BT803_BT803_4_3_4,Length=0.037062000,Units=km
new line.18747151 bus1=BBT149862839.1.2.3.0,bus2=BBT149863009.1.2.3.0,Phases=3,Linecode=BT803_BT803_4_3_4,Length=0.039858000,Units=km
new line.18747152 bus1=BBT149863009.1.2.3.0,bus2=BBT149863022.1.2.3.0,Phases=3,Linecode=BT803_BT803_4_3_4,Length=0.048176000,Units=km
new line.18747153 bus1=BBT149863022.1.2.3.0,bus2=BBT149863023.1.2.3.0,Phases=3,Linecode=BT803_BT803_4_3_4,Length=0.047105000,Units=km
new line.18747156 bus1=BBT149862839.1.2.3.0,bus2=BBT149863040.1.2.3.0,Phases=3,Linecode=BT803_BT803_4_3_4,Length=0.023092000,Units=km
new line.18747157 bus1=BBT149863040.1.2.3.0,bus2=BBT149863041.1.2.3.0,Phases=3,Linecode=BT803_BT803_4_3_4,Length=0.039123000,Units=km
new line.18747158 bus1=BBT149863041.1.2.3.0,bus2=BBT149863044.1.2.3.0,Phases=3,Linecode=BT803_BT803_4_3_4,Length=0.045187000,Units=km
new line.18747159 bus1=BBT149863044.1.2.3.0,bus2=BBT149863058.1.2.3.0,Phases=3,Linecode=BT803_BT803_4_3_4,Length=0.045109000,Units=km
new line.18747164 bus1=BBT149863041.1.2.3.0,bus2=BBT149863124.1.2.3.0,Phases=3,Linecode=BT803_BT803_4_3_4,Length=0.034139000,Units=km
new line.18747165 bus1=BBT149863124.1.2.3.0,bus2=BBT149863166.1.2.3.0,Phases=3,Linecode=BT803_BT803_4_3_4,Length=0.036627000,Units=km
new line.18747166 bus1=BBT149863166.1.2.3.0,bus2=BBT149863196.1.2.3.0,Phases=3,Linecode=BT803_BT803_4_3_4,Length=0.036408000,Units=km
new line.18747168 bus1=BBT149863196.1.2.3.0,bus2=BBT149863240.1.2.3.0,Phases=3,Linecode=BT803_BT803_4_3_4,Length=0.036627000,Units=km
new line.18747183 bus1=BBT149863591.1.2.3.0,bus2=BBT149863592.1.2.3.0,Phases=3,Linecode=BT521_BT521_7_3_1,Length=0.000501000,Units=km
new line.18747185 bus1=BBT149863592.1.2.3.0,bus2=BBT149863690.1.2.3.0,Phases=3,Linecode=BT803_BT803_4_3_4,Length=0.021028000,Units=km
new line.18747187 bus1=BBT149863592.1.2.3.0,bus2=BBT149863692.1.2.3.0,Phases=3,Linecode=BT803_BT803_4_3_4,Length=0.023775000,Units=km
new line.18747188 bus1=BBT149863692.1.2.3.0,bus2=BBT149863704.1.2.3.0,Phases=3,Linecode=BT803_BT803_4_3_4,Length=0.039008000,Units=km
new line.18747190 bus1=BBT149863592.1.2.3.0,bus2=BBT149863712.1.2.3.0,Phases=3,Linecode=BT803_BT803_4_3_4,Length=0.018362000,Units=km
new line.18747191 bus1=BBT149863690.1.2.3.0,bus2=BBT149863713.1.2.3.0,Phases=3,Linecode=BT803_BT803_4_3_4,Length=0.046075000,Units=km
new line.18747192 bus1=BBT149863713.1.2.3.0,bus2=BBT149863714.1.2.3.0,Phases=3,Linecode=BT803_BT803_4_3_4,Length=0.047105000,Units=km
new line.18747195 bus1=BBT149863714.1.2.3.0,bus2=BBT149863721.1.2.3.0,Phases=3,Linecode=BT803_BT803_4_3_4,Length=0.051167000,Units=km
new line.18747196 bus1=BBT149863721.1.2.3.0,bus2=BBT149863768.1.2.3.0,Phases=3,Linecode=BT803_BT803_4_3_4,Length=0.043575000,Units=km
new line.18747197 bus1=BBT149863704.1.2.3.0,bus2=BBT149863786.1.2.3.0,Phases=3,Linecode=BT803_BT803_4_3_4,Length=0.037704000,Units=km
new line.18747198 bus1=BBT149863786.1.2.3.0,bus2=BBT149863787.1.2.3.0,Phases=3,Linecode=BT803_BT803_4_3_4,Length=0.043090000,Units=km
new line.18747199 bus1=BBT149863712.1.2.3.0,bus2=BBT149863788.1.2.3.0,Phases=3,Linecode=BT803_BT803_4_3_4,Length=0.045319000,Units=km
new line.18747200 bus1=BBT149863788.1.2.3.0,bus2=BBT149863789.1.2.3.0,Phases=3,Linecode=BT803_BT803_4_3_4,Length=0.045319000,Units=km
new line.18747201 bus1=BBT149863789.1.2.3.0,bus2=BBT149863814.1.2.3.0,Phases=3,Linecode=BT803_BT803_4_3_4,Length=0.036063000,Units=km
new line.18747202 bus1=BBT149863692.1.2.3.0,bus2=BBT149863827.1.2.3.0,Phases=3,Linecode=BT803_BT803_4_3_4,Length=0.011183000,Units=km
new line.18747203 bus1=BBT149863827.1.2.3.0,bus2=BBT149863828.1.2.3.0,Phases=3,Linecode=BT803_BT803_4_3_4,Length=0.046107000,Units=km
new line.18747204 bus1=BBT149863828.1.2.3.0,bus2=BBT149863829.1.2.3.0,Phases=3,Linecode=BT803_BT803_4_3_4,Length=0.050100000,Units=km
new line.18747243 bus1=BBT149864611.1.2.3.0,bus2=BBT149864612.1.2.3.0,Phases=3,Linecode=BT521_BT521_7_3_1,Length=0.000501000,Units=km
new line.18747247 bus1=BBT149864612.1.2.3.0,bus2=BBT149864643.1.2.3.0,Phases=3,Linecode=BT803_BT803_4_3_4,Length=0.044416000,Units=km
new line.18747250 bus1=BBT149864612.1.2.3.0,bus2=BBT149864646.1.2.3.0,Phases=3,Linecode=BT803_BT803_4_3_4,Length=0.035812000,Units=km
new line.18747251 bus1=BBT149864643.1.2.3.0,bus2=BBT149864647.1.2.3.0,Phases=3,Linecode=BT803_BT803_4_3_4,Length=0.023264000,Units=km
new line.18747255 bus1=BBT149864647.1.2.3.0,bus2=BBT149864651.1.2.3.0,Phases=3,Linecode=BT803_BT803_4_3_4,Length=0.020104000,Units=km
new line.18747257 bus1=BBT149864651.1.2.3.0,bus2=BBT149864656.1.2.3.0,Phases=3,Linecode=BT803_BT803_4_3_4,Length=0.042494000,Units=km
new line.18747270 bus1=BBT149864646.1.2.3.0,bus2=BBT149864794.1.2.3.0,Phases=3,Linecode=BT803_BT803_4_3_4,Length=0.036408000,Units=km
new line.18747272 bus1=BBT149864794.1.2.3.0,bus2=BBT149864804.1.2.3.0,Phases=3,Linecode=BT803_BT803_4_3_4,Length=0.035812000,Units=km
new line.18747273 bus1=BBT149864804.1.2.3.0,bus2=BBT149864805.1.2.3.0,Phases=3,Linecode=BT803_BT803_4_3_4,Length=0.035812000,Units=km
new line.18747274 bus1=BBT149864805.1.2.3.0,bus2=BBT149864806.1.2.3.0,Phases=3,Linecode=BT803_BT803_4_3_4,Length=0.028024000,Units=km
new line.18747275 bus1=BBT149864612.1.2.3.0,bus2=BBT149864808.1.2.3.0,Phases=3,Linecode=BT803_BT803_4_3_4,Length=0.018978000,Units=km
new line.18747277 bus1=BBT149864808.1.2.3.0,bus2=BBT149864850.1.2.3.0,Phases=3,Linecode=BT803_BT803_4_3_4,Length=0.045231000,Units=km
new line.18747278 bus1=BBT149864850.1.2.3.0,bus2=BBT149864851.1.2.3.0,Phases=3,Linecode=BT803_BT803_4_3_4,Length=0.036408000,Units=km
new line.18747279 bus1=BBT149864851.1.2.3.0,bus2=BBT149864852.1.2.3.0,Phases=3,Linecode=BT803_BT803_4_3_4,Length=0.036627000,Units=km
new line.18747280 bus1=BBT149864852.1.2.3.0,bus2=BBT149864877.1.2.3.0,Phases=3,Linecode=BT803_BT803_4_3_4,Length=0.045813000,Units=km
new line.18747285 bus1=BBT149864808.1.2.3.0,bus2=BBT149864884.1.2.3.0,Phases=3,Linecode=BT803_BT803_4_3_4,Length=0.045813000,Units=km
new line.18747286 bus1=BBT149864884.1.2.3.0,bus2=BBT149864891.1.2.3.0,Phases=3,Linecode=BT803_BT803_4_3_4,Length=0.041686000,Units=km
new line.18747315 bus1=BBT149865457.1.2.3.0,bus2=BBT149865458.1.2.3.0,Phases=3,Linecode=BT513_BT513_7_3_1,Length=0.000501000,Units=km
new line.18747324 bus1=BBT149865458.1.2.3.0,bus2=BBT149865486.1.2.3.0,Phases=3,Linecode=BT803_BT803_4_3_4,Length=0.043575000,Units=km
new line.18747328 bus1=BBT149865486.1.2.3.0,bus2=BBT149865504.1.2.3.0,Phases=3,Linecode=BT803_BT803_4_3_4,Length=0.044190000,Units=km
new line.18747330 bus1=BBT149865504.1.2.3.0,bus2=BBT149865506.1.2.3.0,Phases=3,Linecode=BT803_BT803_4_3_4,Length=0.043299000,Units=km
new line.18747331 bus1=BBT149865506.1.2.3.0,bus2=BBT149865507.1.2.3.0,Phases=3,Linecode=BT803_BT803_4_3_4,Length=0.041794000,Units=km
new line.18747333 bus1=BBT149865507.1.2.3.0,bus2=BBT149865532.1.2.3.0,Phases=3,Linecode=BT803_BT803_4_3_4,Length=0.034489000,Units=km
new line.18747340 bus1=BBT149865458.1.2.3.0,bus2=BBT149865542.1.2.3.0,Phases=3,Linecode=BT803_BT803_4_3_4,Length=0.043667000,Units=km
new line.18747345 bus1=BBT149865542.1.2.3.0,bus2=BBT149865553.1.2.3.0,Phases=3,Linecode=BT803_BT803_4_3_4,Length=0.022808000,Units=km
new line.18747348 bus1=BBT149865553.1.2.3.0,bus2=BBT149865558.1.2.3.0,Phases=3,Linecode=BT803_BT803_4_3_4,Length=0.041239000,Units=km
new line.18747353 bus1=BBT149865558.1.2.3.0,bus2=BBT149865571.1.2.3.0,Phases=3,Linecode=BT803_BT803_4_3_4,Length=0.041349000,Units=km
new line.18747354 bus1=BBT149865571.1.2.3.0,bus2=BBT149865572.1.2.3.0,Phases=3,Linecode=BT803_BT803_4_3_4,Length=0.043275000,Units=km
new line.18747356 bus1=BBT149865542.1.2.3.0,bus2=BBT149865574.1.2.3.0,Phases=3,Linecode=BT803_BT803_4_3_4,Length=0.038021000,Units=km
new line.18747358 bus1=BBT149865542.1.2.3.0,bus2=BBT149865587.1.2.3.0,Phases=3,Linecode=BT803_BT803_4_3_4,Length=0.034893000,Units=km
new line.18747359 bus1=BBT149865587.1.2.3.0,bus2=BBT149865605.1.2.3.0,Phases=3,Linecode=BT803_BT803_4_3_4,Length=0.029417000,Units=km
new line.18747361 bus1=BBT149865605.1.2.3.0,bus2=BBT149865606.1.2.3.0,Phases=3,Linecode=BT803_BT803_4_3_4,Length=0.023264000,Units=km
new line.18747362 bus1=BBT149865574.1.2.3.0,bus2=BBT149865607.1.2.3.0,Phases=3,Linecode=BT803_BT803_4_3_4,Length=0.045616000,Units=km
new line.18747364 bus1=BBT149865607.1.2.3.0,bus2=BBT149865608.1.2.3.0,Phases=3,Linecode=BT803_BT803_4_3_4,Length=0.044394000,Units=km
new line.18747365 bus1=BBT149865608.1.2.3.0,bus2=BBT149865611.1.2.3.0,Phases=3,Linecode=BT803_BT803_4_3_4,Length=0.036132000,Units=km
new line.18747367 bus1=BBT149865611.1.2.3.0,bus2=BBT149865612.1.2.3.0,Phases=3,Linecode=BT803_BT803_4_3_4,Length=0.044111000,Units=km
new line.18747370 bus1=BBT149865612.1.2.3.0,bus2=BBT149865629.1.2.3.0,Phases=3,Linecode=BT803_BT803_4_3_4,Length=0.039059000,Units=km
new line.18747371 bus1=BBT149865532.1.2.3.0,bus2=BBT149865630.1.2.3.0,Phases=3,Linecode=BT803_BT803_4_3_4,Length=0.040320000,Units=km
new line.18747420 bus1=BBT149865888.1.2.3.0,bus2=BBT149865889.1.2.3.0,Phases=3,Linecode=BT521_BT521_7_3_1,Length=0.000501000,Units=km
new line.18747425 bus1=BBT149865889.1.2.3.0,bus2=BBT149865892.1.2.3.0,Phases=3,Linecode=BT803_BT803_4_3_4,Length=0.040862000,Units=km
new line.18747428 bus1=BBT149865892.1.2.3.0,bus2=BBT149865895.1.2.3.0,Phases=3,Linecode=BT803_BT803_4_3_4,Length=0.038634000,Units=km
new line.18747429 bus1=BBT149865895.1.2.3.0,bus2=BBT149865896.1.2.3.0,Phases=3,Linecode=BT803_BT803_4_3_4,Length=0.044954000,Units=km
new line.18747433 bus1=BBT149865895.1.2.3.0,bus2=BBT149865910.1.2.3.0,Phases=3,Linecode=BT803_BT803_4_3_4,Length=0.021005000,Units=km
new line.18747434 bus1=BBT149865910.1.2.3.0,bus2=BBT149865918.1.2.3.0,Phases=3,Linecode=BT803_BT803_4_3_4,Length=0.029161000,Units=km
new line.18747436 bus1=BBT149865889.1.2.3.0,bus2=BBT149865990.1.2.3.0,Phases=3,Linecode=BT803_BT803_4_3_4,Length=0.040270000,Units=km
new line.18747437 bus1=BBT149865990.1.2.3.0,bus2=BBT149865991.1.2.3.0,Phases=3,Linecode=BT803_BT803_4_3_4,Length=0.045131000,Units=km
new line.18747438 bus1=BBT149865990.1.2.3.0,bus2=BBT149866001.1.2.3.0,Phases=3,Linecode=BT803_BT803_4_3_4,Length=0.043838000,Units=km
new line.18747439 bus1=BBT149865991.1.2.3.0,bus2=BBT149866003.1.2.3.0,Phases=3,Linecode=BT803_BT803_4_3_4,Length=0.043941000,Units=km
new line.18747441 bus1=BBT149866003.1.2.3.0,bus2=BBT149866005.1.2.3.0,Phases=3,Linecode=BT803_BT803_4_3_4,Length=0.033248000,Units=km
new line.18747443 bus1=BBT149866005.1.2.3.0,bus2=BBT149866006.1.2.3.0,Phases=3,Linecode=BT803_BT803_4_3_4,Length=0.037223000,Units=km
new line.18747447 bus1=BBT149866003.1.2.3.0,bus2=BBT149866066.1.2.3.0,Phases=3,Linecode=BT803_BT803_4_3_4,Length=0.039213000,Units=km
new line.18747448 bus1=BBT149866003.1.2.3.0,bus2=BBT149866077.1.2.3.0,Phases=3,Linecode=BT803_BT803_4_3_4,Length=0.038021000,Units=km
new line.18747450 bus1=BBT149866077.1.2.3.0,bus2=BBT149866099.1.2.3.0,Phases=3,Linecode=BT803_BT803_4_3_4,Length=0.035136000,Units=km
new line.18747452 bus1=BBT149865896.1.2.3.0,bus2=BBT149866140.1.2.3.0,Phases=3,Linecode=BT803_BT803_4_3_4,Length=0.037598000,Units=km
new line.18747453 bus1=BBT149866140.1.2.3.0,bus2=BBT149866141.1.2.3.0,Phases=3,Linecode=BT803_BT803_4_3_4,Length=0.044111000,Units=km
new line.18747454 bus1=BBT149865918.1.2.3.0,bus2=BBT149866142.1.2.3.0,Phases=3,Linecode=BT803_BT803_4_3_4,Length=0.040862000,Units=km
new line.18747456 bus1=BBT149866484.1.2.3.0,bus2=BBT149866485.1.2.3.0,Phases=3,Linecode=BT513_BT513_7_3_1,Length=0.000501000,Units=km
new line.18747457 bus1=BBT149866485.1.2.3.0,bus2=BBT149866535.1.2.3.0,Phases=3,Linecode=BT803_BT803_4_3_4,Length=0.036627000,Units=km
new line.18747458 bus1=BBT149866535.1.2.3.0,bus2=BBT149866539.1.2.3.0,Phases=3,Linecode=BT803_BT803_4_3_4,Length=0.039669000,Units=km
new line.18747459 bus1=BBT149866539.1.2.3.0,bus2=BBT149866550.1.2.3.0,Phases=3,Linecode=BT803_BT803_4_3_4,Length=0.035007000,Units=km
new line.18747460 bus1=BBT149866550.1.2.3.0,bus2=BBT149866563.1.2.3.0,Phases=3,Linecode=BT803_BT803_4_3_4,Length=0.036627000,Units=km
new line.18747461 bus1=BBT149866563.1.2.3.0,bus2=BBT149866585.1.2.3.0,Phases=3,Linecode=BT803_BT803_4_3_4,Length=0.007618000,Units=km
new line.18747463 bus1=BBT149866585.1.2.3.0,bus2=BBT149866586.1.2.3.0,Phases=3,Linecode=BT803_BT803_4_3_4,Length=0.026406000,Units=km
new line.18747464 bus1=BBT149866485.1.2.3.0,bus2=BBT149866641.1.2.3.0,Phases=3,Linecode=BT803_BT803_4_3_4,Length=0.021100000,Units=km
new line.18747465 bus1=BBT149866641.1.2.3.0,bus2=BBT149866649.1.2.3.0,Phases=3,Linecode=BT803_BT803_4_3_4,Length=0.035235000,Units=km
new line.18747466 bus1=BBT149866649.1.2.3.0,bus2=BBT149866656.1.2.3.0,Phases=3,Linecode=BT803_BT803_4_3_4,Length=0.036627000,Units=km
new line.18747467 bus1=BBT149866656.1.2.3.0,bus2=BBT149866667.1.2.3.0,Phases=3,Linecode=BT803_BT803_4_3_4,Length=0.036627000,Units=km
new line.18747468 bus1=BBT149866667.1.2.3.0,bus2=BBT149866668.1.2.3.0,Phases=3,Linecode=BT803_BT803_4_3_4,Length=0.043609000,Units=km
new line.18747471 bus1=BBT149866668.1.2.3.0,bus2=BBT149866696.1.2.3.0,Phases=3,Linecode=BT803_BT803_4_3_4,Length=0.011316000,Units=km
new line.18747472 bus1=BBT149866696.1.2.3.0,bus2=BBT149866707.1.2.3.0,Phases=3,Linecode=BT803_BT803_4_3_4,Length=0.031391000,Units=km
new line.18747473 bus1=BBT149866550.1.2.3.0,bus2=BBT149866718.1.2.3.0,Phases=3,Linecode=BT803_BT803_4_3_4,Length=0.011048000,Units=km
new line.18747474 bus1=BBT149866718.1.2.3.0,bus2=BBT149866736.1.2.3.0,Phases=3,Linecode=BT803_BT803_4_3_4,Length=0.035476000,Units=km
new line.18694639 bus1=BBT148405753.1.2.3.0,bus2=BBT148405754.1.2.3.0,Phases=3,Linecode=BT521_BT521_7_3_1,Length=0.000501000,Units=km
new line.18694640 bus1=BBT148405754.1.2.3.0,bus2=BBT148405870.1.2.3.0,Phases=3,Linecode=BT803_BT803_4_3_4,Length=0.041888000,Units=km
new line.18694641 bus1=BBT148405870.1.2.3.0,bus2=BBT148406016.1.2.3.0,Phases=3,Linecode=BT803_BT803_4_3_4,Length=0.043274000,Units=km
new line.18694642 bus1=BBT148406016.1.2.3.0,bus2=BBT148406092.1.2.3.0,Phases=3,Linecode=BT803_BT803_4_3_4,Length=0.042445000,Units=km
new line.18694643 bus1=BBT148406092.1.2.3.0,bus2=BBT148406093.1.2.3.0,Phases=3,Linecode=BT803_BT803_4_3_4,Length=0.042727000,Units=km
new line.18694644 bus1=BBT148405754.1.2.3.0,bus2=BBT148406100.1.2.3.0,Phases=3,Linecode=BT803_BT803_4_3_4,Length=0.043274000,Units=km
new line.18694645 bus1=BBT148406100.1.2.3.0,bus2=BBT148406107.1.2.3.0,Phases=3,Linecode=BT803_BT803_4_3_4,Length=0.043274000,Units=km
new line.18694646 bus1=BBT148406107.1.2.3.0,bus2=BBT148406108.1.2.3.0,Phases=3,Linecode=BT803_BT803_4_3_4,Length=0.043274000,Units=km
new line.18694647 bus1=BBT148406108.1.2.3.0,bus2=BBT148406140.1.2.3.0,Phases=3,Linecode=BT803_BT803_4_3_4,Length=0.043274000,Units=km
new line.18694649 bus1=BBT148406252.1.2.3.0,bus2=BBT148406253.1.2.3.0,Phases=3,Linecode=BT521_BT521_7_3_1,Length=0.000501000,Units=km
new line.18694650 bus1=BBT148406253.1.2.3.0,bus2=BBT148406298.1.2.3.0,Phases=3,Linecode=BT803_BT803_4_3_4,Length=0.039326000,Units=km
new line.18694651 bus1=BBT148406253.1.2.3.0,bus2=BBT148406299.1.2.3.0,Phases=3,Linecode=BT803_BT803_4_3_4,Length=0.041444000,Units=km
new line.18694652 bus1=BBT148406299.1.2.3.0,bus2=BBT148406300.1.2.3.0,Phases=3,Linecode=BT803_BT803_4_3_4,Length=0.038334000,Units=km
new line.18694653 bus1=BBT148406298.1.2.3.0,bus2=BBT148406301.1.2.3.0,Phases=3,Linecode=BT803_BT803_4_3_4,Length=0.031070000,Units=km
new line.18694654 bus1=BBT148406301.1.2.3.0,bus2=BBT148406303.1.2.3.0,Phases=3,Linecode=BT803_BT803_4_3_4,Length=0.031070000,Units=km
new line.18694655 bus1=BBT148406303.1.2.3.0,bus2=BBT148406319.1.2.3.0,Phases=3,Linecode=BT803_BT803_4_3_4,Length=0.030811000,Units=km
new line.18694656 bus1=BBT2696188.1.2.3.0,bus2=BBT148406322.1.2.3.0,Phases=3,Linecode=BT803_BT803_4_3_4,Length=0.038125000,Units=km
new line.18694657 bus1=BBT148406300.1.2.3.0,bus2=BBT148406328.1.2.3.0,Phases=3,Linecode=BT803_BT803_4_3_4,Length=0.042587000,Units=km
new line.18694658 bus1=BBT148406328.1.2.3.0,bus2=BBT148406337.1.2.3.0,Phases=3,Linecode=BT803_BT803_4_3_4,Length=0.040454000,Units=km
new line.18694659 bus1=BBT148406328.1.2.3.0,bus2=BBT148406345.1.2.3.0,Phases=3,Linecode=BT803_BT803_4_3_4,Length=0.033532000,Units=km
new line.18694660 bus1=BBT148406298.1.2.3.0,bus2=BBT148406346.1.2.3.0,Phases=3,Linecode=BT803_BT803_4_3_4,Length=0.040504000,Units=km
new line.18694661 bus1=BBT148406346.1.2.3.0,bus2=BBT148406357.1.2.3.0,Phases=3,Linecode=BT803_BT803_4_3_4,Length=0.039122000,Units=km
new line.18694662 bus1=BBT148406357.1.2.3.0,bus2=BBT148406363.1.2.3.0,Phases=3,Linecode=BT803_BT803_4_3_4,Length=0.040504000,Units=km
new line.18694663 bus1=BBT148406363.1.2.3.0,bus2=BBT148406364.1.2.3.0,Phases=3,Linecode=BT803_BT803_4_3_4,Length=0.039668000,Units=km
new line.18695907 bus1=BBT148449381.1.2.0,bus2=BBT148449382.1.2.0,Phases=2,Linecode=BT513_BT513_7_2_1,Length=0.000501000,Units=km
new line.18718992 bus1=BBT149101359.1.2.0,bus2=BBT149101360.1.2.0,Phases=2,Linecode=BT521_BT521_7_2_1,Length=0.000501000,Units=km
new line.18784143 bus1=BBT151003777.1.2.0,bus2=BBT3081678.1.2.0,Phases=2,Linecode=BT513_BT513_7_2_1,Length=0.000501000,Units=km
new line.18784144 bus1=BBT3638717.1.2.0,bus2=BBT151003815.1.2.0,Phases=2,Linecode=BT803_BT803_4_2_4,Length=0.040170000,Units=km
new line.18788545 bus1=BBT151138762.1.2.0,bus2=BBT1711295.1.2.0,Phases=2,Linecode=BT513_BT513_7_2_1,Length=0.000501000,Units=km
new line.18788585 bus1=BBT1711295.1.2.0,bus2=BBT1711715.1.2.0,Phases=2,Linecode=BT803_BT803_4_2_4,Length=0.027862000,Units=km
new line.18852527 bus1=BBT153057442.1.2.3.0,bus2=BBT153057443.1.2.3.0,Phases=3,Linecode=BT521_BT521_7_3_1,Length=0.000501000,Units=km
new line.18852530 bus1=BBT153057443.1.2.3.0,bus2=BBT153057596.1.2.3.0,Phases=3,Linecode=BT803_BT803_4_3_4,Length=0.040801000,Units=km
new line.18852531 bus1=BBT153057596.1.2.3.0,bus2=BBT153057597.1.2.3.0,Phases=3,Linecode=BT803_BT803_4_3_4,Length=0.037863000,Units=km
new line.18852532 bus1=BBT153057597.1.2.3.0,bus2=BBT153057598.1.2.3.0,Phases=3,Linecode=BT803_BT803_4_3_4,Length=0.033548000,Units=km
new line.18852533 bus1=BBT153057598.1.2.3.0,bus2=BBT153057642.1.2.3.0,Phases=3,Linecode=BT803_BT803_4_3_4,Length=0.031391000,Units=km
new line.18852534 bus1=BBT153057443.1.2.3.0,bus2=BBT153057643.1.2.3.0,Phases=3,Linecode=BT803_BT803_4_3_4,Length=0.037664000,Units=km
new line.18852535 bus1=BBT153057643.1.2.3.0,bus2=BBT153057644.1.2.3.0,Phases=3,Linecode=BT803_BT803_4_3_4,Length=0.045901000,Units=km
new line.18852536 bus1=BBT153057644.1.2.3.0,bus2=BBT153057645.1.2.3.0,Phases=3,Linecode=BT803_BT803_4_3_4,Length=0.042962000,Units=km
new line.18852537 bus1=BBT153057443.1.2.3.0,bus2=BBT153057646.1.2.3.0,Phases=3,Linecode=BT803_BT803_4_3_4,Length=0.045704000,Units=km
new line.18852538 bus1=BBT153057646.1.2.3.0,bus2=BBT153057647.1.2.3.0,Phases=3,Linecode=BT803_BT803_4_3_4,Length=0.036723000,Units=km
new line.18852539 bus1=BBT153057647.1.2.3.0,bus2=BBT153057648.1.2.3.0,Phases=3,Linecode=BT803_BT803_4_3_4,Length=0.036723000,Units=km
new line.18852540 bus1=BBT153057648.1.2.3.0,bus2=BBT153057649.1.2.3.0,Phases=3,Linecode=BT803_BT803_4_3_4,Length=0.038957000,Units=km
new line.18852548 bus1=BBT153058059.1.2.3.0,bus2=BBT153058060.1.2.3.0,Phases=3,Linecode=BT521_BT521_7_3_1,Length=0.000501000,Units=km
new line.18852549 bus1=BBT153058060.1.2.3.0,bus2=BBT153058141.1.2.3.0,Phases=3,Linecode=BT803_BT803_4_3_4,Length=0.034489000,Units=km
new line.18852550 bus1=BBT153058141.1.2.3.0,bus2=BBT153058146.1.2.3.0,Phases=3,Linecode=BT803_BT803_4_3_4,Length=0.028449000,Units=km
new line.18852551 bus1=BBT153058141.1.2.3.0,bus2=BBT153058161.1.2.3.0,Phases=3,Linecode=BT803_BT803_4_3_4,Length=0.032764000,Units=km
new line.18852552 bus1=BBT153058161.1.2.3.0,bus2=BBT153058164.1.2.3.0,Phases=3,Linecode=BT803_BT803_4_3_4,Length=0.045131000,Units=km
new line.18852554 bus1=BBT153058060.1.2.3.0,bus2=BBT153058175.1.2.3.0,Phases=3,Linecode=BT803_BT803_4_3_4,Length=0.036696000,Units=km
new line.18852555 bus1=BBT153058175.1.2.3.0,bus2=BBT153058192.1.2.3.0,Phases=3,Linecode=BT803_BT803_4_3_4,Length=0.040171000,Units=km
new line.18852556 bus1=BBT153058192.1.2.3.0,bus2=BBT153058193.1.2.3.0,Phases=3,Linecode=BT803_BT803_4_3_4,Length=0.043021000,Units=km
new line.18852557 bus1=BBT153058193.1.2.3.0,bus2=BBT153058196.1.2.3.0,Phases=3,Linecode=BT803_BT803_4_3_4,Length=0.018032000,Units=km
new line.18852567 bus1=BBT153058324.1.2.3.0,bus2=BBT153058325.1.2.3.0,Phases=3,Linecode=BT521_BT521_7_3_1,Length=0.000501000,Units=km
new line.18852569 bus1=BBT153058325.1.2.3.0,bus2=BBT153058451.1.2.3.0,Phases=3,Linecode=BT803_BT803_4_3_4,Length=0.040505000,Units=km
new line.18852570 bus1=BBT153058325.1.2.3.0,bus2=BBT153058456.1.2.3.0,Phases=3,Linecode=BT803_BT803_4_3_4,Length=0.045496000,Units=km
new line.18747475 bus1=BBT149866736.1.2.3.0,bus2=BBT149866737.1.2.3.0,Phases=3,Linecode=BT803_BT803_4_3_4,Length=0.042529000,Units=km
new line.18747477 bus1=BBT149866535.1.2.3.0,bus2=BBT149866753.1.2.3.0,Phases=3,Linecode=BT803_BT803_4_3_4,Length=0.008002000,Units=km
new line.18747478 bus1=BBT149866753.1.2.3.0,bus2=BBT149866759.1.2.3.0,Phases=3,Linecode=BT803_BT803_4_3_4,Length=0.045463000,Units=km
new line.18747479 bus1=BBT149866759.1.2.3.0,bus2=BBT149866765.1.2.3.0,Phases=3,Linecode=BT803_BT803_4_3_4,Length=0.036243000,Units=km
new line.18747480 bus1=BBT149866765.1.2.3.0,bus2=BBT149866770.1.2.3.0,Phases=3,Linecode=BT803_BT803_4_3_4,Length=0.039059000,Units=km
new line.18747481 bus1=BBT149866641.1.2.3.0,bus2=BBT149866792.1.2.3.0,Phases=3,Linecode=BT803_BT803_4_3_4,Length=0.041409000,Units=km
new line.18747482 bus1=BBT149866792.1.2.3.0,bus2=BBT149866807.1.2.3.0,Phases=3,Linecode=BT803_BT803_4_3_4,Length=0.041602000,Units=km
new line.18747483 bus1=BBT149866807.1.2.3.0,bus2=BBT149866809.1.2.3.0,Phases=3,Linecode=BT803_BT803_4_3_4,Length=0.041349000,Units=km
new line.18747484 bus1=BBT149866809.1.2.3.0,bus2=BBT149866818.1.2.3.0,Phases=3,Linecode=BT803_BT803_4_3_4,Length=0.042199000,Units=km
new line.18747485 bus1=BBT149866485.1.2.3.0,bus2=BBT149866827.1.2.3.0,Phases=3,Linecode=BT803_BT803_4_3_4,Length=0.025244000,Units=km
new line.18747486 bus1=BBT149866827.1.2.3.0,bus2=BBT149866828.1.2.3.0,Phases=3,Linecode=BT803_BT803_4_3_4,Length=0.020104000,Units=km
new line.18747487 bus1=BBT149866828.1.2.3.0,bus2=BBT149866843.1.2.3.0,Phases=3,Linecode=BT803_BT803_4_3_4,Length=0.033429000,Units=km
new line.18747488 bus1=BBT149866843.1.2.3.0,bus2=BBT149866844.1.2.3.0,Phases=3,Linecode=BT803_BT803_4_3_4,Length=0.028077000,Units=km
new line.18747490 bus1=BBT149866844.1.2.3.0,bus2=BBT149866858.1.2.3.0,Phases=3,Linecode=BT803_BT803_4_3_4,Length=0.036132000,Units=km
new line.18747491 bus1=BBT149866858.1.2.3.0,bus2=BBT149866869.1.2.3.0,Phases=3,Linecode=BT803_BT803_4_3_4,Length=0.038126000,Units=km
new line.18747492 bus1=BBT149866844.1.2.3.0,bus2=BBT149866883.1.2.3.0,Phases=3,Linecode=BT803_BT803_4_3_4,Length=0.038126000,Units=km
new line.18747493 bus1=BBT149866809.1.2.3.0,bus2=BBT149866894.1.2.3.0,Phases=3,Linecode=BT803_BT803_4_3_4,Length=0.034835000,Units=km
new line.18747511 bus1=BBT149867475.1.2.3.0,bus2=BBT149867476.1.2.3.0,Phases=3,Linecode=BT513_BT513_7_3_1,Length=0.000501000,Units=km
new line.18747514 bus1=BBT149867476.1.2.3.0,bus2=BBT149867494.1.2.3.0,Phases=3,Linecode=BT803_BT803_4_3_4,Length=0.035812000,Units=km
new line.18747515 bus1=BBT149867494.1.2.3.0,bus2=BBT149867500.1.2.3.0,Phases=3,Linecode=BT803_BT803_4_3_4,Length=0.045231000,Units=km
new line.18747516 bus1=BBT149867500.1.2.3.0,bus2=BBT149867501.1.2.3.0,Phases=3,Linecode=BT803_BT803_4_3_4,Length=0.039416000,Units=km
new line.18747517 bus1=BBT149867501.1.2.3.0,bus2=BBT149867502.1.2.3.0,Phases=3,Linecode=BT803_BT803_4_3_4,Length=0.033845000,Units=km
new line.18747518 bus1=BBT149867501.1.2.3.0,bus2=BBT149867503.1.2.3.0,Phases=3,Linecode=BT803_BT803_4_3_4,Length=0.025812000,Units=km
new line.18747519 bus1=BBT149867503.1.2.3.0,bus2=BBT149867512.1.2.3.0,Phases=3,Linecode=BT803_BT803_4_3_4,Length=0.040616000,Units=km
new line.18747526 bus1=BBT149867476.1.2.3.0,bus2=BBT149867546.1.2.3.0,Phases=3,Linecode=BT803_BT803_4_3_4,Length=0.036627000,Units=km
new line.18747527 bus1=BBT149867546.1.2.3.0,bus2=BBT149867552.1.2.3.0,Phases=3,Linecode=BT803_BT803_4_3_4,Length=0.038021000,Units=km
new line.18747528 bus1=BBT149867552.1.2.3.0,bus2=BBT149867558.1.2.3.0,Phases=3,Linecode=BT803_BT803_4_3_4,Length=0.045231000,Units=km
new line.18747529 bus1=BBT149867558.1.2.3.0,bus2=BBT149867564.1.2.3.0,Phases=3,Linecode=BT803_BT803_4_3_4,Length=0.043425000,Units=km
new line.18747540 bus1=BBT139968266.1.2.3.0,bus2=BBT149867792.1.2.3.0,Phases=3,Linecode=BT810_BT810_4_3_4,Length=0.033384000,Units=km
new line.18747547 bus1=BBT139983078.1.2.3.0,bus2=BBT149867823.1.2.3.0,Phases=3,Linecode=BT803_BT803_4_3_4,Length=0.035363000,Units=km
new line.18959077 bus1=BBT1714291.1.2.0,bus2=BBT156333408.1.2.0,Phases=2,Linecode=BT803_BT803_4_2_4,Length=0.008002000,Units=km
new line.18959078 bus1=BBT156333408.1.2.0,bus2=BBT156333409.1.2.0,Phases=2,Linecode=BT803_BT803_4_2_4,Length=0.027898000,Units=km
new line.18959112 bus1=BBT1715173.1.2.0,bus2=BBT156333888.1.2.0,Phases=2,Linecode=BT108_BT107_7_2_1,Length=0.028307000,Units=km
new line.18960749 bus1=BBT1853339.1.2.0,bus2=BBT156378662.1.2.0,Phases=2,Linecode=BT807_BT807_4_2_3,Length=0.025967000,Units=km
new line.18960750 bus1=BBT156378662.1.2.0,bus2=BBT156378666.1.2.0,Phases=2,Linecode=BT807_BT807_4_2_3,Length=0.035022000,Units=km
new line.18960751 bus1=BBT156378666.1.2.0,bus2=BBT156378667.1.2.0,Phases=2,Linecode=BT807_BT807_4_2_3,Length=0.032022000,Units=km
new line.18961839 bus1=BBT156406235.1.2.3.0,bus2=BBT1727654.1.2.3.0,Phases=3,Linecode=BT513_BT513_7_3_1,Length=0.000501000,Units=km
new line.19234489 bus1=BBT1741353.1.2.0,bus2=BBT165597060.1.2.0,Phases=2,Linecode=BT807_BT807_4_2_3,Length=0.030418000,Units=km
new line.19315262 bus1=BBT167893272.1.2.3.0,bus2=BBT167893273.1.2.3.0,Phases=3,Linecode=BT518_BT518_7_3_1,Length=0.000501000,Units=km
new line.19315263 bus1=BBT167893290.1.2.3.0,bus2=BBT167893291.1.2.3.0,Phases=3,Linecode=BT518_BT518_7_3_1,Length=0.000501000,Units=km
new line.19315264 bus1=BBT167893309.1.2.3.0,bus2=BBT167893310.1.2.3.0,Phases=3,Linecode=BT518_BT518_7_3_1,Length=0.000501000,Units=km
new line.19315265 bus1=BBT167893330.1.2.3.0,bus2=BBT167893331.1.2.3.0,Phases=3,Linecode=BT518_BT518_7_3_1,Length=0.000501000,Units=km
new line.19315266 bus1=BBT167893353.1.2.3.0,bus2=BBT167893354.1.2.3.0,Phases=3,Linecode=BT518_BT518_7_3_1,Length=0.000501000,Units=km
new line.19315267 bus1=BBT167893378.1.2.3.0,bus2=BBT167893379.1.2.3.0,Phases=3,Linecode=BT518_BT518_7_3_1,Length=0.000501000,Units=km
new line.19315268 bus1=BBT167893379.1.2.3.0,bus2=BBT167893380.1.2.3.0,Phases=3,Linecode=BT803_BT803_4_3_4,Length=0.038217000,Units=km
new line.19315269 bus1=BBT167893379.1.2.3.0,bus2=BBT167893381.1.2.3.0,Phases=3,Linecode=BT803_BT803_4_3_4,Length=0.044606000,Units=km
new line.19315270 bus1=BBT167893331.1.2.3.0,bus2=BBT167893382.1.2.3.0,Phases=3,Linecode=BT803_BT803_4_3_4,Length=0.040615000,Units=km
new line.19315271 bus1=BBT167893331.1.2.3.0,bus2=BBT167893383.1.2.3.0,Phases=3,Linecode=BT803_BT803_4_3_4,Length=0.036407000,Units=km
new line.19315272 bus1=BBT167893354.1.2.3.0,bus2=BBT167893384.1.2.3.0,Phases=3,Linecode=BT803_BT803_4_3_4,Length=0.036242000,Units=km
new line.19315273 bus1=BBT167893354.1.2.3.0,bus2=BBT167893385.1.2.3.0,Phases=3,Linecode=BT803_BT803_4_3_4,Length=0.036407000,Units=km
new line.19315274 bus1=BBT167893273.1.2.3.0,bus2=BBT167893386.1.2.3.0,Phases=3,Linecode=BT803_BT803_4_3_4,Length=0.027208000,Units=km
new line.19315275 bus1=BBT167893273.1.2.3.0,bus2=BBT167893387.1.2.3.0,Phases=3,Linecode=BT803_BT803_4_3_4,Length=0.030811000,Units=km
new line.19315276 bus1=BBT167893291.1.2.3.0,bus2=BBT167893388.1.2.3.0,Phases=3,Linecode=BT803_BT803_4_3_4,Length=0.038594000,Units=km
new line.19315277 bus1=BBT167893291.1.2.3.0,bus2=BBT167893389.1.2.3.0,Phases=3,Linecode=BT803_BT803_4_3_4,Length=0.038425000,Units=km
new line.18852573 bus1=BBT153058456.1.2.3.0,bus2=BBT153058479.1.2.3.0,Phases=3,Linecode=BT803_BT803_4_3_4,Length=0.045496000,Units=km
new line.18852574 bus1=BBT153058479.1.2.3.0,bus2=BBT153058491.1.2.3.0,Phases=3,Linecode=BT803_BT803_4_3_4,Length=0.028642000,Units=km
new line.18852575 bus1=BBT153058491.1.2.3.0,bus2=BBT153058492.1.2.3.0,Phases=3,Linecode=BT803_BT803_4_3_4,Length=0.018443000,Units=km
new line.18852578 bus1=BBT153058451.1.2.3.0,bus2=BBT153058532.1.2.3.0,Phases=3,Linecode=BT803_BT803_4_3_4,Length=0.040862000,Units=km
new line.18852579 bus1=BBT153058532.1.2.3.0,bus2=BBT153058553.1.2.3.0,Phases=3,Linecode=BT803_BT803_4_3_4,Length=0.040320000,Units=km
new line.18852580 bus1=BBT153058553.1.2.3.0,bus2=BBT153058570.1.2.3.0,Phases=3,Linecode=BT803_BT803_4_3_4,Length=0.040021000,Units=km
new line.18935148 bus1=BBT155665989.1.2.0,bus2=BBT155665990.1.2.0,Phases=2,Linecode=BT521_BT521_7_2_1,Length=0.000501000,Units=km
new line.19186462 bus1=BBT164107367.1.2.0,bus2=BBT164107368.1.2.0,Phases=2,Linecode=BT517_BT517_7_2_1,Length=0.000501000,Units=km