new load.BT_3000281644_M1 bus1=RML1003917813.1.0,Phases=1,kv=0.127,kW=2.22634,pf=0.92,Vminpu=0.92,Vmaxpu=1.5,model=8,zipv=[0.5,0,0.5,1,0,0,0],daily=RES1_6,status=variable
new load.BT_3000281645_M1 bus1=RML1003917778.1.2.0,Phases=2,kv=0.22,kW=0.44414,pf=0.92,Vminpu=0.92,Vmaxpu=1.5,model=8,zipv=[0.5,0,0.5,1,0,0,0],daily=RES1_6,status=variable
new load.BT_3000281646_M1 bus1=RML1003917757.1.2.0,Phases=2,kv=0.22,kW=3.48846,pf=0.92,Vminpu=0.92,Vmaxpu=1.5,model=8,zipv=[0.5,0,0.5,1,0,0,0],daily=RES1_6,status=variable
new load.BT_3000281647_M1 bus1=RML1003917750.1.2.0,Phases=2,kv=0.22,kW=1.4529,pf=0.92,Vminpu=0.92,Vmaxpu=1.5,model=8,zipv=[0.5,0,0.5,1,0,0,0],daily=RES1_6,status=variable
new load.BT_3000281648_M1 bus1=RML1003917743.2.0,Phases=1,kv=0.127,kW=3.74776,pf=0.92,Vminpu=0.92,Vmaxpu=1.5,model=8,zipv=[0.5,0,0.5,1,0,0,0],daily=RES1_6,status=variable
new load.BT_3000281649_M1 bus1=RML1011215661.1.2.0,Phases=2,kv=0.22,kW=0.13416,pf=0.92,Vminpu=0.92,Vmaxpu=1.5,model=8,zipv=[0.5,0,0.5,1,0,0,0],daily=RES1_6,status=variable
new load.BT_3000281650_M1 bus1=RML1003917708.1.2.0,Phases=2,kv=0.22,kW=4.13724,pf=0.92,Vminpu=0.92,Vmaxpu=1.5,model=8,zipv=[0.5,0,0.5,1,0,0,0],daily=RES1_6,status=variable
new load.BT_3000281651_M1 bus1=RML1003917701.1.0,Phases=1,kv=0.127,kW=1.2994,pf=0.92,Vminpu=0.92,Vmaxpu=1.5,model=8,zipv=[0.5,0,0.5,1,0,0,0],daily=RES1_6,status=variable
new load.BT_3000281652_M1 bus1=RML1003917694.1.2.0,Phases=2,kv=0.22,kW=0.7867,pf=0.92,Vminpu=0.92,Vmaxpu=1.5,model=8,zipv=[0.5,0,0.5,1,0,0,0],daily=RES1_6,status=variable
new load.BT_3000281653_M1 bus1=RML1003917645.2.3.0,Phases=2,kv=0.22,kW=1.21022,pf=0.92,Vminpu=0.92,Vmaxpu=1.5,model=8,zipv=[0.5,0,0.5,1,0,0,0],daily=RES1_6,status=variable
new load.BT_3000281654_M1 bus1=RML1003917547.3.0,Phases=1,kv=0.127,kW=1.37656,pf=0.92,Vminpu=0.92,Vmaxpu=1.5,model=8,zipv=[0.5,0,0.5,1,0,0,0],daily=RES1_6,status=variable
new load.BT_3000281655_M1 bus1=RML1003917512.3.0,Phases=1,kv=0.127,kW=2.20868,pf=0.92,Vminpu=0.92,Vmaxpu=1.5,model=8,zipv=[0.5,0,0.5,1,0,0,0],daily=RES1_6,status=variable
new load.BT_3000281656_M1 bus1=RML1003917519.2.3.0,Phases=2,kv=0.22,kW=1.36626,pf=0.92,Vminpu=0.92,Vmaxpu=1.5,model=8,zipv=[0.5,0,0.5,1,0,0,0],daily=RES1_6,status=variable
new load.BT_3000281657_M1 bus1=RML1003917589.3.0,Phases=1,kv=0.127,kW=1.50146,pf=0.92,Vminpu=0.92,Vmaxpu=1.5,model=8,zipv=[0.5,0,0.5,1,0,0,0],daily=RES1_6,status=variable
new load.BT_3000281658_M1 bus1=RML1003917582.3.0,Phases=1,kv=0.127,kW=2.1414,pf=0.92,Vminpu=0.92,Vmaxpu=1.5,model=8,zipv=[0.5,0,0.5,1,0,0,0],daily=RES1_6,status=variable
new load.BT_3000281659_M1 bus1=RML1010888049.2.0,Phases=1,kv=0.127,kW=2.7077,pf=0.92,Vminpu=0.92,Vmaxpu=1.5,model=8,zipv=[0.5,0,0.5,1,0,0,0],daily=RES1_6,status=variable
new load.BT_3000281660_M1 bus1=RML1003917617.1.0,Phases=1,kv=0.127,kW=1.19318,pf=0.92,Vminpu=0.92,Vmaxpu=1.5,model=8,zipv=[0.5,0,0.5,1,0,0,0],daily=RES1_6,status=variable
new load.BT_3000281661_M1 bus1=RML1003917610.2.0,Phases=1,kv=0.127,kW=1.28234,pf=0.92,Vminpu=0.92,Vmaxpu=1.5,model=8,zipv=[0.5,0,0.5,1,0,0,0],daily=RES1_6,status=variable
new load.BT_3000281679_M1 bus1=RML1003917638.2.3.0,Phases=2,kv=0.22,kW=0.0118,pf=0.92,Vminpu=0.92,Vmaxpu=1.5,model=8,zipv=[0.5,0,0.5,1,0,0,0],daily=RES1_6,status=variable
new load.BT_3000281680_M1 bus1=RML1003917631.2.0,Phases=1,kv=0.127,kW=1.79588,pf=0.92,Vminpu=0.92,Vmaxpu=1.5,model=8,zipv=[0.5,0,0.5,1,0,0,0],daily=RES1_6,status=variable
new load.BT_3000281681_M1 bus1=RML1003917624.1.0,Phases=1,kv=0.127,kW=0.85778,pf=0.92,Vminpu=0.92,Vmaxpu=1.5,model=8,zipv=[0.5,0,0.5,1,0,0,0],daily=RES1_6,status=variable
new load.BT_3000281682_M1 bus1=RML1010474209.2.3.0,Phases=2,kv=0.22,kW=1.8125,pf=0.92,Vminpu=0.92,Vmaxpu=1.5,model=8,zipv=[0.5,0,0.5,1,0,0,0],daily=RES1_6,status=variable
new load.BT_3000281684_M1 bus1=RML1003917561.2.3.0,Phases=2,kv=0.22,kW=2.52432,pf=0.92,Vminpu=0.92,Vmaxpu=1.5,model=8,zipv=[0.5,0,0.5,1,0,0,0],daily=RES1_6,status=variable
new load.BT_3000281685_M1 bus1=RML1006328130.1.2.0,Phases=2,kv=0.22,kW=1.18162,pf=0.92,Vminpu=0.92,Vmaxpu=1.5,model=8,zipv=[0.5,0,0.5,1,0,0,0],daily=RES1_6,status=variable
new load.BT_3000281686_M1 bus1=RML1003917533.1.2.3.0,Phases=3,kv=0.22,kW=0.0118,pf=0.92,Vminpu=0.92,Vmaxpu=1.5,model=8,zipv=[0.5,0,0.5,1,0,0,0],daily=RES1_6,status=variable
new load.BT_3000281687_M1 bus1=RML1011305084.1.2.0,Phases=2,kv=0.22,kW=1.95548,pf=0.92,Vminpu=0.92,Vmaxpu=1.5,model=8,zipv=[0.5,0,0.5,1,0,0,0],daily=RES1_6,status=variable
new load.BT_3000281688_M1 bus1=RML1003917526.2.0,Phases=1,kv=0.127,kW=1.7454,pf=0.92,Vminpu=0.92,Vmaxpu=1.5,model=8,zipv=[0.5,0,0.5,1,0,0,0],daily=RES1_6,status=variable
new load.BT_3000281689_M1 bus1=RML1003917477.2.0,Phases=1,kv=0.127,kW=2.06464,pf=0.92,Vminpu=0.92,Vmaxpu=1.5,model=8,zipv=[0.5,0,0.5,1,0,0,0],daily=RES1_6,status=variable
new load.BT_3000281690_M1 bus1=RML1003917428.3.0,Phases=1,kv=0.127,kW=0.67734,pf=0.92,Vminpu=0.92,Vmaxpu=1.5,model=8,zipv=[0.5,0,0.5,1,0,0,0],daily=RES1_6,status=variable
new load.BT_3000281691_M1 bus1=RML1003917435.2.0,Phases=1,kv=0.127,kW=1.19426,pf=0.92,Vminpu=0.92,Vmaxpu=1.5,model=8,zipv=[0.5,0,0.5,1,0,0,0],daily=RES1_6,status=variable
new load.BT_3000281692_M1 bus1=RML1003916119.3.0,Phases=1,kv=0.127,kW=2.636,pf=0.92,Vminpu=0.92,Vmaxpu=1.5,model=8,zipv=[0.5,0,0.5,1,0,0,0],daily=RES1_6,status=variable
new load.BT_3000281693_M1 bus1=RML1003916091.1.0,Phases=1,kv=0.127,kW=1.81818,pf=0.92,Vminpu=0.92,Vmaxpu=1.5,model=8,zipv=[0.5,0,0.5,1,0,0,0],daily=RES1_6,status=variable
new load.BT_3000281694_M1 bus1=RML1003916084.3.0,Phases=1,kv=0.127,kW=0.9718,pf=0.92,Vminpu=0.92,Vmaxpu=1.5,model=8,zipv=[0.5,0,0.5,1,0,0,0],daily=RES1_6,status=variable
new load.BT_3000281695_M1 bus1=RML1003916077.3.0,Phases=1,kv=0.127,kW=1.22788,pf=0.92,Vminpu=0.92,Vmaxpu=1.5,model=8,zipv=[0.5,0,0.5,1,0,0,0],daily=RES1_6,status=variable
new load.BT_3000281696_M1 bus1=RML1003916070.3.0,Phases=1,kv=0.127,kW=4.02264,pf=0.92,Vminpu=0.92,Vmaxpu=1.5,model=8,zipv=[0.5,0,0.5,1,0,0,0],daily=RES1_6,status=variable
new load.BT_3000281697_M1 bus1=RML1003915993.1.0,Phases=1,kv=0.127,kW=0.8685,pf=0.92,Vminpu=0.92,Vmaxpu=1.5,model=8,zipv=[0.5,0,0.5,1,0,0,0],daily=RES1_6,status=variable
new load.BT_3000281698_M1 bus1=RML1003916000.2.0,Phases=1,kv=0.127,kW=1.0334,pf=0.92,Vminpu=0.92,Vmaxpu=1.5,model=8,zipv=[0.5,0,0.5,1,0,0,0],daily=RES1_6,status=variable
new load.BT_3000281699_M1 bus1=RML1003916007.1.0,Phases=1,kv=0.127,kW=0.82518,pf=0.92,Vminpu=0.92,Vmaxpu=1.5,model=8,zipv=[0.5,0,0.5,1,0,0,0],daily=RES1_6,status=variable
new load.BT_3000281700_M1 bus1=RML1003916014.1.2.0,Phases=2,kv=0.22,kW=0.76272,pf=0.92,Vminpu=0.92,Vmaxpu=1.5,model=8,zipv=[0.5,0,0.5,1,0,0,0],daily=RES1_6,status=variable
new load.BT_3000281701_M1 bus1=RML1003916021.1.0,Phases=1,kv=0.127,kW=0.90278,pf=0.92,Vminpu=0.92,Vmaxpu=1.5,model=8,zipv=[0.5,0,0.5,1,0,0,0],daily=RES1_6,status=variable
new load.BT_3000281703_M1 bus1=RML1003916028.2.3.0,Phases=2,kv=0.22,kW=2.57458,pf=0.92,Vminpu=0.92,Vmaxpu=1.5,model=8,zipv=[0.5,0,0.5,1,0,0,0],daily=RES1_6,status=variable
new load.BT_3000281704_M1 bus1=RML1003916063.2.0,Phases=1,kv=0.127,kW=2.24906,pf=0.92,Vminpu=0.92,Vmaxpu=1.5,model=8,zipv=[0.5,0,0.5,1,0,0,0],daily=RES1_6,status=variable
new load.BT_3000281705_M1 bus1=RML1003916056.2.0,Phases=1,kv=0.127,kW=2.90664,pf=0.92,Vminpu=0.92,Vmaxpu=1.5,model=8,zipv=[0.5,0,0.5,1,0,0,0],daily=RES1_6,status=variable
new load.BT_3000281707_M1 bus1=RML1003917414.2.0,Phases=1,kv=0.127,kW=3.47698,pf=0.92,Vminpu=0.92,Vmaxpu=1.5,model=8,zipv=[0.5,0,0.5,1,0,0,0],daily=RES1_6,status=variable
new load.BT_3000281708_M1 bus1=RML1003917421.3.0,Phases=1,kv=0.127,kW=1.52104,pf=0.92,Vminpu=0.92,Vmaxpu=1.5,model=8,zipv=[0.5,0,0.5,1,0,0,0],daily=RES1_6,status=variable
new load.BT_3000281709_M1 bus1=RML1003917484.1.0,Phases=1,kv=0.127,kW=0.96502,pf=0.92,Vminpu=0.92,Vmaxpu=1.5,model=8,zipv=[0.5,0,0.5,1,0,0,0],daily=RES1_6,status=variable
new load.BT_3000281710_M1 bus1=RML1003917491.3.0,Phases=1,kv=0.127,kW=1.35094,pf=0.92,Vminpu=0.92,Vmaxpu=1.5,model=8,zipv=[0.5,0,0.5,1,0,0,0],daily=RES1_6,status=variable
new load.BT_3000281711_M1 bus1=RML1010985684.2.0,Phases=1,kv=0.127,kW=0.26538,pf=0.92,Vminpu=0.92,Vmaxpu=1.5,model=8,zipv=[0.5,0,0.5,1,0,0,0],daily=RES1_6,status=variable
new load.BT_3000281712_M1 bus1=RML1003917659.3.1.0,Phases=2,kv=0.22,kW=0.27172,pf=0.92,Vminpu=0.92,Vmaxpu=1.5,model=8,zipv=[0.5,0,0.5,1,0,0,0],daily=COM1_12,status=variable
new load.BT_3000281715_M1 bus1=RML1003917505.1.2.3.0,Phases=3,kv=0.22,kW=3.46182,pf=0.92,Vminpu=0.92,Vmaxpu=1.5,model=8,zipv=[0.5,0,0.5,1,0,0,0],daily=RES1_6,status=variable
new load.BT_3000281716_M1 bus1=RML1003917442.2.3.0,Phases=2,kv=0.22,kW=1.25668,pf=0.92,Vminpu=0.92,Vmaxpu=1.5,model=8,zipv=[0.5,0,0.5,1,0,0,0],daily=RES1_6,status=variable
new load.BT_3000281717_M1 bus1=RML1003917442.2.3.0,Phases=2,kv=0.22,kW=0.84616,pf=0.92,Vminpu=0.92,Vmaxpu=1.5,model=8,zipv=[0.5,0,0.5,1,0,0,0],daily=COM1_12,status=variable
new load.BT_3000281718_M1 bus1=RML1003917449.2.3.0,Phases=2,kv=0.22,kW=1.01002,pf=0.92,Vminpu=0.92,Vmaxpu=1.5,model=8,zipv=[0.5,0,0.5,1,0,0,0],daily=RES1_6,status=variable
new load.BT_3000281719_M1 bus1=RML1003917449.2.3.0,Phases=2,kv=0.22,kW=1.1404,pf=0.92,Vminpu=0.92,Vmaxpu=1.5,model=8,zipv=[0.5,0,0.5,1,0,0,0],daily=RES1_6,status=variable
new load.BT_3000281720_M1 bus1=RML1003917400.2.0,Phases=1,kv=0.127,kW=1.98326,pf=0.92,Vminpu=0.92,Vmaxpu=1.5,model=8,zipv=[0.5,0,0.5,1,0,0,0],daily=RES1_6,status=variable
new load.BT_3000281721_M1 bus1=RML1003917407.1.0,Phases=1,kv=0.127,kW=2.12374,pf=0.92,Vminpu=0.92,Vmaxpu=1.5,model=8,zipv=[0.5,0,0.5,1,0,0,0],daily=RES1_6,status=variable
new load.BT_3000281722_M1 bus1=RML1003916112.1.2.0,Phases=2,kv=0.22,kW=2.73904,pf=0.92,Vminpu=0.92,Vmaxpu=1.5,model=8,zipv=[0.5,0,0.5,1,0,0,0],daily=RES1_6,status=variable
new load.BT_3000281723_M1 bus1=RML1003916105.2.0,Phases=1,kv=0.127,kW=3.54196,pf=0.92,Vminpu=0.92,Vmaxpu=1.5,model=8,zipv=[0.5,0,0.5,1,0,0,0],daily=COM1_12,status=variable
new load.BT_3000281724_M1 bus1=RML1003917379.3.1.0,Phases=2,kv=0.22,kW=0.97996,pf=0.92,Vminpu=0.92,Vmaxpu=1.5,model=8,zipv=[0.5,0,0.5,1,0,0,0],daily=COM1_12,status=variable
new load.BT_3000281725_M1 bus1=RML1003915986.1.0,Phases=1,kv=0.127,kW=0.45042,pf=0.92,Vminpu=0.92,Vmaxpu=1.5,model=8,zipv=[0.5,0,0.5,1,0,0,0],daily=RES1_6,status=variable
new load.BT_3000281726_M1 bus1=RML1003915979.1.0,Phases=1,kv=0.127,kW=1.78202,pf=0.92,Vminpu=0.92,Vmaxpu=1.5,model=8,zipv=[0.5,0,0.5,1,0,0,0],daily=RES1_6,status=variable
new load.BT_3000281727_M1 bus1=RML1003915944.2.0,Phases=1,kv=0.127,kW=0.76566,pf=0.92,Vminpu=0.92,Vmaxpu=1.5,model=8,zipv=[0.5,0,0.5,1,0,0,0],daily=RES1_6,status=variable
new load.BT_3000281728_M1 bus1=RML1003915951.2.0,Phases=1,kv=0.127,kW=1.50652,pf=0.92,Vminpu=0.92,Vmaxpu=1.5,model=8,zipv=[0.5,0,0.5,1,0,0,0],daily=RES1_6,status=variable
new load.BT_3000281729_M1 bus1=RML1003915923.1.2.0,Phases=2,kv=0.22,kW=0.5312,pf=0.92,Vminpu=0.92,Vmaxpu=1.5,model=8,zipv=[0.5,0,0.5,1,0,0,0],daily=RES1_6,status=variable
new load.BT_3000281730_M1 bus1=RML1003915916.1.2.3.0,Phases=3,kv=0.22,kW=0.13164,pf=0.92,Vminpu=0.92,Vmaxpu=1.5,model=8,zipv=[0.5,0,0.5,1,0,0,0],daily=RES1_6,status=variable
new load.BT_3000281731_M1 bus1=RML1003915902.1.2.3.0,Phases=3,kv=0.22,kW=1.71744,pf=0.92,Vminpu=0.92,Vmaxpu=1.5,model=8,zipv=[0.5,0,0.5,1,0,0,0],daily=RES1_6,status=variable
new load.BT_3000281732_M1 bus1=RML1003915909.1.2.3.0,Phases=3,kv=0.22,kW=1.55804,pf=0.92,Vminpu=0.92,Vmaxpu=1.5,model=8,zipv=[0.5,0,0.5,1,0,0,0],daily=RES1_6,status=variable
new load.BT_3000281733_M1 bus1=RML1003915937.1.0,Phases=1,kv=0.127,kW=1.96138,pf=0.92,Vminpu=0.92,Vmaxpu=1.5,model=8,zipv=[0.5,0,0.5,1,0,0,0],daily=RES1_6,status=variable
new load.BT_3000281734_M1 bus1=RML1003915972.1.2.3.0,Phases=3,kv=0.22,kW=4.25956,pf=0.92,Vminpu=0.92,Vmaxpu=1.5,model=8,zipv=[0.5,0,0.5,1,0,0,0],daily=COM1_12,status=variable
new load.BT_3000281735_M1 bus1=RML1003916749.1.2.3.0,Phases=3,kv=0.22,kW=1.02294,pf=0.92,Vminpu=0.92,Vmaxpu=1.5,model=8,zipv=[0.5,0,0.5,1,0,0,0],daily=COM1_12,status=variable
new load.BT_3000281736_M1 bus1=RML1003916756.2.0,Phases=1,kv=0.127,kW=0.63614,pf=0.92,Vminpu=0.92,Vmaxpu=1.5,model=8,zipv=[0.5,0,0.5,1,0,0,0],daily=RES1_6,status=variable
new load.BT_3000281737_M1 bus1=RML1003916763.3.0,Phases=1,kv=0.127,kW=1.8577,pf=0.92,Vminpu=0.92,Vmaxpu=1.5,model=8,zipv=[0.5,0,0.5,1,0,0,0],daily=RES1_6,status=variable
new load.BT_3000281738_M1 bus1=RML1003916770.3.0,Phases=1,kv=0.127,kW=0.87206,pf=0.92,Vminpu=0.92,Vmaxpu=1.5,model=8,zipv=[0.5,0,0.5,1,0,0,0],daily=RES1_6,status=variable
new load.BT_3000281739_M1 bus1=RML1003916784.2.0,Phases=1,kv=0.127,kW=0.6639,pf=0.92,Vminpu=0.92,Vmaxpu=1.5,model=8,zipv=[0.5,0,0.5,1,0,0,0],daily=RES1_6,status=variable
new load.BT_3000281740_M1 bus1=RML1003916791.3.0,Phases=1,kv=0.127,kW=0.87848,pf=0.92,Vminpu=0.92,Vmaxpu=1.5,model=8,zipv=[0.5,0,0.5,1,0,0,0],daily=RES1_6,status=variable
new load.BT_3000281741_M1 bus1=RML1003916833.2.0,Phases=1,kv=0.127,kW=0.0118,pf=0.92,Vminpu=0.92,Vmaxpu=1.5,model=8,zipv=[0.5,0,0.5,1,0,0,0],daily=RES1_6,status=variable
new load.BT_3000281742_M1 bus1=RML1003916826.3.0,Phases=1,kv=0.127,kW=1.19256,pf=0.92,Vminpu=0.92,Vmaxpu=1.5,model=8,zipv=[0.5,0,0.5,1,0,0,0],daily=RES1_6,status=variable
new load.BT_3000281743_M1 bus1=RML1003916819.2.0,Phases=1,kv=0.127,kW=2.04614,pf=0.92,Vminpu=0.92,Vmaxpu=1.5,model=8,zipv=[0.5,0,0.5,1,0,0,0],daily=RES1_6,status=variable
new load.BT_3000281744_M1 bus1=RML1003916889.2.0,Phases=1,kv=0.127,kW=1.18456,pf=0.92,Vminpu=0.92,Vmaxpu=1.5,model=8,zipv=[0.5,0,0.5,1,0,0,0],daily=RES1_6,status=variable
new load.BT_3000281745_M1 bus1=RML1003916854.1.2.3.0,Phases=3,kv=0.22,kW=1.46976,pf=0.92,Vminpu=0.92,Vmaxpu=1.5,model=8,zipv=[0.5,0,0.5,1,0,0,0],daily=COM1_12,status=variable
new load.BT_3000281746_M1 bus1=RML1003916854.1.2.3.0,Phases=3,kv=0.22,kW=1.12926,pf=0.92,Vminpu=0.92,Vmaxpu=1.5,model=8,zipv=[0.5,0,0.5,1,0,0,0],daily=RES1_6,status=variable
new load.BT_3000281747_M1 bus1=RML1003916889.2.0,Phases=1,kv=0.127,kW=1.84908,pf=0.92,Vminpu=0.92,Vmaxpu=1.5,model=8,zipv=[0.5,0,0.5,1,0,0,0],daily=RES1_6,status=variable
new load.BT_3000281748_M1 bus1=RML1003916896.3.0,Phases=1,kv=0.127,kW=2.45178,pf=0.92,Vminpu=0.92,Vmaxpu=1.5,model=8,zipv=[0.5,0,0.5,1,0,0,0],daily=RES1_6,status=variable
new load.BT_3000281749_M1 bus1=RML1003916861.1.0,Phases=1,kv=0.127,kW=1.13474,pf=0.92,Vminpu=0.92,Vmaxpu=1.5,model=8,zipv=[0.5,0,0.5,1,0,0,0],daily=RES1_6,status=variable
new load.BT_3000281750_M1 bus1=RML1003916868.3.0,Phases=1,kv=0.127,kW=0.0118,pf=0.92,Vminpu=0.92,Vmaxpu=1.5,model=8,zipv=[0.5,0,0.5,1,0,0,0],daily=RES1_6,status=variable
new load.BT_3000281751_M1 bus1=RML1003916875.2.0,Phases=1,kv=0.127,kW=0.0118,pf=0.92,Vminpu=0.92,Vmaxpu=1.5,model=8,zipv=[0.5,0,0.5,1,0,0,0],daily=RES1_6,status=variable
new load.BT_3000281752_M1 bus1=RML1003916882.3.0,Phases=1,kv=0.127,kW=0.70638,pf=0.92,Vminpu=0.92,Vmaxpu=1.5,model=8,zipv=[0.5,0,0.5,1,0,0,0],daily=RES1_6,status=variable
new load.BT_3000281753_M1 bus1=RML1003916882.3.0,Phases=1,kv=0.127,kW=0.0118,pf=0.92,Vminpu=0.92,Vmaxpu=1.5,model=8,zipv=[0.5,0,0.5,1,0,0,0],daily=RES1_6,status=variable
new load.BT_3000281754_M1 bus1=RML1003916847.3.0,Phases=1,kv=0.127,kW=1.1871,pf=0.92,Vminpu=0.92,Vmaxpu=1.5,model=8,zipv=[0.5,0,0.5,1,0,0,0],daily=RES1_6,status=variable
new load.BT_3000281755_M1 bus1=RML1003916840.3.0,Phases=1,kv=0.127,kW=0.8929,pf=0.92,Vminpu=0.92,Vmaxpu=1.5,model=8,zipv=[0.5,0,0.5,1,0,0,0],daily=RES1_6,status=variable
new load.BT_3000281756_M1 bus1=RML1003916798.1.0,Phases=1,kv=0.127,kW=0.0118,pf=0.92,Vminpu=0.92,Vmaxpu=1.5,model=8,zipv=[0.5,0,0.5,1,0,0,0],daily=RES1_6,status=variable
new load.BT_3000281759_M1 bus1=RML1003917393.1.0,Phases=1,kv=0.127,kW=2.05832,pf=0.92,Vminpu=0.92,Vmaxpu=1.5,model=8,zipv=[0.5,0,0.5,1,0,0,0],daily=RES1_6,status=variable
new load.BT_3000281760_M1 bus1=RML1003917386.1.2.3.0,Phases=3,kv=0.22,kW=0.0879,pf=0.92,Vminpu=0.92,Vmaxpu=1.5,model=8,zipv=[0.5,0,0.5,1,0,0,0],daily=RES1_6,status=variable
new load.BT_3000281761_M1 bus1=RML1003917456.1.2.3.0,Phases=3,kv=0.22,kW=11.69362,pf=0.92,Vminpu=0.92,Vmaxpu=1.5,model=8,zipv=[0.5,0,0.5,1,0,0,0],daily=COM1_12,status=variable
new load.BT_3000281762_M1 bus1=RML1003916812.1.0,Phases=1,kv=0.127,kW=1.10738,pf=0.92,Vminpu=0.92,Vmaxpu=1.5,model=8,zipv=[0.5,0,0.5,1,0,0,0],daily=RES1_6,status=variable
new load.BT_3000281763_M1 bus1=RML1003917463.1.0,Phases=1,kv=0.127,kW=2.07748,pf=0.92,Vminpu=0.92,Vmaxpu=1.5,model=8,zipv=[0.5,0,0.5,1,0,0,0],daily=RES1_6,status=variable
new load.BT_3000281764_M1 bus1=RML1003917470.3.0,Phases=1,kv=0.127,kW=1.48296,pf=0.92,Vminpu=0.92,Vmaxpu=1.5,model=8,zipv=[0.5,0,0.5,1,0,0,0],daily=RES1_6,status=variable
new load.BT_3000281766_M1 bus1=RML1003917596.3.1.0,Phases=2,kv=0.22,kW=6.3393,pf=0.92,Vminpu=0.92,Vmaxpu=1.5,model=8,zipv=[0.5,0,0.5,1,0,0,0],daily=COM1_12,status=variable
new load.BT_3000281767_M1 bus1=RML1003917603.1.2.3.0,Phases=3,kv=0.22,kW=2.07966,pf=0.92,Vminpu=0.92,Vmaxpu=1.5,model=8,zipv=[0.5,0,0.5,1,0,0,0],daily=IND1_12,status=variable
new load.BT_3000281768_M1 bus1=RML1003917603.1.2.3.0,Phases=3,kv=0.22,kW=0.0118,pf=0.92,Vminpu=0.92,Vmaxpu=1.5,model=8,zipv=[0.5,0,0.5,1,0,0,0],daily=RES1_6,status=variable
new load.BT_3000281769_M1 bus1=RML1003917673.1.2.0,Phases=2,kv=0.22,kW=3.01642,pf=0.92,Vminpu=0.92,Vmaxpu=1.5,model=8,zipv=[0.5,0,0.5,1,0,0,0],daily=RES1_6,status=variable
new load.BT_3000281770_M1 bus1=RML1003917680.2.0,Phases=1,kv=0.127,kW=2.88014,pf=0.92,Vminpu=0.92,Vmaxpu=1.5,model=8,zipv=[0.5,0,0.5,1,0,0,0],daily=RES1_6,status=variable
new load.BT_3000281771_M1 bus1=RML1003917666.2.3.0,Phases=2,kv=0.22,kW=3.78442,pf=0.92,Vminpu=0.92,Vmaxpu=1.5,model=8,zipv=[0.5,0,0.5,1,0,0,0],daily=RES1_6,status=variable
new load.BT_3000281772_M1 bus1=RML1003917722.1.2.0,Phases=2,kv=0.22,kW=0.2563,pf=0.92,Vminpu=0.92,Vmaxpu=1.5,model=8,zipv=[0.5,0,0.5,1,0,0,0],daily=COM1_12,status=variable
new load.BT_3000281773_M1 bus1=RML1003917722.1.2.0,Phases=2,kv=0.22,kW=0.36052,pf=0.92,Vminpu=0.92,Vmaxpu=1.5,model=8,zipv=[0.5,0,0.5,1,0,0,0],daily=COM1_12,status=variable
new load.BT_3000281774_M1 bus1=RML1003917729.2.3.0,Phases=2,kv=0.22,kW=2.7441,pf=0.92,Vminpu=0.92,Vmaxpu=1.5,model=8,zipv=[0.5,0,0.5,1,0,0,0],daily=RES1_6,status=variable
new load.BT_3000281775_M1 bus1=RML1003917736.2.3.0,Phases=2,kv=0.22,kW=7.55448,pf=0.92,Vminpu=0.92,Vmaxpu=1.5,model=8,zipv=[0.5,0,0.5,1,0,0,0],daily=RES1_6,status=variable
new load.BT_3000281776_M1 bus1=RML1003917960.1.0,Phases=1,kv=0.127,kW=0.72488,pf=0.92,Vminpu=0.92,Vmaxpu=1.5,model=8,zipv=[0.5,0,0.5,1,0,0,0],daily=RES1_6,status=variable
new load.BT_3000281778_M1 bus1=RML1003917932.1.2.3.0,Phases=3,kv=0.22,kW=0.99382,pf=0.92,Vminpu=0.92,Vmaxpu=1.5,model=8,zipv=[0.5,0,0.5,1,0,0,0],daily=RES1_6,status=variable
new load.BT_3000281779_M1 bus1=RML1003917932.1.2.3.0,Phases=3,kv=0.22,kW=4.0393,pf=0.92,Vminpu=0.92,Vmaxpu=1.5,model=8,zipv=[0.5,0,0.5,1,0,0,0],daily=COM1_12,status=variable
new load.BT_3000281781_M1 bus1=RML1003917911.1.2.3.0,Phases=3,kv=0.22,kW=0.05632,pf=0.92,Vminpu=0.92,Vmaxpu=1.5,model=8,zipv=[0.5,0,0.5,1,0,0,0],daily=COM1_12,status=variable
new load.BT_3000281782_M1 bus1=RML1003917911.1.2.3.0,Phases=3,kv=0.22,kW=0.00486,pf=0.92,Vminpu=0.92,Vmaxpu=1.5,model=8,zipv=[0.5,0,0.5,1,0,0,0],daily=COM1_12,status=variable
new load.BT_3000281783_M1 bus1=RML1003917918.3.0,Phases=1,kv=0.127,kW=0.2346,pf=0.92,Vminpu=0.92,Vmaxpu=1.5,model=8,zipv=[0.5,0,0.5,1,0,0,0],daily=RES1_6,status=variable
new load.BT_3000281784_M1 bus1=RML1011305085.2.0,Phases=1,kv=0.127,kW=1.3095,pf=0.92,Vminpu=0.92,Vmaxpu=1.5,model=8,zipv=[0.5,0,0.5,1,0,0,0],daily=RES1_6,status=variable
new load.BT_3000281785_M1 bus1=RML1003918023.2.3.0,Phases=2,kv=0.22,kW=0.43172,pf=0.92,Vminpu=0.92,Vmaxpu=1.5,model=8,zipv=[0.5,0,0.5,1,0,0,0],daily=RES1_6,status=variable
new load.BT_3000281786_M1 bus1=RML1003917939.1.2.0,Phases=2,kv=0.22,kW=0.76406,pf=0.92,Vminpu=0.92,Vmaxpu=1.5,model=8,zipv=[0.5,0,0.5,1,0,0,0],daily=RES1_6,status=variable
new load.BT_3000281787_M1 bus1=RML1003917967.1.0,Phases=1,kv=0.127,kW=1.98452,pf=0.92,Vminpu=0.92,Vmaxpu=1.5,model=8,zipv=[0.5,0,0.5,1,0,0,0],daily=RES1_6,status=variable
new load.BT_3000281788_M1 bus1=RML1003917974.3.0,Phases=1,kv=0.127,kW=5.64556,pf=0.92,Vminpu=0.92,Vmaxpu=1.5,model=8,zipv=[0.5,0,0.5,1,0,0,0],daily=RES1_6,status=variable
new load.BT_3000281789_M1 bus1=RML1003917981.2.0,Phases=1,kv=0.127,kW=0.9623,pf=0.92,Vminpu=0.92,Vmaxpu=1.5,model=8,zipv=[0.5,0,0.5,1,0,0,0],daily=RES1_6,status=variable
new load.BT_3000281790_M1 bus1=RML1003917764.1.2.0,Phases=2,kv=0.22,kW=19.01402,pf=0.92,Vminpu=0.92,Vmaxpu=1.5,model=8,zipv=[0.5,0,0.5,1,0,0,0],daily=RES1_6,status=variable
new load.BT_3000281791_M1 bus1=RML1003917771.2.3.0,Phases=2,kv=0.22,kW=2.05074,pf=0.92,Vminpu=0.92,Vmaxpu=1.5,model=8,zipv=[0.5,0,0.5,1,0,0,0],daily=RES1_6,status=variable
new load.BT_3000281792_M1 bus1=RML1003917792.3.1.0,Phases=2,kv=0.22,kW=5.4204,pf=0.92,Vminpu=0.92,Vmaxpu=1.5,model=8,zipv=[0.5,0,0.5,1,0,0,0],daily=RES1_6,status=variable
new load.BT_3000281793_M1 bus1=RML1003917799.3.0,Phases=1,kv=0.127,kW=0.97238,pf=0.92,Vminpu=0.92,Vmaxpu=1.5,model=8,zipv=[0.5,0,0.5,1,0,0,0],daily=RES1_6,status=variable
new load.BT_3000281794_M1 bus1=RML1003917785.3.0,Phases=1,kv=0.127,kW=0.00486,pf=0.92,Vminpu=0.92,Vmaxpu=1.5,model=8,zipv=[0.5,0,0.5,1,0,0,0],daily=COM1_12,status=variable
new load.BT_3000281795_M1 bus1=RML1003917834.3.0,Phases=1,kv=0.127,kW=2.60992,pf=0.92,Vminpu=0.92,Vmaxpu=1.5,model=8,zipv=[0.5,0,0.5,1,0,0,0],daily=RES1_6,status=variable
new load.BT_3000281796_M1 bus1=RML1003917841.1.2.3.0,Phases=3,kv=0.22,kW=1.63708,pf=0.92,Vminpu=0.92,Vmaxpu=1.5,model=8,zipv=[0.5,0,0.5,1,0,0,0],daily=RES1_6,status=variable
new load.BT_3000281797_M1 bus1=RML1003917820.1.2.3.0,Phases=3,kv=0.22,kW=3.76914,pf=0.92,Vminpu=0.92,Vmaxpu=1.5,model=8,zipv=[0.5,0,0.5,1,0,0,0],daily=COM1_12,status=variable
new load.BT_3000281798_M1 bus1=RML1003917827.1.2.3.0,Phases=3,kv=0.22,kW=0.4782,pf=0.92,Vminpu=0.92,Vmaxpu=1.5,model=8,zipv=[0.5,0,0.5,1,0,0,0],daily=COM1_12,status=variable
new load.BT_3000281799_M1 bus1=RML1003917827.1.2.3.0,Phases=3,kv=0.22,kW=0.0059,pf=0.92,Vminpu=0.92,Vmaxpu=1.5,model=8,zipv=[0.5,0,0.5,1,0,0,0],daily=RES1_6,status=variable
new load.BT_3000281800_M1 bus1=RML1003917827.1.2.3.0,Phases=3,kv=0.22,kW=1.29036,pf=0.92,Vminpu=0.92,Vmaxpu=1.5,model=8,zipv=[0.5,0,0.5,1,0,0,0],daily=RES1_6,status=variable
new load.BT_3000281801_M1 bus1=RML1004038703.3.0,Phases=1,kv=0.127,kW=4.09748,pf=0.92,Vminpu=0.92,Vmaxpu=1.5,model=8,zipv=[0.5,0,0.5,1,0,0,0],daily=RES1_6,status=variable
new load.BT_3000281802_M1 bus1=RML1004038710.2.3.0,Phases=2,kv=0.22,kW=2.37522,pf=0.92,Vminpu=0.92,Vmaxpu=1.5,model=8,zipv=[0.5,0,0.5,1,0,0,0],daily=RES1_6,status=variable
new load.BT_3000281803_M1 bus1=RML1004038696.3.0,Phases=1,kv=0.127,kW=0.29252,pf=0.92,Vminpu=0.92,Vmaxpu=1.5,model=8,zipv=[0.5,0,0.5,1,0,0,0],daily=COM1_12,status=variable
new load.BT_3000281804_M1 bus1=RML1004038724.3.0,Phases=1,kv=0.127,kW=1.02328,pf=0.92,Vminpu=0.92,Vmaxpu=1.5,model=8,zipv=[0.5,0,0.5,1,0,0,0],daily=RES1_6,status=variable
new load.BT_3000281805_M1 bus1=RML1004038717.3.0,Phases=1,kv=0.127,kW=3.57852,pf=0.92,Vminpu=0.92,Vmaxpu=1.5,model=8,zipv=[0.5,0,0.5,1,0,0,0],daily=RES1_6,status=variable
new load.BT_3000281814_M1 bus1=RML1004038752.1.2.3.0,Phases=3,kv=0.22,kW=0.56918,pf=0.92,Vminpu=0.92,Vmaxpu=1.5,model=8,zipv=[0.5,0,0.5,1,0,0,0],daily=COM1_12,status=variable
new load.BT_3000281815_M1 bus1=RML1004038752.1.2.3.0,Phases=3,kv=0.22,kW=1.23542,pf=0.92,Vminpu=0.92,Vmaxpu=1.5,model=8,zipv=[0.5,0,0.5,1,0,0,0],daily=RES1_6,status=variable
new load.BT_3000281817_M1 bus1=RML1004038745.2.0,Phases=1,kv=0.127,kW=0.97364,pf=0.92,Vminpu=0.92,Vmaxpu=1.5,model=8,zipv=[0.5,0,0.5,1,0,0,0],daily=RES1_6,status=variable
new load.BT_3000281818_M1 bus1=RML1004038731.2.0,Phases=1,kv=0.127,kW=1.53494,pf=0.92,Vminpu=0.92,Vmaxpu=1.5,model=8,zipv=[0.5,0,0.5,1,0,0,0],daily=RES1_6,status=variable
new load.BT_3000281819_M1 bus1=RML1004038661.1.0,Phases=1,kv=0.127,kW=1.30758,pf=0.92,Vminpu=0.92,Vmaxpu=1.5,model=8,zipv=[0.5,0,0.5,1,0,0,0],daily=RES1_6,status=variable
new load.BT_3000281820_M1 bus1=RML1004038668.3.0,Phases=1,kv=0.127,kW=2.46484,pf=0.92,Vminpu=0.92,Vmaxpu=1.5,model=8,zipv=[0.5,0,0.5,1,0,0,0],daily=RES1_6,status=variable
new load.BT_3000281821_M1 bus1=RML1004038675.1.2.0,Phases=2,kv=0.22,kW=3.0898,pf=0.92,Vminpu=0.92,Vmaxpu=1.5,model=8,zipv=[0.5,0,0.5,1,0,0,0],daily=RES1_6,status=variable
new load.BT_3000639466_M1 bus1=RML1003920228.3.1.0,Phases=2,kv=0.22,kW=3.44082,pf=0.92,Vminpu=0.92,Vmaxpu=1.5,model=8,zipv=[0.5,0,0.5,1,0,0,0],daily=RES1_25,status=variable
new load.BT_3000639467_M1 bus1=RML1003920186.1.0,Phases=1,kv=0.127,kW=0.04994,pf=0.92,Vminpu=0.92,Vmaxpu=1.5,model=8,zipv=[0.5,0,0.5,1,0,0,0],daily=RES1_25,status=variable
new load.BT_3000639468_M1 bus1=RML1003920186.1.0,Phases=1,kv=0.127,kW=0.79166,pf=0.92,Vminpu=0.92,Vmaxpu=1.5,model=8,zipv=[0.5,0,0.5,1,0,0,0],daily=RES1_25,status=variable
new load.BT_3000639469_M1 bus1=RML1003920151.1.2.0,Phases=2,kv=0.22,kW=2.03616,pf=0.92,Vminpu=0.92,Vmaxpu=1.5,model=8,zipv=[0.5,0,0.5,1,0,0,0],daily=RES1_25,status=variable
new load.BT_3000639470_M1 bus1=RML1003920158.3.0,Phases=1,kv=0.127,kW=2.44542,pf=0.92,Vminpu=0.92,Vmaxpu=1.5,model=8,zipv=[0.5,0,0.5,1,0,0,0],daily=RES1_25,status=variable
new load.BT_3000639471_M1 bus1=RML1003920165.1.0,Phases=1,kv=0.127,kW=0.4991,pf=0.92,Vminpu=0.92,Vmaxpu=1.5,model=8,zipv=[0.5,0,0.5,1,0,0,0],daily=RES1_25,status=variable
new load.BT_3000639472_M1 bus1=RML1003920095.3.1.0,Phases=2,kv=0.22,kW=1.27776,pf=0.92,Vminpu=0.92,Vmaxpu=1.5,model=8,zipv=[0.5,0,0.5,1,0,0,0],daily=RES1_25,status=variable
new load.BT_3000639473_M1 bus1=RML1003920116.2.0,Phases=1,kv=0.127,kW=1.43944,pf=0.92,Vminpu=0.92,Vmaxpu=1.5,model=8,zipv=[0.5,0,0.5,1,0,0,0],daily=RES1_25,status=variable
new load.BT_3000639474_M1 bus1=RML1003920109.3.0,Phases=1,kv=0.127,kW=1.75092,pf=0.92,Vminpu=0.92,Vmaxpu=1.5,model=8,zipv=[0.5,0,0.5,1,0,0,0],daily=RES1_25,status=variable
new load.BT_3000639475_M1 bus1=RML1003920053.3.0,Phases=1,kv=0.127,kW=0.61028,pf=0.92,Vminpu=0.92,Vmaxpu=1.5,model=8,zipv=[0.5,0,0.5,1,0,0,0],daily=RES1_25,status=variable
new load.BT_3000639476_M1 bus1=RML1003920046.2.0,Phases=1,kv=0.127,kW=0.4694,pf=0.92,Vminpu=0.92,Vmaxpu=1.5,model=8,zipv=[0.5,0,0.5,1,0,0,0],daily=RES1_25,status=variable
new load.BT_3000639477_M1 bus1=RML1003920039.3.0,Phases=1,kv=0.127,kW=0.4976,pf=0.92,Vminpu=0.92,Vmaxpu=1.5,model=8,zipv=[0.5,0,0.5,1,0,0,0],daily=RES1_25,status=variable
new load.BT_3000639478_M1 bus1=RML1003920032.2.3.0,Phases=2,kv=0.22,kW=1.39618,pf=0.92,Vminpu=0.92,Vmaxpu=1.5,model=8,zipv=[0.5,0,0.5,1,0,0,0],daily=RES1_25,status=variable
new load.BT_3000639479_M1 bus1=RML1003920025.1.0,Phases=1,kv=0.127,kW=0.00876,pf=0.92,Vminpu=0.92,Vmaxpu=1.5,model=8,zipv=[0.5,0,0.5,1,0,0,0],daily=RES1_25,status=variable
new load.BT_3000639480_M1 bus1=RML1003919955.1.0,Phases=1,kv=0.127,kW=0.8582,pf=0.92,Vminpu=0.92,Vmaxpu=1.5,model=8,zipv=[0.5,0,0.5,1,0,0,0],daily=RES1_25,status=variable
new load.BT_3000639481_M1 bus1=RML1003919962.3.0,Phases=1,kv=0.127,kW=2.09596,pf=0.92,Vminpu=0.92,Vmaxpu=1.5,model=8,zipv=[0.5,0,0.5,1,0,0,0],daily=RES1_25,status=variable
new load.BT_3000639482_M1 bus1=RML1003919969.3.0,Phases=1,kv=0.127,kW=0.00876,pf=0.92,Vminpu=0.92,Vmaxpu=1.5,model=8,zipv=[0.5,0,0.5,1,0,0,0],daily=RES1_25,status=variable
new load.BT_3000639483_M1 bus1=RML1003919976.2.3.0,Phases=2,kv=0.22,kW=0.00876,pf=0.92,Vminpu=0.92,Vmaxpu=1.5,model=8,zipv=[0.5,0,0.5,1,0,0,0],daily=RES1_25,status=variable
new load.BT_3000639484_M1 bus1=RML1003917869.1.2.0,Phases=2,kv=0.22,kW=0.85602,pf=0.92,Vminpu=0.92,Vmaxpu=1.5,model=8,zipv=[0.5,0,0.5,1,0,0,0],daily=RES1_25,status=variable
new load.BT_3000639485_M1 bus1=RML1003917876.1.2.3.0,Phases=3,kv=0.22,kW=3.43796,pf=0.92,Vminpu=0.92,Vmaxpu=1.5,model=8,zipv=[0.5,0,0.5,1,0,0,0],daily=RES1_25,status=variable
new load.BT_3000639486_M1 bus1=RML1003917876.1.2.3.0,Phases=3,kv=0.22,kW=1.46724,pf=0.92,Vminpu=0.92,Vmaxpu=1.5,model=8,zipv=[0.5,0,0.5,1,0,0,0],daily=RES1_25,status=variable
new load.BT_3000639487_M1 bus1=RML1003917876.1.2.3.0,Phases=3,kv=0.22,kW=0.41396,pf=0.92,Vminpu=0.92,Vmaxpu=1.5,model=8,zipv=[0.5,0,0.5,1,0,0,0],daily=RES1_25,status=variable
new load.BT_3000639488_M1 bus1=RML1003917904.1.0,Phases=1,kv=0.127,kW=1.55536,pf=0.92,Vminpu=0.92,Vmaxpu=1.5,model=8,zipv=[0.5,0,0.5,1,0,0,0],daily=RES1_25,status=variable
new load.BT_3000639489_M1 bus1=RML1003917883.1.2.3.0,Phases=3,kv=0.22,kW=1.62648,pf=0.92,Vminpu=0.92,Vmaxpu=1.5,model=8,zipv=[0.5,0,0.5,1,0,0,0],daily=RUR1_28,status=variable
new load.BT_3000639490_M1 bus1=RML1003917848.1.2.3.0,Phases=3,kv=0.22,kW=1.20928,pf=0.92,Vminpu=0.92,Vmaxpu=1.5,model=8,zipv=[0.5,0,0.5,1,0,0,0],daily=COM1_25,status=variable
new load.BT_3000639491_M1 bus1=RML1003916924.1.2.0,Phases=2,kv=0.22,kW=1.08626,pf=0.92,Vminpu=0.92,Vmaxpu=1.5,model=8,zipv=[0.5,0,0.5,1,0,0,0],daily=RES1_25,status=variable
new load.BT_3000639492_M1 bus1=RML1003916931.2.0,Phases=1,kv=0.127,kW=0.7362,pf=0.92,Vminpu=0.92,Vmaxpu=1.5,model=8,zipv=[0.5,0,0.5,1,0,0,0],daily=RES1_25,status=variable
new load.BT_3000639493_M1 bus1=RML1003917001.1.2.0,Phases=2,kv=0.22,kW=3.24184,pf=0.92,Vminpu=0.92,Vmaxpu=1.5,model=8,zipv=[0.5,0,0.5,1,0,0,0],daily=RES1_25,status=variable
new load.BT_3000639494_M1 bus1=RML1003917008.3.0,Phases=1,kv=0.127,kW=1.96962,pf=0.92,Vminpu=0.92,Vmaxpu=1.5,model=8,zipv=[0.5,0,0.5,1,0,0,0],daily=RES1_25,status=variable
new load.BT_3000639495_M1 bus1=RML1003917071.3.0,Phases=1,kv=0.127,kW=1.50856,pf=0.92,Vminpu=0.92,Vmaxpu=1.5,model=8,zipv=[0.5,0,0.5,1,0,0,0],daily=RES1_25,status=variable
new load.BT_3000639496_M1 bus1=RML1003917078.3.1.0,Phases=2,kv=0.22,kW=2.37918,pf=0.92,Vminpu=0.92,Vmaxpu=1.5,model=8,zipv=[0.5,0,0.5,1,0,0,0],daily=RES1_25,status=variable
new load.BT_3000639497_M1 bus1=RML1003917022.2.0,Phases=1,kv=0.127,kW=1.40056,pf=0.92,Vminpu=0.92,Vmaxpu=1.5,model=8,zipv=[0.5,0,0.5,1,0,0,0],daily=RES1_25,status=variable