new line.SBT_10009894 bus1=BBT145329447.1.2.0,bus2=BBT145329454.1.2.0,Phases=2,Linecode=BT521_BT521_7_2_1_2,Length=0.000500000,Units=km
new line.SBT_10012484 bus1=BBT145413433.1.2.0,bus2=BBT145413440.1.2.0,Phases=2,Linecode=BT518_BT518_7_2_1_2,Length=0.000500000,Units=km
new line.SBT_1433716IP bus1=BBT2663098.1.2.0,bus2=BBT5001433716.1.2.0,Phases=2,Linecode=IP_2,Length=0.002960000,Units=km
new line.SBT_1433723IP bus1=BBT2663105.3.1.0,bus2=BBT5001433723.3.1.0,Phases=2,Linecode=IP_2,Length=0.002840000,Units=km
new line.SBT_1433730IP bus1=BBT2663112.2.3.0,bus2=BBT5001433730.2.3.0,Phases=2,Linecode=IP_2,Length=0.002960000,Units=km
new line.SBT_1433737IP bus1=BBT2663119.2.3.0,bus2=BBT5001433737.2.3.0,Phases=2,Linecode=IP_2,Length=0.002840000,Units=km
new line.SBT_1433744IP bus1=BBT2663126.3.1.0,bus2=BBT5001433744.3.1.0,Phases=2,Linecode=IP_2,Length=0.002840000,Units=km
new line.SBT_1433751IP bus1=BBT2663140.1.2.0,bus2=BBT5001433751.1.2.0,Phases=2,Linecode=IP_2,Length=0.005530000,Units=km
new line.SBT_1433765IP bus1=BBT2663154.1.2.0,bus2=BBT5001433765.1.2.0,Phases=2,Linecode=IP_2,Length=0.005530000,Units=km
new line.SBT_1433779IP bus1=BBT2663196.1.2.0,bus2=BBT5001433779.1.2.0,Phases=2,Linecode=IP_2,Length=0.005530000,Units=km
new line.SBT_1433786IP bus1=BBT2663203.1.2.0,bus2=BBT5001433786.1.2.0,Phases=2,Linecode=IP_2,Length=0.002960000,Units=km
new line.SBT_1433793IP bus1=BBT2663210.3.1.0,bus2=BBT5001433793.3.1.0,Phases=2,Linecode=IP_2,Length=0.002960000,Units=km
new line.SBT_1433800IP bus1=BBT2663217.1.2.0,bus2=BBT5001433800.1.2.0,Phases=2,Linecode=IP_2,Length=0.002960000,Units=km
new line.SBT_1433807IP bus1=BBT2663224.1.2.0,bus2=BBT5001433807.1.2.0,Phases=2,Linecode=IP_2,Length=0.002840000,Units=km
new line.SBT_1433814IP bus1=BBT2663231.1.2.0,bus2=BBT5001433814.1.2.0,Phases=2,Linecode=IP_2,Length=0.002960000,Units=km
new line.SBT_1433821IP bus1=BBT2663238.2.3.0,bus2=BBT5001433821.2.3.0,Phases=2,Linecode=IP_2,Length=0.002840000,Units=km
new line.SBT_1433828IP bus1=BBT2663245.3.1.0,bus2=BBT5001433828.3.1.0,Phases=2,Linecode=IP_2,Length=0.005530000,Units=km
new line.SBT_1433835IP bus1=BBT2663252.3.1.0,bus2=BBT5001433835.3.1.0,Phases=2,Linecode=IP_2,Length=0.002960000,Units=km
new line.SBT_1433842IP bus1=BBT2663259.1.2.0,bus2=BBT5001433842.1.2.0,Phases=2,Linecode=IP_2,Length=0.005530000,Units=km
new line.SBT_1433849IP bus1=BBT2663266.1.2.0,bus2=BBT5001433849.1.2.0,Phases=2,Linecode=IP_2,Length=0.005530000,Units=km
new line.SBT_1433856IP bus1=BBT2663273.3.1.0,bus2=BBT5001433856.3.1.0,Phases=2,Linecode=IP_2,Length=0.005530000,Units=km
new line.SBT_1433863IP bus1=BBT2663280.2.3.0,bus2=BBT5001433863.2.3.0,Phases=2,Linecode=IP_2,Length=0.005530000,Units=km
new line.SBT_1433870IP bus1=BBT2663294.1.2.0,bus2=BBT5001433870.1.2.0,Phases=2,Linecode=IP_2,Length=0.005530000,Units=km
new line.SBT_1433877IP bus1=BBT2663301.1.2.0,bus2=BBT5001433877.1.2.0,Phases=2,Linecode=IP_2,Length=0.005530000,Units=km
new line.SBT_1433884IP bus1=BBT2663308.2.3.0,bus2=BBT5001433884.2.3.0,Phases=2,Linecode=IP_2,Length=0.005530000,Units=km
new line.SBT_1433891IP bus1=BBT2663315.1.2.0,bus2=BBT5001433891.1.2.0,Phases=2,Linecode=IP_2,Length=0.005530000,Units=km
new line.SBT_1433898IP bus1=BBT2663329.1.2.0,bus2=BBT5001433898.1.2.0,Phases=2,Linecode=IP_2,Length=0.005530000,Units=km
new line.SBT_1433905IP bus1=BBT2663336.3.1.0,bus2=BBT5001433905.3.1.0,Phases=2,Linecode=IP_2,Length=0.005530000,Units=km
new line.SBT_1433912IP bus1=BBT2663343.2.3.0,bus2=BBT5001433912.2.3.0,Phases=2,Linecode=IP_2,Length=0.002840000,Units=km
new line.SBT_1433919IP bus1=BBT2663350.3.1.0,bus2=BBT5001433919.3.1.0,Phases=2,Linecode=IP_2,Length=0.005530000,Units=km
new line.SBT_1433926IP bus1=BBT2663364.2.3.0,bus2=BBT5001433926.2.3.0,Phases=2,Linecode=IP_2,Length=0.002840000,Units=km
new line.SBT_1433947IP bus1=BBT2663413.3.1.0,bus2=BBT5001433947.3.1.0,Phases=2,Linecode=IP_2,Length=0.002960000,Units=km
new line.SBT_1433961IP bus1=BBT2663434.3.1.0,bus2=BBT5001433961.3.1.0,Phases=2,Linecode=IP_2,Length=0.005530000,Units=km
new line.SBT_1433968IP bus1=BBT2663448.3.1.0,bus2=BBT5001433968.3.1.0,Phases=2,Linecode=IP_2,Length=0.002960000,Units=km
new line.SBT_1433975IP bus1=BBT2663455.3.1.0,bus2=BBT5001433975.3.1.0,Phases=2,Linecode=IP_2,Length=0.002960000,Units=km
new line.SBT_1433989IP bus1=BBT2663469.3.1.0,bus2=BBT5001433989.3.1.0,Phases=2,Linecode=IP_2,Length=0.002960000,Units=km
new line.SBT_1434248IP bus1=BBT2663749.1.2.0,bus2=BBT5001434248.1.2.0,Phases=2,Linecode=IP_2,Length=0.005530000,Units=km
new line.SBT_1434255IP bus1=BBT2663763.2.3.0,bus2=BBT5001434255.2.3.0,Phases=2,Linecode=IP_2,Length=0.005530000,Units=km
new line.SBT_1434262IP bus1=BBT2663770.2.3.0,bus2=BBT5001434262.2.3.0,Phases=2,Linecode=IP_2,Length=0.005530000,Units=km
new line.SBT_1434269IP bus1=BBT2663777.1.2.0,bus2=BBT5001434269.1.2.0,Phases=2,Linecode=IP_2,Length=0.005530000,Units=km
new line.SBT_1434731IP bus1=BBT2664330.2.3.0,bus2=BBT5001434731.2.3.0,Phases=2,Linecode=IP_2,Length=0.002960000,Units=km
new line.SBT_1434738IP bus1=BBT2664337.2.3.0,bus2=BBT5001434738.2.3.0,Phases=2,Linecode=IP_2,Length=0.005530000,Units=km
new line.SBT_1434745IP bus1=BBT2664344.1.2.0,bus2=BBT5001434745.1.2.0,Phases=2,Linecode=IP_2,Length=0.005530000,Units=km
new line.SBT_1434752IP bus1=BBT2664351.3.1.0,bus2=BBT5001434752.3.1.0,Phases=2,Linecode=IP_2,Length=0.005530000,Units=km
new line.SBT_1434759IP bus1=BBT2664358.1.2.0,bus2=BBT5001434759.1.2.0,Phases=2,Linecode=IP_2,Length=0.005530000,Units=km
new line.SBT_1434766IP bus1=BBT2664372.1.2.0,bus2=BBT5001434766.1.2.0,Phases=2,Linecode=IP_2,Length=0.005530000,Units=km
new line.SBT_1434773IP bus1=BBT2664379.3.1.0,bus2=BBT5001434773.3.1.0,Phases=2,Linecode=IP_2,Length=0.005530000,Units=km
new line.SBT_1434780IP bus1=BBT2664386.1.2.0,bus2=BBT5001434780.1.2.0,Phases=2,Linecode=IP_2,Length=0.005530000,Units=km
new line.SBT_1434787IP bus1=BBT2664393.1.2.0,bus2=BBT5001434787.1.2.0,Phases=2,Linecode=IP_2,Length=0.005530000,Units=km
new line.SBT_1434794IP bus1=BBT2664400.1.2.0,bus2=BBT5001434794.1.2.0,Phases=2,Linecode=IP_2,Length=0.002840000,Units=km
new line.SBT_1434801IP bus1=BBT2664407.1.2.0,bus2=BBT5001434801.1.2.0,Phases=2,Linecode=IP_2,Length=0.005530000,Units=km
new line.SBT_1434808IP bus1=BBT2664421.3.1.0,bus2=BBT5001434808.3.1.0,Phases=2,Linecode=IP_2,Length=0.005530000,Units=km
new line.SBT_1434815IP bus1=BBT2664428.1.2.0,bus2=BBT5001434815.1.2.0,Phases=2,Linecode=IP_2,Length=0.005530000,Units=km
new line.SBT_1434822IP bus1=BBT2664442.1.2.0,bus2=BBT5001434822.1.2.0,Phases=2,Linecode=IP_2,Length=0.005530000,Units=km
new line.SBT_1434829IP bus1=BBT2664463.1.2.0,bus2=BBT5001434829.1.2.0,Phases=2,Linecode=IP_2,Length=0.002960000,Units=km
new line.SBT_1434843IP bus1=BBT2664477.2.3.0,bus2=BBT5001434843.2.3.0,Phases=2,Linecode=IP_2,Length=0.002960000,Units=km
new line.SBT_1434850IP bus1=BBT2664484.1.2.0,bus2=BBT5001434850.1.2.0,Phases=2,Linecode=IP_2,Length=0.002960000,Units=km
new line.SBT_1434857IP bus1=BBT2664491.1.2.0,bus2=BBT5001434857.1.2.0,Phases=2,Linecode=IP_2,Length=0.005530000,Units=km
new line.SBT_1434864IP bus1=BBT2664498.3.1.0,bus2=BBT5001434864.3.1.0,Phases=2,Linecode=IP_2,Length=0.002960000,Units=km
new line.SBT_1434871IP bus1=BBT2664505.1.2.0,bus2=BBT5001434871.1.2.0,Phases=2,Linecode=IP_2,Length=0.005530000,Units=km
new line.SBT_1434913IP bus1=BBT2664561.3.1.0,bus2=BBT5001434913.3.1.0,Phases=2,Linecode=IP_2,Length=0.005530000,Units=km
new line.SBT_1434920IP bus1=BBT2664568.1.2.0,bus2=BBT5001434920.1.2.0,Phases=2,Linecode=IP_2,Length=0.005530000,Units=km
new line.SBT_1434927IP bus1=BBT2664575.1.2.0,bus2=BBT5001434927.1.2.0,Phases=2,Linecode=IP_2,Length=0.005530000,Units=km
new line.SBT_1434934IP bus1=BBT2664582.3.1.0,bus2=BBT5001434934.3.1.0,Phases=2,Linecode=IP_2,Length=0.005530000,Units=km
new line.SBT_1434941IP bus1=BBT2664589.3.1.0,bus2=BBT5001434941.3.1.0,Phases=2,Linecode=IP_2,Length=0.005530000,Units=km
new line.SBT_1434948IP bus1=BBT2664596.1.2.0,bus2=BBT5001434948.1.2.0,Phases=2,Linecode=IP_2,Length=0.002840000,Units=km
new line.SBT_1434955IP bus1=BBT2664603.1.2.0,bus2=BBT5001434955.1.2.0,Phases=2,Linecode=IP_2,Length=0.002840000,Units=km
new line.SBT_1435340IP bus1=BBT2665079.3.1.0,bus2=BBT5001435340.3.1.0,Phases=2,Linecode=IP_2,Length=0.005530000,Units=km
new line.SBT_1435354IP bus1=BBT2665093.2.3.0,bus2=BBT5001435354.2.3.0,Phases=2,Linecode=IP_2,Length=0.005530000,Units=km
new line.SBT_1435361IP bus1=BBT2665100.1.2.0,bus2=BBT5001435361.1.2.0,Phases=2,Linecode=IP_2,Length=0.005530000,Units=km
new line.SBT_10104408 bus1=BBT147989216.1.2.3.0,bus2=BBT147989223.1.2.3.0,Phases=3,Linecode=BT518_BT518_7_3_1_3,Length=0.000500000,Units=km
new line.SBT_10104443 bus1=BBT147989223.1.2.3.0,bus2=BBT147991351.1.2.3.0,Phases=3,Linecode=BT803_BT803_4_3_4_3,Length=0.031372000,Units=km
new line.SBT_10104450 bus1=BBT147991351.1.2.3.0,bus2=BBT147991778.1.2.3.0,Phases=3,Linecode=BT803_BT803_4_3_4_3,Length=0.033228000,Units=km
new line.SBT_10104457 bus1=BBT147991778.1.2.3.0,bus2=BBT147991785.1.2.3.0,Phases=3,Linecode=BT803_BT803_4_3_4_3,Length=0.006081000,Units=km
new line.SBT_10104464 bus1=BBT147991785.1.2.3.0,bus2=BBT147991862.1.2.3.0,Phases=3,Linecode=BT803_BT803_4_3_4_3,Length=0.024990000,Units=km
new line.SBT_10104471 bus1=BBT147991862.1.2.3.0,bus2=BBT147991981.1.2.3.0,Phases=3,Linecode=BT803_BT803_4_3_4_3,Length=0.024157000,Units=km
new line.SBT_10104478 bus1=BBT147991785.1.2.3.0,bus2=BBT147991988.1.2.3.0,Phases=3,Linecode=BT803_BT803_4_3_4_3,Length=0.039809000,Units=km
new line.SBT_10104492 bus1=BBT147992751.1.2.3.0,bus2=BBT147992758.1.2.3.0,Phases=3,Linecode=BT518_BT518_7_3_1_3,Length=0.000500000,Units=km
new line.SBT_10104499 bus1=BBT147992758.1.2.3.0,bus2=BBT147992765.1.2.3.0,Phases=3,Linecode=BT803_BT803_4_3_4_3,Length=0.038312000,Units=km
new line.SBT_10104506 bus1=BBT147992765.1.2.3.0,bus2=BBT147992772.1.2.3.0,Phases=3,Linecode=BT803_BT803_4_3_4_3,Length=0.020241000,Units=km
new line.SBT_10104513 bus1=BBT147991988.1.2.3.0,bus2=BBT147992779.1.2.3.0,Phases=3,Linecode=BT803_BT803_4_3_4_3,Length=0.038585000,Units=km
new line.SBT_10104520 bus1=BBT147992765.1.2.3.0,bus2=BBT147992786.1.2.3.0,Phases=3,Linecode=BT803_BT803_4_3_4_3,Length=0.007209000,Units=km
new line.SBT_10104527 bus1=BBT147992786.1.2.3.0,bus2=BBT147992793.1.2.3.0,Phases=3,Linecode=BT803_BT803_4_3_4_3,Length=0.034699000,Units=km
new line.SBT_10104534 bus1=BBT147992793.1.2.3.0,bus2=BBT147992800.1.2.3.0,Phases=3,Linecode=BT803_BT803_4_3_4_3,Length=0.034512000,Units=km
new line.SBT_10104541 bus1=BBT147992800.1.2.3.0,bus2=BBT147992807.1.2.3.0,Phases=3,Linecode=BT803_BT803_4_3_4_3,Length=0.034699000,Units=km
new line.SBT_10104548 bus1=BBT147989223.1.2.3.0,bus2=BBT147992814.1.2.3.0,Phases=3,Linecode=BT803_BT803_4_3_4_3,Length=0.030402000,Units=km
new line.SBT_10104555 bus1=BBT147992814.1.2.3.0,bus2=BBT147992835.1.2.3.0,Phases=3,Linecode=BT803_BT803_4_3_4_3,Length=0.029518000,Units=km
new line.SBT_10104562 bus1=BBT147992835.1.2.3.0,bus2=BBT147992842.1.2.3.0,Phases=3,Linecode=BT803_BT803_4_3_4_3,Length=0.027774000,Units=km
new line.SBT_10104576 bus1=BBT147992842.1.2.3.0,bus2=BBT147993038.1.2.3.0,Phases=3,Linecode=BT803_BT803_4_3_4_3,Length=0.005097000,Units=km
new line.SBT_10104583 bus1=BBT147993038.1.2.3.0,bus2=BBT147993080.1.2.3.0,Phases=3,Linecode=BT803_BT803_4_3_4_3,Length=0.023250000,Units=km
new line.SBT_10104590 bus1=BBT147993080.1.2.3.0,bus2=BBT147993087.1.2.3.0,Phases=3,Linecode=BT803_BT803_4_3_4_3,Length=0.021016000,Units=km
new line.SBT_10104604 bus1=BBT147992758.1.2.3.0,bus2=BBT147993094.1.2.3.0,Phases=3,Linecode=BT803_BT803_4_3_4_3,Length=0.040505000,Units=km
new line.SBT_10104611 bus1=BBT147993094.1.2.3.0,bus2=BBT147993332.1.2.3.0,Phases=3,Linecode=BT803_BT803_4_3_4_3,Length=0.033513000,Units=km
new line.SBT_10104625 bus1=BBT147993094.1.2.3.0,bus2=BBT147993423.1.2.3.0,Phases=3,Linecode=BT803_BT803_4_3_4_3,Length=0.006706000,Units=km
new line.SBT_10104632 bus1=BBT147993423.1.2.3.0,bus2=BBT147993430.1.2.3.0,Phases=3,Linecode=BT803_BT803_4_3_4_3,Length=0.039796000,Units=km
new line.SBT_10104639 bus1=BBT147993430.1.2.3.0,bus2=BBT147993437.1.2.3.0,Phases=3,Linecode=BT803_BT803_4_3_4_3,Length=0.040592000,Units=km
new line.SBT_10104646 bus1=BBT147993437.1.2.3.0,bus2=BBT147993486.1.2.3.0,Phases=3,Linecode=BT803_BT803_4_3_4_3,Length=0.040776000,Units=km
new line.SBT_1466665IP bus1=BBT2714870.2.3.0,bus2=BBT5001466665.2.3.0,Phases=2,Linecode=IP_2,Length=0.002960000,Units=km
new line.SBT_1466672IP bus1=BBT2714884.1.2.0,bus2=BBT5001466672.1.2.0,Phases=2,Linecode=IP_2,Length=0.002960000,Units=km
new line.SBT_1466679IP bus1=BBT2714891.3.1.0,bus2=BBT5001466679.3.1.0,Phases=2,Linecode=IP_2,Length=0.002960000,Units=km
new line.SBT_1466686IP bus1=BBT2714905.2.3.0,bus2=BBT5001466686.2.3.0,Phases=2,Linecode=IP_2,Length=0.002960000,Units=km
new line.SBT_1466693IP bus1=BBT2714912.2.3.0,bus2=BBT5001466693.2.3.0,Phases=2,Linecode=IP_2,Length=0.002960000,Units=km
new line.SBT_1466700IP bus1=BBT2714919.2.3.0,bus2=BBT5001466700.2.3.0,Phases=2,Linecode=IP_2,Length=0.002960000,Units=km
new line.SBT_1466707IP bus1=BBT2714926.2.3.0,bus2=BBT5001466707.2.3.0,Phases=2,Linecode=IP_2,Length=0.002960000,Units=km
new line.SBT_1466714IP bus1=BBT2714933.3.1.0,bus2=BBT5001466714.3.1.0,Phases=2,Linecode=IP_2,Length=0.002960000,Units=km
new line.SBT_1466721IP bus1=BBT2714940.2.3.0,bus2=BBT5001466721.2.3.0,Phases=2,Linecode=IP_2,Length=0.002960000,Units=km
new line.SBT_1466728IP bus1=BBT2714947.3.1.0,bus2=BBT5001466728.3.1.0,Phases=2,Linecode=IP_2,Length=0.002960000,Units=km
new line.SBT_1466735IP bus1=BBT2714961.1.2.0,bus2=BBT5001466735.1.2.0,Phases=2,Linecode=IP_2,Length=0.002960000,Units=km
new line.SBT_1466742IP bus1=BBT2714968.1.2.0,bus2=BBT5001466742.1.2.0,Phases=2,Linecode=IP_2,Length=0.002960000,Units=km
new line.SBT_1466749IP bus1=BBT2714975.1.2.0,bus2=BBT5001466749.1.2.0,Phases=2,Linecode=IP_2,Length=0.002960000,Units=km
new line.SBT_1466756IP bus1=BBT2714982.1.2.0,bus2=BBT5001466756.1.2.0,Phases=2,Linecode=IP_2,Length=0.002960000,Units=km
new line.SBT_1466763IP bus1=BBT2714989.1.2.0,bus2=BBT5001466763.1.2.0,Phases=2,Linecode=IP_2,Length=0.002960000,Units=km
new line.SBT_1466770IP bus1=BBT2714996.1.2.0,bus2=BBT5001466770.1.2.0,Phases=2,Linecode=IP_2,Length=0.002960000,Units=km
new line.SBT_1466777IP bus1=BBT2715003.1.2.0,bus2=BBT5001466777.1.2.0,Phases=2,Linecode=IP_2,Length=0.002960000,Units=km
new line.SBT_1466784IP bus1=BBT2715010.3.1.0,bus2=BBT5001466784.3.1.0,Phases=2,Linecode=IP_2,Length=0.002960000,Units=km
new line.SBT_1466791IP bus1=BBT2715017.3.1.0,bus2=BBT5001466791.3.1.0,Phases=2,Linecode=IP_2,Length=0.002960000,Units=km
new line.SBT_1466798IP bus1=BBT2715024.3.1.0,bus2=BBT5001466798.3.1.0,Phases=2,Linecode=IP_2,Length=0.002960000,Units=km
new line.SBT_1466805IP bus1=BBT2715031.3.1.0,bus2=BBT5001466805.3.1.0,Phases=2,Linecode=IP_2,Length=0.002960000,Units=km
new line.SBT_1466812IP bus1=BBT2715045.1.2.0,bus2=BBT5001466812.1.2.0,Phases=2,Linecode=IP_2,Length=0.002960000,Units=km
new line.SBT_1466819IP bus1=BBT2715052.1.2.0,bus2=BBT5001466819.1.2.0,Phases=2,Linecode=IP_2,Length=0.002960000,Units=km
new line.SBT_1466826IP bus1=BBT2715066.1.2.0,bus2=BBT5001466826.1.2.0,Phases=2,Linecode=IP_2,Length=0.002960000,Units=km
new line.SBT_1466833IP bus1=BBT2715073.3.1.0,bus2=BBT5001466833.3.1.0,Phases=2,Linecode=IP_2,Length=0.002960000,Units=km
new line.SBT_1466840IP bus1=BBT2715080.3.1.0,bus2=BBT5001466840.3.1.0,Phases=2,Linecode=IP_2,Length=0.002960000,Units=km
new line.SBT_1466847IP bus1=BBT2715087.3.1.0,bus2=BBT5001466847.3.1.0,Phases=2,Linecode=IP_2,Length=0.002960000,Units=km
new line.SBT_1466854IP bus1=BBT2715094.3.1.0,bus2=BBT5001466854.3.1.0,Phases=2,Linecode=IP_2,Length=0.002960000,Units=km
new line.SBT_1466861IP bus1=BBT2715101.1.2.0,bus2=BBT5001466861.1.2.0,Phases=2,Linecode=IP_2,Length=0.002960000,Units=km
new line.SBT_1466868IP bus1=BBT2715108.1.2.0,bus2=BBT5001466868.1.2.0,Phases=2,Linecode=IP_2,Length=0.002960000,Units=km
new line.SBT_1466875IP bus1=BBT2715115.1.2.0,bus2=BBT5001466875.1.2.0,Phases=2,Linecode=IP_2,Length=0.002960000,Units=km
new line.SBT_1466882IP bus1=BBT2715122.1.2.0,bus2=BBT5001466882.1.2.0,Phases=2,Linecode=IP_2,Length=0.002960000,Units=km
new line.SBT_1466889IP bus1=BBT2715129.1.2.0,bus2=BBT5001466889.1.2.0,Phases=2,Linecode=IP_2,Length=0.002960000,Units=km
new line.SBT_1466896IP bus1=BBT2715136.1.2.0,bus2=BBT5001466896.1.2.0,Phases=2,Linecode=IP_2,Length=0.002960000,Units=km
new line.SBT_1466903IP bus1=BBT2715150.3.1.0,bus2=BBT5001466903.3.1.0,Phases=2,Linecode=IP_2,Length=0.002960000,Units=km
new line.SBT_1466910IP bus1=BBT2715157.3.1.0,bus2=BBT5001466910.3.1.0,Phases=2,Linecode=IP_2,Length=0.002960000,Units=km
new line.SBT_1466917IP bus1=BBT2715164.3.1.0,bus2=BBT5001466917.3.1.0,Phases=2,Linecode=IP_2,Length=0.002960000,Units=km
new line.SBT_1466924IP bus1=BBT2715171.3.1.0,bus2=BBT5001466924.3.1.0,Phases=2,Linecode=IP_2,Length=0.002960000,Units=km
new line.SBT_1466931IP bus1=BBT2715178.1.2.0,bus2=BBT5001466931.1.2.0,Phases=2,Linecode=IP_2,Length=0.002960000,Units=km
new line.SBT_1466938IP bus1=BBT2715185.1.2.0,bus2=BBT5001466938.1.2.0,Phases=2,Linecode=IP_2,Length=0.002960000,Units=km
new line.SBT_1466945IP bus1=BBT2715192.1.2.0,bus2=BBT5001466945.1.2.0,Phases=2,Linecode=IP_2,Length=0.002960000,Units=km
new line.SBT_1466952IP bus1=BBT2715213.2.3.0,bus2=BBT5001466952.2.3.0,Phases=2,Linecode=IP_2,Length=0.002960000,Units=km
new line.SBT_1466959IP bus1=BBT2715220.1.2.0,bus2=BBT5001466959.1.2.0,Phases=2,Linecode=IP_2,Length=0.002960000,Units=km
new line.SBT_1466966IP bus1=BBT2715234.1.2.0,bus2=BBT5001466966.1.2.0,Phases=2,Linecode=IP_2,Length=0.002960000,Units=km
new line.SBT_1466973IP bus1=BBT2715248.3.1.0,bus2=BBT5001466973.3.1.0,Phases=2,Linecode=IP_2,Length=0.002960000,Units=km
new line.SBT_1466980IP bus1=BBT2715255.3.1.0,bus2=BBT5001466980.3.1.0,Phases=2,Linecode=IP_2,Length=0.002960000,Units=km
new line.SBT_1466987IP bus1=BBT2715262.3.1.0,bus2=BBT5001466987.3.1.0,Phases=2,Linecode=IP_2,Length=0.002960000,Units=km
new line.SBT_1466994IP bus1=BBT2715269.3.1.0,bus2=BBT5001466994.3.1.0,Phases=2,Linecode=IP_2,Length=0.002960000,Units=km
new line.SBT_1467001IP bus1=BBT2715276.3.1.0,bus2=BBT5001467001.3.1.0,Phases=2,Linecode=IP_2,Length=0.002960000,Units=km
new line.SBT_1467008IP bus1=BBT2715283.3.1.0,bus2=BBT5001467008.3.1.0,Phases=2,Linecode=IP_2,Length=0.002960000,Units=km
new line.SBT_1467015IP bus1=BBT2715290.3.1.0,bus2=BBT5001467015.3.1.0,Phases=2,Linecode=IP_2,Length=0.002960000,Units=km
new line.SBT_1467022IP bus1=BBT2715297.3.1.0,bus2=BBT5001467022.3.1.0,Phases=2,Linecode=IP_2,Length=0.002960000,Units=km
new line.SBT_1467029IP bus1=BBT2715304.3.1.0,bus2=BBT5001467029.3.1.0,Phases=2,Linecode=IP_2,Length=0.002960000,Units=km
new line.SBT_1467036IP bus1=BBT2715318.3.1.0,bus2=BBT5001467036.3.1.0,Phases=2,Linecode=IP_2,Length=0.002960000,Units=km
new line.SBT_1467043IP bus1=BBT2715325.3.1.0,bus2=BBT5001467043.3.1.0,Phases=2,Linecode=IP_2,Length=0.002960000,Units=km
new line.SBT_1467050IP bus1=BBT2715332.3.1.0,bus2=BBT5001467050.3.1.0,Phases=2,Linecode=IP_2,Length=0.002960000,Units=km
new line.SBT_1467057IP bus1=BBT2715339.2.3.0,bus2=BBT5001467057.2.3.0,Phases=2,Linecode=IP_2,Length=0.002960000,Units=km
new line.SBT_1467064IP bus1=BBT2715346.3.1.0,bus2=BBT5001467064.3.1.0,Phases=2,Linecode=IP_2,Length=0.002960000,Units=km
new line.SBT_1467071IP bus1=BBT2715353.3.1.0,bus2=BBT5001467071.3.1.0,Phases=2,Linecode=IP_2,Length=0.002960000,Units=km
new line.SBT_1467078IP bus1=BBT2715367.3.1.0,bus2=BBT5001467078.3.1.0,Phases=2,Linecode=IP_2,Length=0.002960000,Units=km
new line.SBT_1467085IP bus1=BBT2715374.2.3.0,bus2=BBT5001467085.2.3.0,Phases=2,Linecode=IP_2,Length=0.002960000,Units=km
new line.SBT_1467092IP bus1=BBT2715381.3.1.0,bus2=BBT5001467092.3.1.0,Phases=2,Linecode=IP_2,Length=0.002960000,Units=km
new line.SBT_1467099IP bus1=BBT2715388.1.2.0,bus2=BBT5001467099.1.2.0,Phases=2,Linecode=IP_2,Length=0.002960000,Units=km
new line.SBT_1467106IP bus1=BBT2715395.3.1.0,bus2=BBT5001467106.3.1.0,Phases=2,Linecode=IP_2,Length=0.002960000,Units=km
new line.SBT_1467113IP bus1=BBT2715402.1.2.0,bus2=BBT5001467113.1.2.0,Phases=2,Linecode=IP_2,Length=0.002960000,Units=km
new line.SBT_1467120IP bus1=BBT2715409.2.3.0,bus2=BBT5001467120.2.3.0,Phases=2,Linecode=IP_2,Length=0.002960000,Units=km
new line.SBT_1467127IP bus1=BBT2715416.2.3.0,bus2=BBT5001467127.2.3.0,Phases=2,Linecode=IP_2,Length=0.002960000,Units=km
new line.SBT_1467134IP bus1=BBT2715423.2.3.0,bus2=BBT5001467134.2.3.0,Phases=2,Linecode=IP_2,Length=0.002960000,Units=km
new line.SBT_1467141IP bus1=BBT2715430.2.3.0,bus2=BBT5001467141.2.3.0,Phases=2,Linecode=IP_2,Length=0.002960000,Units=km
new line.SBT_1467148IP bus1=BBT2715437.2.3.0,bus2=BBT5001467148.2.3.0,Phases=2,Linecode=IP_2,Length=0.002960000,Units=km
new line.SBT_1467155IP bus1=BBT2715444.2.3.0,bus2=BBT5001467155.2.3.0,Phases=2,Linecode=IP_2,Length=0.002960000,Units=km
new line.SBT_1467162IP bus1=BBT2715451.2.3.0,bus2=BBT5001467162.2.3.0,Phases=2,Linecode=IP_2,Length=0.002960000,Units=km
new line.SBT_1467169IP bus1=BBT2715458.2.3.0,bus2=BBT5001467169.2.3.0,Phases=2,Linecode=IP_2,Length=0.002960000,Units=km
new line.SBT_1467176IP bus1=BBT2715472.3.1.0,bus2=BBT5001467176.3.1.0,Phases=2,Linecode=IP_2,Length=0.002960000,Units=km
new line.SBT_1467183IP bus1=BBT2715479.1.2.0,bus2=BBT5001467183.1.2.0,Phases=2,Linecode=IP_2,Length=0.002960000,Units=km
new line.SBT_1467190IP bus1=BBT2715486.1.2.0,bus2=BBT5001467190.1.2.0,Phases=2,Linecode=IP_2,Length=0.002960000,Units=km
new line.SBT_1467197IP bus1=BBT2715500.3.1.0,bus2=BBT5001467197.3.1.0,Phases=2,Linecode=IP_2,Length=0.002960000,Units=km
new line.SBT_1467204IP bus1=BBT2715507.3.1.0,bus2=BBT5001467204.3.1.0,Phases=2,Linecode=IP_2,Length=0.002960000,Units=km
new line.SBT_1467211IP bus1=BBT2715514.3.1.0,bus2=BBT5001467211.3.1.0,Phases=2,Linecode=IP_2,Length=0.002960000,Units=km
new line.SBT_1467218IP bus1=BBT2715514.3.1.0,bus2=BBT5001467218.3.1.0,Phases=2,Linecode=IP_2,Length=0.002960000,Units=km
new line.SBT_1467225IP bus1=BBT2715521.3.1.0,bus2=BBT5001467225.3.1.0,Phases=2,Linecode=IP_2,Length=0.002960000,Units=km
new line.SBT_1467232IP bus1=BBT2715528.3.1.0,bus2=BBT5001467232.3.1.0,Phases=2,Linecode=IP_2,Length=0.002960000,Units=km
new line.SBT_1467239IP bus1=BBT2715535.3.1.0,bus2=BBT5001467239.3.1.0,Phases=2,Linecode=IP_2,Length=0.002960000,Units=km
new line.SBT_1467246IP bus1=BBT2715542.3.1.0,bus2=BBT5001467246.3.1.0,Phases=2,Linecode=IP_2,Length=0.002960000,Units=km
new line.SBT_1467253IP bus1=BBT2715556.3.1.0,bus2=BBT5001467253.3.1.0,Phases=2,Linecode=IP_2,Length=0.002960000,Units=km
new line.SBT_1467260IP bus1=BBT2715577.1.2.0,bus2=BBT5001467260.1.2.0,Phases=2,Linecode=IP_2,Length=0.002960000,Units=km
new line.SBT_1467267IP bus1=BBT2715584.1.2.0,bus2=BBT5001467267.1.2.0,Phases=2,Linecode=IP_2,Length=0.002960000,Units=km
new line.SBT_1467274IP bus1=BBT2715591.1.2.0,bus2=BBT5001467274.1.2.0,Phases=2,Linecode=IP_2,Length=0.002960000,Units=km
new line.SBT_1467281IP bus1=BBT2715598.2.3.0,bus2=BBT5001467281.2.3.0,Phases=2,Linecode=IP_2,Length=0.002960000,Units=km
new line.SBT_1467288IP bus1=BBT2715612.2.3.0,bus2=BBT5001467288.2.3.0,Phases=2,Linecode=IP_2,Length=0.002960000,Units=km
new line.SBT_1467295IP bus1=BBT2715619.1.2.0,bus2=BBT5001467295.1.2.0,Phases=2,Linecode=IP_2,Length=0.002960000,Units=km
new line.SBT_1467302IP bus1=BBT2715626.1.2.0,bus2=BBT5001467302.1.2.0,Phases=2,Linecode=IP_2,Length=0.002960000,Units=km
new line.SBT_1467309IP bus1=BBT2715633.2.3.0,bus2=BBT5001467309.2.3.0,Phases=2,Linecode=IP_2,Length=0.002960000,Units=km
new line.SBT_1467316IP bus1=BBT2715640.1.2.0,bus2=BBT5001467316.1.2.0,Phases=2,Linecode=IP_2,Length=0.002960000,Units=km
new line.SBT_1467323IP bus1=BBT2715647.3.1.0,bus2=BBT5001467323.3.1.0,Phases=2,Linecode=IP_2,Length=0.002960000,Units=km
new line.SBT_1467330IP bus1=BBT2715654.1.2.0,bus2=BBT5001467330.1.2.0,Phases=2,Linecode=IP_2,Length=0.002960000,Units=km
new line.SBT_1467337IP bus1=BBT2715661.1.2.0,bus2=BBT5001467337.1.2.0,Phases=2,Linecode=IP_2,Length=0.002960000,Units=km
new line.SBT_1467344IP bus1=BBT2715668.1.2.0,bus2=BBT5001467344.1.2.0,Phases=2,Linecode=IP_2,Length=0.002960000,Units=km
new line.SBT_1467351IP bus1=BBT2715682.2.3.0,bus2=BBT5001467351.2.3.0,Phases=2,Linecode=IP_2,Length=0.002960000,Units=km
new line.SBT_1467358IP bus1=BBT2715689.2.3.0,bus2=BBT5001467358.2.3.0,Phases=2,Linecode=IP_2,Length=0.002960000,Units=km
new line.SBT_1467365IP bus1=BBT2715703.1.2.0,bus2=BBT5001467365.1.2.0,Phases=2,Linecode=IP_2,Length=0.002960000,Units=km
new line.SBT_1467372IP bus1=BBT2715710.1.2.0,bus2=BBT5001467372.1.2.0,Phases=2,Linecode=IP_2,Length=0.002960000,Units=km
new line.SBT_1467379IP bus1=BBT2715717.1.2.0,bus2=BBT5001467379.1.2.0,Phases=2,Linecode=IP_2,Length=0.002960000,Units=km
new line.SBT_1467386IP bus1=BBT2715724.1.2.0,bus2=BBT5001467386.1.2.0,Phases=2,Linecode=IP_2,Length=0.002960000,Units=km
new line.SBT_1467393IP bus1=BBT2715731.1.2.0,bus2=BBT5001467393.1.2.0,Phases=2,Linecode=IP_2,Length=0.002960000,Units=km
new line.SBT_1467400IP bus1=BBT2715738.1.2.0,bus2=BBT5001467400.1.2.0,Phases=2,Linecode=IP_2,Length=0.002960000,Units=km
new line.SBT_1467407IP bus1=BBT2715752.2.3.0,bus2=BBT5001467407.2.3.0,Phases=2,Linecode=IP_2,Length=0.002960000,Units=km
new line.SBT_1467414IP bus1=BBT2715759.2.3.0,bus2=BBT5001467414.2.3.0,Phases=2,Linecode=IP_2,Length=0.002960000,Units=km
new line.SBT_1467421IP bus1=BBT2715773.2.3.0,bus2=BBT5001467421.2.3.0,Phases=2,Linecode=IP_2,Length=0.002960000,Units=km
new line.SBT_1467428IP bus1=BBT2715780.2.3.0,bus2=BBT5001467428.2.3.0,Phases=2,Linecode=IP_2,Length=0.002960000,Units=km
new line.SBT_1467435IP bus1=BBT2715794.1.2.0,bus2=BBT5001467435.1.2.0,Phases=2,Linecode=IP_2,Length=0.002960000,Units=km
new line.SBT_1467442IP bus1=BBT2715801.1.2.0,bus2=BBT5001467442.1.2.0,Phases=2,Linecode=IP_2,Length=0.002960000,Units=km
new line.SBT_1467449IP bus1=BBT2715808.1.2.0,bus2=BBT5001467449.1.2.0,Phases=2,Linecode=IP_2,Length=0.002960000,Units=km
new line.SBT_1467456IP bus1=BBT2715815.1.2.0,bus2=BBT5001467456.1.2.0,Phases=2,Linecode=IP_2,Length=0.002960000,Units=km
new line.SBT_1467463IP bus1=BBT2715822.3.1.0,bus2=BBT5001467463.3.1.0,Phases=2,Linecode=IP_2,Length=0.002960000,Units=km
new line.SBT_1467470IP bus1=BBT2715829.3.1.0,bus2=BBT5001467470.3.1.0,Phases=2,Linecode=IP_2,Length=0.002960000,Units=km
new line.SBT_1467477IP bus1=BBT2715836.1.2.0,bus2=BBT5001467477.1.2.0,Phases=2,Linecode=IP_2,Length=0.002960000,Units=km
new line.SBT_1467484IP bus1=BBT2715843.1.2.0,bus2=BBT5001467484.1.2.0,Phases=2,Linecode=IP_2,Length=0.002960000,Units=km
new line.SBT_1467491IP bus1=BBT2715850.1.2.0,bus2=BBT5001467491.1.2.0,Phases=2,Linecode=IP_2,Length=0.002960000,Units=km
new line.SBT_1467498IP bus1=BBT2715864.3.1.0,bus2=BBT5001467498.3.1.0,Phases=2,Linecode=IP_2,Length=0.002960000,Units=km
new line.SBT_1467505IP bus1=BBT2715871.1.2.0,bus2=BBT5001467505.1.2.0,Phases=2,Linecode=IP_2,Length=0.002960000,Units=km
new line.SBT_1467512IP bus1=BBT2715885.3.1.0,bus2=BBT5001467512.3.1.0,Phases=2,Linecode=IP_2,Length=0.002960000,Units=km
new line.SBT_1467519IP bus1=BBT2715892.1.2.0,bus2=BBT5001467519.1.2.0,Phases=2,Linecode=IP_2,Length=0.002960000,Units=km
new line.SBT_1467526IP bus1=BBT2715899.3.1.0,bus2=BBT5001467526.3.1.0,Phases=2,Linecode=IP_2,Length=0.002960000,Units=km
new line.SBT_1467533IP bus1=BBT2715906.2.3.0,bus2=BBT5001467533.2.3.0,Phases=2,Linecode=IP_2,Length=0.002960000,Units=km
new line.SBT_1467540IP bus1=BBT2715913.2.3.0,bus2=BBT5001467540.2.3.0,Phases=2,Linecode=IP_2,Length=0.002960000,Units=km
new line.SBT_1467547IP bus1=BBT2715920.2.3.0,bus2=BBT5001467547.2.3.0,Phases=2,Linecode=IP_2,Length=0.002960000,Units=km
new line.SBT_1467554IP bus1=BBT2715927.2.3.0,bus2=BBT5001467554.2.3.0,Phases=2,Linecode=IP_2,Length=0.002960000,Units=km
new line.SBT_1467561IP bus1=BBT2715934.3.1.0,bus2=BBT5001467561.3.1.0,Phases=2,Linecode=IP_2,Length=0.002960000,Units=km
new line.SBT_1467568IP bus1=BBT2715941.3.1.0,bus2=BBT5001467568.3.1.0,Phases=2,Linecode=IP_2,Length=0.002960000,Units=km
new line.SBT_1467575IP bus1=BBT2715948.3.1.0,bus2=BBT5001467575.3.1.0,Phases=2,Linecode=IP_2,Length=0.002960000,Units=km
new line.SBT_1467582IP bus1=BBT2715955.3.1.0,bus2=BBT5001467582.3.1.0,Phases=2,Linecode=IP_2,Length=0.002960000,Units=km
new line.SBT_1467589IP bus1=BBT2715983.3.1.0,bus2=BBT5001467589.3.1.0,Phases=2,Linecode=IP_2,Length=0.002960000,Units=km
new line.SBT_1467596IP bus1=BBT2715990.1.2.0,bus2=BBT5001467596.1.2.0,Phases=2,Linecode=IP_2,Length=0.002960000,Units=km
new line.SBT_1467603IP bus1=BBT2715997.1.2.0,bus2=BBT5001467603.1.2.0,Phases=2,Linecode=IP_2,Length=0.002960000,Units=km
new line.SBT_1467610IP bus1=BBT2716004.1.2.0,bus2=BBT5001467610.1.2.0,Phases=2,Linecode=IP_2,Length=0.002960000,Units=km
new line.SBT_1467617IP bus1=BBT2716011.1.2.0,bus2=BBT5001467617.1.2.0,Phases=2,Linecode=IP_2,Length=0.002960000,Units=km
new line.SBT_1467624IP bus1=BBT2716018.1.2.0,bus2=BBT5001467624.1.2.0,Phases=2,Linecode=IP_2,Length=0.002960000,Units=km
new line.SBT_1467631IP bus1=BBT2716025.1.2.0,bus2=BBT5001467631.1.2.0,Phases=2,Linecode=IP_2,Length=0.002960000,Units=km
new line.SBT_1467638IP bus1=BBT2716032.3.1.0,bus2=BBT5001467638.3.1.0,Phases=2,Linecode=IP_2,Length=0.002960000,Units=km
new line.SBT_1467645IP bus1=BBT2716039.3.1.0,bus2=BBT5001467645.3.1.0,Phases=2,Linecode=IP_2,Length=0.002960000,Units=km
new line.SBT_1467652IP bus1=BBT2716046.3.1.0,bus2=BBT5001467652.3.1.0,Phases=2,Linecode=IP_2,Length=0.002960000,Units=km
new line.SBT_1467659IP bus1=BBT2716053.3.1.0,bus2=BBT5001467659.3.1.0,Phases=2,Linecode=IP_2,Length=0.002960000,Units=km
new line.SBT_1467666IP bus1=BBT2716060.1.2.0,bus2=BBT5001467666.1.2.0,Phases=2,Linecode=IP_2,Length=0.003300000,Units=km
new line.SBT_1467673IP bus1=BBT2716067.1.2.0,bus2=BBT5001467673.1.2.0,Phases=2,Linecode=IP_2,Length=0.003300000,Units=km
new line.SBT_1467680IP bus1=BBT2716074.1.2.0,bus2=BBT5001467680.1.2.0,Phases=2,Linecode=IP_2,Length=0.003300000,Units=km