new line.RBT_10065620 bus1=BBT2695011.2.3.0,bus2=RML1010065620.2.3.0,Phases=2,Linecode=CABBTG05_4_2_2,Length=0.017000000,Units=km
new line.RBT_10065642 bus1=BBT3765752.1.2.0,bus2=RML1010065642.1.2.0,Phases=2,Linecode=CABBTG05_4_2_2,Length=0.015000000,Units=km
new line.RBT_10065665 bus1=BBT131504636.1.2.0,bus2=RML1010065665.1.2.0,Phases=2,Linecode=CABBTG05_4_2_2,Length=0.021000000,Units=km
new line.RBT_10065789 bus1=BBT135414990.1.2.0,bus2=RML1010065789.1.2.0,Phases=2,Linecode=CABBTG05_4_2_2,Length=0.014000000,Units=km
new line.RBT_10066326 bus1=BBT2664967.1.2.3.0,bus2=RML1010066326.1.2.3.0,Phases=3,Linecode=CABBTG06_4_3_3,Length=0.029000000,Units=km
new line.RBT_10066328 bus1=BBT2659248.1.2.0,bus2=RML1010066328.1.2.0,Phases=2,Linecode=CABBTG05_4_2_2,Length=0.029000000,Units=km
new line.RBT_10066985 bus1=BBT148922579.1.2.0,bus2=RML1010066985.1.2.0,Phases=2,Linecode=CABBTG05_4_2_2,Length=0.020000000,Units=km
new line.RBT_10068469 bus1=BBT2662328.2.0,bus2=RML1010068469.2.0,Phases=1,Linecode=CABBTG01_4_1_1,Length=0.017000000,Units=km
new line.RBT_10068872 bus1=BBT3273974.1.0,bus2=RML1010068872.1.0,Phases=1,Linecode=CABBTG02_4_1_1,Length=0.017000000,Units=km
new line.RBT_10068880 bus1=BBT148654126.2.0,bus2=RML1010068880.2.0,Phases=1,Linecode=CABBTG02_4_1_1,Length=0.029000000,Units=km
new line.RBT_10068882 bus1=BBT148654158.1.0,bus2=RML1010068882.1.0,Phases=1,Linecode=CABBTG01_4_1_1,Length=0.009000000,Units=km
new line.RBT_10068884 bus1=BBT2787397.2.0,bus2=RML1010068884.2.0,Phases=1,Linecode=CABBTG01_4_1_1,Length=0.007000000,Units=km
new line.RBT_10119260 bus1=BBT138642298.1.2.0,bus2=RML1010119260.1.2.0,Phases=2,Linecode=CABBTG05_4_2_2,Length=0.029000000,Units=km
new line.RBT_10119263 bus1=BBT131506792.1.2.0,bus2=RML1010119263.1.2.0,Phases=2,Linecode=CABBTG05_4_2_2,Length=0.029000000,Units=km
new line.RBT_10119266 bus1=BBT131506792.1.0,bus2=RML1010119266.1.0,Phases=1,Linecode=CABBTG02_4_1_1,Length=0.029000000,Units=km
new line.RBT_10119269 bus1=BBT131506792.1.0,bus2=RML1010119269.1.0,Phases=1,Linecode=CABBTG02_4_1_1,Length=0.029000000,Units=km
new line.RBT_10119273 bus1=BBT131506792.1.0,bus2=RML1010119273.1.0,Phases=1,Linecode=CABBTG02_4_1_1,Length=0.029000000,Units=km
new line.RBT_10119277 bus1=BBT131506792.1.2.0,bus2=RML1010119277.1.2.0,Phases=2,Linecode=CABBTG04_4_2_2,Length=0.029000000,Units=km
new line.RBT_10119279 bus1=BBT131506673.1.2.0,bus2=RML1010119279.1.2.0,Phases=2,Linecode=CABBTG05_4_2_2,Length=0.029000000,Units=km
new line.RBT_10119280 bus1=BBT131506673.1.0,bus2=RML1010119280.1.0,Phases=1,Linecode=CABBTG02_4_1_1,Length=0.029000000,Units=km
new line.RBT_10119283 bus1=BBT131509774.1.2.0,bus2=RML1010119283.1.2.0,Phases=2,Linecode=CABBTG04_4_2_2,Length=0.029000000,Units=km
new line.RBT_10120335 bus1=BBT2717747.1.2.0,bus2=RML1010120335.1.2.0,Phases=2,Linecode=CABBTG05_4_2_2,Length=0.017000000,Units=km
new line.RBT_10120339 bus1=BBT2662251.2.3.0,bus2=RML1010120339.2.3.0,Phases=2,Linecode=CABBTG05_4_2_2,Length=0.029000000,Units=km
new line.RBT_10120341 bus1=BBT2661929.2.3.0,bus2=RML1010120341.2.3.0,Phases=2,Linecode=CABBTG05_4_2_2,Length=0.017000000,Units=km
new line.RBT_10120350 bus1=BBT2662517.2.0,bus2=RML1010120350.2.0,Phases=1,Linecode=CABBTG02_4_1_1,Length=0.029000000,Units=km
new line.RBT_10120352 bus1=BBT2694794.1.2.3.0,bus2=RML1010120352.1.2.3.0,Phases=3,Linecode=CABBTG06_4_3_3,Length=0.017000000,Units=km
new line.RBT_10120359 bus1=BBT2660830.2.0,bus2=RML1010120359.2.0,Phases=1,Linecode=CABBTG02_4_1_1,Length=0.029000000,Units=km
new line.RBT_10120360 bus1=BBT2698546.2.0,bus2=RML1010120360.2.0,Phases=1,Linecode=CABBTG02_4_1_1,Length=0.029000000,Units=km
new line.RBT_10120361 bus1=BBT2698539.2.0,bus2=RML1010120361.2.0,Phases=1,Linecode=CABBTG02_4_1_1,Length=0.029000000,Units=km
new line.RBT_10120395 bus1=BBT2739874.2.0,bus2=RML1010120395.2.0,Phases=1,Linecode=CABBTG01_4_1_1,Length=0.029000000,Units=km
new line.RBT_10120400 bus1=BBT2739874.2.0,bus2=RML1010120400.2.0,Phases=1,Linecode=CABBTG01_4_1_1,Length=0.029000000,Units=km
new line.RBT_10120401 bus1=BBT2739874.2.0,bus2=RML1010120401.2.0,Phases=1,Linecode=CABBTG01_4_1_1,Length=0.029000000,Units=km
new line.RBT_10120406 bus1=BBT2662972.2.0,bus2=RML1010120406.2.0,Phases=1,Linecode=CABBTG01_4_1_1,Length=0.029000000,Units=km
new line.RBT_10120415 bus1=BBT2714933.1.2.0,bus2=RML1010120415.1.2.0,Phases=2,Linecode=CABBTG04_4_2_2,Length=0.017000000,Units=km
new line.RBT_10120417 bus1=BBT2714940.1.2.0,bus2=RML1010120417.1.2.0,Phases=2,Linecode=CABBTG04_4_2_2,Length=0.017000000,Units=km
new line.RBT_10120418 bus1=BBT2698588.1.2.0,bus2=RML1010120418.1.2.0,Phases=2,Linecode=CABBTG04_4_2_2,Length=0.029000000,Units=km
new line.RBT_10120448 bus1=BBT131507254.1.2.0,bus2=RML1010120448.1.2.0,Phases=2,Linecode=CABBTG04_4_2_2,Length=0.029000000,Units=km
new line.RBT_10120452 bus1=BBT135414878.1.2.0,bus2=RML1010120452.1.2.0,Phases=2,Linecode=CABBTG04_4_2_2,Length=0.029000000,Units=km
new line.RBT_10120455 bus1=BBT135414878.1.2.0,bus2=RML1010120455.1.2.0,Phases=2,Linecode=CABBTG04_4_2_2,Length=0.029000000,Units=km
new line.RBT_10120483 bus1=BBT2667004.1.2.3.0,bus2=RML1010120483.1.2.3.0,Phases=3,Linecode=CABBTG06_4_3_3,Length=0.029000000,Units=km
new line.RBT_10120487 bus1=BBT135414640.1.2.0,bus2=RML1010120487.1.2.0,Phases=2,Linecode=CABBTG05_4_2_2,Length=0.029000000,Units=km
new line.RBT_10120488 bus1=BBT135414640.1.2.0,bus2=RML1010120488.1.2.0,Phases=2,Linecode=CABBTG05_4_2_2,Length=0.029000000,Units=km
new line.RBT_10120507 bus1=BBT131506673.1.2.0,bus2=RML1010120507.1.2.0,Phases=2,Linecode=CABBTG05_4_2_2,Length=0.029000000,Units=km
new line.RBT_10120526 bus1=BBT138645882.2.0,bus2=RML1010120526.2.0,Phases=1,Linecode=CABBTG02_4_1_1,Length=0.029000000,Units=km
new line.RBT_10120528 bus1=BBT138645882.2.0,bus2=RML1010120528.2.0,Phases=1,Linecode=CABBTG02_4_1_1,Length=0.029000000,Units=km
new line.RBT_10120531 bus1=BBT138643446.2.0,bus2=RML1010120531.2.0,Phases=1,Linecode=CABBTG02_4_1_1,Length=0.029000000,Units=km
new line.RBT_10120541 bus1=BBT131508255.2.0,bus2=RML1010120541.2.0,Phases=1,Linecode=CABBTG02_4_1_1,Length=0.029000000,Units=km
new line.RBT_10120543 bus1=BBT131508255.2.0,bus2=RML1010120543.2.0,Phases=1,Linecode=CABBTG02_4_1_1,Length=0.029000000,Units=km
new line.RBT_10120545 bus1=BBT131508122.3.1.0,bus2=RML1010120545.3.1.0,Phases=2,Linecode=CABBTG05_4_2_2,Length=0.029000000,Units=km
new line.RBT_10120581 bus1=BBT3273981.1.2.0,bus2=RML1010120581.1.2.0,Phases=2,Linecode=CABBTG05_4_2_2,Length=0.029000000,Units=km
new line.RBT_10120601 bus1=BBT2718069.1.2.0,bus2=RML1010120601.1.2.0,Phases=2,Linecode=CABBTG05_4_2_2,Length=0.029000000,Units=km
new line.RBT_10120603 bus1=BBT2718069.2.0,bus2=RML1010120603.2.0,Phases=1,Linecode=CABBTG02_4_1_1,Length=0.029000000,Units=km
new line.RBT_10120606 bus1=BBT2664610.1.2.3.0,bus2=RML1010120606.1.2.3.0,Phases=3,Linecode=CABBTG06_4_3_3,Length=0.029000000,Units=km
new line.RBT_10120611 bus1=BBT138642291.1.2.0,bus2=RML1010120611.1.2.0,Phases=2,Linecode=CABBTG05_4_2_2,Length=0.029000000,Units=km
new line.RBT_10120638 bus1=BBT2661824.1.2.0,bus2=RML1010120638.1.2.0,Phases=2,Linecode=CABBTG05_4_2_2,Length=0.029000000,Units=km
new line.RBT_10120726 bus1=BBT2662174.1.2.0,bus2=RML1010120726.1.2.0,Phases=2,Linecode=CABBTG05_4_2_2,Length=0.029000000,Units=km
new line.RBT_10120754 bus1=BBT2801789.1.2.0,bus2=RML1010120754.1.2.0,Phases=2,Linecode=CABBTG05_4_2_2,Length=0.029000000,Units=km
new line.RBT_10120762 bus1=BBT2712476.1.0,bus2=RML1010120762.1.0,Phases=1,Linecode=CABBTG02_4_1_1,Length=0.017000000,Units=km
new line.RBT_10120789 bus1=BBT3273729.1.2.0,bus2=RML1010120789.1.2.0,Phases=2,Linecode=CABBTG05_4_2_2,Length=0.029000000,Units=km
new line.RBT_10120797 bus1=BBT4345037.1.2.0,bus2=RML1010120797.1.2.0,Phases=2,Linecode=CABBTG05_4_2_2,Length=0.029000000,Units=km
new line.RBT_10120808 bus1=BBT2662328.1.2.0,bus2=RML1010120808.1.2.0,Phases=2,Linecode=CABBTG05_4_2_2,Length=0.017000000,Units=km
new line.RBT_10120812 bus1=BBT35337761.1.2.3.0,bus2=RML1010120812.1.2.3.0,Phases=3,Linecode=CABBTG06_4_3_3,Length=0.017000000,Units=km
new line.RBT_10120819 bus1=BBT131505777.1.2.3.0,bus2=RML1010120819.1.2.3.0,Phases=3,Linecode=CABBTG06_4_3_3,Length=0.029000000,Units=km
new line.RBT_10120826 bus1=BBT131505273.1.2.0,bus2=RML1010120826.1.2.0,Phases=2,Linecode=CABBTG05_4_2_2,Length=0.029000000,Units=km
new line.RBT_10120864 bus1=BBT138642305.1.2.0,bus2=RML1010120864.1.2.0,Phases=2,Linecode=CABBTG05_4_2_2,Length=0.029000000,Units=km
new line.RBT_10120865 bus1=BBT2659801.1.2.0,bus2=RML1010120865.1.2.0,Phases=2,Linecode=CABBTG05_4_2_2,Length=0.029000000,Units=km
new line.RBT_10120870 bus1=BBT131508570.3.1.0,bus2=RML1010120870.3.1.0,Phases=2,Linecode=CABBTG05_4_2_2,Length=0.029000000,Units=km
new line.RBT_10120875 bus1=BBT135414983.3.1.0,bus2=RML1010120875.3.1.0,Phases=2,Linecode=CABBTG05_4_2_2,Length=0.029000000,Units=km
new line.RBT_10120878 bus1=BBT135414983.3.1.0,bus2=RML1010120878.3.1.0,Phases=2,Linecode=CABBTG05_4_2_2,Length=0.029000000,Units=km
new line.RBT_10120882 bus1=BBT135414983.3.1.0,bus2=RML1010120882.3.1.0,Phases=2,Linecode=CABBTG05_4_2_2,Length=0.029000000,Units=km
new line.RBT_10120898 bus1=BBT135415011.2.0,bus2=RML1010120898.2.0,Phases=1,Linecode=CABBTG02_4_1_1,Length=0.029000000,Units=km
new line.RBT_10120903 bus1=BBT135415011.2.0,bus2=RML1010120903.2.0,Phases=1,Linecode=CABBTG02_4_1_1,Length=0.029000000,Units=km
new line.RBT_10120907 bus1=BBT135415011.2.0,bus2=RML1010120907.2.0,Phases=1,Linecode=CABBTG02_4_1_1,Length=0.029000000,Units=km
new line.RBT_10120908 bus1=BBT135415011.3.0,bus2=RML1010120908.3.0,Phases=1,Linecode=CABBTG02_4_1_1,Length=0.029000000,Units=km
new line.RBT_10045415 bus1=BBT2718433.1.0,bus2=RML1010045415.1.0,Phases=1,Linecode=CABBTG01_4_1_1,Length=0.010000000,Units=km
new line.RBT_10074029 bus1=BBT2714975.1.2.0,bus2=RML1010074029.1.2.0,Phases=2,Linecode=CABBTG05_4_2_2,Length=0.017000000,Units=km
new line.RBT_10075152 bus1=BBT2661929.1.2.3.0,bus2=RML1010075152.1.2.3.0,Phases=3,Linecode=CABBTG07_4_3_3,Length=0.018000000,Units=km
new line.RBT_10187474 bus1=BBT3459649.1.2.0,bus2=RML1010187474.1.2.0,Phases=2,Linecode=CABBTG05_4_2_2,Length=0.029000000,Units=km
new line.RBT_10187496 bus1=BBT2659325.1.2.0,bus2=RML1010187496.1.2.0,Phases=2,Linecode=CABBTG04_4_2_2,Length=0.029000000,Units=km
new line.RBT_10187505 bus1=BBT2665527.1.2.0,bus2=RML1010187505.1.2.0,Phases=2,Linecode=CABBTG04_4_2_2,Length=0.029000000,Units=km
new line.RBT_10187507 bus1=BBT2665499.3.1.0,bus2=RML1010187507.3.1.0,Phases=2,Linecode=CABBTG04_4_2_2,Length=0.029000000,Units=km
new line.RBT_10212489 bus1=BBT2718188.1.2.0,bus2=RML1010212489.1.2.0,Phases=2,Linecode=CABBTG05_4_2_2,Length=0.017000000,Units=km
new line.RBT_10240586 bus1=BBT2666129.1.2.3.0,bus2=RML1010240586.1.2.3.0,Phases=3,Linecode=CABBTG11_4_3_3,Length=0.029000000,Units=km
new line.RBT_10240593 bus1=BBT2718412.1.2.0,bus2=RML1010240593.1.2.0,Phases=2,Linecode=CABBTG05_4_2_2,Length=0.017000000,Units=km
new line.RBT_10240597 bus1=BBT131505665.1.2.0,bus2=RML1010240597.1.2.0,Phases=2,Linecode=CABBTG05_4_2_2,Length=0.029000000,Units=km
new line.RBT_10241526 bus1=BBT2663714.1.2.3.0,bus2=RML1010241526.1.2.3.0,Phases=3,Linecode=CABBTG06_4_3_3,Length=0.029000000,Units=km
new line.RBT_10242492 bus1=BBT2659416.1.2.0,bus2=RML1010242492.1.2.0,Phases=2,Linecode=CABBTG05_4_2_2,Length=0.029000000,Units=km
new line.RBT_10242510 bus1=BBT3589401.1.2.0,bus2=RML1010242510.1.2.0,Phases=2,Linecode=CABBTG05_4_2_2,Length=0.017000000,Units=km
new line.RBT_10242559 bus1=BBT2662958.3.0,bus2=RML1010242559.3.0,Phases=1,Linecode=CABBTG02_4_1_1,Length=0.029000000,Units=km
new line.RBT_10242572 bus1=BBT2664946.1.2.3.0,bus2=RML1010242572.1.2.3.0,Phases=3,Linecode=CABBTG06_4_3_3,Length=0.029000000,Units=km
new line.RBT_10242575 bus1=BBT2664393.1.2.0,bus2=RML1010242575.1.2.0,Phases=2,Linecode=CABBTG05_4_2_2,Length=0.029000000,Units=km
new line.RBT_10242577 bus1=BBT2664092.1.2.0,bus2=RML1010242577.1.2.0,Phases=2,Linecode=CABBTG05_4_2_2,Length=0.029000000,Units=km
new line.RBT_10273052 bus1=BBT144264950.2.0,bus2=RML1010273052.2.0,Phases=1,Linecode=CABBTG02_4_1_1,Length=0.029000000,Units=km
new line.RBT_10301027 bus1=BBT131506001.3.1.0,bus2=RML1010301027.3.1.0,Phases=2,Linecode=CABBTG05_4_2_2,Length=0.029000000,Units=km
new line.RBT_10301032 bus1=BBT2660004.1.2.0,bus2=RML1010301032.1.2.0,Phases=2,Linecode=CABBTG05_4_2_2,Length=0.029000000,Units=km
new line.RBT_10301066 bus1=BBT172394131.1.2.0,bus2=RML1010301066.1.2.0,Phases=2,Linecode=CABBTG13_4_2_2,Length=0.029000000,Units=km
new line.RBT_10301076 bus1=BBT144238917.1.2.0,bus2=RML1010301076.1.2.0,Phases=2,Linecode=CABBTG05_4_2_2,Length=0.029000000,Units=km
new line.RBT_10301909 bus1=BBT3589401.1.2.0,bus2=RML1010301909.1.2.0,Phases=2,Linecode=CABBTG05_4_2_2,Length=0.017000000,Units=km
new line.RBT_10325406 bus1=BBT152336957.1.2.0,bus2=RML1010325406.1.2.0,Phases=2,Linecode=CABBT811_4_2_2,Length=0.017000000,Units=km
new line.RBT_10325572 bus1=BBT148654158.2.0,bus2=RML1010325572.2.0,Phases=1,Linecode=CABBTG02_4_1_1,Length=0.029000000,Units=km
new line.RBT_10326449 bus1=BBT149620511.1.2.0,bus2=RML1010326449.1.2.0,Phases=2,Linecode=CABBTG05_4_2_2,Length=0.017000000,Units=km
new line.RBT_10326523 bus1=BBT131509340.1.0,bus2=RML1010326523.1.0,Phases=1,Linecode=CABBTG02_4_1_1,Length=0.029000000,Units=km
new line.RBT_10351452 bus1=BBT3029135.1.2.0,bus2=RML1010351452.1.2.0,Phases=2,Linecode=CABBTG05_4_2_2,Length=0.010000000,Units=km
new line.RBT_10351469 bus1=BBT3029156.1.2.0,bus2=RML1010351469.1.2.0,Phases=2,Linecode=CABBTG05_4_2_2,Length=0.010000000,Units=km
new line.RBT_10384059 bus1=BBT153292916.1.2.0,bus2=RML1010384059.1.2.0,Phases=2,Linecode=CABBTG05_4_2_2,Length=0.017000000,Units=km
new line.RBT_10412399 bus1=BBT149620478.1.2.0,bus2=RML1010412399.1.2.0,Phases=2,Linecode=CABBTG05_4_2_2,Length=0.017000000,Units=km
new line.RBT_10412403 bus1=BBT2740000.1.2.0,bus2=RML1010412403.1.2.0,Phases=2,Linecode=CABBTG05_4_2_2,Length=0.017000000,Units=km
new line.RBT_10412873 bus1=BBT3602162.1.0,bus2=RML1010412873.1.0,Phases=1,Linecode=CABBTG01_4_1_1,Length=0.017000000,Units=km
new line.RBT_10412933 bus1=BBT2659899.1.0,bus2=RML1010412933.1.0,Phases=1,Linecode=CABBTG02_4_1_1,Length=0.029000000,Units=km
new line.RBT_10414164 bus1=BBT2756828.1.2.0,bus2=RML1010414164.1.2.0,Phases=2,Linecode=CABBTG05_4_2_2,Length=0.029000000,Units=km
new line.RBT_10443471 bus1=BBT135415354.1.2.0,bus2=RML1010443471.1.2.0,Phases=2,Linecode=CABBTG05_4_2_2,Length=0.029000000,Units=km
new line.RBT_10050879 bus1=BBT3765843.1.2.0,bus2=RML1010050879.1.2.0,Phases=2,Linecode=CABBTG05_4_2_2,Length=0.017000000,Units=km
new line.RBT_10069271 bus1=BBT144272860.2.3.0,bus2=RML1010069271.2.3.0,Phases=2,Linecode=CABBTG05_4_2_2,Length=0.014000000,Units=km
new line.RBT_10069290 bus1=BBT131502711.2.3.0,bus2=RML1010069290.2.3.0,Phases=2,Linecode=CABBTG05_4_2_2,Length=0.012000000,Units=km
new line.RBT_10069325 bus1=BBT145413440.1.2.0,bus2=RML1010069325.1.2.0,Phases=2,Linecode=CABBTG05_4_2_2,Length=0.017000000,Units=km
new line.RBT_10208823 bus1=BBT148654126.1.0,bus2=RML1010208823.1.0,Phases=1,Linecode=CABBTG02_4_1_1,Length=0.029000000,Units=km
new line.RBT_10208825 bus1=BBT2660592.1.0,bus2=RML1010208825.1.0,Phases=1,Linecode=CABBTG02_4_1_1,Length=0.029000000,Units=km
new line.RBT_10208827 bus1=BBT2665996.1.2.0,bus2=RML1010208827.1.2.0,Phases=2,Linecode=CABBTG05_4_2_2,Length=0.029000000,Units=km
new line.RBT_10208861 bus1=BBT4345072.1.2.0,bus2=RML1010208861.1.2.0,Phases=2,Linecode=CABBTG05_4_2_2,Length=0.029000000,Units=km
new line.RBT_10208951 bus1=BBT2662153.1.2.0,bus2=RML1010208951.1.2.0,Phases=2,Linecode=CABBTG05_4_2_2,Length=0.029000000,Units=km
new line.RBT_10209399 bus1=BBT148654158.1.0,bus2=RML1010209399.1.0,Phases=1,Linecode=CABBTG02_4_1_1,Length=0.029000000,Units=km
new line.RBT_10209483 bus1=BBT2659479.1.0,bus2=RML1010209483.1.0,Phases=1,Linecode=CABBTG02_4_1_1,Length=0.029000000,Units=km
new line.RBT_10209508 bus1=BBT3765969.1.0,bus2=RML1010209508.1.0,Phases=1,Linecode=CABBTG02_4_1_1,Length=0.017000000,Units=km
new line.RBT_10209512 bus1=BBT3765990.1.0,bus2=RML1010209512.1.0,Phases=1,Linecode=CABBTG02_4_1_1,Length=0.017000000,Units=km
new line.RBT_10209553 bus1=BBT135415200.1.0,bus2=RML1010209553.1.0,Phases=1,Linecode=CABBTG02_4_1_1,Length=0.029000000,Units=km
new line.RBT_10209554 bus1=BBT135415200.1.0,bus2=RML1010209554.1.0,Phases=1,Linecode=CABBTG02_4_1_1,Length=0.029000000,Units=km
new line.RBT_10262160 bus1=BBT131506792.2.0,bus2=RML1010262160.2.0,Phases=1,Linecode=CABBTG02_4_1_1,Length=0.029000000,Units=km
new line.RBT_10262197 bus1=BBT135414815.1.2.0,bus2=RML1010262197.1.2.0,Phases=2,Linecode=CABBTG05_4_2_2,Length=0.029000000,Units=km
new line.RBT_10262383 bus1=BBT2662685.2.0,bus2=RML1010262383.2.0,Phases=1,Linecode=CABBTG02_4_1_1,Length=0.029000000,Units=km
new line.RBT_10262414 bus1=BBT2661033.1.0,bus2=RML1010262414.1.0,Phases=1,Linecode=CABBTG02_4_1_1,Length=0.029000000,Units=km
new line.RBT_10262433 bus1=BBT2718433.1.2.0,bus2=RML1010262433.1.2.0,Phases=2,Linecode=CABBTG05_4_2_2,Length=0.017000000,Units=km
new line.RBT_10262555 bus1=BBT135415326.1.2.0,bus2=RML1010262555.1.2.0,Phases=2,Linecode=CABBTG05_4_2_2,Length=0.029000000,Units=km
new line.RBT_10263550 bus1=BBT144273259.2.3.0,bus2=RML1010263550.2.3.0,Phases=2,Linecode=CABBTG05_4_2_2,Length=0.017000000,Units=km
new line.RBT_10263552 bus1=BBT135414983.2.3.0,bus2=RML1010263552.2.3.0,Phases=2,Linecode=CABBTG05_4_2_2,Length=0.029000000,Units=km
new line.RBT_10374306 bus1=BBT131502298.2.3.0,bus2=RML1010374306.2.3.0,Phases=2,Linecode=CABBTG05_4_2_2,Length=0.029000000,Units=km
new line.RBT_10374371 bus1=BBT135414878.1.0,bus2=RML1010374371.1.0,Phases=1,Linecode=CABBTG02_4_1_1,Length=0.029000000,Units=km
new line.RBT_10374815 bus1=BBT144269206.1.2.0,bus2=RML1010374815.1.2.0,Phases=2,Linecode=CABBTG05_4_2_2,Length=0.017000000,Units=km
new line.RBT_10374825 bus1=BBT144273259.3.1.0,bus2=RML1010374825.3.1.0,Phases=2,Linecode=CABBTG05_4_2_2,Length=0.017000000,Units=km
new line.RBT_10374840 bus1=BBT2663000.1.0,bus2=RML1010374840.1.0,Phases=1,Linecode=CABBTG02_4_1_1,Length=0.029000000,Units=km
new line.RBT_10374851 bus1=BBT148654142.3.0,bus2=RML1010374851.3.0,Phases=1,Linecode=CABBTG02_4_1_1,Length=0.029000000,Units=km
new line.RBT_10375428 bus1=BBT3875554.1.2.0,bus2=RML1010375428.1.2.0,Phases=2,Linecode=CABBTG05_4_2_2,Length=0.017000000,Units=km
new line.RBT_10404275 bus1=BBT153292916.1.2.0,bus2=RML1010404275.1.2.0,Phases=2,Linecode=CABBTG05_4_2_2,Length=0.017000000,Units=km
new line.RBT_10405789 bus1=BBT135414878.1.2.0,bus2=RML1010405789.1.2.0,Phases=2,Linecode=CABBTG05_4_2_2,Length=0.029000000,Units=km
new line.RBT_10431144 bus1=BBT2662188.2.0,bus2=RML1010431144.2.0,Phases=1,Linecode=CABBTG02_4_1_1,Length=0.029000000,Units=km
new line.RBT_10431145 bus1=BBT2662174.1.2.0,bus2=RML1010431145.1.2.0,Phases=2,Linecode=CABBTG05_4_2_2,Length=0.029000000,Units=km
new line.RBT_10431228 bus1=BBT144255234.2.3.0,bus2=RML1010431228.2.3.0,Phases=2,Linecode=CABBTG05_4_2_2,Length=0.029000000,Units=km
new line.RBT_10431286 bus1=BBT147818255.3.1.0,bus2=RML1010431286.3.1.0,Phases=2,Linecode=CABBTG05_4_2_2,Length=0.017000000,Units=km
new line.RBT_10456122 bus1=BBT154766463.1.2.0,bus2=RML1010456122.1.2.0,Phases=2,Linecode=CABBTG05_4_2_2,Length=0.018000000,Units=km
new line.RBT_10152678 bus1=BBT135414976.1.2.0,bus2=RML1010152678.1.2.0,Phases=2,Linecode=CABBTG13_4_2_2,Length=0.029000000,Units=km
new line.RBT_10152683 bus1=BBT147993486.1.2.0,bus2=RML1010152683.1.2.0,Phases=2,Linecode=CABBTG13_4_2_2,Length=0.017000000,Units=km
new line.RBT_10152700 bus1=BBT147993486.2.3.0,bus2=RML1010152700.2.3.0,Phases=2,Linecode=CABBTG13_4_2_2,Length=0.017000000,Units=km
new line.RBT_10152706 bus1=BBT2699141.2.3.0,bus2=RML1010152706.2.3.0,Phases=2,Linecode=CABBTG05_4_2_2,Length=0.015000000,Units=km
new line.RBT_10152727 bus1=BBT2664183.1.2.0,bus2=RML1010152727.1.2.0,Phases=2,Linecode=CABBTG05_4_2_2,Length=0.028000000,Units=km
new line.RBT_10152744 bus1=BBT2694087.3.0,bus2=RML1010152744.3.0,Phases=1,Linecode=CABBTG01_4_1_1,Length=0.018000000,Units=km
new line.RBT_10152749 bus1=BBT148654158.1.0,bus2=RML1010152749.1.0,Phases=1,Linecode=CABBTG02_4_1_1,Length=0.029000000,Units=km
new line.RBT_10153972 bus1=BBT2992728.1.0,bus2=RML1010153972.1.0,Phases=1,Linecode=CABBTG01_4_1_1,Length=0.017000000,Units=km
new line.RBT_10246480 bus1=BBT131508689.3.0,bus2=RML1010246480.3.0,Phases=1,Linecode=CABBTG02_4_1_1,Length=0.029000000,Units=km
new line.RBT_10276797 bus1=BBT131508255.1.2.0,bus2=RML1010276797.1.2.0,Phases=2,Linecode=CABBTG05_4_2_2,Length=0.029000000,Units=km
new line.RBT_10303190 bus1=BBT3459614.1.2.0,bus2=RML1010303190.1.2.0,Phases=2,Linecode=CABBTG04_4_2_2,Length=0.017000000,Units=km
new line.RBT_10306460 bus1=BBT2664925.1.0,bus2=RML1010306460.1.0,Phases=1,Linecode=CABBTG02_4_1_1,Length=0.029000000,Units=km
new line.RBT_10359087 bus1=BBT135415018.2.3.0,bus2=RML1010359087.2.3.0,Phases=2,Linecode=CABBTG05_4_2_2,Length=0.029000000,Units=km
new line.RBT_10385467 bus1=BBT144269339.1.2.0,bus2=RML1010385467.1.2.0,Phases=2,Linecode=CABBTG05_4_2_2,Length=0.017000000,Units=km
new line.RBT_10385499 bus1=BBT144265713.2.3.0,bus2=RML1010385499.2.3.0,Phases=2,Linecode=CABBTG05_4_2_2,Length=0.029000000,Units=km
new line.RBT_10385531 bus1=BBT147993430.1.2.0,bus2=RML1010385531.1.2.0,Phases=2,Linecode=CABBTG05_4_2_2,Length=0.017000000,Units=km
new line.RBT_10385548 bus1=BBT144273049.2.3.0,bus2=RML1010385548.2.3.0,Phases=2,Linecode=CABBTG05_4_2_2,Length=0.017000000,Units=km
new line.RBT_10385561 bus1=BBT144264257.2.3.0,bus2=RML1010385561.2.3.0,Phases=2,Linecode=CABBTG05_4_2_2,Length=0.017000000,Units=km
new line.RBT_10387148 bus1=BBT4345065.1.2.0,bus2=RML1010387148.1.2.0,Phases=2,Linecode=CABBTG05_4_2_2,Length=0.029000000,Units=km
new line.RBT_10388305 bus1=BBT147818339.2.0,bus2=RML1010388305.2.0,Phases=1,Linecode=CABBTG02_4_1_1,Length=0.017000000,Units=km
new line.RBT_10414793 bus1=BBT2801782.1.0,bus2=RML1010414793.1.0,Phases=1,Linecode=CABBTG02_4_1_1,Length=0.029000000,Units=km
new line.RBT_10414816 bus1=BBT3589387.1.2.0,bus2=RML1010414816.1.2.0,Phases=2,Linecode=CABBTG05_4_2_2,Length=0.017000000,Units=km
new line.RBT_10414823 bus1=BBT3303339.3.0,bus2=RML1010414823.3.0,Phases=1,Linecode=CABBTG02_4_1_1,Length=0.029000000,Units=km
new line.RBT_10414831 bus1=BBT2659906.2.0,bus2=RML1010414831.2.0,Phases=1,Linecode=CABBTG02_4_1_1,Length=0.029000000,Units=km
new line.RBT_10414877 bus1=BBT135414752.3.0,bus2=RML1010414877.3.0,Phases=1,Linecode=CABBTG02_4_1_1,Length=0.029000000,Units=km
new line.RBT_10414882 bus1=BBT2661824.1.2.0,bus2=RML1010414882.1.2.0,Phases=2,Linecode=CABBTG05_4_2_2,Length=0.029000000,Units=km
new line.RBT_10414886 bus1=BBT148654142.1.0,bus2=RML1010414886.1.0,Phases=1,Linecode=CABBTG02_4_1_1,Length=0.029000000,Units=km
new line.RBT_10414983 bus1=BBT131507065.3.0,bus2=RML1010414983.3.0,Phases=1,Linecode=CABBTG02_4_1_1,Length=0.029000000,Units=km
new line.RBT_10415821 bus1=BBT135415046.1.0,bus2=RML1010415821.1.0,Phases=1,Linecode=CABBTG02_4_1_1,Length=0.029000000,Units=km
new line.RBT_10415856 bus1=BBT5626422.1.2.0,bus2=RML1010415856.1.2.0,Phases=2,Linecode=CABBTG05_4_2_2,Length=0.017000000,Units=km
new line.RBT_10416590 bus1=BBT144260694.1.2.0,bus2=RML1010416590.1.2.0,Phases=2,Linecode=CABBTG05_4_2_2,Length=0.029000000,Units=km
new line.RBT_10416595 bus1=BBT144260701.1.2.3.0,bus2=RML1010416595.1.2.3.0,Phases=3,Linecode=CABBT805_4_3_3,Length=0.020000000,Units=km
new line.RBT_10436392 bus1=BBT2663000.2.0,bus2=RML1010436392.2.0,Phases=1,Linecode=CABBTG02_4_1_1,Length=0.029000000,Units=km
new line.RBT_10436531 bus1=BBT131507674.1.2.0,bus2=RML1010436531.1.2.0,Phases=2,Linecode=CABBTG05_4_2_2,Length=0.029000000,Units=km
new line.RBT_10436532 bus1=BBT2662636.1.2.0,bus2=RML1010436532.1.2.0,Phases=2,Linecode=CABBTG05_4_2_2,Length=0.029000000,Units=km
new line.RBT_10459636 bus1=BBT2765116.1.2.0,bus2=RML1010459636.1.2.0,Phases=2,Linecode=CABBTG05_4_2_2,Length=0.029000000,Units=km
new line.RBT_10459649 bus1=BBT2663714.1.2.0,bus2=RML1010459649.1.2.0,Phases=2,Linecode=CABBTG05_4_2_2,Length=0.029000000,Units=km
new line.RBT_10054441 bus1=BBT138645378.3.1.0,bus2=RML1010054441.3.1.0,Phases=2,Linecode=CABBTG05_4_2_2,Length=0.013000000,Units=km
new line.RBT_10054687 bus1=BBT2698546.2.0,bus2=RML1010054687.2.0,Phases=1,Linecode=CABBTG02_4_1_1,Length=0.015000000,Units=km
new line.RBT_10054693 bus1=BBT131504755.3.0,bus2=RML1010054693.3.0,Phases=1,Linecode=CABBTG01_4_1_1,Length=0.015000000,Units=km
new line.RBT_10113711 bus1=BBT2662328.1.0,bus2=RML1010113711.1.0,Phases=1,Linecode=CABBTG02_4_1_1,Length=0.013000000,Units=km
new line.RBT_10113801 bus1=BBT2661964.1.0,bus2=RML1010113801.1.0,Phases=1,Linecode=CABBTG02_4_1_1,Length=0.008000000,Units=km
new line.RBT_10113880 bus1=BBT131508689.1.0,bus2=RML1010113880.1.0,Phases=1,Linecode=CABBTG02_4_1_1,Length=0.021000000,Units=km
new line.RBT_10113920 bus1=BBT131504636.3.0,bus2=RML1010113920.3.0,Phases=1,Linecode=CABBTG02_4_1_1,Length=0.011000000,Units=km
new line.RBT_10113935 bus1=BBT2715717.1.2.0,bus2=RML1010113935.1.2.0,Phases=2,Linecode=CABBTG05_4_2_2,Length=0.020000000,Units=km
new line.RBT_10116007 bus1=BBT131509291.1.2.0,bus2=RML1010116007.1.2.0,Phases=2,Linecode=CABBTG05_4_2_2,Length=0.013000000,Units=km
new line.RBT_10116071 bus1=BBT131506092.3.0,bus2=RML1010116071.3.0,Phases=1,Linecode=CABBTG02_4_1_1,Length=0.020000000,Units=km
new line.RBT_10116192 bus1=BBT148654126.2.0,bus2=RML1010116192.2.0,Phases=1,Linecode=CABBTG02_4_1_1,Length=0.018000000,Units=km
new line.RBT_10116490 bus1=BBT149620511.1.2.0,bus2=RML1010116490.1.2.0,Phases=2,Linecode=CABBTG05_4_2_2,Length=0.017000000,Units=km
new line.RBT_10116756 bus1=BBT149622294.1.2.3.0,bus2=RML1010116756.1.2.3.0,Phases=3,Linecode=CABBT803_4_3_3,Length=0.020000000,Units=km
new line.RBT_10199132 bus1=BBT150522421.1.2.0,bus2=RML1010199132.1.2.0,Phases=2,Linecode=CABBTG05_4_2_2,Length=0.017000000,Units=km
new line.RBT_10249769 bus1=BBT2765046.1.2.0,bus2=RML1010249769.1.2.0,Phases=2,Linecode=CABBTG05_4_2_2,Length=0.029000000,Units=km
new line.RBT_10249816 bus1=BBT3589254.1.2.0,bus2=RML1010249816.1.2.0,Phases=2,Linecode=CABBTG05_4_2_2,Length=0.017000000,Units=km
new line.RBT_10249824 bus1=BBT131507674.1.2.0,bus2=RML1010249824.1.2.0,Phases=2,Linecode=CABBTG05_4_2_2,Length=0.029000000,Units=km
new line.RBT_10249849 bus1=BBT144265699.1.2.0,bus2=RML1010249849.1.2.0,Phases=2,Linecode=CABBTG05_4_2_2,Length=0.029000000,Units=km
new line.RBT_10249889 bus1=BBT131506792.1.2.0,bus2=RML1010249889.1.2.0,Phases=2,Linecode=CABBTG05_4_2_2,Length=0.029000000,Units=km
new line.RBT_10249890 bus1=BBT131506792.1.2.0,bus2=RML1010249890.1.2.0,Phases=2,Linecode=CABBTG05_4_2_2,Length=0.029000000,Units=km
new line.RBT_10249892 bus1=BBT144273259.1.2.0,bus2=RML1010249892.1.2.0,Phases=2,Linecode=CABBTG05_4_2_2,Length=0.017000000,Units=km
new line.RBT_10249899 bus1=BBT131506792.1.2.0,bus2=RML1010249899.1.2.0,Phases=2,Linecode=CABBTG05_4_2_2,Length=0.029000000,Units=km
new line.RBT_10249909 bus1=BBT135415025.1.2.0,bus2=RML1010249909.1.2.0,Phases=2,Linecode=CABBTG05_4_2_2,Length=0.029000000,Units=km
new line.RBT_10249910 bus1=BBT2663763.1.2.0,bus2=RML1010249910.1.2.0,Phases=2,Linecode=CABBTG05_4_2_2,Length=0.029000000,Units=km
new line.RBT_10249923 bus1=BBT35337789.1.2.0,bus2=RML1010249923.1.2.0,Phases=2,Linecode=CABBTG05_4_2_2,Length=0.029000000,Units=km
new line.RBT_10282120 bus1=BBT2712602.1.2.0,bus2=RML1010282120.1.2.0,Phases=2,Linecode=CABBTG05_4_2_2,Length=0.017000000,Units=km
new line.RBT_10309256 bus1=BBT144272867.1.2.0,bus2=RML1010309256.1.2.0,Phases=2,Linecode=CABBTG05_4_2_2,Length=0.017000000,Units=km
new line.RBT_10339610 bus1=BBT152561210.1.2.0,bus2=RML1010339610.1.2.0,Phases=2,Linecode=CABBTG05_4_2_2,Length=0.017000000,Units=km
new line.RBT_10368395 bus1=BBT2665072.1.2.0,bus2=RML1010368395.1.2.0,Phases=2,Linecode=CABBTG05_4_2_2,Length=0.029000000,Units=km
new line.RBT_10397836 bus1=BBT153574914.1.2.0,bus2=RML1010397836.1.2.0,Phases=2,Linecode=CABBTG05_4_2_2,Length=0.017000000,Units=km
new line.RBT_10399363 bus1=BBT2776050.1.2.0,bus2=RML1010399363.1.2.0,Phases=2,Linecode=CABBTG05_4_2_2,Length=0.029000000,Units=km
new line.RBT_10423514 bus1=BBT144265699.1.2.0,bus2=RML1010423514.1.2.0,Phases=2,Linecode=CABBTG05_4_2_2,Length=0.029000000,Units=km
new line.RBT_10423515 bus1=BBT144238917.1.2.0,bus2=RML1010423515.1.2.0,Phases=2,Linecode=CABBTG05_4_2_2,Length=0.029000000,Units=km
new line.RBT_10423517 bus1=BBT144265699.1.2.0,bus2=RML1010423517.1.2.0,Phases=2,Linecode=CABBTG05_4_2_2,Length=0.029000000,Units=km
new line.RBT_10423588 bus1=BBT144257719.1.2.0,bus2=RML1010423588.1.2.0,Phases=2,Linecode=CABBTG05_4_2_2,Length=0.017000000,Units=km
new line.RBT_10454164 bus1=BBT135414878.1.0,bus2=RML1010454164.1.0,Phases=1,Linecode=CABBTG02_4_1_1,Length=0.029000000,Units=km
new line.RBT_10454387 bus1=BBT135415046.1.2.0,bus2=RML1010454387.1.2.0,Phases=2,Linecode=CABBTG05_4_2_2,Length=0.029000000,Units=km
new line.RBT_10081423 bus1=BBT131507240.1.2.0,bus2=RML1010081423.1.2.0,Phases=2,Linecode=CABBTG05_4_2_2,Length=0.011000000,Units=km
new line.RBT_10082010 bus1=BBT31154575.1.2.0,bus2=RML1010082010.1.2.0,Phases=2,Linecode=CABBTG05_4_2_2,Length=0.017000000,Units=km
new line.RBT_10082018 bus1=BBT135415116.1.2.0,bus2=RML1010082018.1.2.0,Phases=2,Linecode=CABBTG04_4_2_2,Length=0.006000000,Units=km
new line.RBT_10110766 bus1=BBT148654158.2.0,bus2=RML1010110766.2.0,Phases=1,Linecode=CABBTG01_4_1_1,Length=0.011000000,Units=km
new line.RBT_10110776 bus1=BBT148654142.2.0,bus2=RML1010110776.2.0,Phases=1,Linecode=CABBTG01_4_1_1,Length=0.009000000,Units=km
new line.RBT_10188471 bus1=BBT131505973.1.0,bus2=RML1010188471.1.0,Phases=1,Linecode=CABBTG02_4_1_1,Length=0.029000000,Units=km
new line.RBT_10188499 bus1=BBT2662762.1.0,bus2=RML1010188499.1.0,Phases=1,Linecode=CABBTG02_4_1_1,Length=0.029000000,Units=km
new line.RBT_10188543 bus1=BBT4011655.2.0,bus2=RML1010188543.2.0,Phases=1,Linecode=CABBTG02_4_1_1,Length=0.017000000,Units=km