new loadshape.c3009900252 npts=24,interval=1.0,mult=(0.952 0.943 0.965 0.918 0.934 0.965 1.002 1.011 0.989 1.007 1.008 1.028 0.994 1.013 0.996 1.017 1.02 1.041 1.057 1.073 1.048 1.022 1.015 0.98)
new generator.3009900252 bus1=BMT176917090.1.2.3,Phases=3,kv=13.800000000,kW=178.853225806,pf=0.92,model=1,daily=c3009900252,status=Variable
new loadshape.c3013500019 npts=24,interval=1.0,mult=(0.001 0.001 0.001 0.001 0.001 0.001 0.001 0.244 0.942 1.906 2.743 3.216 3.279 3.33 3.03 2.397 1.767 0.908 0.228 0.001 0.001 0.001 0.001 0.001 0.001)
new generator.3013500019 bus1=BMT176917237.1.2.3,Phases=3,kv=13.800000000,kW=222.983870968,pf=0.92,model=1,daily=c3013500019,status=Variable
