new line.SMT_12171315 bus1=BMT176917455.3,bus2=BMT176917458.3,Phases=1,Linecode=CAB202_3_1_1,Length=0.064865000,Units=km
new line.SMT_12171353 bus1=BMT176918244.3,bus2=BMT8769605B.3,Phases=1,Linecode=CAB202_3_1_1,Length=0.139248000,Units=km
new line.SMT_12171354 bus1=BMT8769605B.3,bus2=BMT8769602B.3,Phases=1,Linecode=CAB202_3_1_1,Length=0.092864000,Units=km
new line.SMT_12171355 bus1=BMT8769602B.3,bus2=BMT8769600B.3,Phases=1,Linecode=CAB202_3_1_1,Length=0.107247000,Units=km
new line.SMT_12171356 bus1=BMT8769600B.3,bus2=BMT8769598B.3,Phases=1,Linecode=CAB202_3_1_1,Length=0.111200000,Units=km
new line.SMT_12171357 bus1=BMT8769598B.3,bus2=BMT8769578B.3,Phases=1,Linecode=CAB202_3_1_1,Length=0.100274000,Units=km
new line.SMT_12171358 bus1=BMT8769578B.3,bus2=BMT8769577B.3,Phases=1,Linecode=CAB202_3_1_1,Length=0.135789000,Units=km
new line.SMT_12171359 bus1=BMT8769577B.3,bus2=BMT8769576B.3,Phases=1,Linecode=CAB202_3_1_1,Length=0.108207000,Units=km
new line.SMT_12171360 bus1=BMT8769576B.3,bus2=BMT8769573B.3,Phases=1,Linecode=CAB202_3_1_1,Length=0.090796000,Units=km
new line.SMT_12171376 bus1=BMT8769573B.3,bus2=BMT8769572B.3,Phases=1,Linecode=CAB202_3_1_1,Length=0.078748000,Units=km
new line.SMT_12171377 bus1=BMT8769572B.3,bus2=BMT8769571B.3,Phases=1,Linecode=CAB202_3_1_1,Length=0.123998000,Units=km
new line.SMT_12171378 bus1=BMT8769571B.3,bus2=BMT8769568B.3,Phases=1,Linecode=CAB202_3_1_1,Length=0.141639000,Units=km
new line.SMT_12171379 bus1=BMT8769568B.3,bus2=BMT8769567B.3,Phases=1,Linecode=CAB202_3_1_1,Length=0.108875000,Units=km
new line.SMT_12171380 bus1=BMT8769567B.3,bus2=BMT8769565B.3,Phases=1,Linecode=CAB202_3_1_1,Length=0.163364000,Units=km
new line.SMT_12171381 bus1=BMT8769565B.3,bus2=BMT8769564B.3,Phases=1,Linecode=CAB202_3_1_1,Length=0.096397000,Units=km
new line.SMT_12171382 bus1=BMT8769564B.3,bus2=BMT8769563B.3,Phases=1,Linecode=CAB202_3_1_1,Length=0.109953000,Units=km
new line.SMT_12171385 bus1=BMT8769563B.3,bus2=BMT8769561B.3,Phases=1,Linecode=CAB202_3_1_1,Length=0.109680000,Units=km
new line.SMT_12171386 bus1=BMT8769561B.3,bus2=BMT8769559B.3,Phases=1,Linecode=CAB202_3_1_1,Length=0.142393000,Units=km
new line.SMT_12171387 bus1=BMT8769559B.3,bus2=BMT8769557B.3,Phases=1,Linecode=CAB202_3_1_1,Length=0.127402000,Units=km
new line.SMT_12171388 bus1=BMT8769557B.3,bus2=BMT8769556B.3,Phases=1,Linecode=CAB202_3_1_1,Length=0.130559000,Units=km
new line.SMT_12171389 bus1=BMT8769556B.3,bus2=BMT8769553B.3,Phases=1,Linecode=CAB202_3_1_1,Length=0.153515000,Units=km
new line.SMT_12171390 bus1=BMT8769553B.3,bus2=BMT8769552B.3,Phases=1,Linecode=CAB202_3_1_1,Length=0.130322000,Units=km
new line.SMT_12171418 bus1=BMT8769552B.3,bus2=BMT8769550B.3,Phases=1,Linecode=CAB202_3_1_1,Length=0.160703000,Units=km
new line.SMT_12171419 bus1=BMT8769550B.3,bus2=BMT8769549B.3,Phases=1,Linecode=CAB202_3_1_1,Length=0.135550000,Units=km
new line.SMT_12171420 bus1=BMT8769549B.3,bus2=BMT8769547B.3,Phases=1,Linecode=CAB202_3_1_1,Length=0.154643000,Units=km
new line.SMT_12171421 bus1=BMT8769547B.3,bus2=BMT8769545B.3,Phases=1,Linecode=CAB202_3_1_1,Length=0.188954000,Units=km
new line.SMT_12171422 bus1=BMT8769545B.3,bus2=BMT8769544B.3,Phases=1,Linecode=CAB202_3_1_1,Length=0.155661000,Units=km
new line.SMT_12171423 bus1=BMT8769544B.3,bus2=BMT8769541B.3,Phases=1,Linecode=CAB202_3_1_1,Length=0.090001000,Units=km
new line.SMT_12171432 bus1=BMT8769541B.3,bus2=BMT176918245.3,Phases=1,Linecode=CAB202_3_1_1,Length=0.096148000,Units=km
new line.SMT_12171433 bus1=BMT176918245.3,bus2=BMT176918246.3,Phases=1,Linecode=CAB202_3_1_1,Length=0.182488000,Units=km
new line.SMT_12171434 bus1=BMT176918247.3,bus2=BMT8769532B.3,Phases=1,Linecode=CAB202_3_1_1,Length=0.149812000,Units=km
new line.SMT_12171435 bus1=BMT8769532B.3,bus2=BMT176918248.3,Phases=1,Linecode=CAB202_3_1_1,Length=0.189353000,Units=km
new line.SMT_12171436 bus1=BMT176918248.3,bus2=BMT8769529B.3,Phases=1,Linecode=CAB202_3_1_1,Length=0.088861000,Units=km
new line.SMT_12171437 bus1=BMT8769529B.3,bus2=BMT8769528B.3,Phases=1,Linecode=CAB202_3_1_1,Length=0.085701000,Units=km
new line.SMT_12171438 bus1=BMT8769528B.3,bus2=BMT8769527B.3,Phases=1,Linecode=CAB202_3_1_1,Length=0.162494000,Units=km
new line.SMT_12171439 bus1=BMT8769527B.3,bus2=BMT8769526B.3,Phases=1,Linecode=CAB202_3_1_1,Length=0.165977000,Units=km
new line.SMT_12171440 bus1=BMT8769526B.3,bus2=BMT176918249.3,Phases=1,Linecode=CAB202_3_1_1,Length=0.100275000,Units=km
new line.SMT_12171446 bus1=BMT176918251.3,bus2=BMT8769537B.3,Phases=1,Linecode=CAB202_3_1_1,Length=0.031376000,Units=km
new line.SMT_12171447 bus1=BMT8769537B.3,bus2=BMT176918252.3,Phases=1,Linecode=CAB202_3_1_1,Length=0.179334000,Units=km
new line.SMT_12171448 bus1=BMT176918252.3,bus2=BMT176918253.3,Phases=1,Linecode=CAB202_3_1_1,Length=0.075251000,Units=km
new line.SMT_12212432 bus1=BMT176917958.1,bus2=BMT176917960.1,Phases=1,Linecode=CAB202_3_1_1,Length=0.010815000,Units=km
new line.SMT_12212433 bus1=BMT176917990.1,bus2=BMT176917991.1,Phases=1,Linecode=CAB202_3_1_1,Length=0.186891000,Units=km
new line.SMT_12322720 bus1=BMT173524664.1.2.3,bus2=BMT176917154.1.2.3,Phases=3,Linecode=CAB103_3_3_3,Length=0.028059000,Units=km
new line.SMT_12322725 bus1=BMT173524664.1.2.3,bus2=BMT176917155.1.2.3,Phases=3,Linecode=CAB103_3_3_3,Length=0.006080000,Units=km
new line.SMT_12124369 bus1=BMT176917044.1.2.3,bus2=BMT8717289B.1.2.3,Phases=3,Linecode=CABA06_3_3_3,Length=0.007069000,Units=km
new line.SMT_12124370 bus1=BMT8717289B.1.2.3,bus2=BMT8717295B.1.2.3,Phases=3,Linecode=CABA06_3_3_3,Length=0.039036000,Units=km
new line.SMT_12124371 bus1=BMT8717295B.1.2.3,bus2=BMT176917046.1.2.3,Phases=3,Linecode=CABA06_3_3_3,Length=0.025010000,Units=km
new line.SMT_12234188 bus1=BMT176918975.2,bus2=BMT8835657B.2,Phases=1,Linecode=CAB202_3_1_1,Length=0.169976000,Units=km
new line.SMT_12234189 bus1=BMT8835657B.2,bus2=BMT8835659B.2,Phases=1,Linecode=CAB202_3_1_1,Length=0.241149000,Units=km
new line.SMT_12234190 bus1=BMT8835659B.2,bus2=BMT8835660B.2,Phases=1,Linecode=CAB202_3_1_1,Length=0.186678000,Units=km
new line.SMT_12234191 bus1=BMT8835660B.2,bus2=BMT8835661B.2,Phases=1,Linecode=CAB202_3_1_1,Length=0.094060000,Units=km
new line.SMT_12234192 bus1=BMT8835661B.2,bus2=BMT8835662B.2,Phases=1,Linecode=CAB202_3_1_1,Length=0.124639000,Units=km
new line.SMT_12234193 bus1=BMT8835662B.2,bus2=BMT8835664B.2,Phases=1,Linecode=CAB202_3_1_1,Length=0.175396000,Units=km
new line.SMT_12234194 bus1=BMT8835664B.2,bus2=BMT8835665B.2,Phases=1,Linecode=CAB202_3_1_1,Length=0.254537000,Units=km
new line.SMT_12234340 bus1=BMT8835665B.2,bus2=BMT8835783B.2,Phases=1,Linecode=CAB202_3_1_1,Length=0.104627000,Units=km
new line.SMT_12234341 bus1=BMT8835783B.2,bus2=BMT176918976.2,Phases=1,Linecode=CAB202_3_1_1,Length=0.141806000,Units=km
new line.SMT_12236076 bus1=BMT176918006.1,bus2=BMT8837596B.1,Phases=1,Linecode=CAB202_3_1_1,Length=0.073859000,Units=km
new line.SMT_12236077 bus1=BMT8837596B.1,bus2=BMT8837598B.1,Phases=1,Linecode=CAB202_3_1_1,Length=0.190268000,Units=km
new line.SMT_12236078 bus1=BMT8837598B.1,bus2=BMT8837599B.1,Phases=1,Linecode=CAB202_3_1_1,Length=0.178358000,Units=km
new line.SMT_12236079 bus1=BMT8837599B.1,bus2=BMT8837601B.1,Phases=1,Linecode=CAB202_3_1_1,Length=0.076145000,Units=km
new line.SMT_12236080 bus1=BMT8837601B.1,bus2=BMT8837602B.1,Phases=1,Linecode=CAB202_3_1_1,Length=0.061017000,Units=km
new line.SMT_12236081 bus1=BMT8837602B.1,bus2=BMT8837603B.1,Phases=1,Linecode=CAB202_3_1_1,Length=0.082277000,Units=km
new line.SMT_12236082 bus1=BMT8837603B.1,bus2=BMT8837604B.1,Phases=1,Linecode=CAB202_3_1_1,Length=0.149874000,Units=km
new line.SMT_12236083 bus1=BMT8837604B.1,bus2=BMT8837605B.1,Phases=1,Linecode=CAB202_3_1_1,Length=0.216323000,Units=km
new line.SMT_12236084 bus1=BMT8837605B.1,bus2=BMT8837607B.1,Phases=1,Linecode=CAB202_3_1_1,Length=0.133610000,Units=km
new line.SMT_12236085 bus1=BMT8837607B.1,bus2=BMT8837608B.1,Phases=1,Linecode=CAB202_3_1_1,Length=0.221991000,Units=km
new line.SMT_12236086 bus1=BMT8837608B.1,bus2=BMT8837609B.1,Phases=1,Linecode=CAB202_3_1_1,Length=0.283518000,Units=km
new line.SMT_12236087 bus1=BMT8837609B.1,bus2=BMT8837610B.1,Phases=1,Linecode=CAB202_3_1_1,Length=0.129966000,Units=km
new line.SMT_12236088 bus1=BMT8837610B.1,bus2=BMT8837611B.1,Phases=1,Linecode=CAB202_3_1_1,Length=0.198582000,Units=km
new line.SMT_12236089 bus1=BMT8837611B.1,bus2=BMT8837612B.1,Phases=1,Linecode=CAB202_3_1_1,Length=0.171351000,Units=km
new line.SMT_12236090 bus1=BMT8837612B.1,bus2=BMT8837613B.1,Phases=1,Linecode=CAB202_3_1_1,Length=0.553436000,Units=km
new line.SMT_12236091 bus1=BMT8837613B.1,bus2=BMT8837614B.1,Phases=1,Linecode=CAB202_3_1_1,Length=0.135200000,Units=km
new line.SMT_12236092 bus1=BMT8837614B.1,bus2=BMT8837615B.1,Phases=1,Linecode=CAB202_3_1_1,Length=0.282101000,Units=km
new line.SMT_12236093 bus1=BMT8837615B.1,bus2=BMT176918008.1,Phases=1,Linecode=CAB202_3_1_1,Length=0.209953000,Units=km
new line.SMT_12236119 bus1=BMT176918015.1,bus2=BMT8837621B.1,Phases=1,Linecode=CAB202_3_1_1,Length=0.016967000,Units=km
new line.SMT_12236120 bus1=BMT8837621B.1,bus2=BMT8837622B.1,Phases=1,Linecode=CAB202_3_1_1,Length=0.288691000,Units=km
new line.SMT_12236121 bus1=BMT8837622B.1,bus2=BMT8837623B.1,Phases=1,Linecode=CAB202_3_1_1,Length=0.104912000,Units=km
new line.SMT_12236127 bus1=BMT8837623B.1,bus2=BMT8837624B.1,Phases=1,Linecode=CAB202_3_1_1,Length=0.203148000,Units=km
new line.SMT_12236128 bus1=BMT8837624B.1,bus2=BMT8837625B.1,Phases=1,Linecode=CAB202_3_1_1,Length=0.128529000,Units=km
new line.SMT_12236129 bus1=BMT8837625B.1,bus2=BMT8837626B.1,Phases=1,Linecode=CAB202_3_1_1,Length=0.274784000,Units=km
new line.SMT_12236130 bus1=BMT8837626B.1,bus2=BMT8837627B.1,Phases=1,Linecode=CAB202_3_1_1,Length=0.185554000,Units=km
new line.SMT_12236131 bus1=BMT8837627B.1,bus2=BMT176918018.1,Phases=1,Linecode=CAB202_3_1_1,Length=0.096106000,Units=km
new line.SMT_12236132 bus1=BMT176918018.1,bus2=BMT8837629B.1,Phases=1,Linecode=CAB202_3_1_1,Length=0.131211000,Units=km
new line.SMT_12236133 bus1=BMT8837629B.1,bus2=BMT8837630B.1,Phases=1,Linecode=CAB202_3_1_1,Length=0.210289000,Units=km
new line.SMT_12236134 bus1=BMT8837630B.1,bus2=BMT8837631B.1,Phases=1,Linecode=CAB202_3_1_1,Length=0.083196000,Units=km
new line.SMT_12236135 bus1=BMT8837631B.1,bus2=BMT176918019.1,Phases=1,Linecode=CAB202_3_1_1,Length=0.059993000,Units=km
new line.SMT_12345722 bus1=BMT2760426B.3,bus2=BMT176917364.3,Phases=1,Linecode=CAB202_3_1_1,Length=0.016994000,Units=km
new line.SMT_12345723 bus1=BMT176917380.3,bus2=BMT176917381.3,Phases=1,Linecode=CAB202_3_1_1,Length=0.015028000,Units=km
new line.SMT_12152036 bus1=BMT176917234.1.2.3,bus2=BMT8747683B.1.2.3,Phases=3,Linecode=CAB202_3_3_3,Length=0.158835000,Units=km
new line.SMT_12152046 bus1=BMT8747683B.1.2.3,bus2=BMT8747684B.1.2.3,Phases=3,Linecode=CAB202_3_3_3,Length=0.153088000,Units=km
new line.SMT_12226147 bus1=BMT176918898.2,bus2=BMT176918899.2,Phases=1,Linecode=CAB202_3_1_1,Length=0.058521000,Units=km
new line.SMT_12226149 bus1=BMT176918899.2,bus2=BMT8827090B.2,Phases=1,Linecode=CAB202_3_1_1,Length=0.332587000,Units=km
new line.SMT_12226150 bus1=BMT8827090B.2,bus2=BMT176918900.2,Phases=1,Linecode=CAB202_3_1_1,Length=0.119848000,Units=km
new line.SMT_12226152 bus1=BMT176918900.2,bus2=BMT176918902.2,Phases=1,Linecode=CAB103_3_1_1,Length=0.041108000,Units=km
new line.SMT_12226345 bus1=BMT176918899.2,bus2=BMT176918901.2,Phases=1,Linecode=CAB202_3_1_1,Length=0.138651000,Units=km
new line.SMT_12227614 bus1=BMT176918823.2,bus2=BMT8828631B.2,Phases=1,Linecode=CAB202_3_1_1,Length=0.258954000,Units=km
new line.SMT_12227615 bus1=BMT8828631B.2,bus2=BMT8828632B.2,Phases=1,Linecode=CAB202_3_1_1,Length=0.105917000,Units=km
new line.SMT_12227616 bus1=BMT8828632B.2,bus2=BMT8828633B.2,Phases=1,Linecode=CAB202_3_1_1,Length=0.292070000,Units=km
new line.SMT_12227617 bus1=BMT8828633B.2,bus2=BMT8828634B.2,Phases=1,Linecode=CAB202_3_1_1,Length=0.124565000,Units=km
new line.SMT_12227618 bus1=BMT8828634B.2,bus2=BMT8828635B.2,Phases=1,Linecode=CAB202_3_1_1,Length=0.073238000,Units=km
new line.SMT_12227619 bus1=BMT8828635B.2,bus2=BMT8828636B.2,Phases=1,Linecode=CAB202_3_1_1,Length=0.096177000,Units=km
new line.SMT_12227620 bus1=BMT8828636B.2,bus2=BMT176918824.2,Phases=1,Linecode=CAB202_3_1_1,Length=0.362043000,Units=km
new line.SMT_12298651 bus1=BMT176919591.1,bus2=BMT8900350B.1,Phases=1,Linecode=CAB202_3_1_1,Length=0.112382000,Units=km
new line.SMT_12298652 bus1=BMT8900350B.1,bus2=BMT8900353B.1,Phases=1,Linecode=CAB202_3_1_1,Length=0.084829000,Units=km
new line.SMT_12298653 bus1=BMT8900353B.1,bus2=BMT8900354B.1,Phases=1,Linecode=CAB202_3_1_1,Length=0.092629000,Units=km
new line.SMT_12298654 bus1=BMT8900354B.1,bus2=BMT8900355B.1,Phases=1,Linecode=CAB202_3_1_1,Length=0.083463000,Units=km
new line.SMT_12298655 bus1=BMT8900355B.1,bus2=BMT8900356B.1,Phases=1,Linecode=CAB202_3_1_1,Length=0.071674000,Units=km
new line.SMT_12298658 bus1=BMT8900356B.1,bus2=BMT8900358B.1,Phases=1,Linecode=CAB202_3_1_1,Length=0.308486000,Units=km
new line.SMT_12298659 bus1=BMT8900358B.1,bus2=BMT8900359B.1,Phases=1,Linecode=CAB202_3_1_1,Length=0.078902000,Units=km
new line.SMT_12301150 bus1=BMT8900359B.1,bus2=BMT176919592.1,Phases=1,Linecode=CAB202_3_1_1,Length=0.034530000,Units=km
new line.SMT_12301151 bus1=BMT176919592.1,bus2=BMT176919593.1,Phases=1,Linecode=CAB202_3_1_1,Length=0.025488000,Units=km
new line.SMT_12301153 bus1=BMT176919592.1,bus2=BMT8902886B.1,Phases=1,Linecode=CAB202_3_1_1,Length=0.120386000,Units=km
new line.SMT_12301154 bus1=BMT8902886B.1,bus2=BMT8902887B.1,Phases=1,Linecode=CAB202_3_1_1,Length=0.103049000,Units=km
new line.SMT_12301155 bus1=BMT8902887B.1,bus2=BMT176919594.1,Phases=1,Linecode=CAB202_3_1_1,Length=0.099611000,Units=km
new line.SMT_12338159 bus1=BMT176918034.1,bus2=BMT8940441B.1,Phases=1,Linecode=CAB202_3_1_1,Length=0.141177000,Units=km
new line.SMT_12338166 bus1=BMT8940441B.1,bus2=BMT8940442B.1,Phases=1,Linecode=CAB202_3_1_1,Length=0.353871000,Units=km
new line.SMT_12338167 bus1=BMT8940442B.1,bus2=BMT8940443B.1,Phases=1,Linecode=CAB202_3_1_1,Length=0.140033000,Units=km
new line.SMT_12338168 bus1=BMT8940443B.1,bus2=BMT176918037.1,Phases=1,Linecode=CAB202_3_1_1,Length=0.123916000,Units=km
new line.SMT_12339049 bus1=BMT176919872.1.2.3,bus2=BMT176919873.1.2.3,Phases=3,Linecode=CAB202_3_3_3,Length=0.022991000,Units=km
new line.SMT_12339050 bus1=BMT176919873.1.2.3,bus2=BMT176919874.1.2.3,Phases=3,Linecode=CAB202_3_3_3,Length=0.031987000,Units=km
new line.SMT_12339059 bus1=BMT176919884.1.2.3,bus2=BMT176919886.1.2.3,Phases=3,Linecode=CAB202_3_3_3,Length=0.101357000,Units=km
new line.SMT_12339060 bus1=BMT176919886.1.2.3,bus2=BMT176919887.1.2.3,Phases=3,Linecode=CAB103_3_3_3,Length=0.010194000,Units=km
new line.SMT_12339101 bus1=BMT176919886.1.2.3,bus2=BMT8941646B.1.2.3,Phases=3,Linecode=CAB202_3_3_3,Length=0.062199000,Units=km
new line.SMT_12339103 bus1=BMT8941646B.1.2.3,bus2=BMT8941649B.1.2.3,Phases=3,Linecode=CAB202_3_3_3,Length=0.095965000,Units=km
new line.SMT_12339106 bus1=BMT8941649B.1.2.3,bus2=BMT8941652B.1.2.3,Phases=3,Linecode=CAB202_3_3_3,Length=0.103266000,Units=km
new line.SMT_12339107 bus1=BMT8941652B.1.2.3,bus2=BMT8941655B.1.2.3,Phases=3,Linecode=CAB202_3_3_3,Length=0.166605000,Units=km
new line.SMT_12339108 bus1=BMT8941655B.1.2.3,bus2=BMT8941653B.1.2.3,Phases=3,Linecode=CAB202_3_3_3,Length=0.121027000,Units=km
new line.SMT_12339111 bus1=BMT8941653B.1.2.3,bus2=BMT8941657B.1.2.3,Phases=3,Linecode=CAB202_3_3_3,Length=0.079213000,Units=km
new line.SMT_12339112 bus1=BMT8941657B.1.2.3,bus2=BMT8941658B.1.2.3,Phases=3,Linecode=CAB202_3_3_3,Length=0.076577000,Units=km
new line.SMT_12339113 bus1=BMT8941658B.1.2.3,bus2=BMT8941659B.1.2.3,Phases=3,Linecode=CAB202_3_3_3,Length=0.085987000,Units=km
new line.SMT_12339116 bus1=BMT8941659B.1.2.3,bus2=BMT176919888.1.2.3,Phases=3,Linecode=CAB202_3_3_3,Length=0.052180000,Units=km
new line.SMT_12339224 bus1=BMT176919890.1.2.3,bus2=BMT176919891.1.2.3,Phases=3,Linecode=CABA06_3_3_3,Length=0.040505000,Units=km
new line.SMT_12154795 bus1=BMT176919476.1,bus2=BMT176919478.1,Phases=1,Linecode=CAB202_3_1_1,Length=0.195961000,Units=km
new line.SMT_12154796 bus1=BMT176919478.1,bus2=BMT176919479.1,Phases=1,Linecode=CAB202_3_1_1,Length=0.364666000,Units=km
new line.SMT_12154803 bus1=BMT176919478.1,bus2=BMT176919480.1,Phases=1,Linecode=CAB202_3_1_1,Length=0.150605000,Units=km
new line.SMT_12264662 bus1=BMT176918806.2,bus2=BMT176918807.2,Phases=1,Linecode=CAB103_3_1_1,Length=0.114003000,Units=km
new line.SMT_12264663 bus1=BMT176918807.2,bus2=BMT8868114B.2,Phases=1,Linecode=CAB202_3_1_1,Length=0.130846000,Units=km
new line.SMT_12264664 bus1=BMT8868114B.2,bus2=BMT8868115B.2,Phases=1,Linecode=CAB202_3_1_1,Length=0.232185000,Units=km
new line.SMT_12264665 bus1=BMT8868115B.2,bus2=BMT8868117B.2,Phases=1,Linecode=CAB202_3_1_1,Length=0.173900000,Units=km
new line.SMT_12264666 bus1=BMT8868117B.2,bus2=BMT176918808.2,Phases=1,Linecode=CAB202_3_1_1,Length=0.109357000,Units=km
new line.SMT_12267765 bus1=BMT2807613B.3,bus2=BMT176919150.3,Phases=1,Linecode=CAB202_3_1_1,Length=0.036394000,Units=km
new line.SMT_12267766 bus1=BMT176919150.3,bus2=BMT176919151.3,Phases=1,Linecode=CAB202_3_1_1,Length=0.036394000,Units=km
new line.SMT_12267767 bus1=BMT176919153.3,bus2=BMT8871406B.3,Phases=1,Linecode=CAB202_3_1_1,Length=0.020220000,Units=km
new line.SMT_12267768 bus1=BMT8871406B.3,bus2=BMT8871407B.3,Phases=1,Linecode=CAB202_3_1_1,Length=0.183957000,Units=km
new line.SMT_12267769 bus1=BMT8871407B.3,bus2=BMT8871408B.3,Phases=1,Linecode=CAB202_3_1_1,Length=0.206155000,Units=km
new line.SMT_12267770 bus1=BMT8871408B.3,bus2=BMT8871409B.3,Phases=1,Linecode=CAB202_3_1_1,Length=0.280170000,Units=km
new line.SMT_12267771 bus1=BMT8871409B.3,bus2=BMT8871410B.3,Phases=1,Linecode=CAB202_3_1_1,Length=0.274703000,Units=km
new line.SMT_12267772 bus1=BMT8871410B.3,bus2=BMT8871411B.3,Phases=1,Linecode=CAB202_3_1_1,Length=0.402562000,Units=km
new line.SMT_12267773 bus1=BMT8871411B.3,bus2=BMT8871412B.3,Phases=1,Linecode=CAB202_3_1_1,Length=0.106658000,Units=km
new line.SMT_12267774 bus1=BMT8871412B.3,bus2=BMT8871413B.3,Phases=1,Linecode=CAB202_3_1_1,Length=0.085460000,Units=km
new line.SMT_12267775 bus1=BMT8871413B.3,bus2=BMT176919154.3,Phases=1,Linecode=CAB202_3_1_1,Length=0.058299000,Units=km
new line.SMT_12267800 bus1=BMT176917393.3,bus2=BMT8871453B.3,Phases=1,Linecode=CAB103_3_1_1,Length=0.012526000,Units=km
new line.SMT_12267804 bus1=BMT8871453B.3,bus2=BMT176917400.3,Phases=1,Linecode=CAB103_3_1_1,Length=0.039910000,Units=km
new line.SMT_12303429 bus1=BMT176919045.2,bus2=BMT8904923B.2,Phases=1,Linecode=CAB202_3_1_1,Length=0.084702000,Units=km
new line.SMT_12303430 bus1=BMT8904923B.2,bus2=BMT176919047.2,Phases=1,Linecode=CAB202_3_1_1,Length=0.085693000,Units=km
new line.SMT_12304587 bus1=BMT4761586B.1,bus2=BMT176917308.1,Phases=1,Linecode=CAB202_3_1_1,Length=0.096503000,Units=km
new line.SMT_12304588 bus1=BMT176917308.1,bus2=BMT176917309.1,Phases=1,Linecode=CAB202_3_1_1,Length=0.012037000,Units=km
new line.SMT_12304594 bus1=BMT176917308.1,bus2=BMT8905908B.1,Phases=1,Linecode=CAB202_3_1_1,Length=0.084968000,Units=km
new line.SMT_12304595 bus1=BMT8905908B.1,bus2=BMT8905910B.1,Phases=1,Linecode=CAB202_3_1_1,Length=0.112118000,Units=km
new line.SMT_12304596 bus1=BMT8905910B.1,bus2=BMT8905911B.1,Phases=1,Linecode=CAB202_3_1_1,Length=0.099320000,Units=km
new line.SMT_12304597 bus1=BMT8905911B.1,bus2=BMT176917310.1,Phases=1,Linecode=CAB202_3_1_1,Length=0.077958000,Units=km
new line.SMT_12306893 bus1=BMT176918396.1.2.3,bus2=BMT176918399.1.2.3,Phases=3,Linecode=CAB203_3_3_3,Length=0.023529000,Units=km
new line.SMT_12306894 bus1=BMT176918399.1.2.3,bus2=BMT176918400.1.2.3,Phases=3,Linecode=CAB203_3_3_3,Length=0.022553000,Units=km
new line.SMT_12341748 bus1=BMT2806395B.3,bus2=BMT176919912.3,Phases=1,Linecode=CAB202_3_1_1,Length=0.045523000,Units=km
new line.SMT_12341749 bus1=BMT176919912.3,bus2=BMT176919913.3,Phases=1,Linecode=CAB202_3_1_1,Length=0.051243000,Units=km
new line.SMT_12341780 bus1=BMT176919912.3,bus2=BMT8944506B.3,Phases=1,Linecode=CAB202_3_1_1,Length=0.065433000,Units=km
new line.SMT_12341782 bus1=BMT8944506B.3,bus2=BMT8944507B.3,Phases=1,Linecode=CAB202_3_1_1,Length=0.120884000,Units=km
new line.SMT_12341784 bus1=BMT8944507B.3,bus2=BMT8944508B.3,Phases=1,Linecode=CAB202_3_1_1,Length=0.113817000,Units=km
new line.SMT_12341788 bus1=BMT8944508B.3,bus2=BMT8944514B.3,Phases=1,Linecode=CAB202_3_1_1,Length=0.126837000,Units=km
new line.SMT_12341789 bus1=BMT8944514B.3,bus2=BMT176919914.3,Phases=1,Linecode=CAB202_3_1_1,Length=0.114691000,Units=km
new line.SMT_12447321 bus1=BMT176919897.1.2.3,bus2=BMT8941911B.1.2.3,Phases=3,Linecode=CABA06_3_3_3,Length=0.040033000,Units=km
new line.SMT_12483411 bus1=BMT176918739.2,bus2=BMT9093287B.2,Phases=1,Linecode=CAB202_3_1_1,Length=0.069019000,Units=km
new line.SMT_12483419 bus1=BMT9093287B.2,bus2=BMT9093289B.2,Phases=1,Linecode=CAB202_3_1_1,Length=0.078149000,Units=km
new line.SMT_12483421 bus1=BMT9093289B.2,bus2=BMT9093291B.2,Phases=1,Linecode=CAB202_3_1_1,Length=0.091124000,Units=km
new line.SMT_12483425 bus1=BMT9093291B.2,bus2=BMT9093293B.2,Phases=1,Linecode=CAB202_3_1_1,Length=0.038205000,Units=km
new line.SMT_12483426 bus1=BMT9093293B.2,bus2=BMT176918741.2,Phases=1,Linecode=CAB202_3_1_1,Length=0.047375000,Units=km
new line.SMT_12339238 bus1=BMT176919891.1.2.3,bus2=BMT176919892.1.2.3,Phases=3,Linecode=CABA06_3_3_3,Length=0.036040000,Units=km
new line.SMT_12339243 bus1=BMT176919891.1.2.3,bus2=BMT8941676B.1.2.3,Phases=3,Linecode=CABA06_3_3_3,Length=0.033228000,Units=km
new line.SMT_12339244 bus1=BMT8941676B.1.2.3,bus2=BMT8941680B.1.2.3,Phases=3,Linecode=CABA06_3_3_3,Length=0.027647000,Units=km
new line.SMT_12339245 bus1=BMT8941680B.1.2.3,bus2=BMT8941679B.1.2.3,Phases=3,Linecode=CABA06_3_3_3,Length=0.029005000,Units=km
new line.SMT_12339247 bus1=BMT8941679B.1.2.3,bus2=BMT8941678B.1.2.3,Phases=3,Linecode=CABA06_3_3_3,Length=0.029988000,Units=km
new line.SMT_12339249 bus1=BMT8941678B.1.2.3,bus2=BMT8941674B.1.2.3,Phases=3,Linecode=CABA06_3_3_3,Length=0.029988000,Units=km
new line.SMT_12339253 bus1=BMT8941674B.1.2.3,bus2=BMT8941683B.1.2.3,Phases=3,Linecode=CABA06_3_3_3,Length=0.038996000,Units=km
new line.SMT_12339256 bus1=BMT8941683B.1.2.3,bus2=BMT176919893.1.2.3,Phases=3,Linecode=CABA06_3_3_3,Length=0.039996000,Units=km
new line.SMT_12339257 bus1=BMT176919893.1.2.3,bus2=BMT8941685B.1.2.3,Phases=3,Linecode=CABA06_3_3_3,Length=0.026008000,Units=km
new line.SMT_12339261 bus1=BMT8941685B.1.2.3,bus2=BMT176919894.1.2.3,Phases=3,Linecode=CABA06_3_3_3,Length=0.028060000,Units=km
new line.SMT_12339283 bus1=BMT176919894.1.2.3,bus2=BMT8941814B.1.2.3,Phases=3,Linecode=CABA06_3_3_3,Length=0.030987000,Units=km
new line.SMT_12339284 bus1=BMT8941814B.1.2.3,bus2=BMT8941821B.1.2.3,Phases=3,Linecode=CABA06_3_3_3,Length=0.030987000,Units=km
new line.SMT_12339285 bus1=BMT8941821B.1.2.3,bus2=BMT8941823B.1.2.3,Phases=3,Linecode=CABA06_3_3_3,Length=0.039983000,Units=km
new line.SMT_12339286 bus1=BMT8941823B.1.2.3,bus2=BMT176919895.1.2.3,Phases=3,Linecode=CABA06_3_3_3,Length=0.038996000,Units=km
new line.SMT_12339298 bus1=BMT176919894.1.2.3,bus2=BMT8941835B.1.2.3,Phases=3,Linecode=CABA06_3_3_3,Length=0.035985000,Units=km
new line.SMT_12339299 bus1=BMT8941835B.1.2.3,bus2=BMT8941836B.1.2.3,Phases=3,Linecode=CABA06_3_3_3,Length=0.036984000,Units=km
new line.SMT_12339300 bus1=BMT8941836B.1.2.3,bus2=BMT8941837B.1.2.3,Phases=3,Linecode=CABA06_3_3_3,Length=0.033986000,Units=km
new line.SMT_12339301 bus1=BMT8941837B.1.2.3,bus2=BMT8941839B.1.2.3,Phases=3,Linecode=CABA06_3_3_3,Length=0.028988000,Units=km
new line.SMT_12339302 bus1=BMT8941839B.1.2.3,bus2=BMT176919896.1.2.3,Phases=3,Linecode=CABA06_3_3_3,Length=0.025989000,Units=km
new line.SMT_12339303 bus1=BMT176919896.1.2.3,bus2=BMT8941841B.1.2.3,Phases=3,Linecode=CABA06_3_3_3,Length=0.023990000,Units=km
new line.SMT_12339304 bus1=BMT8941841B.1.2.3,bus2=BMT8941842B.1.2.3,Phases=3,Linecode=CABA06_3_3_3,Length=0.034985000,Units=km
new line.SMT_12339305 bus1=BMT8941842B.1.2.3,bus2=BMT8941843B.1.2.3,Phases=3,Linecode=CABA06_3_3_3,Length=0.025989000,Units=km
new line.SMT_12339309 bus1=BMT8941843B.1.2.3,bus2=BMT176919897.1.2.3,Phases=3,Linecode=CABA06_3_3_3,Length=0.031003000,Units=km
new line.SMT_12339310 bus1=BMT176919897.1.2.3,bus2=BMT8941834B.1.2.3,Phases=3,Linecode=CABA06_3_3_3,Length=0.007068000,Units=km
new line.SMT_12339328 bus1=BMT176919897.1.2.3,bus2=BMT176919899.1.2.3,Phases=3,Linecode=CABA06_3_3_3,Length=0.010436000,Units=km
new line.SMT_12339383 bus1=BMT8941834B.1.2.3,bus2=BMT8941923B.1.2.3,Phases=3,Linecode=CABA06_3_3_3,Length=0.037984000,Units=km
new line.SMT_12339384 bus1=BMT8941923B.1.2.3,bus2=BMT8941924B.1.2.3,Phases=3,Linecode=CABA06_3_3_3,Length=0.039983000,Units=km
new line.SMT_12339385 bus1=BMT8941924B.1.2.3,bus2=BMT8941925B.1.2.3,Phases=3,Linecode=CABA06_3_3_3,Length=0.017993000,Units=km
new line.SMT_12339395 bus1=BMT8941925B.1.2.3,bus2=BMT176919898.1.2.3,Phases=3,Linecode=CABA06_3_3_3,Length=0.026989000,Units=km
new line.SMT_12377496 bus1=BMT179438159.1,bus2=BMT8982961B.1,Phases=1,Linecode=CAB202_3_1_1,Length=0.078908000,Units=km
new line.SMT_12377498 bus1=BMT8982961B.1,bus2=BMT8982962B.1,Phases=1,Linecode=CAB202_3_1_1,Length=0.098331000,Units=km
new line.SMT_12377499 bus1=BMT8982962B.1,bus2=BMT8982963B.1,Phases=1,Linecode=CAB202_3_1_1,Length=0.110657000,Units=km
new line.SMT_12377500 bus1=BMT8982963B.1,bus2=BMT8982964B.1,Phases=1,Linecode=CAB202_3_1_1,Length=0.173521000,Units=km
new line.SMT_12377501 bus1=BMT8982964B.1,bus2=BMT179438162.1,Phases=1,Linecode=CAB202_3_1_1,Length=0.050478000,Units=km
new line.SMT_12378520 bus1=BMT176919775.3,bus2=BMT176919776.3,Phases=1,Linecode=CAB202_3_1_1,Length=0.042031000,Units=km
new line.SMT_12456135 bus1=BMT176919438.1,bus2=BMT176919439.1,Phases=1,Linecode=CAB202_3_1_1,Length=0.372724000,Units=km
new line.SMT_12456136 bus1=BMT176919439.1,bus2=BMT176919440.1,Phases=1,Linecode=CAB202_3_1_1,Length=0.331777000,Units=km
new line.SMT_12456149 bus1=BMT176919439.1,bus2=BMT176919441.1,Phases=1,Linecode=CAB103_3_1_1,Length=0.037685000,Units=km
new line.SMT_12456819 bus1=BMT176918207.2,bus2=BMT9065181B.2,Phases=1,Linecode=CAB202_3_1_1,Length=0.093411000,Units=km
new line.SMT_12456843 bus1=BMT9065181B.2,bus2=BMT176918209.2,Phases=1,Linecode=CAB202_3_1_1,Length=0.093411000,Units=km
new line.SMT_12495625 bus1=BMT179792673.1.2.3,bus2=BMT179792674.1.2.3,Phases=3,Linecode=CAB103_3_3_3,Length=0.034923000,Units=km
new line.SMT_12495627 bus1=BMT179792674.1.2.3,bus2=BMT179792675.1.2.3,Phases=3,Linecode=CAB103_3_3_3,Length=0.046608000,Units=km
new line.SMT_12530330 bus1=BMT176918248.3,bus2=BMT9138391B.3,Phases=1,Linecode=CAB202_3_1_1,Length=0.063621000,Units=km
new line.SMT_1066797 bus1=BMT176919018.2,bus2=BMT176919019.2,Phases=1,Linecode=CAB202_3_1_1,Length=0.052165000,Units=km
new line.SMT_1066811 bus1=BMT176918769.2,bus2=BMT176918770.2,Phases=1,Linecode=CAB202_3_1_1,Length=0.049085000,Units=km
new line.SMT_1066832 bus1=BMT176918771.2,bus2=BMT176918772.2,Phases=1,Linecode=CAB202_3_1_1,Length=0.241719000,Units=km
new line.SMT_1066846 bus1=BMT176918996.2,bus2=BMT176918997.2,Phases=1,Linecode=CAB202_3_1_1,Length=0.077482000,Units=km
new line.SMT_1066860 bus1=BMT2260122B.2,bus2=BMT2260129B.2,Phases=1,Linecode=CAB202_3_1_1,Length=0.146967000,Units=km
new line.SMT_1066867 bus1=BMT2260129B.2,bus2=BMT176918998.2,Phases=1,Linecode=CAB202_3_1_1,Length=0.143484000,Units=km
new line.SMT_1066909 bus1=BMT176919023.2,bus2=BMT176919024.2,Phases=1,Linecode=CAB202_3_1_1,Length=0.264620000,Units=km
new line.SMT_1066916 bus1=BMT176919023.2,bus2=BMT176919025.2,Phases=1,Linecode=CAB202_3_1_1,Length=0.394528000,Units=km
new line.SMT_1066937 bus1=BMT176919027.2,bus2=BMT4640724B.2,Phases=1,Linecode=CAB202_3_1_1,Length=0.130188000,Units=km
new line.SMT_1066951 bus1=BMT176919031.2,bus2=BMT176919032.2,Phases=1,Linecode=CAB202_3_1_1,Length=0.076014000,Units=km
new line.SMT_12108780 bus1=BMT176917044.1.2.3,bus2=BMT176917045.1.2.3,Phases=3,Linecode=CABA08_3_3_3,Length=0.023078000,Units=km
new line.SMT_12108781 bus1=BMT176917047.1.2.3,bus2=BMT176917048.1.2.3,Phases=3,Linecode=CABA08_3_3_3,Length=0.026162000,Units=km
new line.SMT_12146668 bus1=BMT176917697.3,bus2=BMT8742687B.3,Phases=1,Linecode=CAB202_3_1_1,Length=0.194721000,Units=km
new line.SMT_12146669 bus1=BMT8742687B.3,bus2=BMT176917699.3,Phases=1,Linecode=CAB202_3_1_1,Length=0.194721000,Units=km
new line.SMT_12181587 bus1=BMT176918414.3,bus2=BMT176918416.3,Phases=1,Linecode=CAB202_3_1_1,Length=0.162352000,Units=km
new line.SMT_12256890 bus1=BMT176919086.2,bus2=BMT8858648B.2,Phases=1,Linecode=CAB202_3_1_1,Length=0.330338000,Units=km
new line.SMT_12256891 bus1=BMT8858648B.2,bus2=BMT8858676B.2,Phases=1,Linecode=CAB202_3_1_1,Length=0.478496000,Units=km
new line.SMT_12256892 bus1=BMT8858676B.2,bus2=BMT8858677B.2,Phases=1,Linecode=CAB202_3_1_1,Length=0.044287000,Units=km
new line.SMT_12256893 bus1=BMT8858677B.2,bus2=BMT8858678B.2,Phases=1,Linecode=CAB202_3_1_1,Length=0.539850000,Units=km
new line.SMT_12256894 bus1=BMT8858678B.2,bus2=BMT8858679B.2,Phases=1,Linecode=CAB202_3_1_1,Length=0.056815000,Units=km
new line.SMT_12256895 bus1=BMT8858679B.2,bus2=BMT8858680B.2,Phases=1,Linecode=CAB202_3_1_1,Length=0.091691000,Units=km
new line.SMT_12256896 bus1=BMT8858680B.2,bus2=BMT8858682B.2,Phases=1,Linecode=CAB202_3_1_1,Length=0.327548000,Units=km
new line.SMT_12256897 bus1=BMT8858682B.2,bus2=BMT8858683B.2,Phases=1,Linecode=CAB202_3_1_1,Length=0.179045000,Units=km
new line.SMT_12256898 bus1=BMT8858683B.2,bus2=BMT8858684B.2,Phases=1,Linecode=CAB202_3_1_1,Length=0.221070000,Units=km
new line.SMT_12256899 bus1=BMT8858684B.2,bus2=BMT176919088.2,Phases=1,Linecode=CAB202_3_1_1,Length=0.112253000,Units=km
new line.SMT_12334771 bus1=BMT176919875.1.2.3,bus2=BMT4743491B.1.2.3,Phases=3,Linecode=CAB202_3_3_3,Length=0.034001000,Units=km
new line.SMT_12371355 bus1=BMT176918754.2,bus2=BMT8976175B.2,Phases=1,Linecode=CAB202_3_1_1,Length=0.092036000,Units=km