new line.CTR157770 bus1=BMT176919141.3,bus2=BMT176919142.3,Phases=1,LineCode=tieSwitch1,Length=0.001,Units=km,switch=T !numEQ NUMEQ:118223  - Data de conexão anterior06/2011.
new line.CTR189676 bus1=BMT176917336.1,bus2=BMT176919702.1,Phases=1,LineCode=tieSwitch1,Length=0.001,Units=km,switch=T !numEQ NUMEQ:61466  - Data de conexão anterior06/2011.
new line.CTR189683 bus1=BMT176918576.3,bus2=BMT176919614.3,Phases=1,LineCode=tieSwitch1,Length=0.001,Units=km,switch=T !numEQ NUMEQ:60826  - Data de conexão anterior06/2011.
new line.CTR189690 bus1=BMT176918593.1.2.3,bus2=BMT176918595.1.2.3,Phases=3,LineCode=tieSwitch,Length=0.001,Units=km,switch=T !numEQ NUMEQ:60747  - Data de conexão anterior06/2011.
new line.CTR189697 bus1=BMT176919329.3,bus2=BMT176919332.3,Phases=1,LineCode=tieSwitch1,Length=0.001,Units=km,switch=T !numEQ NUMEQ:45826  - Data de conexão anterior06/2011.
new line.CTR189704 bus1=BMT176918743.2,bus2=BMT176918753.2,Phases=1,LineCode=tieSwitch1,Length=0.001,Units=km,switch=T !numEQ NUMEQ:183362  - Data de conexão anterior06/2011.
new line.CTR189718 bus1=BMT176919429.1,bus2=BMT176919475.1,Phases=1,LineCode=tieSwitch1,Length=0.001,Units=km,switch=T !numEQ NUMEQ:62952  - Data de conexão anterior06/2011.
new line.CTR189739 bus1=BMT176919732.1.2.3,bus2=BMT179053269.1.2.3,Phases=3,LineCode=tieSwitch,Length=0.001,Units=km,switch=T !numEQ NUMEQ:60893  - Data de conexão anterior06/2011.
new line.CTR18988 bus1=BMT176918420.3,bus2=BMT176918464.3,Phases=1,LineCode=tieSwitch1,Length=0.001,Units=km,switch=T !numEQ NUMEQ:119713  - Data de conexão anterior06/2011.
new line.CTR189886 bus1=BMT176918541.1,bus2=BMT176918543.1,Phases=1,LineCode=tieSwitch1,Length=0.001,Units=km,switch=T !numEQ NUMEQ:257475  - Data de conexão anterior06/2011.
new line.CTR189893 bus1=BMT176918563.3,bus2=BMT176919680.3,Phases=1,LineCode=tieSwitch1,Length=0.001,Units=km,switch=T !numEQ NUMEQ:57960  - Data de conexão anterior06/2011.
new line.CTR189900 bus1=BMT176918646.1.2.3,bus2=BMT176919365.1.2.3,Phases=3,LineCode=tieSwitch,Length=0.001,Units=km,switch=T !numEQ NUMEQ:25492  - Data de conexão anterior06/2011.
new line.CTR189942 bus1=BMT176919728.1.2.3,bus2=BMT176919729.1.2.3,Phases=3,LineCode=tieSwitch,Length=0.001,Units=km,switch=T !numEQ NUMEQ:60892  - Data de conexão anterior06/2011.
new line.CTR189949 bus1=BMT176917108.1.2.3,bus2=BMT176917109.1.2.3,Phases=3,LineCode=tieSwitch,Length=0.001,Units=km,switch=T !numEQ NUMEQ:45467  - Data de conexão anterior06/2011.
new line.CTR18995 bus1=BMT176918465.3,bus2=BMT176918472.3,Phases=1,LineCode=tieSwitch1,Length=0.001,Units=km,switch=T !numEQ NUMEQ:57131  - Data de conexão anterior06/2011.
new line.CTR19002 bus1=BMT176918423.3,bus2=BMT176918445.3,Phases=1,LineCode=tieSwitch1,Length=0.001,Units=km,switch=T !numEQ NUMEQ:119714  - Data de conexão anterior06/2011.
new line.CTR19009 bus1=BMT176918424.3,bus2=BMT176918441.3,Phases=1,LineCode=tieSwitch1,Length=0.001,Units=km,switch=T !numEQ NUMEQ:119715  - Data de conexão anterior06/2011.
new line.CTR190145 bus1=BMT176918596.3,bus2=BMT176919387.3,Phases=1,LineCode=tieSwitch1,Length=0.001,Units=km,switch=T !numEQ NUMEQ:60306  - Data de conexão anterior06/2011.
new line.CTR190152 bus1=BMT176918661.1.2.3,bus2=BMT176918669.1.2.3,Phases=3,LineCode=tieSwitch,Length=0.001,Units=km,switch=T !numEQ NUMEQ:140403  - Data de conexão anterior06/2011.
new line.CTR190159 bus1=BMT176918671.3,bus2=BMT176919327.3,Phases=1,LineCode=tieSwitch1,Length=0.001,Units=km,switch=T !numEQ NUMEQ:140405  - Data de conexão anterior06/2011.
new line.CTR19016 bus1=BMT176917602.2,bus2=BMT176918199.2,Phases=1,LineCode=tieSwitch1,Length=0.001,Units=km,switch=T !numEQ NUMEQ:117887  - Data de conexão anterior06/2011.
new line.CTR190166 bus1=BMT176919517.3,bus2=BMT176919529.3,Phases=1,LineCode=tieSwitch1,Length=0.001,Units=km,switch=T !numEQ NUMEQ:45562  - Data de conexão anterior06/2011.
new line.CTR190173 bus1=BMT176917497.3,bus2=BMT176918221.3,Phases=1,LineCode=tieSwitch1,Length=0.001,Units=km,switch=T !numEQ NUMEQ:61988  - Data de conexão anterior06/2011.
new line.CTR190180 bus1=BMT176917888.1,bus2=BMT176917943.1,Phases=1,LineCode=tieSwitch1,Length=0.001,Units=km,switch=T !numEQ NUMEQ:61994  - Data de conexão anterior06/2011.
new line.CTR19023 bus1=BMT176917949.1,bus2=BMT176918030.1,Phases=1,LineCode=tieSwitch1,Length=0.001,Units=km,switch=T !numEQ NUMEQ:117889  - Data de conexão anterior06/2011.
new line.CTR19030 bus1=BMT176917960.1,bus2=BMT176917990.1,Phases=1,LineCode=tieSwitch1,Length=0.001,Units=km,switch=T !numEQ NUMEQ:118221  - Data de conexão anterior06/2011.
new line.CTR190334 bus1=BMT176918588.3,bus2=BMT179927609.3,Phases=1,LineCode=tieSwitch1,Length=0.001,Units=km,switch=T !numEQ NUMEQ:58455  - Data de conexão anterior06/2011.
new line.CTR190369 bus1=BMT176917472.1.2.3,bus2=BMT176917505.1.2.3,Phases=3,LineCode=tieSwitch,Length=0.001,Units=km,switch=T !numEQ NUMEQ:35818  - Data de conexão anterior06/2011.
new line.CTR19037 bus1=BMT176917642.2,bus2=BMT176917874.2,Phases=1,LineCode=tieSwitch1,Length=0.001,Units=km,switch=T !numEQ NUMEQ:117890  - Data de conexão anterior06/2011.
new line.CTR190383 bus1=BMT176918279.1.2.3,bus2=BMT176918282.1.2.3,Phases=3,LineCode=tieSwitch,Length=0.001,Units=km,switch=T !numEQ NUMEQ:45546  - Data de conexão anterior06/2011.
new line.CTR190390 bus1=BMT176918422.3,bus2=BMT176918449.3,Phases=1,LineCode=tieSwitch1,Length=0.001,Units=km,switch=T !numEQ NUMEQ:45568  - Data de conexão anterior06/2011.
new line.CTR190621 bus1=BMT176918529.1.2.3,bus2=BMT176918535.1.2.3,Phases=3,LineCode=tieSwitch,Length=0.001,Units=km,switch=T !numEQ NUMEQ:25297  - Data de conexão anterior06/2011.
new line.CTR190628 bus1=BMT176919341.1,bus2=BMT176919349.1,Phases=1,LineCode=tieSwitch1,Length=0.001,Units=km,switch=T !numEQ NUMEQ:144058  - Data de conexão anterior06/2011.
new line.CTR190635 bus1=BMT176918765.2,bus2=BMT176919057.2,Phases=1,LineCode=tieSwitch1,Length=0.001,Units=km,switch=T !numEQ NUMEQ:183367  - Data de conexão anterior06/2011.
new line.CTR190642 bus1=BMT176919189.3,bus2=BMT176919190.3,Phases=1,LineCode=tieSwitch1,Length=0.001,Units=km,switch=T !numEQ NUMEQ:45514  - Data de conexão anterior06/2011.
new line.CTR190656 bus1=BMT176919501.1,bus2=BMT176919565.1,Phases=1,LineCode=tieSwitch1,Length=0.001,Units=km,switch=T !numEQ NUMEQ:25320  - Data de conexão anterior06/2011.
new line.CTR190852 bus1=BMT176917337.1.2.3,bus2=BMT176917339.1.2.3,Phases=3,LineCode=tieSwitch,Length=0.001,Units=km,switch=T !numEQ NUMEQ:25295  - Data de conexão anterior06/2011.
new line.CTR190859 bus1=BMT176918540.3,bus2=BMT176919685.3,Phases=1,LineCode=tieSwitch1,Length=0.001,Units=km,switch=T !numEQ NUMEQ:60827  - Data de conexão anterior06/2011.
new line.CTR190866 bus1=BMT176918542.1.2.3,bus2=BMT179792624.1.2.3,Phases=3,LineCode=tieSwitch,Length=0.001,Units=km,switch=T !numEQ NUMEQ:60860  - Data de conexão anterior06/2011.
new line.CTR190873 bus1=BMT176918564.3,bus2=BMT176919675.3,Phases=1,LineCode=tieSwitch1,Length=0.001,Units=km,switch=T !numEQ NUMEQ:62527  - Data de conexão anterior06/2011.
new line.CTR190880 bus1=BMT176917102.1,bus2=BMT176917251.1,Phases=1,LineCode=tieSwitch1,Length=0.001,Units=km,switch=T !numEQ NUMEQ:25512  - Data de conexão anterior06/2011.
new line.CTR191062 bus1=BMT176917471.1,bus2=BMT176917501.1,Phases=1,LineCode=tieSwitch1,Length=0.001,Units=km,switch=T !numEQ NUMEQ:57071  - Data de conexão anterior06/2011.
new line.CTR191132 bus1=BMT176917275.1.2.3,bus2=BMT176917276.1.2.3,Phases=3,LineCode=tieSwitch,Length=0.001,Units=km,switch=T !numEQ NUMEQ:57140  - Data de conexão anterior06/2011.
new line.CTR191139 bus1=BMT176918589.1,bus2=BMT179799453.1,Phases=1,LineCode=tieSwitch1,Length=0.001,Units=km,switch=T !numEQ NUMEQ:286461  - Data de conexão anterior06/2011.
new line.CTR191146 bus1=BMT176919611.1.2.3,bus2=BMT176919612.1.2.3,Phases=3,LineCode=tieSwitch,Length=0.001,Units=km,switch=T !numEQ NUMEQ:45926  - Data de conexão anterior06/2011.
new line.CTR191160 bus1=BMT176917650.2,bus2=BMT179790117.2,Phases=1,LineCode=tieSwitch1,Length=0.001,Units=km,switch=T !numEQ NUMEQ:388807  - Data de conexão anterior06/2011.
new line.CTR191167 bus1=BMT176917679.3,bus2=BMT176917716.3,Phases=1,LineCode=tieSwitch1,Length=0.001,Units=km,switch=T !numEQ NUMEQ:25562  - Data de conexão anterior06/2011.
new line.CTR191174 bus1=BMT176918320.3,bus2=BMT176918350.3,Phases=1,LineCode=tieSwitch1,Length=0.001,Units=km,switch=T !numEQ NUMEQ:45691  - Data de conexão anterior06/2011.
new line.CTR12345 bus1=BMT176916776.1.2.3,bus2=BMT176916789.1.2.3,Phases=3,LineCode=tieSwitch,Length=0.001,Units=km,switch=T !numEQ NUMEQ:115834  - Data de conexão anterior06/2011.
new line.CTR12373 bus1=BMT176920024.3,bus2=BMT176920028.3,Phases=1,LineCode=tieSwitch1,Length=0.001,Units=km,switch=T !numEQ NUMEQ:115828  - Data de conexão anterior06/2011.
new line.CTR136882 bus1=BMT176919114.3,bus2=BMT176919208.3,Phases=1,LineCode=tieSwitch1,Length=0.001,Units=km,switch=T !numEQ NUMEQ:207472  - Data de conexão anterior06/2011.
new line.CTR15131 bus1=BMT176919507.1.2.3,bus2=BMT176919509.1.2.3,Phases=3,LineCode=tieSwitch,Length=0.001,Units=km,switch=T !numEQ NUMEQ:25317  - Data de conexão anterior06/2011.
new line.CTR178343 bus1=BMT176917485.1,bus2=BMT176918231.1,Phases=1,LineCode=tieSwitch1,Length=0.001,Units=km,switch=T !numEQ NUMEQ:101816  - Data de conexão anterior06/2011.
new line.CTR191804 bus1=BMT176918774.2,bus2=BMT176918776.2,Phases=1,LineCode=tieSwitch1,Length=0.001,Units=km,switch=T !numEQ NUMEQ:45585  - Data de conexão anterior06/2011.
new line.CTR191853 bus1=BMT176917294.1.2.3,bus2=BMT176917333.1.2.3,Phases=3,LineCode=tieSwitch,Length=0.001,Units=km,switch=T !numEQ NUMEQ:60861  - Data de conexão anterior06/2011.
new line.CTR191867 bus1=BMT176919127.3,bus2=BMT179798204.3,Phases=1,LineCode=tieSwitch1,Length=0.001,Units=km,switch=T !numEQ NUMEQ:207474  - Data de conexão anterior06/2011.
new line.CTR191944 bus1=BMT176918723.3,bus2=BMT176918724.3,Phases=1,LineCode=tieSwitch1,Length=0.001,Units=km,switch=T !numEQ NUMEQ:119227  - Data de conexão anterior06/2011.
new line.CTR192126 bus1=BMT176918538.1.2.3,bus2=BMT176919698.1.2.3,Phases=3,LineCode=tieSwitch,Length=0.001,Units=km,switch=T !numEQ NUMEQ:60829  - Data de conexão anterior06/2011.
new line.CTR192133 bus1=BMT176918566.1.2.3,bus2=BMT176918567.1.2.3,Phases=3,LineCode=tieSwitch,Length=0.001,Units=km,switch=T !numEQ NUMEQ:60830  - Data de conexão anterior06/2011.
new line.CTR192140 bus1=BMT176918590.1.2.3,bus2=BMT176919397.1.2.3,Phases=3,LineCode=tieSwitch,Length=0.001,Units=km,switch=T !numEQ NUMEQ:60755  - Data de conexão anterior06/2011.
new line.CTR192161 bus1=BMT179786519.3,bus2=BMT179786526.3,Phases=1,LineCode=tieSwitch1,Length=0.001,Units=km,switch=T !numEQ NUMEQ:57136  - Data de conexão anterior06/2011.
new line.CTR192168 bus1=BMT176917418.1,bus2=BMT176918361.1,Phases=1,LineCode=tieSwitch1,Length=0.001,Units=km,switch=T !numEQ NUMEQ:57128  - Data de conexão anterior06/2011.
new line.CTR192175 bus1=BMT176917614.2,bus2=BMT176918095.2,Phases=1,LineCode=tieSwitch1,Length=0.001,Units=km,switch=T !numEQ NUMEQ:307148  - Data de conexão anterior06/2011.
new line.CTR192196 bus1=BMT176917124.1.2.3,bus2=BMT176917126.1.2.3,Phases=3,LineCode=tieSwitch,Length=0.001,Units=km,switch=T !numEQ NUMEQ:45864  - Data de conexão anterior06/2011.
new line.CTR192322 bus1=BMT176917286.1,bus2=BMT176919812.1,Phases=1,LineCode=tieSwitch1,Length=0.001,Units=km,switch=T !numEQ NUMEQ:60498  - Data de conexão anterior06/2011.
new line.CTR192385 bus1=BMT176919496.1,bus2=BMT178960629.1,Phases=1,LineCode=tieSwitch1,Length=0.001,Units=km,switch=T !numEQ NUMEQ:369664  - Data de conexão anterior06/2011.
new line.CTR192392 bus1=BMT176919498.1,bus2=BMT176919567.1,Phases=1,LineCode=tieSwitch1,Length=0.001,Units=km,switch=T !numEQ NUMEQ:25322  - Data de conexão anterior06/2011.
new line.CTR192406 bus1=BMT176917601.2,bus2=BMT176918204.2,Phases=1,LineCode=tieSwitch1,Length=0.001,Units=km,switch=T !numEQ NUMEQ:136460  - Data de conexão anterior06/2011.
new line.CTR192420 bus1=BMT176917697.3,bus2=BMT176917708.3,Phases=1,LineCode=tieSwitch1,Length=0.001,Units=km,switch=T !numEQ NUMEQ:57110  - Data de conexão anterior06/2011.
new line.CTR192427 bus1=BMT176917698.3,bus2=BMT176917703.3,Phases=1,LineCode=tieSwitch1,Length=0.001,Units=km,switch=T !numEQ NUMEQ:62941  - Data de conexão anterior06/2011.
new line.CTR192434 bus1=BMT176916773.1.2.3,bus2=BMT176916942.1.2.3,Phases=3,LineCode=tieSwitch,Length=0.001,Units=km,switch=T !numEQ NUMEQ:169161  - Data de conexão anterior06/2011.
new line.CTR192511 bus1=BMT176917008.1.2.3,bus2=BMT176917010.1.2.3,Phases=3,LineCode=tieSwitch,Length=0.001,Units=km,switch=T !numEQ NUMEQ:57273  - Data de conexão anterior06/2011.
new line.CTR192672 bus1=BMT176917607.2,bus2=BMT176918138.2,Phases=1,LineCode=tieSwitch1,Length=0.001,Units=km,switch=T !numEQ NUMEQ:136462  - Data de conexão anterior06/2011.
new line.CTR192847 bus1=BMT176917129.1.2.3,bus2=BMT176917142.1.2.3,Phases=3,LineCode=tieSwitch,Length=0.001,Units=km,switch=T !numEQ NUMEQ:45468  - Data de conexão anterior06/2011.
new line.CTR192938 bus1=BMT176917422.1.2.3,bus2=BMT176917423.1.2.3,Phases=3,LineCode=tieSwitch,Length=0.001,Units=km,switch=T !numEQ NUMEQ:45513  - Data de conexão anterior06/2011.
new line.CTR192945 bus1=BMT176917465.1.2.3,bus2=BMT176917467.1.2.3,Phases=3,LineCode=tieSwitch,Length=0.001,Units=km,switch=T !numEQ NUMEQ:25490  - Data de conexão anterior06/2011.
new line.CTR192959 bus1=BMT176917512.2,bus2=BMT176917513.2,Phases=1,LineCode=tieSwitch1,Length=0.001,Units=km,switch=T !numEQ NUMEQ:45376  - Data de conexão anterior06/2011.
new line.CTR192973 bus1=BMT176917283.1.2.3,bus2=BMT176917327.1.2.3,Phases=3,LineCode=tieSwitch,Length=0.001,Units=km,switch=T !numEQ NUMEQ:189255  - Data de conexão anterior06/2011.
new line.CTR193596 bus1=BMT176916919.2,bus2=BMT176916920.2,Phases=1,LineCode=tieSwitch1,Length=0.001,Units=km,switch=T !numEQ NUMEQ:57837  - Data de conexão anterior06/2011.
new line.CTR212104 bus1=BMT176919436.1,bus2=BMT176919438.1,Phases=1,LineCode=tieSwitch1,Length=0.001,Units=km,switch=T !numEQ NUMEQ:136602  - Data de conexão anterior06/2011.
new line.CTR212426 bus1=BMT176918852.2,bus2=BMT176918969.2,Phases=1,LineCode=tieSwitch1,Length=0.001,Units=km,switch=T !numEQ NUMEQ:102610  - Data de conexão anterior06/2011.
new line.CTR213609 bus1=BMT176917264.1.2.3,bus2=BMT176917265.1.2.3,Phases=3,LineCode=tieSwitch,Length=0.001,Units=km,switch=T !numEQ NUMEQ:35838  - Data de conexão anterior06/2011.
new line.CTR213868 bus1=BMT176917419.3,bus2=BMT176918312.3,Phases=1,LineCode=tieSwitch1,Length=0.001,Units=km,switch=T !numEQ NUMEQ:283095  - Data de conexão anterior06/2011.
new line.CTR213987 bus1=BMT176917146.1,bus2=BMT176917156.1,Phases=1,LineCode=tieSwitch1,Length=0.001,Units=km,switch=T !numEQ NUMEQ:45705  - Data de conexão anterior06/2011.
new line.CTR233566 bus1=BMT176917033.1.2.3,bus2=BMT176917034.1.2.3,Phases=3,LineCode=tieSwitch,Length=0.001,Units=km,switch=T !numEQ NUMEQ:188479  - Data de conexão anterior06/2011.
new line.CTR234035 bus1=BMT176919980.1,bus2=BMT176919998.1,Phases=1,LineCode=tieSwitch1,Length=0.001,Units=km,switch=T !numEQ NUMEQ:188480  - Data de conexão anterior06/2011.
new line.CTR234980 bus1=BMT176917075.1.2.3,bus2=BMT176917076.1.2.3,Phases=3,LineCode=tieSwitch,Length=0.001,Units=km,switch=T !numEQ NUMEQ:140365  - Data de conexão anterior06/2011.
new line.CTR235029 bus1=BMT176918682.3,bus2=BMT176919220.3,Phases=1,LineCode=tieSwitch1,Length=0.001,Units=km,switch=T !numEQ NUMEQ:140410  - Data de conexão anterior06/2011.
new line.CTR235036 bus1=BMT176918272.1.2.3,bus2=BMT176918273.1.2.3,Phases=3,LineCode=tieSwitch,Length=0.001,Units=km,switch=T !numEQ NUMEQ:45731  - Data de conexão anterior06/2011.
new line.CTR235057 bus1=BMT176917274.2,bus2=BMT176919824.2,Phases=1,LineCode=tieSwitch1,Length=0.001,Units=km,switch=T !numEQ NUMEQ:57822  - Data de conexão anterior06/2011.
new line.CTR235113 bus1=BMT176919991.1.2.3,bus2=BMT176917043.1.2.3,Phases=3,LineCode=tieSwitch,Length=0.001,Units=km,switch=T !numEQ NUMEQ:188470  - Data de conexão anterior06/2011.
open line.CTR235113 term=1
new line.CTR235232 bus1=BMT176917105.1.2.3,bus2=BMT176917255.1.2.3,Phases=3,LineCode=tieSwitch,Length=0.001,Units=km,switch=T !numEQ NUMEQ:62578  - Data de conexão anterior06/2011.
new line.CTR235281 bus1=BMT176918675.3,bus2=BMT176919316.3,Phases=1,LineCode=tieSwitch1,Length=0.001,Units=km,switch=T !numEQ NUMEQ:140407  - Data de conexão anterior06/2011.
new line.CTR235344 bus1=BMT176918673.1.2.3,bus2=BMT176918674.1.2.3,Phases=3,LineCode=tieSwitch,Length=0.001,Units=km,switch=T !numEQ NUMEQ:140406  - Data de conexão anterior06/2011.
new line.CTR235372 bus1=BMT176917452.1,bus2=BMT176918255.1,Phases=1,LineCode=tieSwitch1,Length=0.001,Units=km,switch=T !numEQ NUMEQ:57113  - Data de conexão anterior06/2011.
new line.CTR130141 bus1=BMT176917199.2,bus2=BMT176917219.2,Phases=1,LineCode=tieSwitch1,Length=0.001,Units=km,switch=T !numEQ NUMEQ:119024  - Data de conexão anterior06/2011.
new line.CTR151757 bus1=BMT176917064.1,bus2=BMT176919900.1,Phases=1,LineCode=tieSwitch1,Length=0.001,Units=km,switch=T !numEQ NUMEQ:116803  - Data de conexão anterior06/2011.
new line.CTR15215 bus1=BMT176918862.2,bus2=BMT176918924.2,Phases=1,LineCode=tieSwitch1,Length=0.001,Units=km,switch=T !numEQ NUMEQ:106844  - Data de conexão anterior06/2011.
new line.CTR15222 bus1=BMT176918800.2,bus2=BMT176918809.2,Phases=1,LineCode=tieSwitch1,Length=0.001,Units=km,switch=T !numEQ NUMEQ:116049  - Data de conexão anterior06/2011.
new line.CTR187667 bus1=BMT176919400.2,bus2=BMT176919401.2,Phases=1,LineCode=tieSwitch1,Length=0.001,Units=km,switch=T !numEQ NUMEQ:62959  - Data de conexão anterior06/2011.
new line.CTR187702 bus1=BMT176917407.3,bus2=BMT176918365.3,Phases=1,LineCode=tieSwitch1,Length=0.001,Units=km,switch=T !numEQ NUMEQ:57124  - Data de conexão anterior06/2011.
new line.CTR18778 bus1=BMT176918421.3,bus2=BMT176918455.3,Phases=1,LineCode=tieSwitch1,Length=0.001,Units=km,switch=T !numEQ NUMEQ:119896  - Data de conexão anterior06/2011.
new line.CTR187926 bus1=BMT176918583.1.2.3,bus2=BMT176918584.1.2.3,Phases=3,LineCode=tieSwitch,Length=0.001,Units=km,switch=T !numEQ NUMEQ:189357  - Data de conexão anterior06/2011.
new line.CTR187968 bus1=BMT176917342.1.2.3,bus2=BMT176917343.1.2.3,Phases=3,LineCode=tieSwitch,Length=0.001,Units=km,switch=T !numEQ NUMEQ:25436  - Data de conexão anterior06/2011.
new line.CTR187975 bus1=BMT176918539.1.2.3,bus2=BMT176919696.1.2.3,Phases=3,LineCode=tieSwitch,Length=0.001,Units=km,switch=T !numEQ NUMEQ:57118  - Data de conexão anterior06/2011.
new line.CTR187982 bus1=BMT176919120.3,bus2=BMT177622725.3,Phases=1,LineCode=tieSwitch1,Length=0.001,Units=km,switch=T !numEQ NUMEQ:58287  - Data de conexão anterior06/2011.
new line.CTR187989 bus1=BMT179438783.2,bus2=BMT179438954.2,Phases=1,LineCode=tieSwitch1,Length=0.001,Units=km,switch=T !numEQ NUMEQ:388798  - Data de conexão anterior06/2011.
new line.CTR188864 bus1=BMT176918609.1.2.3,bus2=BMT178980545.1.2.3,Phases=3,LineCode=tieSwitch,Length=0.001,Units=km,switch=T !numEQ NUMEQ:60303  - Data de conexão anterior06/2011.
new line.CTR189102 bus1=BMT176917907.1,bus2=BMT176917908.1,Phases=1,LineCode=tieSwitch1,Length=0.001,Units=km,switch=T !numEQ NUMEQ:62804  - Data de conexão anterior06/2011.
new line.CTR189130 bus1=BMT176919986.3,bus2=BMT176919992.3,Phases=1,LineCode=tieSwitch1,Length=0.001,Units=km,switch=T !numEQ NUMEQ:188485  - Data de conexão anterior06/2011.
new line.CTR189137 bus1=BMT176919948.1.2.3,bus2=BMT176920017.1.2.3,Phases=3,LineCode=tieSwitch,Length=0.001,Units=km,switch=T !numEQ NUMEQ:188471  - Data de conexão anterior06/2011.
new line.CTR189144 bus1=BMT176919966.3,bus2=BMT176919970.3,Phases=1,LineCode=tieSwitch1,Length=0.001,Units=km,switch=T !numEQ NUMEQ:45706  - Data de conexão anterior06/2011.
new line.CTR189158 bus1=BMT176919343.1.2.3,bus2=BMT176919344.1.2.3,Phases=3,LineCode=tieSwitch,Length=0.001,Units=km,switch=T !numEQ NUMEQ:144059  - Data de conexão anterior06/2011.
new line.CTR189165 bus1=BMT176919184.3,bus2=BMT176919198.3,Phases=1,LineCode=tieSwitch1,Length=0.001,Units=km,switch=T !numEQ NUMEQ:25484  - Data de conexão anterior06/2011.
new line.CTR189172 bus1=BMT176917651.3,bus2=BMT176917838.3,Phases=1,LineCode=tieSwitch1,Length=0.001,Units=km,switch=T !numEQ NUMEQ:183504  - Data de conexão anterior06/2011.
new line.CTR189179 bus1=BMT176917203.2,bus2=BMT176917211.2,Phases=1,LineCode=tieSwitch1,Length=0.001,Units=km,switch=T !numEQ NUMEQ:45851  - Data de conexão anterior06/2011.
new line.CTR189347 bus1=BMT176919977.1.2.3,bus2=BMT178118498.1.2.3,Phases=3,LineCode=tieSwitch,Length=0.001,Units=km,switch=T !numEQ NUMEQ:188477  - Data de conexão anterior06/2011.
new line.CTR189354 bus1=BMT176919984.1,bus2=BMT176919994.1,Phases=1,LineCode=tieSwitch1,Length=0.001,Units=km,switch=T !numEQ NUMEQ:188483  - Data de conexão anterior06/2011.
new line.CTR189361 bus1=BMT176917269.1,bus2=BMT176919833.1,Phases=1,LineCode=tieSwitch1,Length=0.001,Units=km,switch=T !numEQ NUMEQ:57936  - Data de conexão anterior06/2011.
new line.CTR189375 bus1=BMT176918679.3,bus2=BMT179716587.3,Phases=1,LineCode=tieSwitch1,Length=0.001,Units=km,switch=T !numEQ NUMEQ:140408  - Data de conexão anterior06/2011.
new line.CTR189382 bus1=BMT176917379.1.2.3,bus2=BMT176917405.1.2.3,Phases=3,LineCode=tieSwitch,Length=0.001,Units=km,switch=T !numEQ NUMEQ:57127  - Data de conexão anterior06/2011.
new line.CTR189389 bus1=BMT176917731.3,bus2=BMT176917800.3,Phases=1,LineCode=tieSwitch1,Length=0.001,Units=km,switch=T !numEQ NUMEQ:45537  - Data de conexão anterior06/2011.
new line.CTR189620 bus1=BMT176917628.1,bus2=BMT179271509.1,Phases=1,LineCode=tieSwitch1,Length=0.001,Units=km,switch=T !numEQ NUMEQ:136468  - Data de conexão anterior06/2011.
new line.CTR208849 bus1=BMT176917179.1,bus2=BMT176917182.1,Phases=1,LineCode=tieSwitch1,Length=0.001,Units=km,switch=T !numEQ NUMEQ:62637  - Data de conexão anterior06/2011.
new line.CTR251927 bus1=BMT176918372.3,bus2=BMT176918385.3,Phases=1,LineCode=tieSwitch1,Length=0.001,Units=km,switch=T !numEQ NUMEQ:183296  - Data de conexão anterior06/2011.
new line.CTR252263 bus1=BMT176918276.1,bus2=BMT176918284.1,Phases=1,LineCode=tieSwitch1,Length=0.001,Units=km,switch=T !numEQ NUMEQ:170636  - Data de conexão anterior06/2011.
new line.CTR252270 bus1=BMT176917554.1,bus2=BMT176917559.1,Phases=1,LineCode=tieSwitch1,Length=0.001,Units=km,switch=T !numEQ NUMEQ:61978  - Data de conexão anterior06/2011.
new line.CTR252368 bus1=BMT176918003.1,bus2=BMT176918009.1,Phases=1,LineCode=tieSwitch1,Length=0.001,Units=km,switch=T !numEQ NUMEQ:199117  - Data de conexão anterior06/2011.
new line.CTR253313 bus1=BMT176917281.3,bus2=BMT176917313.3,Phases=1,LineCode=tieSwitch1,Length=0.001,Units=km,switch=T !numEQ NUMEQ:140045  - Data de conexão anterior06/2011.
new line.CTR253439 bus1=BMT176917280.1.2.3,bus2=BMT176917296.1.2.3,Phases=3,LineCode=tieSwitch,Length=0.001,Units=km,switch=T !numEQ NUMEQ:144936  - Data de conexão anterior06/2011.
new line.CTR253502 bus1=BMT176916975.1.2.3,bus2=BMT176916998.1.2.3,Phases=3,LineCode=tieSwitch,Length=0.001,Units=km,switch=T !numEQ NUMEQ:271613  - Data de conexão anterior06/2011.
new line.CTR254167 bus1=BMT176917088.1.2.3,bus2=BMT176917095.1.2.3,Phases=3,LineCode=tieSwitch,Length=0.001,Units=km,switch=T !numEQ NUMEQ:140366  - Data de conexão anterior06/2011.
new line.CTR254377 bus1=BMT176919802.1.2.3,bus2=BMT3577536.1.2.3,Phases=3,LineCode=tieSwitch,Length=0.001,Units=km,switch=T !numEQ NUMEQ:9992  - Data de conexão anterior06/2011.
open line.CTR254377 term=1
new line.CTR280228 bus1=BMT176919504.1,bus2=BMT176919561.1,Phases=1,LineCode=tieSwitch1,Length=0.001,Units=km,switch=T !numEQ NUMEQ:25321  - Data de conexão anterior06/2011.
new line.CTR281264 bus1=BMT176919051.2,bus2=BMT176919053.2,Phases=1,LineCode=tieSwitch1,Length=0.001,Units=km,switch=T !numEQ NUMEQ:203896  - Data de conexão anterior06/2011.
new line.CTR282776 bus1=BMT176917145.1,bus2=BMT176917189.1,Phases=1,LineCode=tieSwitch1,Length=0.001,Units=km,switch=T !numEQ NUMEQ:216840  - Data de conexão anterior06/2011.
new line.CTR320060 bus1=BMT176918570.1.2.3,bus2=BMT176918571.1.2.3,Phases=3,LineCode=tieSwitch,Length=0.001,Units=km,switch=T !numEQ NUMEQ:281634  - Data de conexão anterior06/2011.
new line.CTR321558 bus1=BMT176917769.3,bus2=BMT176917777.3,Phases=1,LineCode=tieSwitch1,Length=0.001,Units=km,switch=T !numEQ NUMEQ:221392  - Data de conexão anterior06/2011.
new line.CTR321782 bus1=BMT176918873.2,bus2=BMT176918908.2,Phases=1,LineCode=tieSwitch1,Length=0.001,Units=km,switch=T !numEQ NUMEQ:222989  - Data de conexão anterior06/2011.
new line.CTR376641 bus1=BMT176917369.3,bus2=BMT176918411.3,Phases=1,LineCode=tieSwitch1,Length=0.001,Units=km,switch=T !numEQ NUMEQ:281675  - Data de conexão anterior06/2011.
new line.CTR422071 bus1=BMT176919936.1.2.3,bus2=BMT176919938.1.2.3,Phases=3,LineCode=tieSwitch,Length=0.001,Units=km,switch=T !numEQ NUMEQ:298550  - Data de conexão anterior06/2011.
new line.CTR7060 bus1=BMT176916891.1,bus2=BMT176916900.1,Phases=1,LineCode=tieSwitch1,Length=0.001,Units=km,switch=T !numEQ NUMEQ:106831  - Data de conexão anterior06/2011.
new line.CTR79167 bus1=BMT176916868.1,bus2=BMT179104386.1,Phases=1,LineCode=tieSwitch1,Length=0.001,Units=km,switch=T !numEQ NUMEQ:369569  - Data de conexão anterior06/2011.
new line.CTR10672 bus1=BMT176919539.3,bus2=BMT176919545.3,Phases=1,LineCode=tieSwitch1,Length=0.001,Units=km,switch=T !numEQ NUMEQ:116996  - Data de conexão anterior06/2011.
new line.CTR163951 bus1=BMT176918768.2,bus2=BMT176919017.2,Phases=1,LineCode=tieSwitch1,Length=0.001,Units=km,switch=T !numEQ NUMEQ:183371  - Data de conexão anterior06/2011.
new line.CTR16426 bus1=BMT176918689.1,bus2=BMT176919111.1,Phases=1,LineCode=tieSwitch1,Length=0.001,Units=km,switch=T !numEQ NUMEQ:118226  - Data de conexão anterior06/2011.
new line.CTR16454 bus1=BMT176919510.1,bus2=BMT176919555.1,Phases=1,LineCode=tieSwitch1,Length=0.001,Units=km,switch=T !numEQ NUMEQ:115813  - Data de conexão anterior06/2011.
new line.CTR181444 bus1=BMT176919744.1.2.3,bus2=BMT176919745.1.2.3,Phases=3,LineCode=tieSwitch,Length=0.001,Units=km,switch=T !numEQ NUMEQ:60520  - Data de conexão anterior06/2011.
new line.CTR198006 bus1=BMT176919851.2,bus2=BMT176919854.2,Phases=1,LineCode=tieSwitch1,Length=0.001,Units=km,switch=T !numEQ NUMEQ:101656  - Data de conexão anterior06/2011.
new line.CTR198489 bus1=BMT176916732.1.2.3,bus2=BMT176916733.1.2.3,Phases=3,LineCode=tieSwitch,Length=0.001,Units=km,switch=T !numEQ NUMEQ:294640  - Data de conexão anterior06/2011.
new line.CTR198643 bus1=BMT176919029.2,bus2=BMT176919050.2,Phases=1,LineCode=tieSwitch1,Length=0.001,Units=km,switch=T !numEQ NUMEQ:170466  - Data de conexão anterior06/2011.
new line.CTR198650 bus1=BMT176918999.2,bus2=BMT176919003.2,Phases=1,LineCode=tieSwitch1,Length=0.001,Units=km,switch=T !numEQ NUMEQ:170467  - Data de conexão anterior06/2011.
new line.CTR220700 bus1=BMT176917287.2,bus2=BMT176917331.2,Phases=1,LineCode=tieSwitch1,Length=0.001,Units=km,switch=T !numEQ NUMEQ:60499  - Data de conexão anterior06/2011.
new line.CTR236597 bus1=BMT176917621.2,bus2=BMT176918071.2,Phases=1,LineCode=tieSwitch1,Length=0.001,Units=km,switch=T !numEQ NUMEQ:136467  - Data de conexão anterior06/2011.
new line.CTR237108 bus1=BMT176919775.1.2.3,bus2=BMT176919777.1.2.3,Phases=3,LineCode=tieSwitch,Length=0.001,Units=km,switch=T !numEQ NUMEQ:105553  - Data de conexão anterior06/2011.
new line.CTR262168 bus1=BMT176917065.1.2.3,bus2=BMT176919872.1.2.3,Phases=3,LineCode=tieSwitch,Length=0.001,Units=km,switch=T !numEQ NUMEQ:242543  - Data de conexão anterior06/2011.
new line.CTR262420 bus1=BMT176917299.1,bus2=BMT176917303.1,Phases=1,LineCode=tieSwitch1,Length=0.001,Units=km,switch=T !numEQ NUMEQ:144937  - Data de conexão anterior06/2011.
new line.CTR262826 bus1=BMT176917406.2,bus2=BMT176918387.2,Phases=1,LineCode=tieSwitch1,Length=0.001,Units=km,switch=T !numEQ NUMEQ:62458  - Data de conexão anterior06/2011.
new line.CTR263134 bus1=BMT176918152.2,bus2=BMT176918156.2,Phases=1,LineCode=tieSwitch1,Length=0.001,Units=km,switch=T !numEQ NUMEQ:63044  - Data de conexão anterior06/2011.
new line.CTR263141 bus1=BMT176917619.2,bus2=BMT176918091.2,Phases=1,LineCode=tieSwitch1,Length=0.001,Units=km,switch=T !numEQ NUMEQ:136466  - Data de conexão anterior06/2011.
new line.CTR263239 bus1=BMT176918784.2,bus2=BMT176918825.2,Phases=1,LineCode=tieSwitch1,Length=0.001,Units=km,switch=T !numEQ NUMEQ:169328  - Data de conexão anterior06/2011.
new line.CTR263680 bus1=BMT176917783.3,bus2=BMT176917786.3,Phases=1,LineCode=tieSwitch1,Length=0.001,Units=km,switch=T !numEQ NUMEQ:160444  - Data de conexão anterior06/2011.
new line.CTR264051 bus1=BMT176919099.2,bus2=BMT176919104.2,Phases=1,LineCode=tieSwitch1,Length=0.001,Units=km,switch=T !numEQ NUMEQ:169355  - Data de conexão anterior06/2011.
new line.CTR264058 bus1=BMT176919105.2,bus2=BMT176919107.2,Phases=1,LineCode=tieSwitch1,Length=0.001,Units=km,switch=T !numEQ NUMEQ:169356  - Data de conexão anterior06/2011.
new line.CTR264156 bus1=BMT176918110.2,bus2=BMT176918116.2,Phases=1,LineCode=tieSwitch1,Length=0.001,Units=km,switch=T !numEQ NUMEQ:170304  - Data de conexão anterior06/2011.
new line.CTR264177 bus1=BMT176917781.3,bus2=BMT176917791.3,Phases=1,LineCode=tieSwitch1,Length=0.001,Units=km,switch=T !numEQ NUMEQ:170615  - Data de conexão anterior06/2011.
new line.CTR264513 bus1=BMT176919022.2,bus2=BMT176919055.2,Phases=1,LineCode=tieSwitch1,Length=0.001,Units=km,switch=T !numEQ NUMEQ:189078  - Data de conexão anterior06/2011.
new line.CTR283518 bus1=BMT176917014.1.2.3,bus2=BMT178117442.1.2.3,Phases=3,LineCode=tieSwitch,Length=0.001,Units=km,switch=T !numEQ NUMEQ:217076  - Data de conexão anterior06/2011.
new line.CTR28627 bus1=BMT176916746.1.2.3,bus2=BMT176916747.1.2.3,Phases=3,LineCode=tieSwitch,Length=0.001,Units=km,switch=T !numEQ NUMEQ:243592  - Data de conexão anterior06/2011.