new load.3007188596M1 bus1=BMT176917096.1.2.3.0,Phases=3,kv=13.800000000,kW=13.79332,pf=0.92,Vminpu=0.93,Vmaxpu=1.5,model=1,daily=MT1_1,status=variable
new load.3009009186M1 bus1=BMT176918406.1.2.3.0,Phases=3,kv=13.800000000,kW=0.00152,pf=0.92,Vminpu=0.93,Vmaxpu=1.5,model=1,daily=MT1_1,status=variable
new load.3009011108M1 bus1=BMT176918406.1.2.3.0,Phases=3,kv=13.800000000,kW=0.00152,pf=0.92,Vminpu=0.93,Vmaxpu=1.5,model=1,daily=MT1_1,status=variable
new load.3009012913M1 bus1=BMT176919613.1.2.3.0,Phases=3,kv=13.800000000,kW=0.00152,pf=0.92,Vminpu=0.93,Vmaxpu=1.5,model=1,daily=MT1_1,status=variable
new load.3009014896M1 bus1=BMT176919613.1.2.3.0,Phases=3,kv=13.800000000,kW=0.00152,pf=0.92,Vminpu=0.93,Vmaxpu=1.5,model=1,daily=MT1_1,status=variable
new load.3009900252M1 bus1=BMT177559660.1.2.3.0,Phases=3,kv=13.800000000,kW=0.00152,pf=0.92,Vminpu=0.93,Vmaxpu=1.5,model=1,daily=MT1_1,status=variable
new load.3010263477M1 bus1=BMT176917330.1.2.3.0,Phases=3,kv=13.800000000,kW=0.00152,pf=0.92,Vminpu=0.93,Vmaxpu=1.5,model=1,daily=MT1_1,status=variable
new load.3010366777M1 bus1=BMT176918633.1.2.3.0,Phases=3,kv=13.800000000,kW=0.16654,pf=0.92,Vminpu=0.93,Vmaxpu=1.5,model=1,daily=MT3_1,status=variable
new load.3011209883M1 bus1=BMT176916955.1.2.3.0,Phases=3,kv=13.800000000,kW=89.64182,pf=0.92,Vminpu=0.93,Vmaxpu=1.5,model=1,daily=MT2_1,status=variable
new load.3013028421M1 bus1=BMT176920016.1.2.3.0,Phases=3,kv=13.800000000,kW=17.73914,pf=0.92,Vminpu=0.93,Vmaxpu=1.5,model=1,daily=MT2_1,status=variable
new load.3013629678M1 bus1=BMT176919315.1.2.3.0,Phases=3,kv=13.800000000,kW=0.1774,pf=0.92,Vminpu=0.93,Vmaxpu=1.5,model=1,daily=MT2_1,status=variable
new load.3014244122M1 bus1=BMT178997325.1.2.3.0,Phases=3,kv=13.800000000,kW=1.77404,pf=0.92,Vminpu=0.93,Vmaxpu=1.5,model=1,daily=MT1_1,status=variable
