! manter este comentario para compatibilidade do C#
new circuit.alimADOD03 bus1=BMT156188776.1.2.3,basekv=13.800000000,pu=1.040000000

