new line.TR12282975 bus1=BMT8885634B.1.2.3,bus2=BMT1908326B.1.2.3,Phases=3,Linecode=CAB202_3_3,Length=0.056934000,Units=km
new line.TR12282974 bus1=BMT8885633B.1.2.3,bus2=BMT8885634B.1.2.3,Phases=3,Linecode=CAB202_3_3,Length=0.045232000,Units=km
new line.TR12282972 bus1=BMT8885632B.1.2.3,bus2=BMT8885633B.1.2.3,Phases=3,Linecode=CAB202_3_3,Length=0.044932000,Units=km
new line.TR12282969 bus1=BMT166068309.1.2.3,bus2=BMT8885632B.1.2.3,Phases=3,Linecode=CAB202_3_3,Length=0.042069000,Units=km
new line.TR12282968 bus1=BMT8885629B.1.2.3,bus2=BMT3018533B.1.2.3,Phases=3,Linecode=CAB202_3_3,Length=0.019421000,Units=km
new line.TR12282967 bus1=BMT3018540B.1.2.3,bus2=BMT8885629B.1.2.3,Phases=3,Linecode=CAB202_3_3,Length=0.016647000,Units=km
new line.TR12278075 bus1=BMT8881075B.1.2.3,bus2=BMT3490634B.1.2.3,Phases=3,Linecode=CAB202_3_3,Length=0.069946000,Units=km
new line.TR12278074 bus1=BMT170972536.1.2.3,bus2=BMT8881075B.1.2.3,Phases=3,Linecode=CAB202_3_3,Length=0.048458000,Units=km
new line.TR12301610 bus1=BMT8903375B.1,bus2=BMT162532963.1,Phases=1,Linecode=CAB202_3_1,Length=0.086751000,Units=km
new line.TR12301609 bus1=BMT162532961.1,bus2=BMT8903375B.1,Phases=1,Linecode=CAB202_3_1,Length=0.135068000,Units=km
new line.TR12301606 bus1=BMT162532961.1,bus2=BMT162532962.1,Phases=1,Linecode=CAB202_3_1,Length=0.108366000,Units=km
new line.TR12301605 bus1=BMT1909089B.1,bus2=BMT162532961.1,Phases=1,Linecode=CAB202_3_1,Length=0.112497000,Units=km
new line.TR12297056 bus1=BMT174462513.3,bus2=BMT174462515.3,Phases=1,Linecode=CAB202_3_1,Length=0.112481000,Units=km
new line.TR12296444 bus1=BMT172709414.1.2.3,bus2=BMT172709415.1.2.3,Phases=3,Linecode=CAB202_3_3,Length=0.109814000,Units=km
new line.TR12291275 bus1=BMT156189605.1,bus2=BMT156189608.1,Phases=1,Linecode=CAB103_3_1,Length=0.080080000,Units=km
new line.TR12291273 bus1=BMT156189605.1.2.3,bus2=BMT156189607.1.2.3,Phases=3,Linecode=CAB202_3_3,Length=0.131410000,Units=km
new line.TR12291272 bus1=BMT2624230B.1.2.3,bus2=BMT156189605.1.2.3,Phases=3,Linecode=CAB202_3_3,Length=0.128298000,Units=km
new line.TR12290968 bus1=BMT8892806B.2,bus2=BMT2698353B.2,Phases=1,Linecode=CAB202_3_1,Length=0.167085000,Units=km
new line.TR12290967 bus1=BMT156191239.2,bus2=BMT8892806B.2,Phases=1,Linecode=CAB202_3_1,Length=0.003163000,Units=km
new line.TR12287189 bus1=BMT175311868.2,bus2=BMT175311869.2,Phases=1,Linecode=CAB202_3_1,Length=0.033036000,Units=km
new line.TR12287188 bus1=BMT3076885B.2,bus2=BMT175311868.2,Phases=1,Linecode=CAB202_3_1,Length=0.052114000,Units=km
new line.TR12284245 bus1=BMT159920383.1.2.3,bus2=BMT159920382.1.2.3,Phases=3,Linecode=CABA06_3_3,Length=0.035391000,Units=km
new line.TR12284242 bus1=BMT3019597B.1.2.3,bus2=BMT156162137.1.2.3,Phases=3,Linecode=CABA06_3_3,Length=0.033978000,Units=km
new line.TR12284241 bus1=BMT2862426B.1.2.3,bus2=BMT3019597B.1.2.3,Phases=3,Linecode=CABA06_3_3,Length=0.027319000,Units=km
new line.TR12284239 bus1=BMT72926B.1.2.3,bus2=BMT2862426B.1.2.3,Phases=3,Linecode=CABA06_3_3,Length=0.040171000,Units=km
new line.TR12284163 bus1=BMT8886863B.1.2.3,bus2=BMT169582582.1.2.3,Phases=3,Linecode=CAB204_3_3,Length=0.089578000,Units=km
new line.TR12284162 bus1=BMT8886864B.1.2.3,bus2=BMT8886863B.1.2.3,Phases=3,Linecode=CAB204_3_3,Length=0.082479000,Units=km
new line.TR12284161 bus1=BMT8886865B.1.2.3,bus2=BMT8886864B.1.2.3,Phases=3,Linecode=CAB204_3_3,Length=0.100150000,Units=km
new line.TR12284160 bus1=BMT8886866B.1.2.3,bus2=BMT8886865B.1.2.3,Phases=3,Linecode=CAB204_3_3,Length=0.113160000,Units=km
new line.TR12284159 bus1=BMT8886867B.1.2.3,bus2=BMT8886866B.1.2.3,Phases=3,Linecode=CAB204_3_3,Length=0.134563000,Units=km
new line.TR12284158 bus1=BMT169582581.1.2.3,bus2=BMT8886867B.1.2.3,Phases=3,Linecode=CAB204_3_3,Length=0.176274000,Units=km
new line.TR12284150 bus1=BMT169582581.3,bus2=BMT8886881B.3,Phases=1,Linecode=CAB103_3_1,Length=0.017893000,Units=km
new line.TR12284145 bus1=BMT169582592.1.2.3,bus2=BMT169582590.1.2.3,Phases=3,Linecode=CAB204_3_3,Length=0.088771000,Units=km
new line.TR12275010 bus1=BMT8878350B.1,bus2=BMT153931545.1,Phases=1,Linecode=CAB202_3_1,Length=0.385965000,Units=km
new line.TR12275008 bus1=BMT8878348B.1,bus2=BMT8878350B.1,Phases=1,Linecode=CAB202_3_1,Length=0.033279000,Units=km
new line.TR12275006 bus1=BMT8878260B.1,bus2=BMT8878348B.1,Phases=1,Linecode=CAB202_3_1,Length=0.045052000,Units=km
new line.TR12274925 bus1=BMT8878249B.1,bus2=BMT8878260B.1,Phases=1,Linecode=CAB202_3_1,Length=0.278286000,Units=km
new line.TR12274924 bus1=BMT8878241B.1,bus2=BMT8878249B.1,Phases=1,Linecode=CAB202_3_1,Length=0.455975000,Units=km
new line.TR12274923 bus1=BMT8878232B.1,bus2=BMT8878241B.1,Phases=1,Linecode=CAB202_3_1,Length=0.360154000,Units=km
new line.TR12274902 bus1=BMT8878219B.1,bus2=BMT8878232B.1,Phases=1,Linecode=CAB202_3_1,Length=0.181137000,Units=km
new line.TR12274896 bus1=BMT8878210B.1,bus2=BMT8878219B.1,Phases=1,Linecode=CAB202_3_1,Length=0.144227000,Units=km
new line.TR12274870 bus1=BMT153931544.1,bus2=BMT8878210B.1,Phases=1,Linecode=CAB202_3_1,Length=0.235923000,Units=km
new line.TR12271194 bus1=BMT161110182.1,bus2=BMT161110184.1,Phases=1,Linecode=CAB103_3_1,Length=0.050378000,Units=km
new line.TR12263513 bus1=BMT156191110.3,bus2=BMT156191119.3,Phases=1,Linecode=CAB103_3_1,Length=0.034066000,Units=km
new line.TR12256539 bus1=BMT159435084.1,bus2=BMT159435086.1,Phases=1,Linecode=CAB202_3_1,Length=0.296259000,Units=km
new line.TR12256353 bus1=BMT8857883B.1,bus2=BMT160783230.1,Phases=1,Linecode=CAB202_3_1,Length=0.260184000,Units=km
new line.TR12256352 bus1=BMT160783228.1,bus2=BMT8857883B.1,Phases=1,Linecode=CAB202_3_1,Length=0.233002000,Units=km
new line.TR12256343 bus1=BMT160783228.1,bus2=BMT160783229.1,Phases=1,Linecode=CAB202_3_1,Length=0.264760000,Units=km
new line.TR12256342 bus1=BMT160783224.1,bus2=BMT160783228.1,Phases=1,Linecode=CAB202_3_1,Length=0.060891000,Units=km
new line.TR12233546 bus1=BMT160405724.2,bus2=BMT160405726.2,Phases=1,Linecode=CAB202_3_1,Length=0.245207000,Units=km
new line.TR12137431 bus1=BMT8731099B.1,bus2=BMT8731100B.1,Phases=1,Linecode=CABA06_3_1,Length=0.037507000,Units=km
new line.TR12137428 bus1=BMT8731097B.1,bus2=BMT8731099B.1,Phases=1,Linecode=CABA06_3_1,Length=0.030835000,Units=km
new line.TR12137427 bus1=BMT8731094B.1,bus2=BMT8731097B.1,Phases=1,Linecode=CABA06_3_1,Length=0.028610000,Units=km
new line.TR12137425 bus1=BMT163087363.1,bus2=BMT8731094B.1,Phases=1,Linecode=CABA06_3_1,Length=0.036845000,Units=km
new line.TR12137423 bus1=BMT8731081B.1,bus2=BMT163087363.1,Phases=1,Linecode=CABA06_3_1,Length=0.036262000,Units=km
new line.TR12137420 bus1=BMT8731078B.1,bus2=BMT8731081B.1,Phases=1,Linecode=CABA06_3_1,Length=0.036248000,Units=km
new line.TR12137419 bus1=BMT8731077B.1,bus2=BMT8731078B.1,Phases=1,Linecode=CABA06_3_1,Length=0.039352000,Units=km
new line.TR12137418 bus1=BMT8731076B.1,bus2=BMT8731077B.1,Phases=1,Linecode=CABA06_3_1,Length=0.039140000,Units=km
new line.TR12137413 bus1=BMT163087362.1,bus2=BMT8731076B.1,Phases=1,Linecode=CABA06_3_1,Length=0.038412000,Units=km
new line.TR12326388 bus1=BMT174374035.2,bus2=BMT174374037.2,Phases=1,Linecode=CAB202_3_1,Length=0.240417000,Units=km
new line.TR12326382 bus1=BMT174374035.2,bus2=BMT174374036.2,Phases=1,Linecode=CAB202_3_1,Length=0.192221000,Units=km
new line.TR12326381 bus1=BMT3399725B.2,bus2=BMT174374035.2,Phases=1,Linecode=CAB202_3_1,Length=0.089524000,Units=km
new line.TR12322120 bus1=BMT156189372.3,bus2=BMT156189373.3,Phases=1,Linecode=CAB103_3_1,Length=0.050618000,Units=km
new line.TR12322115 bus1=BMT8922728B.3,bus2=BMT156189372.3,Phases=1,Linecode=CAB202_3_1,Length=0.127325000,Units=km
new line.TR12322111 bus1=BMT8922726B.3,bus2=BMT8922728B.3,Phases=1,Linecode=CAB202_3_1,Length=0.160759000,Units=km
new line.TR12322110 bus1=BMT156189371.3,bus2=BMT8922726B.3,Phases=1,Linecode=CAB202_3_1,Length=0.050027000,Units=km
new line.TR12322109 bus1=BMT176515977.3,bus2=BMT156189251.3,Phases=1,Linecode=CAB202_3_1,Length=0.112214000,Units=km
new line.TR12320996 bus1=BMT158879298.1,bus2=BMT158879302.1,Phases=1,Linecode=CAB103_3_1,Length=0.026006000,Units=km
new line.TR12319764 bus1=BMT156309144.2,bus2=BMT156309148.2,Phases=1,Linecode=CAB103_3_1,Length=0.030007000,Units=km
new line.TR12316085 bus1=BMT8917761B.1,bus2=BMT160832124.1,Phases=1,Linecode=CAB103_3_1,Length=0.008259000,Units=km
new line.TR12316084 bus1=BMT160832122.1,bus2=BMT8917761B.1,Phases=1,Linecode=CAB103_3_1,Length=0.005107000,Units=km
new line.TR12315668 bus1=BMT159920376.1,bus2=BMT159920378.1,Phases=1,Linecode=CAB103_3_1,Length=0.023266000,Units=km
new line.TR12315655 bus1=BMT8915332B.1.2.3,bus2=BMT159920377.1.2.3,Phases=3,Linecode=CAB204_3_3,Length=0.064335000,Units=km
new line.TR12315642 bus1=BMT8915329B.1.2.3,bus2=BMT8915332B.1.2.3,Phases=3,Linecode=CAB204_3_3,Length=0.190174000,Units=km
new line.TR12315639 bus1=BMT8915331B.1.2.3,bus2=BMT8915329B.1.2.3,Phases=3,Linecode=CAB204_3_3,Length=0.073608000,Units=km
new line.TR12315638 bus1=BMT8915325B.1.2.3,bus2=BMT8915331B.1.2.3,Phases=3,Linecode=CAB204_3_3,Length=0.071797000,Units=km
new line.TR12315637 bus1=BMT8915322B.1.2.3,bus2=BMT8915325B.1.2.3,Phases=3,Linecode=CAB204_3_3,Length=0.378030000,Units=km
new line.TR12315634 bus1=BMT8915319B.1.2.3,bus2=BMT8915322B.1.2.3,Phases=3,Linecode=CAB204_3_3,Length=0.254675000,Units=km
new line.TR12315633 bus1=BMT8915315B.1.2.3,bus2=BMT8915319B.1.2.3,Phases=3,Linecode=CAB204_3_3,Length=0.075627000,Units=km
new line.TR12315632 bus1=BMT8915314B.1.2.3,bus2=BMT8915315B.1.2.3,Phases=3,Linecode=CAB204_3_3,Length=0.068434000,Units=km
new line.TR12315631 bus1=BMT8915312B.1.2.3,bus2=BMT8915314B.1.2.3,Phases=3,Linecode=CAB204_3_3,Length=0.165307000,Units=km
new line.TR12315630 bus1=BMT159920376.1.2.3,bus2=BMT8915312B.1.2.3,Phases=3,Linecode=CAB204_3_3,Length=0.187922000,Units=km
new line.TR12315436 bus1=BMT159546431.1,bus2=BMT159546434.1,Phases=1,Linecode=CAB103_3_1,Length=0.072906000,Units=km
new line.TR12315320 bus1=BMT8917022B.1.2.3,bus2=BMT175039861.1.2.3,Phases=3,Linecode=CAB204_3_3,Length=0.158877000,Units=km
new line.TR12315319 bus1=BMT8915279B.1.2.3,bus2=BMT8917022B.1.2.3,Phases=3,Linecode=CAB204_3_3,Length=0.075903000,Units=km
new line.TR12315299 bus1=BMT8917016B.1.2.3,bus2=BMT8917017B.1.2.3,Phases=3,Linecode=CAB204_3_3,Length=0.119052000,Units=km
new line.TR12315274 bus1=BMT8886896B.1.2.3,bus2=BMT8915276B.1.2.3,Phases=3,Linecode=CAB204_3_3,Length=0.120722000,Units=km
new line.TR12315220 bus1=BMT8915275B.1.2.3,bus2=BMT8886896B.1.2.3,Phases=3,Linecode=CAB204_3_3,Length=0.111653000,Units=km
new line.TR12315213 bus1=BMT8915273B.1.2.3,bus2=BMT8915275B.1.2.3,Phases=3,Linecode=CAB204_3_3,Length=0.111140000,Units=km
new line.TR12315186 bus1=BMT8915272B.1.2.3,bus2=BMT8915273B.1.2.3,Phases=3,Linecode=CAB204_3_3,Length=0.174418000,Units=km
new line.TR12315185 bus1=BMT8916907B.1.2.3,bus2=BMT8915272B.1.2.3,Phases=3,Linecode=CAB204_3_3,Length=0.149499000,Units=km
new line.TR12315184 bus1=BMT175039860.1.2.3,bus2=BMT8916907B.1.2.3,Phases=3,Linecode=CAB204_3_3,Length=0.154907000,Units=km
new line.TR12315182 bus1=BMT169582592.1.2.3,bus2=BMT161137071.1.2.3,Phases=3,Linecode=CAB204_3_3,Length=0.139234000,Units=km
new line.TR12313364 bus1=BMT3471874B.1.2.3,bus2=BMT3471888B.1.2.3,Phases=3,Linecode=CAB204_3_3,Length=0.093370000,Units=km
new line.TR12313346 bus1=BMT156190099.1.2.3,bus2=BMT163226387.1.2.3,Phases=3,Linecode=CAB204_3_3,Length=0.044157000,Units=km
new line.TR12313345 bus1=BMT3385333B.1.2.3,bus2=BMT175571785.1.2.3,Phases=3,Linecode=CAB204_3_3,Length=0.043941000,Units=km
new line.TR12313335 bus1=BMT8915340B.1.2.3,bus2=BMT159920379.1.2.3,Phases=3,Linecode=CAB204_3_3,Length=0.032199000,Units=km
new line.TR12313334 bus1=BMT3019576B.1.2.3,bus2=BMT8915340B.1.2.3,Phases=3,Linecode=CAB204_3_3,Length=0.388569000,Units=km
new line.TR12313330 bus1=BMT159920377.2,bus2=BMT159920380.2,Phases=1,Linecode=CAB103_3_1,Length=0.014220000,Units=km
new line.TR12313329 bus1=BMT159920379.1.2.3,bus2=BMT159920377.1.2.3,Phases=3,Linecode=CAB204_3_3,Length=0.072844000,Units=km
new line.TR12313296 bus1=BMT1908102B.1.2.3,bus2=BMT159920376.1.2.3,Phases=3,Linecode=CAB204_3_3,Length=0.174132000,Units=km
new line.TR12313290 bus1=BMT8915297B.1.2.3,bus2=BMT8915296B.1.2.3,Phases=3,Linecode=CAB204_3_3,Length=0.396220000,Units=km
new line.TR12313289 bus1=BMT3408034B.1.2.3,bus2=BMT8915297B.1.2.3,Phases=3,Linecode=CAB204_3_3,Length=0.120135000,Units=km
new line.TR12313288 bus1=BMT8915296B.1.2.3,bus2=BMT175039864.1.2.3,Phases=3,Linecode=CAB204_3_3,Length=0.030073000,Units=km
new line.TR12313286 bus1=BMT8915295B.1.2.3,bus2=BMT2812838B.1.2.3,Phases=3,Linecode=CAB204_3_3,Length=0.297053000,Units=km
new line.TR12313285 bus1=BMT175039862.1.2.3,bus2=BMT8915295B.1.2.3,Phases=3,Linecode=CAB204_3_3,Length=0.029921000,Units=km
new line.TR12313284 bus1=BMT8915294B.1.2.3,bus2=BMT2812845B.1.2.3,Phases=3,Linecode=CAB204_3_3,Length=0.338316000,Units=km
new line.TR12313283 bus1=BMT2812838B.1.2.3,bus2=BMT8915294B.1.2.3,Phases=3,Linecode=CAB204_3_3,Length=0.149939000,Units=km
new line.TR12313217 bus1=BMT8915255B.1.2.3,bus2=BMT8915251B.1.2.3,Phases=3,Linecode=CAB204_3_3,Length=0.448122000,Units=km
new line.TR12313216 bus1=BMT156190218.1.2.3,bus2=BMT8915255B.1.2.3,Phases=3,Linecode=CAB204_3_3,Length=0.070110000,Units=km
new line.TR12313210 bus1=BMT8915247B.1,bus2=BMT169582585.1,Phases=1,Linecode=CAB202_3_1,Length=0.278314000,Units=km
new line.TR12313207 bus1=BMT169582582.1,bus2=BMT8915247B.1,Phases=1,Linecode=CAB202_3_1,Length=0.115941000,Units=km
new line.TR12313206 bus1=BMT8915245B.1.2.3,bus2=BMT169582584.1.2.3,Phases=3,Linecode=CAB204_3_3,Length=0.144376000,Units=km
new line.TR12313205 bus1=BMT169582582.1.2.3,bus2=BMT8915245B.1.2.3,Phases=3,Linecode=CAB204_3_3,Length=0.124927000,Units=km
new line.TR12313203 bus1=BMT8915243B.1.2.3,bus2=BMT169582581.1.2.3,Phases=3,Linecode=CAB204_3_3,Length=0.120245000,Units=km
new line.TR12313202 bus1=BMT169582578.1.2.3,bus2=BMT8915243B.1.2.3,Phases=3,Linecode=CAB204_3_3,Length=0.122475000,Units=km
new line.TR12313201 bus1=BMT156190207.1.2.3,bus2=BMT169582578.1.2.3,Phases=3,Linecode=CAB204_3_3,Length=0.141693000,Units=km
new line.TR12313197 bus1=BMT8915238B.1.2.3,bus2=BMT156190207.1.2.3,Phases=3,Linecode=CAB204_3_3,Length=0.077109000,Units=km
new line.TR12313196 bus1=BMT169582577.1.2.3,bus2=BMT8915238B.1.2.3,Phases=3,Linecode=CAB204_3_3,Length=0.070821000,Units=km
new line.TR12309943 bus1=BMT8910031B.1.2.3,bus2=BMT168383538.1.2.3,Phases=3,Linecode=CABA06_3_3,Length=0.037708000,Units=km
new line.TR12308079 bus1=BMT8910030B.1.2.3,bus2=BMT8910031B.1.2.3,Phases=3,Linecode=CABA06_3_3,Length=0.037924000,Units=km
new line.TR12308075 bus1=BMT168383536.1.2.3,bus2=BMT8910030B.1.2.3,Phases=3,Linecode=CABA06_3_3,Length=0.005131000,Units=km
new line.TR12308074 bus1=BMT168383536.1.2.3,bus2=BMT168383537.1.2.3,Phases=3,Linecode=CABA06_3_3,Length=0.026033000,Units=km
new line.TR12308073 bus1=BMT8910027B.1.2.3,bus2=BMT168383536.1.2.3,Phases=3,Linecode=CABA06_3_3,Length=0.022875000,Units=km
new line.TR12308071 bus1=BMT8910024B.1.2.3,bus2=BMT8910027B.1.2.3,Phases=3,Linecode=CABA06_3_3,Length=0.011085000,Units=km
new line.TR12308070 bus1=BMT8910024B.1.2.3,bus2=BMT8910026B.1.2.3,Phases=3,Linecode=CABA06_3_3,Length=0.007092000,Units=km
new line.TR12308069 bus1=BMT8910024B.1.2.3,bus2=BMT8910022B.1.2.3,Phases=3,Linecode=CABA06_3_3,Length=0.024495000,Units=km
new line.TR12308068 bus1=BMT8910021B.1.2.3,bus2=BMT8910024B.1.2.3,Phases=3,Linecode=CABA06_3_3,Length=0.008114000,Units=km
new line.TR12308066 bus1=BMT168383534.1.2.3,bus2=BMT8910021B.1.2.3,Phases=3,Linecode=CABA06_3_3,Length=0.037295000,Units=km
new line.TR12301975 bus1=BMT173262550.2,bus2=BMT173262551.2,Phases=1,Linecode=CAB103_3_1,Length=0.040009000,Units=km
new line.TR12301974 bus1=BMT173262548.2,bus2=BMT173262550.2,Phases=1,Linecode=CAB202_3_1,Length=0.109872000,Units=km
new line.TR12301973 bus1=BMT173262548.2,bus2=BMT173262549.2,Phases=1,Linecode=CAB202_3_1,Length=0.079596000,Units=km
new line.TR12301972 bus1=BMT173262545.2,bus2=BMT173262548.2,Phases=1,Linecode=CAB202_3_1,Length=0.200538000,Units=km
new line.TR12301734 bus1=BMT157170821.1,bus2=BMT172709140.1,Phases=1,Linecode=CAB202_3_1,Length=0.308466000,Units=km
new line.TR12333286 bus1=BMT156190342.1,bus2=BMT156190343.1,Phases=1,Linecode=CAB202_3_1,Length=0.029624000,Units=km
new line.TR12333282 bus1=BMT156190341.1,bus2=BMT156190342.1,Phases=1,Linecode=CAB202_3_1,Length=0.010828000,Units=km
new line.TR12328901 bus1=BMT175947191.2,bus2=BMT175947193.2,Phases=1,Linecode=CAB103_3_1,Length=0.010471000,Units=km
new line.TR12328900 bus1=BMT175947191.2,bus2=BMT175947192.2,Phases=1,Linecode=CAB202_3_1,Length=0.069345000,Units=km
new line.TR12328899 bus1=BMT175947189.2,bus2=BMT175947191.2,Phases=1,Linecode=CAB202_3_1,Length=0.061246000,Units=km
new line.TR12333287 bus1=BMT156190342.1,bus2=BMT156190344.1,Phases=1,Linecode=CAB202_3_1,Length=0.301041000,Units=km
new line.TR12336548 bus1=BMT176515970.3,bus2=BMT8938781B.3,Phases=1,Linecode=CAB202_3_1,Length=0.208305000,Units=km
new line.TR12336550 bus1=BMT8938781B.3,bus2=BMT176515974.3,Phases=1,Linecode=CAB202_3_1,Length=0.219909000,Units=km
new line.TR12337211 bus1=BMT174759290.1,bus2=BMT174759291.1,Phases=1,Linecode=CAB202_3_1,Length=0.226415000,Units=km
new line.TR12117036 bus1=BMT174462511.3,bus2=BMT174462538.3,Phases=1,Linecode=CAB103_3_1,Length=0.035629000,Units=km
new line.TR12117035 bus1=BMT174462511.3,bus2=BMT174462537.3,Phases=1,Linecode=CAB202_3_1,Length=0.037495000,Units=km
new line.TR12117034 bus1=BMT1918413B.3,bus2=BMT174462511.3,Phases=1,Linecode=CAB202_3_1,Length=0.022377000,Units=km
new line.TR12520975 bus1=BMT163363718.1,bus2=BMT163363721.1,Phases=1,Linecode=CAB103_3_1,Length=0.080720000,Units=km
new line.TR12367917 bus1=BMT157170884.1,bus2=BMT157170885.1,Phases=1,Linecode=CAB202_3_1,Length=0.324654000,Units=km
new line.TR12448344 bus1=BMT160014977.1,bus2=BMT160014981.1,Phases=1,Linecode=CAB202_3_1,Length=0.170691000,Units=km
new line.TR12233042 bus1=BMT75481B.1.2.3,bus2=BMT156191117.1.2.3,Phases=3,Linecode=CABA06_3_3,Length=0.025826000,Units=km
new line.TR12233041 bus1=BMT7543906B.1.2.3,bus2=BMT75481B.1.2.3,Phases=3,Linecode=CABA06_3_3,Length=0.026179000,Units=km
new line.TR12233040 bus1=BMT8834526B.1.2.3,bus2=BMT7543906B.1.2.3,Phases=3,Linecode=CABA06_3_3,Length=0.018389000,Units=km
new line.TR12233039 bus1=BMT156191115.1.2.3,bus2=BMT8834526B.1.2.3,Phases=3,Linecode=CABA06_3_3,Length=0.015144000,Units=km
new line.TR12221195 bus1=BMT156190583.2,bus2=BMT156190585.2,Phases=1,Linecode=CAB202_3_1,Length=0.201115000,Units=km
new line.TR12221193 bus1=BMT156190585.2,bus2=BMT156190587.2,Phases=1,Linecode=CAB202_3_1,Length=0.041119000,Units=km
new line.TR12221192 bus1=BMT1908739B.2,bus2=BMT156190585.2,Phases=1,Linecode=CAB202_3_1,Length=0.019110000,Units=km
new line.TR12217272 bus1=BMT8817480B.3,bus2=BMT163101022.3,Phases=1,Linecode=CAB202_3_1,Length=0.171207000,Units=km
new line.TR12217264 bus1=BMT8817479B.3,bus2=BMT8817480B.3,Phases=1,Linecode=CAB202_3_1,Length=0.109864000,Units=km
new line.TR12217262 bus1=BMT163101021.3,bus2=BMT8817479B.3,Phases=1,Linecode=CAB202_3_1,Length=0.118373000,Units=km
new line.TR12217260 bus1=BMT163101018.3,bus2=BMT163101021.3,Phases=1,Linecode=CAB103_3_1,Length=0.047309000,Units=km
new line.TR12214729 bus1=BMT8815160B.1.2.3,bus2=BMT163122603.1.2.3,Phases=3,Linecode=CABA06_3_3,Length=0.033023000,Units=km
new line.TR12214728 bus1=BMT8815159B.1.2.3,bus2=BMT8815160B.1.2.3,Phases=3,Linecode=CABA06_3_3,Length=0.036505000,Units=km
new line.TR12214727 bus1=BMT3009615B.1.2.3,bus2=BMT8815159B.1.2.3,Phases=3,Linecode=CABA06_3_3,Length=0.013042000,Units=km
new line.TR12214721 bus1=BMT72919B.1.2.3,bus2=BMT3009615B.1.2.3,Phases=3,Linecode=CABA06_3_3,Length=0.041494000,Units=km
new line.TR12214710 bus1=BMT72912B.1.2.3,bus2=BMT72919B.1.2.3,Phases=3,Linecode=CABA06_3_3,Length=0.034490000,Units=km
new line.TR12214708 bus1=BMT163122601.1.2.3,bus2=BMT72912B.1.2.3,Phases=3,Linecode=CABA06_3_3,Length=0.037345000,Units=km
new line.TR12191477 bus1=BMT8775854F.1.2.3,bus2=BMT8775855B.1.2.3,Phases=3,Linecode=CABA08_3_3,Length=0.037700000,Units=km
new line.TR12191476 bus1=BMT8778863D.1.2.3,bus2=BMT8775854F.1.2.3,Phases=3,Linecode=CABA08_3_3,Length=0.029863000,Units=km
new line.TR12185483 bus1=BMT168190175.1.2.3,bus2=BMT168190176.1.2.3,Phases=3,Linecode=CAB207_3_3,Length=0.074944000,Units=km
new line.TR12185480 bus1=BMT168190174.1.2.3,bus2=BMT168190175.1.2.3,Phases=3,Linecode=CABA08_3_3,Length=0.020883000,Units=km
new line.TR12185479 bus1=BMT8776034B.1.2.3,bus2=BMT156188789.1.2.3,Phases=3,Linecode=CABA08_3_3,Length=0.022558000,Units=km
new line.TR12185474 bus1=BMT156188785.1.2.3,bus2=BMT156188786.1.2.3,Phases=3,Linecode=CABA08_3_3,Length=0.025524000,Units=km
new line.TR12185455 bus1=BMT156188788.1.2.3,bus2=BMT8776034B.1.2.3,Phases=3,Linecode=CABA08_3_3,Length=0.025506000,Units=km
new line.TR12185452 bus1=BMT156188786.1.2.3,bus2=BMT156188788.1.2.3,Phases=3,Linecode=CABA08_3_3,Length=0.029635000,Units=km
new line.TR12185449 bus1=BMT8776047B.1.2.3,bus2=BMT156188783.1.2.3,Phases=3,Linecode=CABA08_3_3,Length=0.026506000,Units=km
new line.TR12185446 bus1=BMT8776049B.1.2.3,bus2=BMT8776047B.1.2.3,Phases=3,Linecode=CABA08_3_3,Length=0.025528000,Units=km
new line.TR12185437 bus1=BMT156188787.1.2.3,bus2=BMT156188786.1.2.3,Phases=3,Linecode=CABA06_3_3,Length=0.033379000,Units=km
new line.TR12185431 bus1=BMT8776066B.1.2.3,bus2=BMT160296971.1.2.3,Phases=3,Linecode=CABA06_3_3,Length=0.034071000,Units=km
new line.TR12185430 bus1=BMT8776067B.1.2.3,bus2=BMT8776066B.1.2.3,Phases=3,Linecode=CABA06_3_3,Length=0.032753000,Units=km
new line.TR12185429 bus1=BMT160296972.1.2.3,bus2=BMT8776067B.1.2.3,Phases=3,Linecode=CABA06_3_3,Length=0.031198000,Units=km
new line.TR12185411 bus1=BMT160296972.1.2.3,bus2=BMT160296974.1.2.3,Phases=3,Linecode=CAB104_3_3,Length=0.023646000,Units=km
new line.TR12185410 bus1=BMT8776078B.1.2.3,bus2=BMT160296972.1.2.3,Phases=3,Linecode=CAB104_3_3,Length=0.017069000,Units=km
new line.TR12185409 bus1=BMT131733B.1.2.3,bus2=BMT8776078B.1.2.3,Phases=3,Linecode=CAB104_3_3,Length=0.021500000,Units=km
new line.TR12185367 bus1=BMT8775945B.1.2.3,bus2=BMT159865142.1.2.3,Phases=3,Linecode=CABA08_3_3,Length=0.035667000,Units=km
new line.TR12185363 bus1=BMT159865141.1.2.3,bus2=BMT8775945B.1.2.3,Phases=3,Linecode=CABA08_3_3,Length=0.036291000,Units=km
new line.TR12185359 bus1=BMT159865141.1.2.3,bus2=BMT8776049B.1.2.3,Phases=3,Linecode=CABA08_3_3,Length=0.026978000,Units=km
new line.TR12185356 bus1=BMT8775924B.1.2.3,bus2=BMT159865141.1.2.3,Phases=3,Linecode=CABA08_3_3,Length=0.026978000,Units=km
new line.TR12185352 bus1=BMT159865139.1.2.3,bus2=BMT8775924B.1.2.3,Phases=3,Linecode=CABA08_3_3,Length=0.026978000,Units=km
new line.TR12185350 bus1=BMT8775903B.1.2.3,bus2=BMT159865140.1.2.3,Phases=3,Linecode=CABA08_3_3,Length=0.029110000,Units=km
new line.TR12185349 bus1=BMT8775901B.1.2.3,bus2=BMT8775903B.1.2.3,Phases=3,Linecode=CABA08_3_3,Length=0.028469000,Units=km
new line.TR12185344 bus1=BMT159865139.1.2.3,bus2=BMT8775901B.1.2.3,Phases=3,Linecode=CABA08_3_3,Length=0.036931000,Units=km
new line.TR12185343 bus1=BMT8775877B.1.2.3,bus2=BMT159865139.1.2.3,Phases=3,Linecode=CABA08_3_3,Length=0.026978000,Units=km
new line.TR12185342 bus1=BMT8775855B.1.2.3,bus2=BMT8775877B.1.2.3,Phases=3,Linecode=CABA08_3_3,Length=0.033424000,Units=km
new line.TR12185278 bus1=BMT159865138.1.2.3,bus2=BMT8778863D.1.2.3,Phases=3,Linecode=CABA08_3_3,Length=0.030614000,Units=km
new line.TR12185276 bus1=BMT8778865D.1.2.3,bus2=BMT159865138.1.2.3,Phases=3,Linecode=CABA08_3_3,Length=0.024947000,Units=km
new line.TR12185273 bus1=BMT159865137.1.2.3,bus2=BMT8778865D.1.2.3,Phases=3,Linecode=CABA08_3_3,Length=0.019956000,Units=km
new line.TR12185269 bus1=BMT8775772D.1.2.3,bus2=BMT159865136.1.2.3,Phases=3,Linecode=CABA08_3_3,Length=0.019313000,Units=km
new line.TR12185241 bus1=BMT2911027B.1.2.3,bus2=BMT8775772D.1.2.3,Phases=3,Linecode=CABA08_3_3,Length=0.019434000,Units=km
new line.TR12162814 bus1=BMT168918173.2,bus2=BMT168918175.2,Phases=1,Linecode=CAB103_3_1,Length=0.044609000,Units=km
new line.TR12162812 bus1=BMT168918174.1.2.3,bus2=BMT168918176.1.2.3,Phases=3,Linecode=CAB902_4_3,Length=0.012210000,Units=km
new line.TR12162804 bus1=BMT168918173.1.2.3,bus2=BMT168918174.1.2.3,Phases=3,Linecode=CAB204_3_3,Length=0.085166000,Units=km
new line.TR12162803 bus1=BMT8759283B.1.2.3,bus2=BMT168918173.1.2.3,Phases=3,Linecode=CAB204_3_3,Length=0.098206000,Units=km
new line.TR12162802 bus1=BMT8759282B.1.2.3,bus2=BMT8759283B.1.2.3,Phases=3,Linecode=CAB204_3_3,Length=0.112097000,Units=km
new line.TR12162801 bus1=BMT8759281B.1.2.3,bus2=BMT8759282B.1.2.3,Phases=3,Linecode=CAB204_3_3,Length=0.085166000,Units=km
new line.TR12162800 bus1=BMT8759280B.1.2.3,bus2=BMT8759281B.1.2.3,Phases=3,Linecode=CAB204_3_3,Length=0.195527000,Units=km
new line.TR12162798 bus1=BMT8759279B.1.2.3,bus2=BMT8759280B.1.2.3,Phases=3,Linecode=CAB204_3_3,Length=0.148116000,Units=km
new line.TR12162797 bus1=BMT168918171.1.2.3,bus2=BMT8759279B.1.2.3,Phases=3,Linecode=CAB204_3_3,Length=0.065306000,Units=km
new line.TR12162794 bus1=BMT168918168.1.2.3,bus2=BMT168918171.1.2.3,Phases=3,Linecode=CAB204_3_3,Length=0.022366000,Units=km
new line.TR12162793 bus1=BMT168918172.1.2.3,bus2=BMT168918171.1.2.3,Phases=3,Linecode=CAB204_3_3,Length=0.300742000,Units=km
new line.TR12155117 bus1=BMT175708606.1,bus2=BMT175708608.1,Phases=1,Linecode=CAB202_3_1,Length=0.124467000,Units=km
new line.TR12155113 bus1=BMT175708606.1,bus2=BMT175708607.1,Phases=1,Linecode=CAB202_3_1,Length=0.001420000,Units=km
new line.TR12155112 bus1=BMT3476550B.1,bus2=BMT175708606.1,Phases=1,Linecode=CAB202_3_1,Length=0.109000000,Units=km
new line.TR12141534 bus1=BMT174462514.3,bus2=BMT174462517.3,Phases=1,Linecode=CAB103_3_1,Length=0.030313000,Units=km
new line.TR12141528 bus1=BMT156191191.1.2.3,bus2=BMT156191192.1.2.3,Phases=3,Linecode=CAB103_3_3,Length=0.020398000,Units=km
new line.TR12141527 bus1=BMT8735416B.1.2.3,bus2=BMT156191190.1.2.3,Phases=3,Linecode=CAB202_3_3,Length=0.272726000,Units=km
new line.TR12141522 bus1=BMT8735413B.1.2.3,bus2=BMT8735416B.1.2.3,Phases=3,Linecode=CAB202_3_3,Length=0.119277000,Units=km
new line.TR12141521 bus1=BMT8735412B.1.2.3,bus2=BMT8735413B.1.2.3,Phases=3,Linecode=CAB202_3_3,Length=0.100306000,Units=km
new line.TR12141520 bus1=BMT176684104.1.2.3,bus2=BMT8735412B.1.2.3,Phases=3,Linecode=CAB202_3_3,Length=0.100021000,Units=km
new line.TR12141518 bus1=BMT176684104.1.2.3,bus2=BMT176684105.1.2.3,Phases=3,Linecode=CAB103_3_3,Length=0.015656000,Units=km
new line.TR12141516 bus1=BMT176684101.1.2.3,bus2=BMT176684104.1.2.3,Phases=3,Linecode=CAB202_3_3,Length=0.099349000,Units=km
new line.TR12137366 bus1=BMT156189425.1,bus2=BMT156189426.1,Phases=1,Linecode=CABA06_3_1,Length=0.034145000,Units=km
new line.TR12137365 bus1=BMT8731041B.1,bus2=BMT156189425.1,Phases=1,Linecode=CABA06_3_1,Length=0.029709000,Units=km
new line.TR12137363 bus1=BMT8731043B.1,bus2=BMT8731041B.1,Phases=1,Linecode=CABA06_3_1,Length=0.029709000,Units=km
new line.TR12137359 bus1=BMT176481144.1,bus2=BMT8731043B.1,Phases=1,Linecode=CABA06_3_1,Length=0.036755000,Units=km
new line.TR12137357 bus1=BMT176481142.1,bus2=BMT176481144.1,Phases=1,Linecode=CAB103_3_1,Length=0.008983000,Units=km
new line.TR12133491 bus1=BMT8727300B.1.2.3,bus2=BMT173201670.1.2.3,Phases=3,Linecode=CABA06_3_3,Length=0.034931000,Units=km
new line.TR12133490 bus1=BMT8727299B.1.2.3,bus2=BMT8727300B.1.2.3,Phases=3,Linecode=CABA06_3_3,Length=0.030813000,Units=km
new line.TR12133489 bus1=BMT173201669.1.2.3,bus2=BMT8727299B.1.2.3,Phases=3,Linecode=CABA06_3_3,Length=0.030813000,Units=km
new line.TR12133488 bus1=BMT8727297B.1.2.3,bus2=BMT171833484.1.2.3,Phases=3,Linecode=CABA06_3_3,Length=0.029418000,Units=km
new line.TR12133487 bus1=BMT73549B.1.2.3,bus2=BMT8727297B.1.2.3,Phases=3,Linecode=CABA06_3_3,Length=0.031264000,Units=km
new line.TR12133456 bus1=BMT4128166B.1.2.3,bus2=BMT73549B.1.2.3,Phases=3,Linecode=CABA06_3_3,Length=0.042429000,Units=km
new line.TR12133453 bus1=BMT8727291B.1.2.3,bus2=BMT4128166B.1.2.3,Phases=3,Linecode=CABA06_3_3,Length=0.029461000,Units=km
new line.TR12133452 bus1=BMT171837073.1.2.3,bus2=BMT8727291B.1.2.3,Phases=3,Linecode=CABA06_3_3,Length=0.005004000,Units=km
new line.TR12121513 bus1=BMT176481135.1,bus2=BMT176481136.1,Phases=1,Linecode=CAB202_3_1,Length=0.151653000,Units=km
new line.TR12116329 bus1=BMT8709234B.2,bus2=BMT163527131.2,Phases=1,Linecode=CAB202_3_1,Length=0.165353000,Units=km
new line.TR12116328 bus1=BMT8709233B.2,bus2=BMT8709234B.2,Phases=1,Linecode=CAB202_3_1,Length=0.164961000,Units=km
new line.TR12116327 bus1=BMT163527129.2,bus2=BMT8709233B.2,Phases=1,Linecode=CAB202_3_1,Length=0.135886000,Units=km
new line.TR119 bus1=BMT182B.1.2.3,bus2=BMT156188818.1.2.3,Phases=3,Linecode=CABA06_3_3,Length=0.019324000,Units=km
new line.TR112 bus1=BMT156188817.1.2.3,bus2=BMT182B.1.2.3,Phases=3,Linecode=CABA06_3_3,Length=0.024181000,Units=km
new line.TR105 bus1=BMT164842255.1.2.3,bus2=BMT156188816.1.2.3,Phases=3,Linecode=CABA06_3_3,Length=0.041262000,Units=km
new line.TR12636757 bus1=BMT167615237.1.2.3,bus2=BMT167615235.1.2.3,Phases=3,Linecode=CAB204_3_3,Length=0.043919000,Units=km
new line.TR12648559 bus1=BMT3216682B.1,bus2=BMT167994071.1,Phases=1,Linecode=CAB202_3_1,Length=0.039606000,Units=km
new line.TR12648560 bus1=BMT167994071.1,bus2=BMT167994072.1,Phases=1,Linecode=CAB202_3_1,Length=0.029154000,Units=km
new line.TR12648568 bus1=BMT167994071.1,bus2=BMT167994073.1,Phases=1,Linecode=CAB103_3_1,Length=0.015289000,Units=km
new line.TR12651384 bus1=BMT1913926B.3,bus2=BMT168090433.3,Phases=1,Linecode=CAB202_3_1,Length=0.045245000,Units=km
new line.TR12497741 bus1=BMT71358B.1.2.3,bus2=BMT162305274.1.2.3,Phases=3,Linecode=CABA06_3_3,Length=0.021195000,Units=km
new line.TR12497750 bus1=BMT162305413.1.2.3,bus2=BMT162305414.1.2.3,Phases=3,Linecode=CABA06_3_3,Length=0.000501000,Units=km
new line.TR12497753 bus1=BMT162305414.1.2.3,bus2=BMT162305415.1.2.3,Phases=3,Linecode=CAB609_5_3,Length=0.005101000,Units=km