new loadshape.c3012991722 npts=24,interval=1.0,mult=(1.033 0.947 0.937 0.925 0.938 0.972 0.942 0.985 0.999 0.981 0.957 0.992 1.018 1.032 1.018 1.043 1.04 1.038 1.037 1.035 1.035 1.034 1.029 1.034)
new generator.3012991722 bus1=BMT161803925.1.2.3,Phases=3,kv=13.800000000,kW=844.876478495,pf=0.95,model=1,daily=c3012991722,status=Fixed
