new load.3013102390M1 bus1=RML1010605775.1.0,Phases=1,kv=0.12,kW=0.74338,pf=0.92,Vminpu=0.92,Vmaxpu=1.5,model=8,zipv=[0.5,0,0.5,1,0,0,0],daily=RES1_6,status=variable
new load.3013119927M1 bus1=RML1010600792.2.0,Phases=1,kv=0.12,kW=0.76476,pf=0.92,Vminpu=0.92,Vmaxpu=1.5,model=8,zipv=[0.5,0,0.5,1,0,0,0],daily=RES2_6,status=variable
new load.3013122340M1 bus1=RML1010604659.2.0,Phases=1,kv=0.12,kW=0.63312,pf=0.92,Vminpu=0.92,Vmaxpu=1.5,model=8,zipv=[0.5,0,0.5,1,0,0,0],daily=RES2_6,status=variable
new load.3013174060M1 bus1=RML1010629772.1.0,Phases=1,kv=0.12,kW=0.6019,pf=0.92,Vminpu=0.92,Vmaxpu=1.5,model=8,zipv=[0.5,0,0.5,1,0,0,0],daily=RES2_7,status=variable
new load.3013280584M1 bus1=RML1010679934.1.0,Phases=1,kv=0.12,kW=0.74498,pf=0.92,Vminpu=0.92,Vmaxpu=1.5,model=8,zipv=[0.5,0,0.5,1,0,0,0],daily=RES2_10,status=variable
new load.3013407930M1 bus1=RML1010501291.2.0,Phases=1,kv=0.12,kW=1.00558,pf=0.92,Vminpu=0.92,Vmaxpu=1.5,model=8,zipv=[0.5,0,0.5,1,0,0,0],daily=RES2_12,status=variable
new load.3013588217M1 bus1=RML1010829201.2.0,Phases=1,kv=0.12,kW=1.50266,pf=0.92,Vminpu=0.92,Vmaxpu=1.5,model=8,zipv=[0.5,0,0.5,1,0,0,0],daily=RES1_15,status=variable
new load.3013831434M1 bus1=RML1010944202.2.0,Phases=1,kv=0.12,kW=0.09268,pf=0.92,Vminpu=0.92,Vmaxpu=1.5,model=8,zipv=[0.5,0,0.5,1,0,0,0],daily=RES1_19,status=variable
new load.3013792864M1 bus1=RML1010501291.2.0,Phases=1,kv=0.12,kW=0.49822,pf=0.92,Vminpu=0.92,Vmaxpu=1.5,model=8,zipv=[0.5,0,0.5,1,0,0,0],daily=RES2_23,status=variable
new load.3013819237M1 bus1=RML1010550190.2.0,Phases=1,kv=0.12,kW=0.5492,pf=0.92,Vminpu=0.92,Vmaxpu=1.5,model=8,zipv=[0.5,0,0.5,1,0,0,0],daily=RES2_23,status=variable
new load.3014167520M1 bus1=RML1011112683.2.0,Phases=1,kv=0.12,kW=0.58562,pf=0.92,Vminpu=0.92,Vmaxpu=1.5,model=8,zipv=[0.5,0,0.5,1,0,0,0],daily=RES3_11,status=variable
new load.3014179042M1 bus1=RML1011100375.1.0,Phases=1,kv=0.12,kW=0.6452,pf=0.92,Vminpu=0.92,Vmaxpu=1.5,model=8,zipv=[0.5,0,0.5,1,0,0,0],daily=RES2_10,status=variable
new load.3014276704M1 bus1=RML1011118830.2.0,Phases=1,kv=0.12,kW=0.7659,pf=0.92,Vminpu=0.92,Vmaxpu=1.5,model=8,zipv=[0.5,0,0.5,1,0,0,0],daily=RES2_21,status=variable
new load.3014288198M1 bus1=RML1011136298.1.2.0,Phases=2,kv=0.24,kW=0.00998,pf=0.92,Vminpu=0.92,Vmaxpu=1.5,model=8,zipv=[0.5,0,0.5,1,0,0,0],daily=RES1_11,status=variable
new load.3014046360M1 bus1=RML1011088519.1.0,Phases=1,kv=0.12,kW=0.2779,pf=0.92,Vminpu=0.92,Vmaxpu=1.5,model=8,zipv=[0.5,0,0.5,1,0,0,0],daily=RES2_1,status=variable
new load.3014061913M1 bus1=RML1011088869.2.0,Phases=1,kv=0.12,kW=0.82624,pf=0.92,Vminpu=0.92,Vmaxpu=1.5,model=8,zipv=[0.5,0,0.5,1,0,0,0],daily=RES2_2,status=variable
new load.3013783644M1 bus1=RML1010971300.2.0,Phases=1,kv=0.12,kW=0.12294,pf=0.92,Vminpu=0.92,Vmaxpu=1.5,model=8,zipv=[0.5,0,0.5,1,0,0,0],daily=RES1_18,status=variable
new load.3013713474M1 bus1=RML1010843606.1.0,Phases=1,kv=0.12,kW=0.9369,pf=0.92,Vminpu=0.92,Vmaxpu=1.5,model=8,zipv=[0.5,0,0.5,1,0,0,0],daily=RES3_17,status=variable
new load.3013760204M1 bus1=RML1010912495.1.0,Phases=1,kv=0.12,kW=0.13792,pf=0.92,Vminpu=0.92,Vmaxpu=1.5,model=8,zipv=[0.5,0,0.5,1,0,0,0],daily=RES1_18,status=variable
new load.3013847707M1 bus1=RML1010997792.2.0,Phases=1,kv=0.12,kW=0.31092,pf=0.92,Vminpu=0.92,Vmaxpu=1.5,model=8,zipv=[0.5,0,0.5,1,0,0,0],daily=RES1_19,status=variable
new load.3013916925M1 bus1=RML1010973776.1.0,Phases=1,kv=0.12,kW=0.33418,pf=0.92,Vminpu=0.92,Vmaxpu=1.5,model=8,zipv=[0.5,0,0.5,1,0,0,0],daily=RES2_27,status=variable
new load.3013626504M1 bus1=RML1010842366.2.0,Phases=1,kv=0.12,kW=0.32428,pf=0.92,Vminpu=0.92,Vmaxpu=1.5,model=8,zipv=[0.5,0,0.5,1,0,0,0],daily=RES2_18,status=variable
new load.3013709284M1 bus1=RML1010892915.1.0,Phases=1,kv=0.12,kW=0.85134,pf=0.92,Vminpu=0.92,Vmaxpu=1.5,model=8,zipv=[0.5,0,0.5,1,0,0,0],daily=RES2_20,status=variable
new load.3013691435M1 bus1=RML1010885115.2.0,Phases=1,kv=0.12,kW=0.37602,pf=0.92,Vminpu=0.92,Vmaxpu=1.5,model=8,zipv=[0.5,0,0.5,1,0,0,0],daily=RES1_17,status=variable
new load.3013631533M1 bus1=RML1010843606.1.0,Phases=1,kv=0.12,kW=0.82716,pf=0.92,Vminpu=0.92,Vmaxpu=1.5,model=8,zipv=[0.5,0,0.5,1,0,0,0],daily=RES2_18,status=variable
new load.3013640942M1 bus1=RML1010845951.1.2.0,Phases=2,kv=0.24,kW=0.42768,pf=0.92,Vminpu=0.92,Vmaxpu=1.5,model=8,zipv=[0.5,0,0.5,1,0,0,0],daily=RES2_18,status=variable
new load.3013663160M1 bus1=RML1010864975.2.0,Phases=1,kv=0.12,kW=0.65532,pf=0.92,Vminpu=0.92,Vmaxpu=1.5,model=8,zipv=[0.5,0,0.5,1,0,0,0],daily=RES2_19,status=variable
new load.3014325577M1 bus1=RML1011147374.1.0,Phases=1,kv=0.12,kW=0.57496,pf=0.92,Vminpu=0.92,Vmaxpu=1.5,model=8,zipv=[0.5,0,0.5,1,0,0,0],daily=RES1_14,status=variable
new load.3014332020M1 bus1=RML1011150328.1.0,Phases=1,kv=0.12,kW=0.22642,pf=0.92,Vminpu=0.92,Vmaxpu=1.5,model=8,zipv=[0.5,0,0.5,1,0,0,0],daily=RES1_15,status=variable
new load.3014360032M1 bus1=RML1011161376.1.0,Phases=1,kv=0.12,kW=0.69538,pf=0.92,Vminpu=0.92,Vmaxpu=1.5,model=8,zipv=[0.5,0,0.5,1,0,0,0],daily=RES1_17,status=variable
new load.3013421071M1 bus1=RML1010753781.2.0,Phases=1,kv=0.12,kW=1.21646,pf=0.92,Vminpu=0.92,Vmaxpu=1.5,model=8,zipv=[0.5,0,0.5,1,0,0,0],daily=RES2_13,status=variable
new load.3013055117M1 bus1=RML1010591184.1.0,Phases=1,kv=0.12,kW=1.87494,pf=0.92,Vminpu=0.92,Vmaxpu=1.5,model=8,zipv=[0.5,0,0.5,1,0,0,0],daily=RES1_5,status=variable
new load.3012600440M1 bus1=RML1010367667.1.2.0,Phases=2,kv=0.24,kW=0.5311,pf=0.92,Vminpu=0.92,Vmaxpu=1.5,model=8,zipv=[0.5,0,0.5,1,0,0,0],daily=RES2_1,status=variable
new load.3012596433M1 bus1=RML1010367496.1.2.0,Phases=2,kv=0.24,kW=0.4323,pf=0.92,Vminpu=0.92,Vmaxpu=1.5,model=8,zipv=[0.5,0,0.5,1,0,0,0],daily=RES2_1,status=variable
new load.3012644967M1 bus1=RML1010392415.1.2.0,Phases=2,kv=0.24,kW=1.16512,pf=0.92,Vminpu=0.92,Vmaxpu=1.5,model=8,zipv=[0.5,0,0.5,1,0,0,0],daily=RES1_1,status=variable
new load.3012630612M1 bus1=RML1010385761.2.0,Phases=1,kv=0.12,kW=0.809,pf=0.92,Vminpu=0.92,Vmaxpu=1.5,model=8,zipv=[0.5,0,0.5,1,0,0,0],daily=RES2_1,status=variable
new load.3012795639M1 bus1=RML1010465274.1.2.0,Phases=2,kv=0.24,kW=1.41828,pf=0.92,Vminpu=0.92,Vmaxpu=1.5,model=8,zipv=[0.5,0,0.5,1,0,0,0],daily=RES2_3,status=variable
new load.3012748592M1 bus1=RML1010444793.1.2.0,Phases=2,kv=0.24,kW=0.79706,pf=0.92,Vminpu=0.92,Vmaxpu=1.5,model=8,zipv=[0.5,0,0.5,1,0,0,0],daily=RES3_3,status=variable
new load.3012877291M1 bus1=RML1010501291.2.0,Phases=1,kv=0.12,kW=1.06786,pf=0.92,Vminpu=0.92,Vmaxpu=1.5,model=8,zipv=[0.5,0,0.5,1,0,0,0],daily=RES2_4,status=variable
new load.3012799876M1 bus1=RML1010244083.1.2.0,Phases=2,kv=0.24,kW=1.4443,pf=0.92,Vminpu=0.92,Vmaxpu=1.5,model=8,zipv=[0.5,0,0.5,1,0,0,0],daily=RES2_3,status=variable
new load.3013000552M1 bus1=RML1010954821.2.0,Phases=1,kv=0.12,kW=0.86386,pf=0.92,Vminpu=0.92,Vmaxpu=1.5,model=8,zipv=[0.5,0,0.5,1,0,0,0],daily=RES2_5,status=variable
new load.3013030756M1 bus1=RML1010501291.2.0,Phases=1,kv=0.12,kW=0.83162,pf=0.92,Vminpu=0.92,Vmaxpu=1.5,model=8,zipv=[0.5,0,0.5,1,0,0,0],daily=RES1_4,status=variable
new load.3013006938M1 bus1=RML1010550190.2.0,Phases=1,kv=0.12,kW=0.74046,pf=0.92,Vminpu=0.92,Vmaxpu=1.5,model=8,zipv=[0.5,0,0.5,1,0,0,0],daily=RES2_5,status=variable
new load.3011817965M1 bus1=RML1010116897.1.0,Phases=1,kv=0.12,kW=0.79,pf=0.92,Vminpu=0.92,Vmaxpu=1.5,model=8,zipv=[0.5,0,0.5,1,0,0,0],daily=RES2_7,status=variable
new load.3012089526M1 bus1=RML1010214953.2.0,Phases=1,kv=0.12,kW=0.7052,pf=0.92,Vminpu=0.92,Vmaxpu=1.5,model=8,zipv=[0.5,0,0.5,1,0,0,0],daily=RES2_13,status=variable
new load.3012000375M1 bus1=RML1010059455.2.0,Phases=1,kv=0.12,kW=0.72908,pf=0.92,Vminpu=0.92,Vmaxpu=1.5,model=8,zipv=[0.5,0,0.5,1,0,0,0],daily=RES1_11,status=variable
new load.3012348531M1 bus1=RML1010244083.1.2.0,Phases=2,kv=0.24,kW=1.08284,pf=0.92,Vminpu=0.92,Vmaxpu=1.5,model=8,zipv=[0.5,0,0.5,1,0,0,0],daily=RES2_21,status=variable
new load.3012344654M1 bus1=RML1010245839.1.0,Phases=1,kv=0.12,kW=0.94406,pf=0.92,Vminpu=0.92,Vmaxpu=1.5,model=8,zipv=[0.5,0,0.5,1,0,0,0],daily=RES2_20,status=variable
new load.3012344653M1 bus1=RML1010245821.2.0,Phases=1,kv=0.12,kW=1.66052,pf=0.92,Vminpu=0.92,Vmaxpu=1.5,model=8,zipv=[0.5,0,0.5,1,0,0,0],daily=RES2_20,status=variable
new load.3012308514M1 bus1=RML1010215890.1.0,Phases=1,kv=0.12,kW=1.02324,pf=0.92,Vminpu=0.92,Vmaxpu=1.5,model=8,zipv=[0.5,0,0.5,1,0,0,0],daily=RES2_19,status=variable
new load.3012291282M1 bus1=RML1010204226.1.0,Phases=1,kv=0.12,kW=0.77076,pf=0.92,Vminpu=0.92,Vmaxpu=1.5,model=8,zipv=[0.5,0,0.5,1,0,0,0],daily=RES2_18,status=variable
new load.3012272880M1 bus1=RML1010200611.1.0,Phases=1,kv=0.12,kW=0.50994,pf=0.92,Vminpu=0.92,Vmaxpu=1.5,model=8,zipv=[0.5,0,0.5,1,0,0,0],daily=RES1_17,status=variable
new load.3012231005M1 bus1=RML1010258368.1.0,Phases=1,kv=0.12,kW=0.53682,pf=0.92,Vminpu=0.92,Vmaxpu=1.5,model=8,zipv=[0.5,0,0.5,1,0,0,0],daily=RES2_17,status=variable
new load.3012575886M1 bus1=RML1010355982.1.2.0,Phases=2,kv=0.24,kW=0.37924,pf=0.92,Vminpu=0.92,Vmaxpu=1.5,model=8,zipv=[0.5,0,0.5,1,0,0,0],daily=RES2_28,status=variable
new load.3012534829M1 bus1=RML1010351483.1.0,Phases=1,kv=0.12,kW=0.30314,pf=0.92,Vminpu=0.92,Vmaxpu=1.5,model=8,zipv=[0.5,0,0.5,1,0,0,0],daily=RES2_27,status=variable
new load.3012560826M1 bus1=RML1010353793.1.0,Phases=1,kv=0.12,kW=0.38726,pf=0.92,Vminpu=0.92,Vmaxpu=1.5,model=8,zipv=[0.5,0,0.5,1,0,0,0],daily=RES2_28,status=variable
new load.3012441319M1 bus1=RML1010296860.1.0,Phases=1,kv=0.12,kW=0.80812,pf=0.92,Vminpu=0.92,Vmaxpu=1.5,model=8,zipv=[0.5,0,0.5,1,0,0,0],daily=RES2_23,status=variable
new load.3012392597M1 bus1=RML1010323235.1.2.0,Phases=2,kv=0.24,kW=0.1949,pf=0.92,Vminpu=0.92,Vmaxpu=1.5,model=8,zipv=[0.5,0,0.5,1,0,0,0],daily=RES1_18,status=variable
new load.3012390319M1 bus1=RML1010268692.1.0,Phases=1,kv=0.12,kW=0.37898,pf=0.92,Vminpu=0.92,Vmaxpu=1.5,model=8,zipv=[0.5,0,0.5,1,0,0,0],daily=RES2_22,status=variable
new load.3011293305M1 bus1=RML1006700222.1.0,Phases=1,kv=0.12,kW=0.58928,pf=0.92,Vminpu=0.92,Vmaxpu=1.5,model=8,zipv=[0.5,0,0.5,1,0,0,0],daily=RUR1_8,status=variable
new load.3012419487M1 bus1=RML1010286129.2.0,Phases=1,kv=0.12,kW=0.50998,pf=0.92,Vminpu=0.92,Vmaxpu=1.5,model=8,zipv=[0.5,0,0.5,1,0,0,0],daily=RES2_23,status=variable
new load.3013060867M1 bus1=RML1010591186.1.0,Phases=1,kv=0.12,kW=1.34148,pf=0.92,Vminpu=0.92,Vmaxpu=1.5,model=8,zipv=[0.5,0,0.5,1,0,0,0],daily=RES2_6,status=variable
new load.3012700792M1 bus1=RML1010423718.2.0,Phases=1,kv=0.12,kW=0.8478,pf=0.92,Vminpu=0.92,Vmaxpu=1.5,model=8,zipv=[0.5,0,0.5,1,0,0,0],daily=RES2_2,status=variable
new load.3012685183M1 bus1=RML1010411305.1.0,Phases=1,kv=0.12,kW=1.53752,pf=0.92,Vminpu=0.92,Vmaxpu=1.5,model=8,zipv=[0.5,0,0.5,1,0,0,0],daily=RES2_2,status=variable
new load.3012678062M1 bus1=RML1010409916.1.0,Phases=1,kv=0.12,kW=0.81906,pf=0.92,Vminpu=0.92,Vmaxpu=1.5,model=8,zipv=[0.5,0,0.5,1,0,0,0],daily=RES2_2,status=variable
new load.3013072655M1 bus1=RML1010581914.2.0,Phases=1,kv=0.12,kW=3.2352,pf=0.92,Vminpu=0.92,Vmaxpu=1.5,model=8,zipv=[0.5,0,0.5,1,0,0,0],daily=RES1_5,status=variable
new load.3013430979M1 bus1=RML1010756326.1.2.0,Phases=2,kv=0.24,kW=1.2114,pf=0.92,Vminpu=0.92,Vmaxpu=1.5,model=8,zipv=[0.5,0,0.5,1,0,0,0],daily=RES3_13,status=variable
new load.3013594042M1 bus1=RML1010822763.1.0,Phases=1,kv=0.12,kW=1.35452,pf=0.92,Vminpu=0.92,Vmaxpu=1.5,model=8,zipv=[0.5,0,0.5,1,0,0,0],daily=RES3_15,status=variable
new load.3013988091M1 bus1=RML1010756326.1.2.0,Phases=2,kv=0.24,kW=0.21904,pf=0.92,Vminpu=0.92,Vmaxpu=1.5,model=8,zipv=[0.5,0,0.5,1,0,0,0],daily=RES1_25,status=variable
new load.3013969359M1 bus1=RML1011077254.1.0,Phases=1,kv=0.12,kW=0.32702,pf=0.92,Vminpu=0.92,Vmaxpu=1.5,model=8,zipv=[0.5,0,0.5,1,0,0,0],daily=RES2_27,status=variable
new load.3014258968M1 bus1=RML1010581914.2.0,Phases=1,kv=0.12,kW=1.13678,pf=0.92,Vminpu=0.92,Vmaxpu=1.5,model=8,zipv=[0.5,0,0.5,1,0,0,0],daily=RES1_8,status=variable
new load.3014190022M1 bus1=RML1011106568.1.2.0,Phases=2,kv=0.24,kW=1.13746,pf=0.92,Vminpu=0.92,Vmaxpu=1.5,model=8,zipv=[0.5,0,0.5,1,0,0,0],daily=RES2_11,status=variable
new load.3014306919M1 bus1=RML1011139204.1.0,Phases=1,kv=0.12,kW=0.23258,pf=0.92,Vminpu=0.92,Vmaxpu=1.5,model=8,zipv=[0.5,0,0.5,1,0,0,0],daily=RES1_13,status=variable
new load.3014104088M1 bus1=RML1011092190.1.2.0,Phases=2,kv=0.24,kW=2.2906,pf=0.92,Vminpu=0.92,Vmaxpu=1.5,model=8,zipv=[0.5,0,0.5,1,0,0,0],daily=RES3_5,status=variable
new load.3013896942M1 bus1=RML1010997795.1.2.0,Phases=2,kv=0.24,kW=0.009,pf=0.92,Vminpu=0.92,Vmaxpu=1.5,model=8,zipv=[0.5,0,0.5,1,0,0,0],daily=RES1_21,status=variable
new load.3013858545M1 bus1=RML1010954765.1.2.0,Phases=2,kv=0.24,kW=1.3657,pf=0.92,Vminpu=0.92,Vmaxpu=1.5,model=8,zipv=[0.5,0,0.5,1,0,0,0],daily=RES4_19,status=variable
new load.3013702409M1 bus1=RML1010905600.1.2.0,Phases=2,kv=0.24,kW=0.9532,pf=0.92,Vminpu=0.92,Vmaxpu=1.5,model=8,zipv=[0.5,0,0.5,1,0,0,0],daily=RES3_17,status=variable
new load.3013394800M1 bus1=RML1010733092.1.2.0,Phases=2,kv=0.24,kW=1.30198,pf=0.92,Vminpu=0.92,Vmaxpu=1.5,model=8,zipv=[0.5,0,0.5,1,0,0,0],daily=RES2_12,status=variable
new load.3013070742M1 bus1=RML1010580205.1.2.0,Phases=2,kv=0.24,kW=0.97162,pf=0.92,Vminpu=0.92,Vmaxpu=1.5,model=8,zipv=[0.5,0,0.5,1,0,0,0],daily=RES2_6,status=variable
new load.3012556488M1 bus1=RML1010354136.1.2.0,Phases=2,kv=0.24,kW=0.80776,pf=0.92,Vminpu=0.92,Vmaxpu=1.5,model=8,zipv=[0.5,0,0.5,1,0,0,0],daily=RES3_20,status=variable
new load.3012514516M1 bus1=RML1010360635.1.2.0,Phases=2,kv=0.24,kW=0.83564,pf=0.92,Vminpu=0.92,Vmaxpu=1.5,model=8,zipv=[0.5,0,0.5,1,0,0,0],daily=RES1_24,status=variable
new load.3012482619M1 bus1=RML1010338096.1.2.0,Phases=2,kv=0.24,kW=0.65836,pf=0.92,Vminpu=0.92,Vmaxpu=1.5,model=8,zipv=[0.5,0,0.5,1,0,0,0],daily=RES2_25,status=variable
new load.3012162765M1 bus1=RML1010129748.1.2.0,Phases=2,kv=0.24,kW=1.00758,pf=0.92,Vminpu=0.92,Vmaxpu=1.5,model=8,zipv=[0.5,0,0.5,1,0,0,0],daily=RES2_15,status=variable
new load.3011952168M1 bus1=RML1010128244.1.2.0,Phases=2,kv=0.24,kW=1.14174,pf=0.92,Vminpu=0.92,Vmaxpu=1.5,model=8,zipv=[0.5,0,0.5,1,0,0,0],daily=RES3_11,status=variable
new load.3011696784M1 bus1=RML1006535918.1.2.0,Phases=2,kv=0.24,kW=1.19682,pf=0.92,Vminpu=0.92,Vmaxpu=1.5,model=8,zipv=[0.5,0,0.5,1,0,0,0],daily=RES5_7,status=variable
new load.3011501755M1 bus1=RML1010466102.1.2.0,Phases=2,kv=0.24,kW=3.66794,pf=0.92,Vminpu=0.92,Vmaxpu=1.5,model=8,zipv=[0.5,0,0.5,1,0,0,0],daily=RES5_5,status=variable
new load.3011332669M1 bus1=RML1005866557.1.2.0,Phases=2,kv=0.24,kW=0.56542,pf=0.92,Vminpu=0.92,Vmaxpu=1.5,model=8,zipv=[0.5,0,0.5,1,0,0,0],daily=RUR1_9,status=variable
new load.3011332666M1 bus1=RML1010816138.1.2.0,Phases=2,kv=0.24,kW=0.58526,pf=0.92,Vminpu=0.92,Vmaxpu=1.5,model=8,zipv=[0.5,0,0.5,1,0,0,0],daily=RUR1_9,status=variable
new load.3011292880M1 bus1=RML1006700215.1.0,Phases=1,kv=0.12,kW=0.05358,pf=0.92,Vminpu=0.92,Vmaxpu=1.5,model=8,zipv=[0.5,0,0.5,1,0,0,0],daily=RUR1_8,status=variable
new load.3013314474M1 bus1=RML1010695193.1.0,Phases=1,kv=0.12,kW=0.96448,pf=0.92,Vminpu=0.92,Vmaxpu=1.5,model=8,zipv=[0.5,0,0.5,1,0,0,0],daily=RES2_10,status=variable
new load.3013466168M1 bus1=RML1010773229.1.0,Phases=1,kv=0.12,kW=0.34332,pf=0.92,Vminpu=0.92,Vmaxpu=1.5,model=8,zipv=[0.5,0,0.5,1,0,0,0],daily=RES1_12,status=variable
new load.3013488319M1 bus1=RML1010814217.2.0,Phases=1,kv=0.12,kW=0.06344,pf=0.92,Vminpu=0.92,Vmaxpu=1.5,model=8,zipv=[0.5,0,0.5,1,0,0,0],daily=RES1_13,status=variable
new load.3013264195M1 bus1=RML1010679932.1.0,Phases=1,kv=0.12,kW=0.99108,pf=0.92,Vminpu=0.92,Vmaxpu=1.5,model=8,zipv=[0.5,0,0.5,1,0,0,0],daily=RES2_10,status=variable
new load.3013285456M1 bus1=RML1010689824.1.0,Phases=1,kv=0.12,kW=0.75164,pf=0.92,Vminpu=0.92,Vmaxpu=1.5,model=8,zipv=[0.5,0,0.5,1,0,0,0],daily=RES2_10,status=variable
new load.3013171140M1 bus1=RML1010629770.1.0,Phases=1,kv=0.12,kW=0.8577,pf=0.92,Vminpu=0.92,Vmaxpu=1.5,model=8,zipv=[0.5,0,0.5,1,0,0,0],daily=RES2_7,status=variable
new load.3013153411M1 bus1=RML1010622198.1.0,Phases=1,kv=0.12,kW=1.18876,pf=0.92,Vminpu=0.92,Vmaxpu=1.5,model=8,zipv=[0.5,0,0.5,1,0,0,0],daily=RES2_7,status=variable
new load.3013102895M1 bus1=RML1010605770.2.0,Phases=1,kv=0.12,kW=0.51402,pf=0.92,Vminpu=0.92,Vmaxpu=1.5,model=8,zipv=[0.5,0,0.5,1,0,0,0],daily=RES2_6,status=variable
new load.3013091396M1 bus1=RML1010598755.1.0,Phases=1,kv=0.12,kW=0.62058,pf=0.92,Vminpu=0.92,Vmaxpu=1.5,model=8,zipv=[0.5,0,0.5,1,0,0,0],daily=RES2_6,status=variable
new load.3012606364M1 bus1=RML1010371273.1.2.0,Phases=2,kv=0.24,kW=1.13014,pf=0.92,Vminpu=0.92,Vmaxpu=1.5,model=8,zipv=[0.5,0,0.5,1,0,0,0],daily=RES2_1,status=variable
new load.3012755433M1 bus1=RML1010453035.1.0,Phases=1,kv=0.12,kW=1.13518,pf=0.92,Vminpu=0.92,Vmaxpu=1.5,model=8,zipv=[0.5,0,0.5,1,0,0,0],daily=RES2_2,status=variable
new load.3012757369M1 bus1=RML1010461496.1.2.0,Phases=2,kv=0.24,kW=0.96274,pf=0.92,Vminpu=0.92,Vmaxpu=1.5,model=8,zipv=[0.5,0,0.5,1,0,0,0],daily=RES2_2,status=variable
new load.3012716242M1 bus1=RML1010429363.1.2.0,Phases=2,kv=0.24,kW=1.14236,pf=0.92,Vminpu=0.92,Vmaxpu=1.5,model=8,zipv=[0.5,0,0.5,1,0,0,0],daily=RES2_2,status=variable
new load.3012916417M1 bus1=RML1010543115.1.0,Phases=1,kv=0.12,kW=0.55892,pf=0.92,Vminpu=0.92,Vmaxpu=1.5,model=8,zipv=[0.5,0,0.5,1,0,0,0],daily=RES1_2,status=variable
new load.3012030219M1 bus1=RML1010176173.1.0,Phases=1,kv=0.12,kW=0.81312,pf=0.92,Vminpu=0.92,Vmaxpu=1.5,model=8,zipv=[0.5,0,0.5,1,0,0,0],daily=RES3_11,status=variable
new load.3012343025M1 bus1=RML1010245837.2.0,Phases=1,kv=0.12,kW=1.23908,pf=0.92,Vminpu=0.92,Vmaxpu=1.5,model=8,zipv=[0.5,0,0.5,1,0,0,0],daily=RES2_20,status=variable
new load.3012338169M1 bus1=RML1010228789.1.0,Phases=1,kv=0.12,kW=0.5226,pf=0.92,Vminpu=0.92,Vmaxpu=1.5,model=8,zipv=[0.5,0,0.5,1,0,0,0],daily=RES2_20,status=variable
new load.3012488166M1 bus1=RML1010338969.2.0,Phases=1,kv=0.12,kW=0.70508,pf=0.92,Vminpu=0.92,Vmaxpu=1.5,model=8,zipv=[0.5,0,0.5,1,0,0,0],daily=RES2_25,status=variable
new load.3012953840M1 bus1=RML1010550609.1.0,Phases=1,kv=0.12,kW=1.0476,pf=0.92,Vminpu=0.92,Vmaxpu=1.5,model=8,zipv=[0.5,0,0.5,1,0,0,0],daily=RES1_3,status=variable
new load.3012964484M1 bus1=RML1010531593.2.0,Phases=1,kv=0.12,kW=0.92558,pf=0.92,Vminpu=0.92,Vmaxpu=1.5,model=8,zipv=[0.5,0,0.5,1,0,0,0],daily=RES2_5,status=variable
new load.3012977381M1 bus1=RML1010537850.1.0,Phases=1,kv=0.12,kW=2.06762,pf=0.92,Vminpu=0.92,Vmaxpu=1.5,model=8,zipv=[0.5,0,0.5,1,0,0,0],daily=RES3_5,status=variable
new load.3012873610M1 bus1=RML1010501254.1.0,Phases=1,kv=0.12,kW=1.2061,pf=0.92,Vminpu=0.92,Vmaxpu=1.5,model=8,zipv=[0.5,0,0.5,1,0,0,0],daily=RES1_2,status=variable
new load.3012808739M1 bus1=RML1010484832.2.0,Phases=1,kv=0.12,kW=1.15804,pf=0.92,Vminpu=0.92,Vmaxpu=1.5,model=8,zipv=[0.5,0,0.5,1,0,0,0],daily=RES2_3,status=variable
new load.3012644123M1 bus1=RML1010390747.1.2.0,Phases=2,kv=0.24,kW=0.85224,pf=0.92,Vminpu=0.92,Vmaxpu=1.5,model=8,zipv=[0.5,0,0.5,1,0,0,0],daily=RES2_1,status=variable
new load.3012759807M1 bus1=RML1010453354.1.0,Phases=1,kv=0.12,kW=0.88372,pf=0.92,Vminpu=0.92,Vmaxpu=1.5,model=8,zipv=[0.5,0,0.5,1,0,0,0],daily=RES2_2,status=variable
new load.3012604932M1 bus1=RML1010377385.1.0,Phases=1,kv=0.12,kW=0.51876,pf=0.92,Vminpu=0.92,Vmaxpu=1.5,model=8,zipv=[0.5,0,0.5,1,0,0,0],daily=RES2_1,status=variable
new load.3012610472M1 bus1=RML1010374472.2.0,Phases=1,kv=0.12,kW=0.87694,pf=0.92,Vminpu=0.92,Vmaxpu=1.5,model=8,zipv=[0.5,0,0.5,1,0,0,0],daily=RES2_1,status=variable
new load.3012597773M1 bus1=RML1010367521.1.0,Phases=1,kv=0.12,kW=1.16102,pf=0.92,Vminpu=0.92,Vmaxpu=1.5,model=8,zipv=[0.5,0,0.5,1,0,0,0],daily=RES2_1,status=variable
new load.3012589962M1 bus1=RML1010364202.2.0,Phases=1,kv=0.12,kW=0.914,pf=0.92,Vminpu=0.92,Vmaxpu=1.5,model=8,zipv=[0.5,0,0.5,1,0,0,0],daily=RES2_1,status=variable
new load.3012590098M1 bus1=RML1010364187.2.0,Phases=1,kv=0.12,kW=0.69278,pf=0.92,Vminpu=0.92,Vmaxpu=1.5,model=8,zipv=[0.5,0,0.5,1,0,0,0],daily=RES1_1,status=variable
new load.3012636947M1 bus1=RML1010389035.1.2.0,Phases=2,kv=0.24,kW=3.70742,pf=0.92,Vminpu=0.92,Vmaxpu=1.5,model=8,zipv=[0.5,0,0.5,1,0,0,0],daily=RES4_2,status=variable
new load.3013153815M1 bus1=RML1010622202.1.0,Phases=1,kv=0.12,kW=0.8878,pf=0.92,Vminpu=0.92,Vmaxpu=1.5,model=8,zipv=[0.5,0,0.5,1,0,0,0],daily=RES2_7,status=variable
new load.3013133596M1 bus1=RML1010622191.1.0,Phases=1,kv=0.12,kW=2.06922,pf=0.92,Vminpu=0.92,Vmaxpu=1.5,model=8,zipv=[0.5,0,0.5,1,0,0,0],daily=RES3_7,status=variable
new load.3013293859M1 bus1=RML1010501254.1.0,Phases=1,kv=0.12,kW=0.87802,pf=0.92,Vminpu=0.92,Vmaxpu=1.5,model=8,zipv=[0.5,0,0.5,1,0,0,0],daily=RES2_10,status=variable
new load.3013236584M1 bus1=RML1010531593.2.0,Phases=1,kv=0.12,kW=0.74658,pf=0.92,Vminpu=0.92,Vmaxpu=1.5,model=8,zipv=[0.5,0,0.5,1,0,0,0],daily=RES2_9,status=variable
new load.3013185131M1 bus1=RML1010629471.2.0,Phases=1,kv=0.12,kW=3.12636,pf=0.92,Vminpu=0.92,Vmaxpu=1.5,model=8,zipv=[0.5,0,0.5,1,0,0,0],daily=RES3_8,status=variable
new load.3013186272M1 bus1=RML1010537850.1.0,Phases=1,kv=0.12,kW=1.1737,pf=0.92,Vminpu=0.92,Vmaxpu=1.5,model=8,zipv=[0.5,0,0.5,1,0,0,0],daily=RES2_7,status=variable
new load.3013404054M1 bus1=RML1010531593.2.0,Phases=1,kv=0.12,kW=1.02676,pf=0.92,Vminpu=0.92,Vmaxpu=1.5,model=8,zipv=[0.5,0,0.5,1,0,0,0],daily=RES2_12,status=variable
new load.3013472426M1 bus1=RML1010772907.2.0,Phases=1,kv=0.12,kW=2.69072,pf=0.92,Vminpu=0.92,Vmaxpu=1.5,model=8,zipv=[0.5,0,0.5,1,0,0,0],daily=RES4_15,status=variable
new load.3013270087M1 bus1=RML1010682753.1.0,Phases=1,kv=0.12,kW=0.93788,pf=0.92,Vminpu=0.92,Vmaxpu=1.5,model=8,zipv=[0.5,0,0.5,1,0,0,0],daily=RES2_10,status=variable
new load.3013327295M1 bus1=RML1010704007.2.0,Phases=1,kv=0.12,kW=0.93122,pf=0.92,Vminpu=0.92,Vmaxpu=1.5,model=8,zipv=[0.5,0,0.5,1,0,0,0],daily=RES2_10,status=variable
new load.3013417505M1 bus1=RML1010753779.1.0,Phases=1,kv=0.12,kW=0.88736,pf=0.92,Vminpu=0.92,Vmaxpu=1.5,model=8,zipv=[0.5,0,0.5,1,0,0,0],daily=RES2_13,status=variable
new load.3013393536M1 bus1=RML1010733090.1.0,Phases=1,kv=0.12,kW=0.75714,pf=0.92,Vminpu=0.92,Vmaxpu=1.5,model=8,zipv=[0.5,0,0.5,1,0,0,0],daily=RES3_12,status=variable
new load.3014408014M1 bus1=RML1010801471.2.0,Phases=1,kv=0.12,kW=0.03602,pf=0.92,Vminpu=0.92,Vmaxpu=1.5,model=8,zipv=[0.5,0,0.5,1,0,0,0],daily=RES1_21,status=variable
new load.3013644338M1 bus1=RML1010852342.2.0,Phases=1,kv=0.12,kW=0.71908,pf=0.92,Vminpu=0.92,Vmaxpu=1.5,model=8,zipv=[0.5,0,0.5,1,0,0,0],daily=RES2_18,status=variable
new load.3013634353M1 bus1=RML1010791498.1.2.0,Phases=2,kv=0.24,kW=0.67678,pf=0.92,Vminpu=0.92,Vmaxpu=1.5,model=8,zipv=[0.5,0,0.5,1,0,0,0],daily=RES2_18,status=variable
new load.3013693260M1 bus1=RML1010891008.1.0,Phases=1,kv=0.12,kW=1.07892,pf=0.92,Vminpu=0.92,Vmaxpu=1.5,model=8,zipv=[0.5,0,0.5,1,0,0,0],daily=RES2_20,status=variable
new load.3013712665M1 bus1=RML1010892914.1.2.0,Phases=2,kv=0.24,kW=1.37394,pf=0.92,Vminpu=0.92,Vmaxpu=1.5,model=8,zipv=[0.5,0,0.5,1,0,0,0],daily=RES2_20,status=variable
new load.3013721756M1 bus1=RML1010501254.1.0,Phases=1,kv=0.12,kW=0.66026,pf=0.92,Vminpu=0.92,Vmaxpu=1.5,model=8,zipv=[0.5,0,0.5,1,0,0,0],daily=RES2_21,status=variable
new load.3013603049M1 bus1=RML1010826076.1.0,Phases=1,kv=0.12,kW=0.01056,pf=0.92,Vminpu=0.92,Vmaxpu=1.5,model=8,zipv=[0.5,0,0.5,1,0,0,0],daily=RES1_16,status=variable
new load.3013520790M1 bus1=RML1010791498.1.2.0,Phases=2,kv=0.24,kW=1.58208,pf=0.92,Vminpu=0.92,Vmaxpu=1.5,model=8,zipv=[0.5,0,0.5,1,0,0,0],daily=RES2_15,status=variable
new load.3013532456M1 bus1=RML1010803941.2.0,Phases=1,kv=0.12,kW=0.94402,pf=0.92,Vminpu=0.92,Vmaxpu=1.5,model=8,zipv=[0.5,0,0.5,1,0,0,0],daily=RES3_14,status=variable
new load.3013542033M1 bus1=RML1010808934.1.0,Phases=1,kv=0.12,kW=0.56412,pf=0.92,Vminpu=0.92,Vmaxpu=1.5,model=8,zipv=[0.5,0,0.5,1,0,0,0],daily=RES1_14,status=variable
new load.3013547045M1 bus1=RML1010801471.2.0,Phases=1,kv=0.12,kW=0.77882,pf=0.92,Vminpu=0.92,Vmaxpu=1.5,model=8,zipv=[0.5,0,0.5,1,0,0,0],daily=RES3_14,status=variable
new load.3013557215M1 bus1=RML1010501254.1.0,Phases=1,kv=0.12,kW=0.56666,pf=0.92,Vminpu=0.92,Vmaxpu=1.5,model=8,zipv=[0.5,0,0.5,1,0,0,0],daily=RES2_16,status=variable
new load.3013821457M1 bus1=RML1010942390.2.0,Phases=1,kv=0.12,kW=0.40406,pf=0.92,Vminpu=0.92,Vmaxpu=1.5,model=8,zipv=[0.5,0,0.5,1,0,0,0],daily=RES2_23,status=variable
new load.3013803615M1 bus1=RML1010926248.1.0,Phases=1,kv=0.12,kW=0.22788,pf=0.92,Vminpu=0.92,Vmaxpu=1.5,model=8,zipv=[0.5,0,0.5,1,0,0,0],daily=RES1_18,status=variable
new load.3013943065M1 bus1=RML1010983575.1.2.0,Phases=2,kv=0.24,kW=0.58972,pf=0.92,Vminpu=0.92,Vmaxpu=1.5,model=8,zipv=[0.5,0,0.5,1,0,0,0],daily=RES1_23,status=variable
new load.3014288501M1 bus1=RML1011148242.1.0,Phases=1,kv=0.12,kW=0.56882,pf=0.92,Vminpu=0.92,Vmaxpu=1.5,model=8,zipv=[0.5,0,0.5,1,0,0,0],daily=RES2_23,status=variable
new load.3014236896M1 bus1=RML1011090068.2.0,Phases=1,kv=0.12,kW=0.8244,pf=0.92,Vminpu=0.92,Vmaxpu=1.5,model=8,zipv=[0.5,0,0.5,1,0,0,0],daily=RES2_17,status=variable
new load.3014201148M1 bus1=RML1010772907.2.0,Phases=1,kv=0.12,kW=1.19482,pf=0.92,Vminpu=0.92,Vmaxpu=1.5,model=8,zipv=[0.5,0,0.5,1,0,0,0],daily=RES1_5,status=variable
new load.3010894508M1 bus1=RML1005875181.1.0,Phases=1,kv=0.12,kW=0.55398,pf=0.92,Vminpu=0.92,Vmaxpu=1.5,model=8,zipv=[0.5,0,0.5,1,0,0,0],daily=RUR2_15,status=variable
new load.3011409918M1 bus1=RML1006069529.1.2.0,Phases=2,kv=0.24,kW=0.30832,pf=0.92,Vminpu=0.92,Vmaxpu=1.5,model=8,zipv=[0.5,0,0.5,1,0,0,0],daily=COM1_4,status=variable
new load.3011410993M1 bus1=RML1006068549.1.2.0,Phases=2,kv=0.24,kW=0.4014,pf=0.92,Vminpu=0.92,Vmaxpu=1.5,model=8,zipv=[0.5,0,0.5,1,0,0,0],daily=COM1_4,status=variable
new load.3011489391M1 bus1=RML1006211202.1.2.0,Phases=2,kv=0.24,kW=0.77838,pf=0.92,Vminpu=0.92,Vmaxpu=1.5,model=8,zipv=[0.5,0,0.5,1,0,0,0],daily=RUR1_10,status=variable
new load.3011498473M1 bus1=RML1006226140.1.2.0,Phases=2,kv=0.24,kW=0.02942,pf=0.92,Vminpu=0.92,Vmaxpu=1.5,model=8,zipv=[0.5,0,0.5,1,0,0,0],daily=RES1_2,status=variable
new load.3013332327M1 bus1=RML1010704003.1.2.0,Phases=2,kv=0.24,kW=0.97536,pf=0.92,Vminpu=0.92,Vmaxpu=1.5,model=8,zipv=[0.5,0,0.5,1,0,0,0],daily=RUR1_14,status=variable
new load.3011568079M1 bus1=RML1006327262.1.2.0,Phases=2,kv=0.24,kW=0.01364,pf=0.92,Vminpu=0.92,Vmaxpu=1.5,model=8,zipv=[0.5,0,0.5,1,0,0,0],daily=RUR1_11,status=variable
new load.3011564144M1 bus1=RML1006810374.1.2.0,Phases=2,kv=0.24,kW=0.93874,pf=0.92,Vminpu=0.92,Vmaxpu=1.5,model=8,zipv=[0.5,0,0.5,1,0,0,0],daily=RUR4_2,status=variable
new load.3011512207M1 bus1=RML1006356858.1.0,Phases=1,kv=0.12,kW=6.32956,pf=0.92,Vminpu=0.92,Vmaxpu=1.5,model=8,zipv=[0.5,0,0.5,1,0,0,0],daily=RES5_5,status=variable
new load.3004537718M1 bus1=RML1000342503.2.0,Phases=1,kv=0.127,kW=0.62756,pf=0.92,Vminpu=0.92,Vmaxpu=1.5,model=8,zipv=[0.5,0,0.5,1,0,0,0],daily=RES1_2,status=variable
new load.3004891761M1 bus1=RML1000342580.1.3.0,Phases=2,kv=0.22,kW=2.0253,pf=0.92,Vminpu=0.92,Vmaxpu=1.5,model=8,zipv=[0.5,0,0.5,1,0,0,0],daily=RES1_8,status=variable
new load.3005616893M1 bus1=RML1000342468.1.0,Phases=1,kv=0.127,kW=0.41672,pf=0.92,Vminpu=0.92,Vmaxpu=1.5,model=8,zipv=[0.5,0,0.5,1,0,0,0],daily=RES2_2,status=variable
new load.3005746274M1 bus1=RML1000342587.2.0,Phases=1,kv=0.127,kW=1.28672,pf=0.92,Vminpu=0.92,Vmaxpu=1.5,model=8,zipv=[0.5,0,0.5,1,0,0,0],daily=RES1_5,status=variable
new load.3005755922M1 bus1=RML1000342461.3.0,Phases=1,kv=0.127,kW=0.62266,pf=0.92,Vminpu=0.92,Vmaxpu=1.5,model=8,zipv=[0.5,0,0.5,1,0,0,0],daily=RES2_5,status=variable
new load.3005755923M1 bus1=RML1000342454.2.0,Phases=1,kv=0.127,kW=0.26364,pf=0.92,Vminpu=0.92,Vmaxpu=1.5,model=8,zipv=[0.5,0,0.5,1,0,0,0],daily=RES2_5,status=variable
new load.3002297002M1 bus1=RML1000342552.2.0,Phases=1,kv=0.127,kW=1.20702,pf=0.92,Vminpu=0.92,Vmaxpu=1.5,model=8,zipv=[0.5,0,0.5,1,0,0,0],daily=RES2_2,status=variable
new load.3002297003M1 bus1=RML1000342559.1.0,Phases=1,kv=0.127,kW=1.46568,pf=0.92,Vminpu=0.92,Vmaxpu=1.5,model=8,zipv=[0.5,0,0.5,1,0,0,0],daily=RES2_2,status=variable
new load.3002297062M1 bus1=RML1000342573.2.0,Phases=1,kv=0.127,kW=0.99868,pf=0.92,Vminpu=0.92,Vmaxpu=1.5,model=8,zipv=[0.5,0,0.5,1,0,0,0],daily=RES2_2,status=variable
new load.3002297063M1 bus1=RML1000342363.1.3.0,Phases=2,kv=0.22,kW=0.03684,pf=0.92,Vminpu=0.92,Vmaxpu=1.5,model=8,zipv=[0.5,0,0.5,1,0,0,0],daily=COM1_4,status=variable
new load.3002297064M1 bus1=RML1000342370.1.2.3.0,Phases=3,kv=0.22,kW=0.77594,pf=0.92,Vminpu=0.92,Vmaxpu=1.5,model=8,zipv=[0.5,0,0.5,1,0,0,0],daily=RES2_2,status=variable
new load.3002297065M1 bus1=RML1000342384.2.0,Phases=1,kv=0.127,kW=0.62756,pf=0.92,Vminpu=0.92,Vmaxpu=1.5,model=8,zipv=[0.5,0,0.5,1,0,0,0],daily=RES1_2,status=variable
new load.3002297066M1 bus1=RML1000342440.2.3.0,Phases=2,kv=0.22,kW=1.27474,pf=0.92,Vminpu=0.92,Vmaxpu=1.5,model=8,zipv=[0.5,0,0.5,1,0,0,0],daily=RES1_2,status=variable
new load.3002297067M1 bus1=RML1000342426.1.0,Phases=1,kv=0.127,kW=1.37946,pf=0.92,Vminpu=0.92,Vmaxpu=1.5,model=8,zipv=[0.5,0,0.5,1,0,0,0],daily=RES2_2,status=variable
new load.3002297068M1 bus1=RML1000342419.1.0,Phases=1,kv=0.127,kW=0.6107,pf=0.92,Vminpu=0.92,Vmaxpu=1.5,model=8,zipv=[0.5,0,0.5,1,0,0,0],daily=RES2_2,status=variable
new load.3002297069M1 bus1=RML1000342489.1.0,Phases=1,kv=0.127,kW=0.7041,pf=0.92,Vminpu=0.92,Vmaxpu=1.5,model=8,zipv=[0.5,0,0.5,1,0,0,0],daily=RES2_2,status=variable
new load.3002297070M1 bus1=RML1000342482.2.0,Phases=1,kv=0.127,kW=1.13518,pf=0.92,Vminpu=0.92,Vmaxpu=1.5,model=8,zipv=[0.5,0,0.5,1,0,0,0],daily=RES2_2,status=variable
new load.3002297071M1 bus1=RML1000342475.1.0,Phases=1,kv=0.127,kW=0.48856,pf=0.92,Vminpu=0.92,Vmaxpu=1.5,model=8,zipv=[0.5,0,0.5,1,0,0,0],daily=RES2_2,status=variable
new load.3002297072M1 bus1=RML1000342496.2.0,Phases=1,kv=0.127,kW=1.128,pf=0.92,Vminpu=0.92,Vmaxpu=1.5,model=8,zipv=[0.5,0,0.5,1,0,0,0],daily=RES2_2,status=variable
new load.3002297073M1 bus1=RML1000342510.1.0,Phases=1,kv=0.127,kW=0.16524,pf=0.92,Vminpu=0.92,Vmaxpu=1.5,model=8,zipv=[0.5,0,0.5,1,0,0,0],daily=RES2_2,status=variable