new line.10055037 bus1=BBT148885176.1.2.0,bus2=BBT148885177.1.2.0,Phases=2,Linecode=BT518_BT518_7_2_1,Length=0.000501000,Units=km
new line.10088973 bus1=BBT147584084.1.2.0,bus2=BBT147584091.1.2.0,Phases=2,Linecode=BT518_BT518_7_2_1,Length=0.000501000,Units=km
new line.10093012 bus1=BBT149688051.1.2.0,bus2=BBT149688052.1.2.0,Phases=2,Linecode=BT513_BT513_7_2_1,Length=0.000501000,Units=km
new line.147 bus1=BBT168.1.2.3.0,bus2=BBT161.1.2.3.0,Phases=3,Linecode=BT803_BT803_4_3_4,Length=0.030475000,Units=km
new line.149968 bus1=BBT146902.1.2.3.0,bus2=BBT146937.1.2.3.0,Phases=3,Linecode=BT803_BT803_4_3_4,Length=0.033071000,Units=km
new line.149975 bus1=BBT146909.1.2.3.0,bus2=BBT146902.1.2.3.0,Phases=3,Linecode=BT803_BT803_4_3_4,Length=0.039061000,Units=km
new line.149982 bus1=BBT146895.1.2.3.0,bus2=BBT146909.1.2.3.0,Phases=3,Linecode=BT518_BT518_7_3_1,Length=0.000501000,Units=km
new line.149989 bus1=BBT146909.1.2.3.0,bus2=BBT146916.1.2.3.0,Phases=3,Linecode=BT803_BT803_4_3_4,Length=0.035089000,Units=km
new line.149996 bus1=BBT146916.1.2.3.0,bus2=BBT146923.1.2.3.0,Phases=3,Linecode=BT803_BT803_4_3_4,Length=0.034238000,Units=km
new line.150003 bus1=BBT146923.1.2.3.0,bus2=BBT146930.1.2.3.0,Phases=3,Linecode=BT803_BT803_4_3_4,Length=0.033328000,Units=km
new line.154 bus1=BBT175.1.2.3.0,bus2=BBT168.1.2.3.0,Phases=3,Linecode=BT803_BT803_4_3_4,Length=0.030482000,Units=km
new line.155813 bus1=BBT153006.1.2.3.0,bus2=BBT153013.1.2.3.0,Phases=3,Linecode=BT518_BT518_7_3_1,Length=0.000501000,Units=km
new line.155820 bus1=BBT153013.1.2.3.0,bus2=BBT153020.1.2.3.0,Phases=3,Linecode=BT108_BT108_7_3_1,Length=0.039316000,Units=km
new line.155827 bus1=BBT153013.1.2.3.0,bus2=BBT153048.1.2.3.0,Phases=3,Linecode=BT108_BT108_7_3_1,Length=0.033462000,Units=km
new line.155834 bus1=BBT153020.1.2.3.0,bus2=BBT153027.1.2.3.0,Phases=3,Linecode=BT108_BT108_7_3_1,Length=0.036268000,Units=km
new line.155841 bus1=BBT153027.1.2.3.0,bus2=BBT153034.1.2.3.0,Phases=3,Linecode=BT108_BT108_7_3_1,Length=0.037026000,Units=km
new line.155848 bus1=BBT153034.1.2.3.0,bus2=BBT153041.1.2.3.0,Phases=3,Linecode=BT108_BT108_7_3_1,Length=0.036244000,Units=km
new line.155855 bus1=BBT153048.1.2.3.0,bus2=BBT153062.1.2.3.0,Phases=3,Linecode=BT107_BT107_7_3_1,Length=0.029502000,Units=km
new line.155862 bus1=BBT153048.1.2.3.0,bus2=BBT153055.1.2.3.0,Phases=3,Linecode=BT107_BT107_7_3_1,Length=0.008514000,Units=km
new line.155869 bus1=BBT153048.1.2.3.0,bus2=BBT153069.1.2.3.0,Phases=3,Linecode=BT108_BT108_7_3_1,Length=0.007815000,Units=km
new line.155876 bus1=BBT153055.1.2.3.0,bus2=BBT4858532.1.2.3.0,Phases=3,Linecode=BT107_BT107_7_3_1,Length=0.025079000,Units=km
new line.155883 bus1=BBT153069.1.2.3.0,bus2=BBT153076.1.2.3.0,Phases=3,Linecode=BT108_BT108_7_3_1,Length=0.031262000,Units=km
new line.155890 bus1=BBT153076.1.2.3.0,bus2=BBT153083.1.2.3.0,Phases=3,Linecode=BT108_BT108_7_3_1,Length=0.036724000,Units=km
new line.155897 bus1=BBT153083.1.2.3.0,bus2=BBT153090.1.2.3.0,Phases=3,Linecode=BT108_BT108_7_3_1,Length=0.037981000,Units=km
new line.155904 bus1=BBT153097.1.2.3.0,bus2=BBT153104.1.2.3.0,Phases=3,Linecode=BT518_BT518_7_3_1,Length=0.000501000,Units=km
new line.155911 bus1=BBT153104.1.2.3.0,bus2=BBT153111.1.2.3.0,Phases=3,Linecode=BT108_BT108_7_3_1,Length=0.037111000,Units=km
new line.155918 bus1=BBT153104.1.2.3.0,bus2=BBT153153.1.2.3.0,Phases=3,Linecode=BT108_BT108_7_3_1,Length=0.029457000,Units=km
new line.155925 bus1=BBT153111.1.2.3.0,bus2=BBT153118.1.2.3.0,Phases=3,Linecode=BT108_BT108_7_3_1,Length=0.032680000,Units=km
new line.155932 bus1=BBT153118.1.2.3.0,bus2=BBT153125.1.2.3.0,Phases=3,Linecode=BT108_BT108_7_3_1,Length=0.035617000,Units=km
new line.155939 bus1=BBT153125.1.2.3.0,bus2=BBT153132.1.2.3.0,Phases=3,Linecode=BT108_BT108_7_3_1,Length=0.037022000,Units=km
new line.155946 bus1=BBT153132.1.2.3.0,bus2=BBT153139.1.2.3.0,Phases=3,Linecode=BT107_BT107_7_3_1,Length=0.028608000,Units=km
new line.155953 bus1=BBT153132.1.2.3.0,bus2=BBT153146.1.2.3.0,Phases=3,Linecode=BT107_BT107_7_3_1,Length=0.022809000,Units=km
new line.155960 bus1=BBT153153.1.2.3.0,bus2=BBT153174.1.2.3.0,Phases=3,Linecode=BT107_BT107_7_3_1,Length=0.015635000,Units=km
new line.155967 bus1=BBT153153.1.2.3.0,bus2=BBT153160.1.2.3.0,Phases=3,Linecode=BT107_BT107_7_3_1,Length=0.008488000,Units=km
new line.155974 bus1=BBT153153.1.2.3.0,bus2=BBT153181.1.2.3.0,Phases=3,Linecode=BT108_BT108_7_3_1,Length=0.008563000,Units=km
new line.155981 bus1=BBT153160.1.2.3.0,bus2=BBT153167.1.2.3.0,Phases=3,Linecode=BT107_BT107_7_3_1,Length=0.026414000,Units=km
new line.155988 bus1=BBT153181.1.2.3.0,bus2=BBT153188.1.2.3.0,Phases=3,Linecode=BT108_BT108_7_3_1,Length=0.034366000,Units=km
new line.155995 bus1=BBT153188.1.2.3.0,bus2=BBT153195.1.2.3.0,Phases=3,Linecode=BT108_BT108_7_3_1,Length=0.033094000,Units=km
new line.156002 bus1=BBT153195.1.2.3.0,bus2=BBT153202.1.2.3.0,Phases=3,Linecode=BT108_BT108_7_3_1,Length=0.037188000,Units=km
new line.156009 bus1=BBT153209.1.2.3.0,bus2=BBT153216.1.2.3.0,Phases=3,Linecode=BT518_BT518_7_3_1,Length=0.000503000,Units=km
new line.156016 bus1=BBT153216.1.2.3.0,bus2=BBT153223.1.2.3.0,Phases=3,Linecode=BT108_BT108_7_3_1,Length=0.034286000,Units=km
new line.156023 bus1=BBT153216.1.2.3.0,bus2=BBT153265.1.2.3.0,Phases=3,Linecode=BT108_BT108_7_3_1,Length=0.031894000,Units=km
new line.156030 bus1=BBT153223.1.2.3.0,bus2=BBT153230.1.2.3.0,Phases=3,Linecode=BT108_BT108_7_3_1,Length=0.034067000,Units=km
new line.156037 bus1=BBT153230.1.2.3.0,bus2=BBT153237.1.2.3.0,Phases=3,Linecode=BT108_BT108_7_3_1,Length=0.035617000,Units=km
new line.156044 bus1=BBT153237.1.2.3.0,bus2=BBT153244.1.2.3.0,Phases=3,Linecode=BT108_BT108_7_3_1,Length=0.036133000,Units=km
new line.156051 bus1=BBT153244.1.2.3.0,bus2=BBT153251.1.2.3.0,Phases=3,Linecode=BT107_BT107_7_3_1,Length=0.025619000,Units=km
new line.156058 bus1=BBT153244.1.2.3.0,bus2=BBT153258.1.2.3.0,Phases=3,Linecode=BT107_BT107_7_3_1,Length=0.026426000,Units=km
new line.156065 bus1=BBT153265.1.2.3.0,bus2=BBT153286.1.2.3.0,Phases=3,Linecode=BT107_BT107_7_3_1,Length=0.015008000,Units=km
new line.156072 bus1=BBT153265.1.2.3.0,bus2=BBT153272.1.2.3.0,Phases=3,Linecode=BT107_BT107_7_3_1,Length=0.008488000,Units=km
new line.156079 bus1=BBT153265.1.2.3.0,bus2=BBT153293.1.2.3.0,Phases=3,Linecode=BT108_BT108_7_3_1,Length=0.008563000,Units=km
new line.156086 bus1=BBT153272.1.2.3.0,bus2=BBT153279.1.2.3.0,Phases=3,Linecode=BT107_BT107_7_3_1,Length=0.022813000,Units=km
new line.156093 bus1=BBT153293.1.2.3.0,bus2=BBT153300.1.2.3.0,Phases=3,Linecode=BT108_BT108_7_3_1,Length=0.034366000,Units=km
new line.156100 bus1=BBT153300.1.2.3.0,bus2=BBT153307.1.2.3.0,Phases=3,Linecode=BT108_BT108_7_3_1,Length=0.035310000,Units=km
new line.156107 bus1=BBT153307.1.2.3.0,bus2=BBT153314.1.2.3.0,Phases=3,Linecode=BT108_BT108_7_3_1,Length=0.038450000,Units=km
new line.156114 bus1=BBT153321.1.2.3.0,bus2=BBT153328.1.2.3.0,Phases=3,Linecode=BT518_BT518_7_3_1,Length=0.000503000,Units=km
new line.156121 bus1=BBT153328.1.2.3.0,bus2=BBT153335.1.2.3.0,Phases=3,Linecode=BT108_BT108_7_3_1,Length=0.034991000,Units=km
new line.156128 bus1=BBT153328.1.2.3.0,bus2=BBT4019743.1.2.3.0,Phases=3,Linecode=BT108_BT108_7_3_1,Length=0.034478000,Units=km
new line.156135 bus1=BBT153335.1.2.3.0,bus2=BBT153342.1.2.3.0,Phases=3,Linecode=BT108_BT108_7_3_1,Length=0.033430000,Units=km
new line.156142 bus1=BBT153342.1.2.3.0,bus2=BBT153349.1.2.3.0,Phases=3,Linecode=BT108_BT108_7_3_1,Length=0.035617000,Units=km
new line.156149 bus1=BBT153349.1.2.3.0,bus2=BBT153356.1.2.3.0,Phases=3,Linecode=BT108_BT108_7_3_1,Length=0.032118000,Units=km
new line.156156 bus1=BBT153356.1.2.3.0,bus2=BBT153363.1.2.3.0,Phases=3,Linecode=BT107_BT107_7_3_1,Length=0.025049000,Units=km
new line.156177 bus1=BBT153370.1.2.3.0,bus2=BBT153377.1.2.3.0,Phases=3,Linecode=BT108_BT108_7_3_1,Length=0.037947000,Units=km
new line.156184 bus1=BBT153377.1.2.3.0,bus2=BBT153384.1.2.3.0,Phases=3,Linecode=BT108_BT108_7_3_1,Length=0.037831000,Units=km
new line.156191 bus1=BBT153384.1.2.3.0,bus2=BBT153391.1.2.3.0,Phases=3,Linecode=BT108_BT108_7_3_1,Length=0.036302000,Units=km
new line.156198 bus1=BBT153398.1.2.3.0,bus2=BBT153405.1.2.3.0,Phases=3,Linecode=BT518_BT518_7_3_1,Length=0.000507000,Units=km
new line.156205 bus1=BBT153405.1.2.3.0,bus2=BBT153412.1.2.3.0,Phases=3,Linecode=BT108_BT108_7_3_1,Length=0.024862000,Units=km
new line.156212 bus1=BBT153405.1.2.3.0,bus2=BBT153440.1.2.3.0,Phases=3,Linecode=BT108_BT108_7_3_1,Length=0.024455000,Units=km
new line.156219 bus1=BBT153412.1.2.3.0,bus2=BBT153419.1.2.3.0,Phases=3,Linecode=BT108_BT108_7_3_1,Length=0.025034000,Units=km
new line.156226 bus1=BBT153412.1.2.3.0,bus2=BBT153468.1.2.3.0,Phases=3,Linecode=BT107_BT107_7_3_1,Length=0.032905000,Units=km
new line.156233 bus1=BBT153419.1.2.3.0,bus2=BBT153426.1.2.3.0,Phases=3,Linecode=BT108_BT108_7_3_1,Length=0.024218000,Units=km
new line.156240 bus1=BBT153426.1.2.3.0,bus2=BBT153433.1.2.3.0,Phases=3,Linecode=BT107_BT107_7_3_1,Length=0.038833000,Units=km
new line.156247 bus1=BBT153440.1.2.3.0,bus2=BBT153447.1.2.3.0,Phases=3,Linecode=BT108_BT108_7_3_1,Length=0.025008000,Units=km
new line.156254 bus1=BBT153440.1.2.3.0,bus2=BBT153482.1.2.3.0,Phases=3,Linecode=BT107_BT107_7_3_1,Length=0.032811000,Units=km
new line.156261 bus1=BBT153447.1.2.3.0,bus2=BBT153454.1.2.3.0,Phases=3,Linecode=BT810_BT810_4_3_4,Length=0.024846000,Units=km
new line.156268 bus1=BBT153454.1.2.3.0,bus2=BBT153461.1.2.3.0,Phases=3,Linecode=BT810_BT810_4_3_4,Length=0.022809000,Units=km
new line.156275 bus1=BBT153454.1.2.3.0,bus2=BBT153496.1.2.3.0,Phases=3,Linecode=BT810_BT810_4_3_4,Length=0.034836000,Units=km
new line.156282 bus1=BBT153468.1.2.3.0,bus2=BBT153475.1.2.3.0,Phases=3,Linecode=BT107_BT107_7_3_1,Length=0.036409000,Units=km
new line.156289 bus1=BBT153482.1.2.3.0,bus2=BBT153489.1.2.3.0,Phases=3,Linecode=BT107_BT107_7_3_1,Length=0.039214000,Units=km
new line.156296 bus1=BBT153496.1.2.3.0,bus2=BBT153503.1.2.3.0,Phases=3,Linecode=BT810_BT810_4_3_4,Length=0.035624000,Units=km
new line.166124 bus1=BBT169267.1.2.0,bus2=BBT169274.1.2.0,Phases=2,Linecode=BT304_BT304_7_2_1,Length=0.000501000,Units=km
new line.166131 bus1=BBT169281.1.2.0,bus2=BBT169288.1.2.0,Phases=2,Linecode=BT304_BT304_7_2_1,Length=0.000502000,Units=km
new line.166145 bus1=BBT169309.1.2.0,bus2=BBT169316.1.2.0,Phases=2,Linecode=BT307_BT307_7_2_1,Length=0.000501000,Units=km
new line.166152 bus1=BBT169323.1.2.0,bus2=BBT169330.1.2.0,Phases=2,Linecode=BT307_BT307_7_2_1,Length=0.000503000,Units=km
new line.166159 bus1=BBT169337.1.2.0,bus2=BBT169344.1.2.0,Phases=2,Linecode=BT307_BT307_7_2_1,Length=0.000539000,Units=km
new line.166166 bus1=BBT169351.1.2.0,bus2=BBT169358.1.2.0,Phases=2,Linecode=BT518_BT518_7_2_1,Length=0.000502000,Units=km
new line.166173 bus1=BBT169358.1.2.0,bus2=BBT3752413.1.2.0,Phases=2,Linecode=BT816_BT816_4_2_2,Length=0.039045000,Units=km
new line.166180 bus1=BBT169365.1.2.0,bus2=BBT169372.1.2.0,Phases=2,Linecode=BT518_BT518_7_2_1,Length=0.000503000,Units=km
new line.166187 bus1=BBT169372.1.2.0,bus2=BBT169379.1.2.0,Phases=2,Linecode=BT808_BT808_4_2_3,Length=0.029679000,Units=km
new line.166194 bus1=BBT169372.1.2.0,bus2=BBT169386.1.2.0,Phases=2,Linecode=BT808_BT808_4_2_3,Length=0.045674000,Units=km
new line.166201 bus1=BBT169393.1.2.0,bus2=BBT169400.1.2.0,Phases=2,Linecode=BT307_BT307_7_2_1,Length=0.000505000,Units=km
new line.166208 bus1=BBT169407.1.2.0,bus2=BBT169414.1.2.0,Phases=2,Linecode=BT307_BT307_7_2_1,Length=0.000501000,Units=km
new line.166215 bus1=BBT169421.1.2.0,bus2=BBT169428.1.2.0,Phases=2,Linecode=BT304_BT304_7_2_1,Length=0.000509000,Units=km
new line.166222 bus1=BBT169435.1.2.0,bus2=BBT169442.1.2.0,Phases=2,Linecode=BT304_BT304_7_2_1,Length=0.000504000,Units=km
new line.166229 bus1=BBT169449.1.2.0,bus2=BBT169456.1.2.0,Phases=2,Linecode=BT307_BT307_7_2_1,Length=0.000501000,Units=km
new line.166236 bus1=BBT169463.1.2.0,bus2=BBT169470.1.2.0,Phases=2,Linecode=BT307_BT307_7_2_1,Length=0.000501000,Units=km
new line.166243 bus1=BBT169477.1.2.0,bus2=BBT169484.1.2.0,Phases=2,Linecode=BT316_BT316_7_2_1,Length=0.000501000,Units=km
new line.166250 bus1=BBT169491.1.2.0,bus2=BBT169498.1.2.0,Phases=2,Linecode=BT316_BT316_7_2_1,Length=0.000501000,Units=km
new line.166257 bus1=BBT169505.1.2.0,bus2=BBT169512.1.2.0,Phases=2,Linecode=BT304_BT304_7_2_1,Length=0.000501000,Units=km
new line.166264 bus1=BBT169519.1.2.0,bus2=BBT169526.1.2.0,Phases=2,Linecode=BT518_BT518_7_2_1,Length=0.000503000,Units=km
new line.166271 bus1=BBT169533.1.2.0,bus2=BBT169540.1.2.0,Phases=2,Linecode=BT316_BT316_7_2_1,Length=0.000502000,Units=km
new line.166278 bus1=BBT169547.1.2.0,bus2=BBT169554.1.2.0,Phases=2,Linecode=BT304_BT304_7_2_1,Length=0.000501000,Units=km
new line.166285 bus1=BBT169561.1.2.0,bus2=BBT169568.1.2.0,Phases=2,Linecode=BT304_BT304_7_2_1,Length=0.000501000,Units=km
new line.166292 bus1=BBT169575.1.2.3.0,bus2=BBT169582.1.2.3.0,Phases=3,Linecode=BT313_BT313_7_3_1,Length=0.000509000,Units=km
new line.166299 bus1=BBT169589.1.2.0,bus2=BBT169596.1.2.0,Phases=2,Linecode=BT307_BT307_7_2_1,Length=0.000501000,Units=km
new line.166306 bus1=BBT169603.1.2.0,bus2=BBT169610.1.2.0,Phases=2,Linecode=BT307_BT307_7_2_1,Length=0.000502000,Units=km
new line.166313 bus1=BBT169617.1.2.0,bus2=BBT169624.1.2.0,Phases=2,Linecode=BT518_BT518_7_2_1,Length=0.000501000,Units=km
new line.166320 bus1=BBT169631.1.2.0,bus2=BBT169638.1.2.0,Phases=2,Linecode=BT304_BT304_7_2_1,Length=0.000504000,Units=km
new line.166327 bus1=BBT169645.1.2.0,bus2=BBT169652.1.2.0,Phases=2,Linecode=BT304_BT304_7_2_1,Length=0.000501000,Units=km
new line.166334 bus1=BBT169659.1.2.0,bus2=BBT169666.1.2.0,Phases=2,Linecode=BT307_BT307_7_2_1,Length=0.000502000,Units=km
new line.166341 bus1=BBT169673.1.2.0,bus2=BBT169680.1.2.0,Phases=2,Linecode=BT316_BT316_7_2_1,Length=0.000502000,Units=km
new line.166348 bus1=BBT169687.1.2.0,bus2=BBT169694.1.2.0,Phases=2,Linecode=BT316_BT316_7_2_1,Length=0.000501000,Units=km
new line.166355 bus1=BBT169701.1.2.0,bus2=BBT169708.1.2.0,Phases=2,Linecode=BT304_BT304_7_2_1,Length=0.000502000,Units=km
new line.166362 bus1=BBT169715.1.2.0,bus2=BBT169722.1.2.0,Phases=2,Linecode=BT316_BT316_7_2_1,Length=0.000501000,Units=km
new line.166369 bus1=BBT169729.1.2.0,bus2=BBT169736.1.2.0,Phases=2,Linecode=BT304_BT304_7_2_1,Length=0.000501000,Units=km
new line.166376 bus1=BBT169743.1.2.0,bus2=BBT169750.1.2.0,Phases=2,Linecode=BT304_BT304_7_2_1,Length=0.000501000,Units=km
new line.166390 bus1=BBT169757.1.2.0,bus2=BBT169764.1.2.0,Phases=2,Linecode=BT304_BT304_7_2_1,Length=0.000501000,Units=km
new line.166397 bus1=BBT169771.1.2.0,bus2=BBT169778.1.2.0,Phases=2,Linecode=BT304_BT304_7_2_1,Length=0.000505000,Units=km
new line.166404 bus1=BBT169785.1.2.0,bus2=BBT169792.1.2.0,Phases=2,Linecode=BT307_BT307_7_2_1,Length=0.000504000,Units=km
new line.166411 bus1=BBT169799.1.2.0,bus2=BBT169806.1.2.0,Phases=2,Linecode=BT304_BT304_7_2_1,Length=0.000504000,Units=km
new line.166418 bus1=BBT169813.1.2.0,bus2=BBT169820.1.2.0,Phases=2,Linecode=BT304_BT304_7_2_1,Length=0.000504000,Units=km
new line.166425 bus1=BBT169827.1.2.0,bus2=BBT169834.1.2.0,Phases=2,Linecode=BT316_BT316_7_2_1,Length=0.000501000,Units=km
new line.166432 bus1=BBT169841.1.2.0,bus2=BBT169848.1.2.0,Phases=2,Linecode=BT316_BT316_7_2_1,Length=0.000501000,Units=km
new line.166439 bus1=BBT169855.1.2.0,bus2=BBT169862.1.2.0,Phases=2,Linecode=BT307_BT307_7_2_1,Length=0.000501000,Units=km
new line.166446 bus1=BBT169869.1.2.0,bus2=BBT169876.1.2.0,Phases=2,Linecode=BT518_BT518_7_2_1,Length=0.000501000,Units=km
new line.166453 bus1=BBT169883.1.2.0,bus2=BBT169890.1.2.0,Phases=2,Linecode=BT304_BT304_7_2_1,Length=0.000501000,Units=km
new line.166460 bus1=BBT169897.1.2.0,bus2=BBT169904.1.2.0,Phases=2,Linecode=BT304_BT304_7_2_1,Length=0.000501000,Units=km
new line.166467 bus1=BBT169911.1.2.0,bus2=BBT169918.1.2.0,Phases=2,Linecode=BT518_BT518_7_2_1,Length=0.000501000,Units=km
new line.166474 bus1=BBT169918.1.2.0,bus2=BBT3387153.1.2.0,Phases=2,Linecode=BT808_BT808_4_2_3,Length=0.039456000,Units=km
new line.166481 bus1=BBT169925.1.2.3.0,bus2=BBT169932.1.2.3.0,Phases=3,Linecode=BT518_BT518_7_3_1,Length=0.000501000,Units=km
new line.166488 bus1=BBT169939.1.2.0,bus2=BBT169946.1.2.0,Phases=2,Linecode=BT304_BT304_7_2_1,Length=0.000501000,Units=km
new line.166495 bus1=BBT169953.1.2.0,bus2=BBT169960.1.2.0,Phases=2,Linecode=BT304_BT304_7_2_1,Length=0.000504000,Units=km
new line.166502 bus1=BBT169967.1.2.0,bus2=BBT169974.1.2.0,Phases=2,Linecode=BT304_BT304_7_2_1,Length=0.000507000,Units=km
new line.166509 bus1=BBT169981.1.2.0,bus2=BBT169988.1.2.0,Phases=2,Linecode=BT307_BT307_7_2_1,Length=0.000501000,Units=km
new line.166516 bus1=BBT169995.1.2.0,bus2=BBT170002.1.2.0,Phases=2,Linecode=BT304_BT304_7_2_1,Length=0.000502000,Units=km
new line.166537 bus1=BBT170037.1.2.0,bus2=BBT170044.1.2.0,Phases=2,Linecode=BT317_BT317_7_2_1,Length=0.000501000,Units=km
new line.166544 bus1=BBT170051.1.2.0,bus2=BBT170058.1.2.0,Phases=2,Linecode=BT304_BT304_7_2_1,Length=0.000501000,Units=km
new line.166558 bus1=BBT170065.1.2.0,bus2=BBT170072.1.2.0,Phases=2,Linecode=BT307_BT307_7_2_1,Length=0.000501000,Units=km
new line.166565 bus1=BBT170079.1.2.0,bus2=BBT170086.1.2.0,Phases=2,Linecode=BT316_BT316_7_2_1,Length=0.000502000,Units=km
new line.166572 bus1=BBT170093.1.2.0,bus2=BBT170100.1.2.0,Phases=2,Linecode=BT518_BT518_7_2_1,Length=0.000501000,Units=km
new line.166579 bus1=BBT170100.1.2.0,bus2=BBT3383296.1.2.0,Phases=2,Linecode=BT808_BT808_4_2_3,Length=0.037008000,Units=km
new line.166586 bus1=BBT170107.1.2.0,bus2=BBT170114.1.2.0,Phases=2,Linecode=BT513_BT513_7_2_1,Length=0.000501000,Units=km
new line.166593 bus1=BBT170121.1.2.0,bus2=BBT170128.1.2.0,Phases=2,Linecode=BT304_BT304_7_2_1,Length=0.000504000,Units=km
new line.166600 bus1=BBT170135.1.2.0,bus2=BBT170142.1.2.0,Phases=2,Linecode=BT317_BT317_7_2_1,Length=0.000501000,Units=km
new line.166607 bus1=BBT170149.1.2.0,bus2=BBT170156.1.2.0,Phases=2,Linecode=BT518_BT518_7_2_1,Length=0.000505000,Units=km
new line.166614 bus1=BBT170163.1.2.0,bus2=BBT170170.1.2.0,Phases=2,Linecode=BT304_BT304_7_2_1,Length=0.000501000,Units=km
new line.166621 bus1=BBT170177.1.2.0,bus2=BBT170184.1.2.0,Phases=2,Linecode=BT307_BT307_7_2_1,Length=0.000501000,Units=km
new line.166628 bus1=BBT170191.1.2.0,bus2=BBT170198.1.2.0,Phases=2,Linecode=BT518_BT518_7_2_1,Length=0.000509000,Units=km
new line.166635 bus1=BBT170198.1.2.0,bus2=BBT170205.1.2.0,Phases=2,Linecode=BT808_BT808_4_2_3,Length=0.075068000,Units=km
new line.166642 bus1=BBT170205.1.2.0,bus2=BBT170212.1.2.0,Phases=2,Linecode=BT808_BT808_4_2_3,Length=0.068598000,Units=km
new line.166663 bus1=BBT170219.1.2.0,bus2=BBT170226.1.2.0,Phases=2,Linecode=BT304_BT304_7_2_1,Length=0.000501000,Units=km
new line.166670 bus1=BBT170233.1.2.0,bus2=BBT170240.1.2.0,Phases=2,Linecode=BT304_BT304_7_2_1,Length=0.000501000,Units=km
new line.166677 bus1=BBT170247.1.2.0,bus2=BBT170254.1.2.0,Phases=2,Linecode=BT518_BT518_7_2_1,Length=0.000501000,Units=km
new line.166684 bus1=BBT170254.1.2.0,bus2=BBT3447969.1.2.0,Phases=2,Linecode=BT808_BT808_4_2_3,Length=0.045286000,Units=km
new line.166691 bus1=BBT170261.1.2.0,bus2=BBT170268.1.2.0,Phases=2,Linecode=BT304_BT304_7_2_1,Length=0.000503000,Units=km
new line.166698 bus1=BBT170275.1.2.0,bus2=BBT170282.1.2.0,Phases=2,Linecode=BT316_BT316_7_2_1,Length=0.000502000,Units=km
new line.166705 bus1=BBT170289.1.2.0,bus2=BBT170296.1.2.0,Phases=2,Linecode=BT518_BT518_7_2_1,Length=0.000502000,Units=km
new line.166712 bus1=BBT170296.1.2.0,bus2=BBT3383310.1.2.0,Phases=2,Linecode=BT808_BT808_4_2_3,Length=0.039651000,Units=km
new line.166719 bus1=BBT170303.1.2.0,bus2=BBT170310.1.2.0,Phases=2,Linecode=BT304_BT304_7_2_1,Length=0.000501000,Units=km
new line.166733 bus1=BBT170317.1.2.0,bus2=BBT170324.1.2.0,Phases=2,Linecode=BT304_BT304_7_2_1,Length=0.000501000,Units=km
new line.166740 bus1=BBT170331.1.2.0,bus2=BBT170338.1.2.0,Phases=2,Linecode=BT518_BT518_7_2_1,Length=0.000501000,Units=km
new line.166747 bus1=BBT170338.1.2.0,bus2=BBT170345.1.2.0,Phases=2,Linecode=BT808_BT808_4_2_3,Length=0.055981000,Units=km
new line.166754 bus1=BBT170338.1.2.0,bus2=BBT170366.1.2.0,Phases=2,Linecode=BT808_BT808_4_2_3,Length=0.064101000,Units=km
new line.166761 bus1=BBT170345.1.2.0,bus2=BBT170352.1.2.0,Phases=2,Linecode=BT808_BT808_4_2_3,Length=0.055022000,Units=km
new line.166768 bus1=BBT170352.1.2.0,bus2=BBT170359.1.2.0,Phases=2,Linecode=BT808_BT808_4_2_3,Length=0.092669000,Units=km
new line.166775 bus1=BBT170373.1.2.0,bus2=BBT170380.1.2.0,Phases=2,Linecode=BT304_BT304_7_2_1,Length=0.000502000,Units=km
new line.166782 bus1=BBT170387.1.2.0,bus2=BBT170394.1.2.0,Phases=2,Linecode=BT316_BT316_7_2_1,Length=0.000501000,Units=km
new line.166789 bus1=BBT170401.1.2.0,bus2=BBT170408.1.2.0,Phases=2,Linecode=BT316_BT316_7_2_1,Length=0.000501000,Units=km
new line.166796 bus1=BBT170415.1.2.0,bus2=BBT170422.1.2.0,Phases=2,Linecode=BT316_BT316_7_2_1,Length=0.000501000,Units=km
new line.166810 bus1=BBT170429.1.2.0,bus2=BBT170436.1.2.0,Phases=2,Linecode=BT304_BT304_7_2_1,Length=0.000501000,Units=km
new line.166817 bus1=BBT170443.1.2.0,bus2=BBT170450.1.2.0,Phases=2,Linecode=BT304_BT304_7_2_1,Length=0.000502000,Units=km
new line.166824 bus1=BBT170457.1.2.0,bus2=BBT170464.1.2.0,Phases=2,Linecode=BT304_BT304_7_2_1,Length=0.000501000,Units=km
new line.166831 bus1=BBT170471.1.2.0,bus2=BBT170478.1.2.0,Phases=2,Linecode=BT304_BT304_7_2_1,Length=0.000501000,Units=km
new line.166838 bus1=BBT170485.1.2.0,bus2=BBT170492.1.2.0,Phases=2,Linecode=BT304_BT304_7_2_1,Length=0.000502000,Units=km
new line.166845 bus1=BBT170499.1.2.0,bus2=BBT170506.1.2.0,Phases=2,Linecode=BT304_BT304_7_2_1,Length=0.000501000,Units=km
new line.166852 bus1=BBT170513.1.2.0,bus2=BBT170520.1.2.0,Phases=2,Linecode=BT304_BT304_7_2_1,Length=0.000505000,Units=km
new line.167090 bus1=BBT170842.1.2.0,bus2=BBT170849.1.2.0,Phases=2,Linecode=BT316_BT316_7_2_1,Length=0.000501000,Units=km
new line.167097 bus1=BBT170856.1.2.0,bus2=BBT170863.1.2.0,Phases=2,Linecode=BT304_BT304_7_2_1,Length=0.000502000,Units=km
new line.167286 bus1=BBT171178.1.2.0,bus2=BBT171185.1.2.0,Phases=2,Linecode=BT304_BT304_7_2_1,Length=0.000501000,Units=km
new line.167293 bus1=BBT171192.1.2.0,bus2=BBT171199.1.2.0,Phases=2,Linecode=BT316_BT316_7_2_1,Length=0.000501000,Units=km
new line.167307 bus1=BBT171206.1.2.0,bus2=BBT171213.1.2.0,Phases=2,Linecode=BT308_BT308_7_2_1,Length=0.000501000,Units=km
new line.167314 bus1=BBT171220.1.2.0,bus2=BBT171227.1.2.0,Phases=2,Linecode=BT513_BT513_7_2_1,Length=0.000502000,Units=km
new line.167321 bus1=BBT171234.1.2.0,bus2=BBT171241.1.2.0,Phases=2,Linecode=BT304_BT304_7_2_1,Length=0.000501000,Units=km
new line.167328 bus1=BBT171248.1.2.0,bus2=BBT171255.1.2.0,Phases=2,Linecode=BT316_BT316_7_2_1,Length=0.000501000,Units=km
new line.167335 bus1=BBT171262.1.2.0,bus2=BBT171269.1.2.0,Phases=2,Linecode=BT307_BT307_7_2_1,Length=0.000501000,Units=km
new line.167342 bus1=BBT171276.1.2.0,bus2=BBT171283.1.2.0,Phases=2,Linecode=BT518_BT518_7_2_1,Length=0.000501000,Units=km
new line.167349 bus1=BBT171283.1.2.0,bus2=BBT171290.1.2.0,Phases=2,Linecode=BT801_BT801_4_2_3,Length=0.040234000,Units=km
new line.167356 bus1=BBT171283.1.2.0,bus2=BBT171297.1.2.0,Phases=2,Linecode=BT801_BT801_4_2_3,Length=0.039367000,Units=km
new line.167363 bus1=BBT171304.1.2.0,bus2=BBT171311.1.2.0,Phases=2,Linecode=BT307_BT307_7_2_1,Length=0.000501000,Units=km
new line.167377 bus1=BBT171318.1.2.0,bus2=BBT171325.1.2.0,Phases=2,Linecode=BT307_BT307_7_2_1,Length=0.000506000,Units=km
new line.167384 bus1=BBT171332.1.2.0,bus2=BBT171339.1.2.0,Phases=2,Linecode=BT316_BT316_7_2_1,Length=0.000501000,Units=km
new line.167391 bus1=BBT171346.1.2.0,bus2=BBT171353.1.2.0,Phases=2,Linecode=BT304_BT304_7_2_1,Length=0.000501000,Units=km
new line.167398 bus1=BBT171360.1.2.0,bus2=BBT171367.1.2.0,Phases=2,Linecode=BT308_BT308_7_2_1,Length=0.000501000,Units=km
new line.167405 bus1=BBT171374.1.2.0,bus2=BBT171381.1.2.0,Phases=2,Linecode=BT513_BT513_7_2_1,Length=0.000501000,Units=km
new line.167412 bus1=BBT171388.1.2.0,bus2=BBT171395.1.2.0,Phases=2,Linecode=BT513_BT513_7_2_1,Length=0.000505000,Units=km
new line.167419 bus1=BBT171402.1.2.0,bus2=BBT171409.1.2.0,Phases=2,Linecode=BT304_BT304_7_2_1,Length=0.000513000,Units=km
new line.167426 bus1=BBT171416.1.2.0,bus2=BBT171423.1.2.0,Phases=2,Linecode=BT304_BT304_7_2_1,Length=0.000519000,Units=km
new line.167433 bus1=BBT171430.1.2.0,bus2=BBT171437.1.2.0,Phases=2,Linecode=BT317_BT317_7_2_1,Length=0.000503000,Units=km
new line.167440 bus1=BBT171444.1.2.0,bus2=BBT171451.1.2.0,Phases=2,Linecode=BT513_BT513_7_2_1,Length=0.000505000,Units=km
new line.167447 bus1=BBT171458.1.2.0,bus2=BBT171465.1.2.0,Phases=2,Linecode=BT513_BT513_7_2_1,Length=0.000506000,Units=km
new line.167454 bus1=BBT171472.1.2.0,bus2=BBT171479.1.2.0,Phases=2,Linecode=BT304_BT304_7_2_1,Length=0.000501000,Units=km
new line.167461 bus1=BBT171486.1.2.0,bus2=BBT171493.1.2.0,Phases=2,Linecode=BT307_BT307_7_2_1,Length=0.000504000,Units=km
new line.167468 bus1=BBT171500.1.2.0,bus2=BBT171507.1.2.0,Phases=2,Linecode=BT304_BT304_7_2_1,Length=0.000503000,Units=km
new line.167475 bus1=BBT171514.1.2.3.0,bus2=BBT171521.1.2.3.0,Phases=3,Linecode=BT313_BT313_7_3_1,Length=0.000501000,Units=km
new line.167482 bus1=BBT171528.1.2.0,bus2=BBT171535.1.2.0,Phases=2,Linecode=BT317_BT317_7_2_1,Length=0.000505000,Units=km
new line.167489 bus1=BBT171542.1.2.0,bus2=BBT171549.1.2.0,Phases=2,Linecode=BT307_BT307_7_2_1,Length=0.000503000,Units=km
new line.167496 bus1=BBT171556.1.2.3.0,bus2=BBT171563.1.2.3.0,Phases=3,Linecode=BT307_BT307_7_3_1,Length=0.000501000,Units=km
new line.167510 bus1=BBT171570.1.2.0,bus2=BBT171577.1.2.0,Phases=2,Linecode=BT518_BT518_7_2_1,Length=0.000501000,Units=km
new line.167517 bus1=BBT171577.1.2.0,bus2=BBT3627848.1.2.0,Phases=2,Linecode=BT808_BT808_4_2_3,Length=0.026426000,Units=km
new line.167524 bus1=BBT171584.1.2.0,bus2=BBT171591.1.2.0,Phases=2,Linecode=BT304_BT304_7_2_1,Length=0.000503000,Units=km
new line.167531 bus1=BBT171598.1.2.0,bus2=BBT171605.1.2.0,Phases=2,Linecode=BT317_BT317_7_2_1,Length=0.000501000,Units=km
new line.167538 bus1=BBT171612.1.2.0,bus2=BBT171619.1.2.0,Phases=2,Linecode=BT316_BT316_7_2_1,Length=0.000501000,Units=km
new line.167545 bus1=BBT171626.1.2.0,bus2=BBT171633.1.2.0,Phases=2,Linecode=BT304_BT304_7_2_1,Length=0.000503000,Units=km
new line.167552 bus1=BBT171640.1.2.0,bus2=BBT171647.1.2.0,Phases=2,Linecode=BT304_BT304_7_2_1,Length=0.000501000,Units=km
new line.167559 bus1=BBT171654.1.2.0,bus2=BBT171661.1.2.0,Phases=2,Linecode=BT304_BT304_7_2_1,Length=0.000502000,Units=km
new line.167566 bus1=BBT171668.1.2.0,bus2=BBT171675.1.2.0,Phases=2,Linecode=BT307_BT307_7_2_1,Length=0.000506000,Units=km
new line.167573 bus1=BBT171682.1.2.0,bus2=BBT171689.1.2.0,Phases=2,Linecode=BT307_BT307_7_2_1,Length=0.000502000,Units=km
new line.167587 bus1=BBT171710.1.2.0,bus2=BBT171717.1.2.0,Phases=2,Linecode=BT304_BT304_7_2_1,Length=0.000501000,Units=km
new line.167594 bus1=BBT171724.1.2.0,bus2=BBT171731.1.2.0,Phases=2,Linecode=BT307_BT307_7_2_1,Length=0.000505000,Units=km
new line.167601 bus1=BBT171738.1.2.0,bus2=BBT171745.1.2.0,Phases=2,Linecode=BT316_BT316_7_2_1,Length=0.000501000,Units=km
new line.167608 bus1=BBT171752.1.2.0,bus2=BBT171759.1.2.0,Phases=2,Linecode=BT307_BT307_7_2_1,Length=0.000501000,Units=km
new line.167615 bus1=BBT171766.1.2.0,bus2=BBT171773.1.2.0,Phases=2,Linecode=BT304_BT304_7_2_1,Length=0.000508000,Units=km
new line.167622 bus1=BBT171780.1.2.0,bus2=BBT171787.1.2.0,Phases=2,Linecode=BT513_BT513_7_2_1,Length=0.000510000,Units=km
new line.167629 bus1=BBT171794.1.2.0,bus2=BBT171801.1.2.0,Phases=2,Linecode=BT304_BT304_7_2_1,Length=0.000505000,Units=km
new line.167636 bus1=BBT171808.1.2.0,bus2=BBT171815.1.2.0,Phases=2,Linecode=BT316_BT316_7_2_1,Length=0.000505000,Units=km
new line.167643 bus1=BBT171822.1.2.0,bus2=BBT171829.1.2.0,Phases=2,Linecode=BT518_BT518_7_2_1,Length=0.000503000,Units=km
new line.167650 bus1=BBT171829.1.2.0,bus2=BBT3383373.1.2.0,Phases=2,Linecode=BT808_BT808_4_2_3,Length=0.050281000,Units=km
new line.167657 bus1=BBT171836.1.2.0,bus2=BBT171843.1.2.0,Phases=2,Linecode=BT304_BT304_7_2_1,Length=0.000501000,Units=km
new line.167664 bus1=BBT171850.1.2.0,bus2=BBT171857.1.2.0,Phases=2,Linecode=BT316_BT316_7_2_1,Length=0.000501000,Units=km
new line.167671 bus1=BBT171864.1.2.0,bus2=BBT171871.1.2.0,Phases=2,Linecode=BT316_BT316_7_2_1,Length=0.000502000,Units=km
new line.167685 bus1=BBT171878.1.2.0,bus2=BBT171885.1.2.0,Phases=2,Linecode=BT518_BT518_7_2_1,Length=0.000502000,Units=km
new line.167692 bus1=BBT171885.1.2.0,bus2=BBT3387202.1.2.0,Phases=2,Linecode=BT808_BT808_4_2_3,Length=0.040084000,Units=km
new line.167699 bus1=BBT171892.1.2.0,bus2=BBT171899.1.2.0,Phases=2,Linecode=BT304_BT304_7_2_1,Length=0.000501000,Units=km
new line.167706 bus1=BBT171906.1.2.0,bus2=BBT171913.1.2.0,Phases=2,Linecode=BT307_BT307_7_2_1,Length=0.000501000,Units=km
new line.167713 bus1=BBT171920.1.2.0,bus2=BBT171927.1.2.0,Phases=2,Linecode=BT304_BT304_7_2_1,Length=0.000501000,Units=km
new line.167720 bus1=BBT171934.1.2.0,bus2=BBT171941.1.2.0,Phases=2,Linecode=BT304_BT304_7_2_1,Length=0.000501000,Units=km
new line.167727 bus1=BBT171948.1.2.0,bus2=BBT171955.1.2.0,Phases=2,Linecode=BT307_BT307_7_2_1,Length=0.000504000,Units=km
new line.167734 bus1=BBT171962.1.2.3.0,bus2=BBT171969.1.2.3.0,Phases=3,Linecode=BT313_BT313_7_3_1,Length=0.000501000,Units=km
new line.167741 bus1=BBT171976.1.2.3.0,bus2=BBT171983.1.2.3.0,Phases=3,Linecode=BT514_BT514_7_3_1,Length=0.000501000,Units=km
new line.167748 bus1=BBT171990.1.2.0,bus2=BBT171997.1.2.0,Phases=2,Linecode=BT304_BT304_7_2_1,Length=0.000501000,Units=km
new line.167755 bus1=BBT172004.1.2.3.0,bus2=BBT172011.1.2.3.0,Phases=3,Linecode=BT313_BT313_7_3_1,Length=0.000501000,Units=km
new line.167762 bus1=BBT172018.1.2.0,bus2=BBT172025.1.2.0,Phases=2,Linecode=BT316_BT316_7_2_1,Length=0.000501000,Units=km
new line.167769 bus1=BBT172032.1.2.0,bus2=BBT172039.1.2.0,Phases=2,Linecode=BT316_BT316_7_2_1,Length=0.000501000,Units=km
new line.167776 bus1=BBT172046.1.2.0,bus2=BBT172053.1.2.0,Phases=2,Linecode=BT316_BT316_7_2_1,Length=0.000501000,Units=km