new load.3009008503M1 bus1=BMT156189520.1.2.3,Phases=3,kv=13.8,kW=11.10142,pf=0.92,Vminpu=0.93,Vmaxpu=1.5,model=1,daily=MT1_1,status=variable
new load.3009012813M1 bus1=BMT172708154.1.2.3,Phases=3,kv=13.8,kW=5.45484,pf=0.92,Vminpu=0.93,Vmaxpu=1.5,model=1,daily=MT2_1,status=variable
new load.3009018223M1 bus1=BMT156189602.1.2.3,Phases=3,kv=13.8,kW=9.8826,pf=0.92,Vminpu=0.93,Vmaxpu=1.5,model=1,daily=MT4_1,status=variable
new load.3009018825M1 bus1=BMT156189059.1.2.3,Phases=3,kv=13.8,kW=47.61716,pf=0.92,Vminpu=0.93,Vmaxpu=1.5,model=1,daily=MT5_1,status=variable
new load.3009020871M1 bus1=BMT156189593.1.2.3,Phases=3,kv=13.8,kW=12.3887,pf=0.92,Vminpu=0.93,Vmaxpu=1.5,model=1,daily=MT1_1,status=variable
new load.3009021710M1 bus1=BMT156189064.1.2.3,Phases=3,kv=13.8,kW=0.17068,pf=0.92,Vminpu=0.93,Vmaxpu=1.5,model=1,daily=MT3_1,status=variable
new load.3010318289M1 bus1=BMT156189034.1.2.3,Phases=3,kv=13.8,kW=0.90914,pf=0.92,Vminpu=0.93,Vmaxpu=1.5,model=1,daily=MT2_1,status=variable
new load.3013779213M1 bus1=BMT162305417.1.2.3,Phases=3,kv=13.8,kW=27.31856,pf=0.92,Vminpu=0.93,Vmaxpu=1.5,model=1,daily=MT2_1,status=variable

new load.3009005968M1 bus1=BMT156192028.1.2.3,Phases=3,kv=13.800000000,kW=1.02414,pf=0.92,Vminpu=0.93,Vmaxpu=1.5,model=1,daily=MT3_1,status=variable
new load.3009012998M1 bus1=BMT156192413.1.2.3,Phases=3,kv=13.800000000,kW=68.68822,pf=0.92,Vminpu=0.93,Vmaxpu=1.5,model=1,daily=MT5_2,status=variable
new load.3009013279M1 bus1=BMT156191449.1.2.3,Phases=3,kv=13.800000000,kW=20.22428,pf=0.92,Vminpu=0.93,Vmaxpu=1.5,model=1,daily=MT1_1,status=variable
new load.3009019706M1 bus1=BMT175644161.1.2.3,Phases=3,kv=13.800000000,kW=5.75016,pf=0.92,Vminpu=0.93,Vmaxpu=1.5,model=1,daily=MT5_2,status=variable
new load.3010773287M1 bus1=BMT175643587.1.2.3,Phases=3,kv=13.800000000,kW=37.75686,pf=0.92,Vminpu=0.93,Vmaxpu=1.5,model=1,daily=MT5_2,status=variable
new load.3011320912M1 bus1=BMT156191014.1.2.3,Phases=3,kv=13.800000000,kW=1.8922,pf=0.92,Vminpu=0.93,Vmaxpu=1.5,model=1,daily=MT2_1,status=variable
new load.3012661283M1 bus1=BMT158959439.1.2.3,Phases=3,kv=13.800000000,kW=28.87268,pf=0.92,Vminpu=0.93,Vmaxpu=1.5,model=1,daily=MT4_1,status=variable
new load.3013352208M1 bus1=BMT156192374.1.2.3,Phases=3,kv=13.800000000,kW=172.18318,pf=0.92,Vminpu=0.93,Vmaxpu=1.5,model=1,daily=MT5_1,status=variable
