new line.RML10043550 bus1=BBT143143522.1.2.0,bus2=RML1010043550.1.2.0,Phases=2,Linecode=CABBTG05_4_2,Length=0.017000000,Units=km
new line.RML10079349 bus1=BBT149225866.1.2.0,bus2=RML1010079349.1.2.0,Phases=2,Linecode=CABBT808_4_2,Length=0.017000000,Units=km
new line.RML10079351 bus1=BBT149225866.1.2.0,bus2=RML1010079351.1.2.0,Phases=2,Linecode=CABBT808_4_2,Length=0.017000000,Units=km
new line.RML10113271 bus1=BBT4022473.2.0,bus2=RML1010113271.2.0,Phases=1,Linecode=CABBTG02_4_1,Length=0.017000000,Units=km
new line.RML10113950 bus1=BBT4022249.1.0,bus2=RML1010113950.1.0,Phases=1,Linecode=CABBTG01_4_1,Length=0.017000000,Units=km
new line.RML10114080 bus1=BBT78050.3.0,bus2=RML1010114080.3.0,Phases=1,Linecode=CABBTG02_4_1,Length=0.017000000,Units=km
new line.RML10114095 bus1=BBT4022151.2.0,bus2=RML1010114095.2.0,Phases=1,Linecode=CABBTG02_4_1,Length=0.017000000,Units=km
new line.RML10126728 bus1=BBT149688052.1.2.0,bus2=RML1010126728.1.2.0,Phases=2,Linecode=CABBTG05_4_2,Length=0.017000000,Units=km
new line.RML10127296 bus1=BBT149692950.1.2.0,bus2=RML1010127296.1.2.0,Phases=2,Linecode=CABBTG05_4_2,Length=0.017000000,Units=km
new line.RML10127441 bus1=BBT4251156.2.0,bus2=RML1010127441.2.0,Phases=1,Linecode=CABBTG02_4_1,Length=0.017000000,Units=km
new line.RML10127519 bus1=BBT93223400.2.0,bus2=RML1010127519.2.0,Phases=1,Linecode=CABBTG02_4_1,Length=0.017000000,Units=km
new line.RML10128165 bus1=BBT2779609.1.0,bus2=RML1010128165.1.0,Phases=1,Linecode=CABBTG02_4_1,Length=0.017000000,Units=km
new line.RML10128173 bus1=BBT169379.1.2.0,bus2=RML1010128173.1.2.0,Phases=2,Linecode=CABBTG05_4_2,Length=0.017000000,Units=km
new line.RML10128218 bus1=BBT4022046.1.0,bus2=RML1010128218.1.0,Phases=1,Linecode=CABBTG02_4_1,Length=0.017000000,Units=km
new line.RML10128244 bus1=BBT86234040.1.2.0,bus2=RML1010128244.1.2.0,Phases=2,Linecode=CABBTG05_4_2,Length=0.017000000,Units=km
new line.RML10129160 bus1=BBT4022473.2.0,bus2=RML1010129160.2.0,Phases=1,Linecode=CABBTG02_4_1,Length=0.017000000,Units=km
new line.RML10129748 bus1=BBT86225325.1.2.0,bus2=RML1010129748.1.2.0,Phases=2,Linecode=CABBTG05_4_2,Length=0.017000000,Units=km
new line.RML10129751 bus1=BBT147584091.1.2.0,bus2=RML1010129751.1.2.0,Phases=2,Linecode=CABBTG05_4_2,Length=0.017000000,Units=km
new line.RML10129762 bus1=BBT4022151.2.0,bus2=RML1010129762.2.0,Phases=1,Linecode=CABBTG02_4_1,Length=0.017000000,Units=km
new line.RML10142667 bus1=BBT302603.1.2.0,bus2=RML1010142667.1.2.0,Phases=2,Linecode=CABBTG05_4_2,Length=0.017000000,Units=km
new line.RML10144120 bus1=BBT4021822.1.0,bus2=RML1010144120.1.0,Phases=1,Linecode=CABBTG02_4_1,Length=0.017000000,Units=km
new line.RML10144131 bus1=BBT326389.1.2.0,bus2=RML1010144131.1.2.0,Phases=2,Linecode=CABBTG04_4_2,Length=0.017000000,Units=km
new line.RML10144210 bus1=BBT2865695.1.2.0,bus2=RML1010144210.1.2.0,Phases=2,Linecode=CABBTG05_4_2,Length=0.017000000,Units=km
new line.RML10144642 bus1=BBT3330957.1.0,bus2=RML1010144642.1.0,Phases=1,Linecode=CABBTG02_4_1,Length=0.017000000,Units=km
new line.RML10144643 bus1=BBT3378592.1.2.0,bus2=RML1010144643.1.2.0,Phases=2,Linecode=CABBTG05_4_2,Length=0.017000000,Units=km
new line.RML10156341 bus1=BBT153349.3.0,bus2=RML1010156341.3.0,Phases=1,Linecode=CABBTG02_4_1,Length=0.017000000,Units=km
new line.RML10156345 bus1=BBT153223.1.2.0,bus2=RML1010156345.1.2.0,Phases=2,Linecode=CABBTG05_4_2,Length=0.017000000,Units=km
new line.RML10156347 bus1=BBT153223.1.3.0,bus2=RML1010156347.1.3.0,Phases=2,Linecode=CABBTG05_4_2,Length=0.017000000,Units=km
new line.RML10156351 bus1=BBT4021724.1.0,bus2=RML1010156351.1.0,Phases=1,Linecode=CABBTG01_4_1,Length=0.017000000,Units=km
new line.RML10156353 bus1=BBT4019883.1.0,bus2=RML1010156353.1.0,Phases=1,Linecode=CABBTG02_4_1,Length=0.017000000,Units=km
new line.RML10156354 bus1=BBT4021808.2.0,bus2=RML1010156354.2.0,Phases=1,Linecode=CABBTG02_4_1,Length=0.017000000,Units=km
new line.RML10167858 bus1=BBT86821.3.0,bus2=RML1010167858.3.0,Phases=1,Linecode=CABBTG02_4_1,Length=0.017000000,Units=km
new line.RML10167878 bus1=BBT4022221.2.0,bus2=RML1010167878.2.0,Phases=1,Linecode=CABBTG02_4_1,Length=0.017000000,Units=km
new line.RML10167895 bus1=BBT4022536.1.0,bus2=RML1010167895.1.0,Phases=1,Linecode=CABBTG02_4_1,Length=0.017000000,Units=km
new line.RML10167897 bus1=BBT4022214.1.0,bus2=RML1010167897.1.0,Phases=1,Linecode=CABBTG02_4_1,Length=0.017000000,Units=km
new line.RML10191062 bus1=BBT2740283.1.2.0,bus2=RML1010191062.1.2.0,Phases=2,Linecode=CABBTG04_4_2,Length=0.017000000,Units=km
new line.RML10197754 bus1=BBT4022291.1.0,bus2=RML1010197754.1.0,Phases=1,Linecode=CABBTG02_4_1,Length=0.017000000,Units=km
new line.RML10214795 bus1=BBT149717066.2.3.0,bus2=RML1010214795.2.3.0,Phases=2,Linecode=CABBTG05_4_2,Length=0.017000000,Units=km
new line.RML10214818 bus1=BBT84672.1.2.0,bus2=RML1010214818.1.2.0,Phases=2,Linecode=CABBTG05_4_2,Length=0.017000000,Units=km
new line.RML10214953 bus1=BBT93300288.2.0,bus2=RML1010214953.2.0,Phases=1,Linecode=CABBTG02_4_1,Length=0.017000000,Units=km
new line.RML10228783 bus1=BBT302610.1.2.0,bus2=RML1010228783.1.2.0,Phases=2,Linecode=CABBTG05_4_2,Length=0.017000000,Units=km
new line.RML10228789 bus1=BBT93344458.1.0,bus2=RML1010228789.1.0,Phases=1,Linecode=CABBTG02_4_1,Length=0.017000000,Units=km
new line.RML10229486 bus1=BBT85260.1.2.3.0,bus2=RML1010229486.1.2.3.0,Phases=3,Linecode=CABBTG06_4_3,Length=0.017000000,Units=km
new line.RML10244083 bus1=BBT93300288.1.2.0,bus2=RML1010244083.1.2.0,Phases=2,Linecode=CABBTG05_4_2,Length=0.017000000,Units=km
new line.RML10244489 bus1=BBT4021927.2.0,bus2=RML1010244489.2.0,Phases=1,Linecode=CABBTG02_4_1,Length=0.017000000,Units=km
new line.RML10245689 bus1=BBT174139.1.0,bus2=RML1010245689.1.0,Phases=1,Linecode=CABBTG02_4_1,Length=0.017000000,Units=km
new line.RML10245699 bus1=BBT174139.2.0,bus2=RML1010245699.2.0,Phases=1,Linecode=CABBTG02_4_1,Length=0.017000000,Units=km
new line.RML10245821 bus1=BBT93303774.2.0,bus2=RML1010245821.2.0,Phases=1,Linecode=CABBTG02_4_1,Length=0.017000000,Units=km
new line.RML10245837 bus1=BBT93335225.2.0,bus2=RML1010245837.2.0,Phases=1,Linecode=CABBTG02_4_1,Length=0.017000000,Units=km
new line.RML10245839 bus1=BBT93300288.1.0,bus2=RML1010245839.1.0,Phases=1,Linecode=CABBTG02_4_1,Length=0.017000000,Units=km
new line.RML10245855 bus1=BBT79562.1.0,bus2=RML1010245855.1.0,Phases=1,Linecode=CABBTG02_4_1,Length=0.017000000,Units=km
new line.RML10246066 bus1=BBT3447948.1.2.0,bus2=RML1010246066.1.2.0,Phases=2,Linecode=CABBTG05_4_2,Length=0.017000000,Units=km
new line.RML10246071 bus1=BBT3325371.2.0,bus2=RML1010246071.2.0,Phases=1,Linecode=CABBTG02_4_1,Length=0.017000000,Units=km
new line.RML10246077 bus1=BBT274477.1.2.0,bus2=RML1010246077.1.2.0,Phases=2,Linecode=CABBTG05_4_2,Length=0.017000000,Units=km
new line.RML10259530 bus1=BBT3325175.1.0,bus2=RML1010259530.1.0,Phases=1,Linecode=CABBTG02_4_1,Length=0.017000000,Units=km
new line.RML10259720 bus1=BBT4022501.1.0,bus2=RML1010259720.1.0,Phases=1,Linecode=CABBTG02_4_1,Length=0.017000000,Units=km
new line.RML10259749 bus1=BBT93223484.1.0,bus2=RML1010259749.1.0,Phases=1,Linecode=CABBTG02_4_1,Length=0.017000000,Units=km
new line.RML10033160 bus1=BBT3368946.1.0,bus2=RML1010033160.1.0,Phases=1,Linecode=CABBTG02_4_1,Length=0.017000000,Units=km
new line.RML10033165 bus1=BBT329259.1.0,bus2=RML1010033165.1.0,Phases=1,Linecode=CABBTG02_4_1,Length=0.017000000,Units=km
new line.RML10084832 bus1=BBT3441697.1.0,bus2=RML1010084832.1.0,Phases=1,Linecode=CABBTG02_4_1,Length=0.017000000,Units=km
new line.RML10084944 bus1=BBT99714745.1.0,bus2=RML1010084944.1.0,Phases=1,Linecode=CABBTG02_4_1,Length=0.017000000,Units=km
new line.RML10084949 bus1=BBT85386.1.0,bus2=RML1010084949.1.0,Phases=1,Linecode=CABBTG02_4_1,Length=0.017000000,Units=km
new line.RML10084955 bus1=BBT85386.1.0,bus2=RML1010084955.1.0,Phases=1,Linecode=CABBTG02_4_1,Length=0.017000000,Units=km
new line.RML10085831 bus1=BBT302610.1.2.0,bus2=RML1010085831.1.2.0,Phases=2,Linecode=CABBTG05_4_2,Length=0.017000000,Units=km
new line.RML10098882 bus1=BBT86345.1.2.0,bus2=RML1010098882.1.2.0,Phases=2,Linecode=CABBTG05_4_2,Length=0.017000000,Units=km
new line.RML10099455 bus1=BBT288799.2.0,bus2=RML1010099455.2.0,Phases=1,Linecode=CABBTG02_4_1,Length=0.017000000,Units=km
new line.RML10099503 bus1=BBT84472462.1.0,bus2=RML1010099503.1.0,Phases=1,Linecode=CABBTG02_4_1,Length=0.017000000,Units=km
new line.RML10116897 bus1=BBT93300288.1.0,bus2=RML1010116897.1.0,Phases=1,Linecode=CABBTG02_4_1,Length=0.017000000,Units=km
new line.RML10117067 bus1=BBT256837.1.2.3.0,bus2=RML1010117067.1.2.3.0,Phases=3,Linecode=CABBTG06_4_3,Length=0.017000000,Units=km
new line.RML10117078 bus1=BBT304913.1.2.3.0,bus2=RML1010117078.1.2.3.0,Phases=3,Linecode=CABBTG06_4_3,Length=0.017000000,Units=km
new line.RML10117939 bus1=BBT4022116.1.0,bus2=RML1010117939.1.0,Phases=1,Linecode=CABBTG02_4_1,Length=0.017000000,Units=km
new line.RML10117968 bus1=BBT87955.2.0,bus2=RML1010117968.2.0,Phases=1,Linecode=CABBTG02_4_1,Length=0.017000000,Units=km
new line.RML10130910 bus1=BBT148913393.1.2.0,bus2=RML1010130910.1.2.0,Phases=2,Linecode=CABBTG05_4_2,Length=0.017000000,Units=km
new line.RML10132100 bus1=BBT288883.2.3.0,bus2=RML1010132100.2.3.0,Phases=2,Linecode=CABBTG05_4_2,Length=0.017000000,Units=km
new line.RML10132266 bus1=BBT82614.2.0,bus2=RML1010132266.2.0,Phases=1,Linecode=CABBTG02_4_1,Length=0.017000000,Units=km
new line.RML10132413 bus1=BBT88067.2.0,bus2=RML1010132413.2.0,Phases=1,Linecode=CABBTG02_4_1,Length=0.017000000,Units=km
new line.RML10132727 bus1=BBT4022256.2.0,bus2=RML1010132727.2.0,Phases=1,Linecode=CABBTG02_4_1,Length=0.017000000,Units=km
new line.RML10132838 bus1=BBT99714745.2.0,bus2=RML1010132838.2.0,Phases=1,Linecode=CABBTG02_4_1,Length=0.017000000,Units=km
new line.RML10132936 bus1=BBT85428.1.2.0,bus2=RML1010132936.1.2.0,Phases=2,Linecode=CABBTG05_4_2,Length=0.017000000,Units=km
new line.RML10132938 bus1=BBT85428.1.2.3.0,bus2=RML1010132938.1.2.3.0,Phases=3,Linecode=CABBTG06_4_3,Length=0.017000000,Units=km
new line.RML10133514 bus1=BBT169358.1.2.0,bus2=RML1010133514.1.2.0,Phases=2,Linecode=CABBTG05_4_2,Length=0.017000000,Units=km
new line.RML10148742 bus1=BBT82894.1.0,bus2=RML1010148742.1.0,Phases=1,Linecode=CABBTG02_4_1,Length=0.017000000,Units=km
new line.RML10157386 bus1=BBT4022018.1.0,bus2=RML1010157386.1.0,Phases=1,Linecode=CABBTG02_4_1,Length=0.017000000,Units=km
new line.RML10158819 bus1=BBT296317.1.0,bus2=RML1010158819.1.0,Phases=1,Linecode=CABBTG02_4_1,Length=0.017000000,Units=km
new line.RML10158858 bus1=BBT86170.1.2.3.0,bus2=RML1010158858.1.2.3.0,Phases=3,Linecode=CABBTG06_4_3,Length=0.017000000,Units=km
new line.RML10158902 bus1=BBT81060.1.2.3.0,bus2=RML1010158902.1.2.3.0,Phases=3,Linecode=CABBTG06_4_3,Length=0.017000000,Units=km
new line.RML10172556 bus1=BBT3325175.1.2.0,bus2=RML1010172556.1.2.0,Phases=2,Linecode=CABBTG05_4_2,Length=0.017000000,Units=km
new line.RML10172589 bus1=BBT3923507.1.2.0,bus2=RML1010172589.1.2.0,Phases=2,Linecode=CABBTG05_4_2,Length=0.017000000,Units=km
new line.RML10194100 bus1=BBT252.1.2.0,bus2=RML1010194100.1.2.0,Phases=2,Linecode=CABBTG05_4_2,Length=0.017000000,Units=km
new line.RML10195650 bus1=BBT149225866.1.0,bus2=RML1010195650.1.0,Phases=1,Linecode=CABBTG02_4_1,Length=0.017000000,Units=km
new line.RML10195725 bus1=BBT83762.1.0,bus2=RML1010195725.1.0,Phases=1,Linecode=CABBTG02_4_1,Length=0.017000000,Units=km
new line.RML10195804 bus1=BBT4251121.1.0,bus2=RML1010195804.1.0,Phases=1,Linecode=CABBTG02_4_1,Length=0.017000000,Units=km
new line.RML10204161 bus1=BBT4021927.1.0,bus2=RML1010204161.1.0,Phases=1,Linecode=CABBTG02_4_1,Length=0.017000000,Units=km
new line.RML10204226 bus1=BBT93304607.1.0,bus2=RML1010204226.1.0,Phases=1,Linecode=CABBTG02_4_1,Length=0.017000000,Units=km
new line.RML10205989 bus1=BBT174454.1.2.0,bus2=RML1010205989.1.2.0,Phases=2,Linecode=CABBTG05_4_2,Length=0.017000000,Units=km
new line.RML10206170 bus1=BBT4021990.1.2.0,bus2=RML1010206170.1.2.0,Phases=2,Linecode=CABBTG05_4_2,Length=0.017000000,Units=km
new line.RML10206183 bus1=BBT172585.1.2.0,bus2=RML1010206183.1.2.0,Phases=2,Linecode=CABBTG05_4_2,Length=0.017000000,Units=km
new line.RML10206409 bus1=BBT83671.1.2.0,bus2=RML1010206409.1.2.0,Phases=2,Linecode=CABBTG05_4_2,Length=0.017000000,Units=km
new line.RML10206583 bus1=BBT3582628.1.2.0,bus2=RML1010206583.1.2.0,Phases=2,Linecode=CABBTG05_4_2,Length=0.017000000,Units=km
new line.RML10221417 bus1=BBT173628.1.2.0,bus2=RML1010221417.1.2.0,Phases=2,Linecode=CABBTG04_4_2,Length=0.017000000,Units=km
new line.RML10221418 bus1=BBT4022788.2.0,bus2=RML1010221418.2.0,Phases=1,Linecode=CABBTG02_4_1,Length=0.017000000,Units=km
new line.RML10221434 bus1=BBT8741684.1.2.0,bus2=RML1010221434.1.2.0,Phases=2,Linecode=CABBTG05_4_2,Length=0.017000000,Units=km
new line.RML10223022 bus1=BBT5264833.2.0,bus2=RML1010223022.2.0,Phases=1,Linecode=CABBTG02_4_1,Length=0.017000000,Units=km
new line.RML10248609 bus1=BBT93307589.1.0,bus2=RML1010248609.1.0,Phases=1,Linecode=CABBTG02_4_1,Length=0.017000000,Units=km
new line.RML10266794 bus1=BBT85169.2.0,bus2=RML1010266794.2.0,Phases=1,Linecode=CABBTG02_4_1,Length=0.017000000,Units=km
new line.RML10268692 bus1=BBT93301492.1.0,bus2=RML1010268692.1.0,Phases=1,Linecode=CABBTG02_4_1,Length=0.017000000,Units=km
new line.RML10269042 bus1=BBT4022760.1.0,bus2=RML1010269042.1.0,Phases=1,Linecode=CABBTG02_4_1,Length=0.017000000,Units=km
new line.RML10283093 bus1=BBT84475486.2.0,bus2=RML1010283093.2.0,Phases=1,Linecode=CABBTG02_4_1,Length=0.017000000,Units=km
new line.RML10283097 bus1=BBT87395.1.2.0,bus2=RML1010283097.1.2.0,Phases=2,Linecode=CABBTG05_4_2,Length=0.017000000,Units=km
new line.RML10283099 bus1=BBT144764225.1.2.0,bus2=RML1010283099.1.2.0,Phases=2,Linecode=CABBTG05_4_2,Length=0.017000000,Units=km
new line.RML10283102 bus1=BBT144764239.1.2.3.0,bus2=RML1010283102.1.2.3.0,Phases=3,Linecode=CABBTG06_4_3,Length=0.017000000,Units=km
new line.RML10283111 bus1=BBT88081.2.0,bus2=RML1010283111.2.0,Phases=1,Linecode=CABBTG02_4_1,Length=0.017000000,Units=km
new line.RML10283115 bus1=BBT144764204.1.2.3.0,bus2=RML1010283115.1.2.3.0,Phases=3,Linecode=CABBTG06_4_3,Length=0.017000000,Units=km
new line.RML10283117 bus1=BBT86821.1.2.0,bus2=RML1010283117.1.2.0,Phases=2,Linecode=CABBTG05_4_2,Length=0.017000000,Units=km
new line.RML10283157 bus1=BBT85428.2.0,bus2=RML1010283157.2.0,Phases=1,Linecode=CABBTG02_4_1,Length=0.017000000,Units=km
new line.RML10039636 bus1=BBT148230138.1.2.0,bus2=RML1010039636.1.2.0,Phases=2,Linecode=CABBTG05_4_2,Length=0.017000000,Units=km
new line.RML10059375 bus1=BBT81536.1.2.0,bus2=RML1010059375.1.2.0,Phases=2,Linecode=CABBTG04_4_2,Length=0.017000000,Units=km
new line.RML10059455 bus1=BBT93300288.2.0,bus2=RML1010059455.2.0,Phases=1,Linecode=CABBTG02_4_1,Length=0.017000000,Units=km
new line.RML10089522 bus1=BBT173789.1.2.0,bus2=RML1010089522.1.2.0,Phases=2,Linecode=CABBTG05_4_2,Length=0.017000000,Units=km
new line.RML10089531 bus1=BBT2749327.2.0,bus2=RML1010089531.2.0,Phases=1,Linecode=CABBTG02_4_1,Length=0.017000000,Units=km
new line.RML10089850 bus1=BBT258293.1.2.0,bus2=RML1010089850.1.2.0,Phases=2,Linecode=CABBTG05_4_2,Length=0.017000000,Units=km
new line.RML10089921 bus1=BBT175455.1.0,bus2=RML1010089921.1.0,Phases=1,Linecode=CABBTG02_4_1,Length=0.017000000,Units=km
new line.RML10090547 bus1=BBT175259.1.0,bus2=RML1010090547.1.0,Phases=1,Linecode=CABBTG02_4_1,Length=0.017000000,Units=km
new line.RML10102984 bus1=BBT79912.1.2.3.0,bus2=RML1010102984.1.2.3.0,Phases=3,Linecode=CABBTG06_4_3,Length=0.017000000,Units=km
new line.RML10102994 bus1=BBT4022256.1.0,bus2=RML1010102994.1.0,Phases=1,Linecode=CABBTG01_4_1,Length=0.017000000,Units=km
new line.RML10103488 bus1=BBT288876.1.2.0,bus2=RML1010103488.1.2.0,Phases=2,Linecode=CABBTG04_4_2,Length=0.017000000,Units=km
new line.RML10103767 bus1=BBT4251149.1.0,bus2=RML1010103767.1.0,Phases=1,Linecode=CABBTG01_4_1,Length=0.017000000,Units=km
new line.RML10103902 bus1=BBT88116.1.0,bus2=RML1010103902.1.0,Phases=1,Linecode=CABBTG01_4_1,Length=0.017000000,Units=km
new line.RML10118971 bus1=BBT86772.3.0,bus2=RML1010118971.3.0,Phases=1,Linecode=CABBTG01_4_1,Length=0.017000000,Units=km
new line.RML10120684 bus1=BBT86352.1.0,bus2=RML1010120684.1.0,Phases=1,Linecode=CABBTG02_4_1,Length=0.017000000,Units=km
new line.RML10134676 bus1=BBT81389.1.0,bus2=RML1010134676.1.0,Phases=1,Linecode=CABBTG02_4_1,Length=0.017000000,Units=km
new line.RML10134686 bus1=BBT4022025.2.0,bus2=RML1010134686.2.0,Phases=1,Linecode=CABBTG02_4_1,Length=0.017000000,Units=km
new line.RML10136779 bus1=BBT4022018.2.0,bus2=RML1010136779.2.0,Phases=1,Linecode=CABBTG02_4_1,Length=0.017000000,Units=km
new line.RML10136851 bus1=BBT4022123.2.0,bus2=RML1010136851.2.0,Phases=1,Linecode=CABBTG02_4_1,Length=0.017000000,Units=km
new line.RML10137136 bus1=BBT85463.2.0,bus2=RML1010137136.2.0,Phases=1,Linecode=CABBTG02_4_1,Length=0.017000000,Units=km
new line.RML10173779 bus1=BBT150094653.1.2.0,bus2=RML1010173779.1.2.0,Phases=2,Linecode=CABBTG05_4_2,Length=0.017000000,Units=km
new line.RML10175139 bus1=BBT174125.1.2.0,bus2=RML1010175139.1.2.0,Phases=2,Linecode=CABBTG05_4_2,Length=0.017000000,Units=km
new line.RML10175153 bus1=BBT3627869.1.2.0,bus2=RML1010175153.1.2.0,Phases=2,Linecode=CABBTG05_4_2,Length=0.017000000,Units=km
new line.RML10175155 bus1=BBT304864.1.2.0,bus2=RML1010175155.1.2.0,Phases=2,Linecode=CABBTG05_4_2,Length=0.017000000,Units=km
new line.RML10175201 bus1=BBT174125.1.2.0,bus2=RML1010175201.1.2.0,Phases=2,Linecode=CABBTG05_4_2,Length=0.017000000,Units=km
new line.RML10175257 bus1=BBT304934.1.0,bus2=RML1010175257.1.0,Phases=1,Linecode=CABBTG02_4_1,Length=0.017000000,Units=km
new line.RML10175392 bus1=BBT4021808.3.0,bus2=RML1010175392.3.0,Phases=1,Linecode=CABBTG02_4_1,Length=0.017000000,Units=km
new line.RML10175395 bus1=BBT4021738.1.2.0,bus2=RML1010175395.1.2.0,Phases=2,Linecode=CABBTG05_4_2,Length=0.017000000,Units=km
new line.RML10175427 bus1=BBT174139.1.2.0,bus2=RML1010175427.1.2.0,Phases=2,Linecode=CABBTG05_4_2,Length=0.017000000,Units=km
new line.RML10175989 bus1=BBT4021885.2.0,bus2=RML1010175989.2.0,Phases=1,Linecode=CABBTG02_4_1,Length=0.017000000,Units=km
new line.RML10176076 bus1=BBT85659.1.0,bus2=RML1010176076.1.0,Phases=1,Linecode=CABBTG01_4_1,Length=0.017000000,Units=km
new line.RML10176173 bus1=BBT93326559.1.0,bus2=RML1010176173.1.0,Phases=1,Linecode=CABBTG02_4_1,Length=0.017000000,Units=km
new line.RML10176181 bus1=BBT4022473.2.0,bus2=RML1010176181.2.0,Phases=1,Linecode=CABBTG02_4_1,Length=0.017000000,Units=km
new line.RML10185170 bus1=BBT133911033.1.2.0,bus2=RML1010185170.1.2.0,Phases=2,Linecode=CABBTG05_4_2,Length=0.017000000,Units=km
new line.RML10186886 bus1=BBT3923507.1.2.0,bus2=RML1010186886.1.2.0,Phases=2,Linecode=CABBTG05_4_2,Length=0.017000000,Units=km
new line.RML10208179 bus1=BBT81396.1.2.3.0,bus2=RML1010208179.1.2.3.0,Phases=3,Linecode=CABBTG06_4_3,Length=0.017000000,Units=km
new line.RML10209476 bus1=BBT4021850.3.0,bus2=RML1010209476.3.0,Phases=1,Linecode=CABBTG02_4_1,Length=0.017000000,Units=km
new line.RML10209816 bus1=BBT84238.3.0,bus2=RML1010209816.3.0,Phases=1,Linecode=CABBTG02_4_1,Length=0.017000000,Units=km
new line.RML10224627 bus1=BBT7067669.1.2.0,bus2=RML1010224627.1.2.0,Phases=2,Linecode=CABBTG05_4_2,Length=0.017000000,Units=km
new line.RML10224672 bus1=BBT81333.2.3.0,bus2=RML1010224672.2.3.0,Phases=2,Linecode=CABBTG05_4_2,Length=0.017000000,Units=km
new line.RML10224700 bus1=BBT174923.1.0,bus2=RML1010224700.1.0,Phases=1,Linecode=CABBTG02_4_1,Length=0.017000000,Units=km
new line.RML10292215 bus1=BBT3068324.1.0,bus2=RML1010292215.1.0,Phases=1,Linecode=CABBTG02_4_1,Length=0.017000000,Units=km
new line.RML10292278 bus1=BBT80647.1.2.3.0,bus2=RML1010292278.1.2.3.0,Phases=3,Linecode=CABBTG06_4_3,Length=0.017000000,Units=km
new line.RML10293249 bus1=BBT4021717.2.0,bus2=RML1010293249.2.0,Phases=1,Linecode=CABBTG02_4_1,Length=0.017000000,Units=km
new line.RML10293253 bus1=BBT304906.1.2.3.0,bus2=RML1010293253.1.2.3.0,Phases=3,Linecode=CABBTG06_4_3,Length=0.017000000,Units=km
new line.RML10323234 bus1=BBT93223491.1.2.0,bus2=RML1010323234.1.2.0,Phases=2,Linecode=CABBTG05_4_2,Length=0.017000000,Units=km
new line.RML10323235 bus1=BBT93300288.1.2.0,bus2=RML1010323235.1.2.0,Phases=2,Linecode=CABBTG05_4_2,Length=0.017000000,Units=km
new line.RML10323643 bus1=BBT326389.2.0,bus2=RML1010323643.2.0,Phases=1,Linecode=CABBTG02_4_1,Length=0.017000000,Units=km
new line.RML10323793 bus1=BBT8218938.1.0,bus2=RML1010323793.1.0,Phases=1,Linecode=CABBTG02_4_1,Length=0.017000000,Units=km
new line.RML10323804 bus1=BBT3573766.1.2.0,bus2=RML1010323804.1.2.0,Phases=2,Linecode=CABBTG05_4_2,Length=0.017000000,Units=km
new line.RML10324303 bus1=BBT149717077.1.2.0,bus2=RML1010324303.1.2.0,Phases=2,Linecode=CABBTG05_4_2,Length=0.017000000,Units=km
new line.RML10324812 bus1=BBT302533.1.2.0,bus2=RML1010324812.1.2.0,Phases=2,Linecode=CABBTG05_4_2,Length=0.017000000,Units=km
new line.RML10333703 bus1=BBT4022704.1.2.0,bus2=RML1010333703.1.2.0,Phases=2,Linecode=CABBTG05_4_2,Length=0.017000000,Units=km
new line.RML10333745 bus1=BBT85484.1.2.0,bus2=RML1010333745.1.2.0,Phases=2,Linecode=CABBTG05_4_2,Length=0.017000000,Units=km
new line.RML10345169 bus1=BBT3627862.1.0,bus2=RML1010345169.1.0,Phases=1,Linecode=CABBTG01_4_1,Length=0.017000000,Units=km
new line.RML10360635 bus1=BBT86230477.1.2.0,bus2=RML1010360635.1.2.0,Phases=2,Linecode=CABBTG05_4_2,Length=0.017000000,Units=km
new line.RML10360643 bus1=BBT93223400.1.0,bus2=RML1010360643.1.0,Phases=1,Linecode=CABBTG02_4_1,Length=0.017000000,Units=km
new line.RML10363043 bus1=BBT93223491.1.2.0,bus2=RML1010363043.1.2.0,Phases=2,Linecode=CABBTG05_4_2,Length=0.017000000,Units=km
new line.RML10046726 bus1=BBT148384824.1.2.3.0,bus2=RML1010046726.1.2.3.0,Phases=3,Linecode=CABBTG06_4_3,Length=0.017000000,Units=km
new line.RML10059847 bus1=BBT4333623.1.0,bus2=RML1010059847.1.0,Phases=1,Linecode=CABBTG02_4_1,Length=0.017000000,Units=km
new line.RML10059848 bus1=BBT174909.1.2.0,bus2=RML1010059848.1.2.0,Phases=2,Linecode=CABBTG05_4_2,Length=0.017000000,Units=km
new line.RML10060036 bus1=BBT3378452.1.2.0,bus2=RML1010060036.1.2.0,Phases=2,Linecode=CABBTG05_4_2,Length=0.017000000,Units=km
new line.RML10062592 bus1=BBT5336730.3.0,bus2=RML1010062592.3.0,Phases=1,Linecode=CABBTG02_4_1,Length=0.017000000,Units=km
new line.RML10062698 bus1=BBT4858462.2.0,bus2=RML1010062698.2.0,Phases=1,Linecode=CABBTG02_4_1,Length=0.017000000,Units=km
new line.RML10062733 bus1=BBT288757.1.3.0,bus2=RML1010062733.1.3.0,Phases=2,Linecode=CABBTG05_4_2,Length=0.017000000,Units=km
new line.RML10063123 bus1=BBT3378403.1.2.0,bus2=RML1010063123.1.2.0,Phases=2,Linecode=CABBTG05_4_2,Length=0.017000000,Units=km
new line.RML10063316 bus1=BBT4019911.2.0,bus2=RML1010063316.2.0,Phases=1,Linecode=CABBTG02_4_1,Length=0.017000000,Units=km
new line.RML10063321 bus1=BBT4022522.2.0,bus2=RML1010063321.2.0,Phases=1,Linecode=CABBTG02_4_1,Length=0.017000000,Units=km
new line.RML10091043 bus1=BBT2680629.2.0,bus2=RML1010091043.2.0,Phases=1,Linecode=CABBTG02_4_1,Length=0.017000000,Units=km
new line.RML10092374 bus1=BBT79583.2.3.0,bus2=RML1010092374.2.3.0,Phases=2,Linecode=CABBTG05_4_2,Length=0.017000000,Units=km
new line.RML10094494 bus1=BBT190505.1.0,bus2=RML1010094494.1.0,Phases=1,Linecode=CABBTG02_4_1,Length=0.017000000,Units=km
new line.RML10108411 bus1=BBT4022018.1.0,bus2=RML1010108411.1.0,Phases=1,Linecode=CABBTG02_4_1,Length=0.017000000,Units=km
new line.RML10108559 bus1=BBT258258.1.2.0,bus2=RML1010108559.1.2.0,Phases=2,Linecode=CABBTG05_4_2,Length=0.017000000,Units=km
new line.RML10108579 bus1=BBT174909.1.0,bus2=RML1010108579.1.0,Phases=1,Linecode=CABBTG02_4_1,Length=0.017000000,Units=km
new line.RML10124438 bus1=BBT82845.2.0,bus2=RML1010124438.2.0,Phases=1,Linecode=CABBTG02_4_1,Length=0.017000000,Units=km
new line.RML10124446 bus1=BBT84189.1.0,bus2=RML1010124446.1.0,Phases=1,Linecode=CABBTG02_4_1,Length=0.017000000,Units=km
new line.RML10140446 bus1=BBT304948.2.3.0,bus2=RML1010140446.2.3.0,Phases=2,Linecode=CABBTG05_4_2,Length=0.017000000,Units=km
new line.RML10140597 bus1=BBT323358.1.2.3.0,bus2=RML1010140597.1.2.3.0,Phases=3,Linecode=CABBTG06_4_3,Length=0.017000000,Units=km
new line.RML10141210 bus1=BBT153027.2.3.0,bus2=RML1010141210.2.3.0,Phases=2,Linecode=CABBTG05_4_2,Length=0.017000000,Units=km
new line.RML10141231 bus1=BBT3083941.1.2.0,bus2=RML1010141231.1.2.0,Phases=2,Linecode=CABBTG05_4_2,Length=0.017000000,Units=km
new line.RML10141304 bus1=BBT4021738.1.0,bus2=RML1010141304.1.0,Phases=1,Linecode=CABBTG02_4_1,Length=0.017000000,Units=km
new line.RML10177674 bus1=BBT93223400.1.0,bus2=RML1010177674.1.0,Phases=1,Linecode=CABBTG02_4_1,Length=0.017000000,Units=km
new line.RML10182659 bus1=BBT150207378.1.2.3.0,bus2=RML1010182659.1.2.3.0,Phases=3,Linecode=CABBTG06_4_3,Length=0.017000000,Units=km
new line.RML10200585 bus1=BBT4022501.2.0,bus2=RML1010200585.2.0,Phases=1,Linecode=CABBTG02_4_1,Length=0.017000000,Units=km
new line.RML10200591 bus1=BBT4021703.2.0,bus2=RML1010200591.2.0,Phases=1,Linecode=CABBTG02_4_1,Length=0.017000000,Units=km
new line.RML10200611 bus1=BBT93300288.1.0,bus2=RML1010200611.1.0,Phases=1,Linecode=CABBTG02_4_1,Length=0.017000000,Units=km
new line.RML10215890 bus1=BBT93300288.1.0,bus2=RML1010215890.1.0,Phases=1,Linecode=CABBTG02_4_1,Length=0.017000000,Units=km
new line.RML10254802 bus1=BBT86373.1.0,bus2=RML1010254802.1.0,Phases=1,Linecode=CABBTG02_4_1,Length=0.017000000,Units=km
new line.RML10257915 bus1=BBT79695.3.0,bus2=RML1010257915.3.0,Phases=1,Linecode=CABBTG02_4_1,Length=0.017000000,Units=km
new line.RML10258368 bus1=BBT93300288.1.0,bus2=RML1010258368.1.0,Phases=1,Linecode=CABBTG02_4_1,Length=0.017000000,Units=km
new line.RML10286129 bus1=BBT86256930.2.0,bus2=RML1010286129.2.0,Phases=1,Linecode=CABBTG02_4_1,Length=0.017000000,Units=km
new line.RML10286889 bus1=BBT3759063.1.0,bus2=RML1010286889.1.0,Phases=1,Linecode=CABBTG02_4_1,Length=0.017000000,Units=km
new line.RML10312940 bus1=BBT77833.1.2.0,bus2=RML1010312940.1.2.0,Phases=2,Linecode=CABBTG05_4_2,Length=0.017000000,Units=km
new line.RML10312948 bus1=BBT81508.1.2.0,bus2=RML1010312948.1.2.0,Phases=2,Linecode=CABBTG05_4_2,Length=0.017000000,Units=km
new line.RML10319045 bus1=BBT85120.1.2.0,bus2=RML1010319045.1.2.0,Phases=2,Linecode=CABBTG05_4_2,Length=0.017000000,Units=km
new line.RML10319052 bus1=BBT315756.1.2.0,bus2=RML1010319052.1.2.0,Phases=2,Linecode=CABBTG05_4_2,Length=0.017000000,Units=km
new line.RML10319060 bus1=BBT87388.1.0,bus2=RML1010319060.1.0,Phases=1,Linecode=CABBTG01_4_1,Length=0.017000000,Units=km
new line.RML10319062 bus1=BBT3330957.1.0,bus2=RML1010319062.1.0,Phases=1,Linecode=CABBTG01_4_1,Length=0.017000000,Units=km
new line.RML10351483 bus1=BBT93300288.1.0,bus2=RML1010351483.1.0,Phases=1,Linecode=CABBTG02_4_1,Length=0.017000000,Units=km
new line.RML10351568 bus1=BBT4022543.1.2.0,bus2=RML1010351568.1.2.0,Phases=2,Linecode=CABBTG05_4_2,Length=0.017000000,Units=km
new line.RML10351777 bus1=BBT4062261.1.2.0,bus2=RML1010351777.1.2.0,Phases=2,Linecode=CABBTG05_4_2,Length=0.017000000,Units=km
new line.RML10369382 bus1=BBT83328.1.2.0,bus2=RML1010369382.1.2.0,Phases=2,Linecode=CABBTG05_4_2,Length=0.017000000,Units=km
new line.RML10369462 bus1=BBT171521.1.2.3.0,bus2=RML1010369462.1.2.3.0,Phases=3,Linecode=CABBTG06_4_3,Length=0.017000000,Units=km
new line.RML10371220 bus1=BBT77742.1.2.0,bus2=RML1010371220.1.2.0,Phases=2,Linecode=CABBTG05_4_2,Length=0.017000000,Units=km
new line.RML10371273 bus1=BBT93315429.1.2.0,bus2=RML1010371273.1.2.0,Phases=2,Linecode=CABBTG05_4_2,Length=0.017000000,Units=km
new line.RML10385761 bus1=BBT93298636.2.0,bus2=RML1010385761.2.0,Phases=1,Linecode=CABBTG02_4_1,Length=0.017000000,Units=km
new line.RML10387265 bus1=BBT4021864.1.2.0,bus2=RML1010387265.1.2.0,Phases=2,Linecode=CABBTG05_4_2,Length=0.017000000,Units=km
new line.RML10387320 bus1=BBT341292.1.2.0,bus2=RML1010387320.1.2.0,Phases=2,Linecode=CABBTG05_4_2,Length=0.017000000,Units=km
new line.RML10411305 bus1=BBT86263580.1.0,bus2=RML1010411305.1.0,Phases=1,Linecode=CABBTG02_4_1,Length=0.017000000,Units=km
new line.RML10411443 bus1=BBT4022522.1.2.0,bus2=RML1010411443.1.2.0,Phases=2,Linecode=CABBTG13_4_2,Length=0.017000000,Units=km
new line.RML10427398 bus1=BBT93223400.1.0,bus2=RML1010427398.1.0,Phases=1,Linecode=CABBTG02_4_1,Length=0.017000000,Units=km
new line.RML10429346 bus1=BBT85673.1.2.3.0,bus2=RML1010429346.1.2.3.0,Phases=3,Linecode=CABBTG07_4_3,Length=0.017000000,Units=km
new line.RML10429363 bus1=BBT93326559.1.2.0,bus2=RML1010429363.1.2.0,Phases=2,Linecode=CABBTG05_4_2,Length=0.017000000,Units=km
new line.RML10429406 bus1=BBT153785045.1.2.0,bus2=RML1010429406.1.2.0,Phases=2,Linecode=CABBTG05_4_2,Length=0.012000000,Units=km
new line.RML10442170 bus1=BBT86263587.1.2.0,bus2=RML1010442170.1.2.0,Phases=2,Linecode=CABBTG05_4_2,Length=0.017000000,Units=km
new line.RML10444426 bus1=BBT171297.1.2.0,bus2=RML1010444426.1.2.0,Phases=2,Linecode=CABBTG05_4_2,Length=0.017000000,Units=km
new line.RML10284239 bus1=BBT83517.2.3.0,bus2=RML1010284239.2.3.0,Phases=2,Linecode=CABBTG05_4_2,Length=0.017000000,Units=km
new line.RML10284241 bus1=BBT153391.2.0,bus2=RML1010284241.2.0,Phases=1,Linecode=CABBTG02_4_1,Length=0.017000000,Units=km
new line.RML10284245 bus1=BBT77126.1.2.0,bus2=RML1010284245.1.2.0,Phases=2,Linecode=CABBTG05_4_2,Length=0.013000000,Units=km
new line.RML10284247 bus1=BBT331387.1.2.0,bus2=RML1010284247.1.2.0,Phases=2,Linecode=CABBTG05_4_2,Length=0.017000000,Units=km
new line.RML10284249 bus1=BBT79940.1.0,bus2=RML1010284249.1.0,Phases=1,Linecode=CABBTG02_4_1,Length=0.017000000,Units=km
new line.RML10284254 bus1=BBT82194.2.0,bus2=RML1010284254.2.0,Phases=1,Linecode=CABBTG02_4_1,Length=0.017000000,Units=km
new line.RML10284256 bus1=BBT3378326.1.2.0,bus2=RML1010284256.1.2.0,Phases=2,Linecode=CABBTG05_4_2,Length=0.017000000,Units=km
new line.RML10284260 bus1=BBT4251163.2.0,bus2=RML1010284260.2.0,Phases=1,Linecode=CABBTG02_4_1,Length=0.017000000,Units=km
new line.RML10284263 bus1=BBT4022277.1.0,bus2=RML1010284263.1.0,Phases=1,Linecode=CABBTG02_4_1,Length=0.017000000,Units=km