! manter este comentario para compatibilidade do C#
new circuit.alimAFNU15 bus1=BMT156190736.1.2.3,basekv=13.800000000,pu=1.040000000

