new line.16132992 bus1=BBT9233905.1.2.3.0,bus2=BBT9234227.1.2.3.0,Phases=3,Linecode=BT514_BT514_5_3_1,Length=0.008488000,Units=km
new line.16132999 bus1=BBT9234227.1.2.3.0,bus2=BBT9234549.1.2.3.0,Phases=3,Linecode=BT514_BT514_5_3_1,Length=0.012732000,Units=km
new line.16133027 bus1=BBT9240408.1.2.3.0,bus2=BBT9240415.1.2.3.0,Phases=3,Linecode=BT805_BT805_4_3_4,Length=0.022210000,Units=km
new line.17031414 bus1=BBT44543711.1.2.3.0,bus2=BBT44543718.1.2.3.0,Phases=3,Linecode=BT513_BT513_7_3_1,Length=0.000501000,Units=km
new line.18819669 bus1=BBT2746808.1.3.0,bus2=BBT152086366.1.3.0,Phases=2,Linecode=BT503_BT503_5_2_1,Length=0.040035000,Units=km
new line.18819670 bus1=BBT152086366.1.3.0,bus2=BBT152086367.1.3.0,Phases=2,Linecode=BT503_BT503_5_2_1,Length=0.016768000,Units=km
new line.18819671 bus1=BBT152086367.1.3.0,bus2=BBT152086368.1.3.0,Phases=2,Linecode=BT503_BT503_5_2_1,Length=0.009222000,Units=km
new line.18819672 bus1=BBT152086367.1.3.0,bus2=BBT152086387.1.3.0,Phases=2,Linecode=BT503_BT503_5_2_1,Length=0.011049000,Units=km
new line.18819673 bus1=BBT152086366.1.3.0,bus2=BBT152086405.1.3.0,Phases=2,Linecode=BT503_BT503_5_2_1,Length=0.029025000,Units=km
new line.18819675 bus1=BBT152086405.1.3.0,bus2=BBT152086409.1.3.0,Phases=2,Linecode=BT503_BT503_5_2_1,Length=0.010003000,Units=km
new line.18819676 bus1=BBT152086409.1.3.0,bus2=BBT152086440.1.3.0,Phases=2,Linecode=BT503_BT503_5_2_1,Length=0.009437000,Units=km
new line.18819678 bus1=BBT152086440.1.3.0,bus2=BBT152086464.1.3.0,Phases=2,Linecode=BT503_BT503_5_2_1,Length=0.009902000,Units=km
new line.18819679 bus1=BBT152086464.1.3.0,bus2=BBT152086475.1.3.0,Phases=2,Linecode=BT503_BT503_5_2_1,Length=0.010633000,Units=km
new line.18819680 bus1=BBT152086366.1.3.0,bus2=BBT152086486.1.3.0,Phases=2,Linecode=BT503_BT503_5_2_1,Length=0.009490000,Units=km
new line.18819681 bus1=BBT152086486.1.3.0,bus2=BBT152086499.1.3.0,Phases=2,Linecode=BT503_BT503_5_2_1,Length=0.008547000,Units=km
new line.18819682 bus1=BBT152086475.1.3.0,bus2=BBT152086529.1.3.0,Phases=2,Linecode=BT503_BT503_5_2_1,Length=0.009852000,Units=km
new line.18819683 bus1=BBT2746808.1.3.0,bus2=BBT152086585.1.3.0,Phases=2,Linecode=BT503_BT503_5_2_1,Length=0.005101000,Units=km
new line.18819692 bus1=BBT152086368.1.3.0,bus2=BBT152087014.1.3.0,Phases=2,Linecode=BT503_BT503_5_2_1,Length=0.004001000,Units=km
new line.18819693 bus1=BBT152086367.1.3.0,bus2=BBT152087030.1.3.0,Phases=2,Linecode=BT503_BT503_5_2_1,Length=0.004001000,Units=km
new line.18819694 bus1=BBT152086387.1.3.0,bus2=BBT152087033.1.3.0,Phases=2,Linecode=BT503_BT503_5_2_1,Length=0.004001000,Units=km
new line.18819695 bus1=BBT152086366.1.3.0,bus2=BBT152087048.1.3.0,Phases=2,Linecode=BT503_BT503_5_2_1,Length=0.004125000,Units=km
new line.18819697 bus1=BBT152086486.1.3.0,bus2=BBT152087066.1.3.0,Phases=2,Linecode=BT503_BT503_5_2_1,Length=0.004001000,Units=km
new line.18819698 bus1=BBT152086499.1.3.0,bus2=BBT152087067.1.3.0,Phases=2,Linecode=BT503_BT503_5_2_1,Length=0.004001000,Units=km
new line.18819699 bus1=BBT152086405.1.3.0,bus2=BBT152087068.1.3.0,Phases=2,Linecode=BT503_BT503_5_2_1,Length=0.004001000,Units=km
new line.18819700 bus1=BBT152086409.1.3.0,bus2=BBT152087069.1.3.0,Phases=2,Linecode=BT503_BT503_5_2_1,Length=0.004125000,Units=km
new line.18819701 bus1=BBT152086440.1.3.0,bus2=BBT152087073.1.3.0,Phases=2,Linecode=BT503_BT503_5_2_1,Length=0.003607000,Units=km
new line.18819702 bus1=BBT152086464.1.3.0,bus2=BBT152087074.1.3.0,Phases=2,Linecode=BT503_BT503_5_2_1,Length=0.003607000,Units=km
new line.18819703 bus1=BBT152086475.1.3.0,bus2=BBT152087077.1.3.0,Phases=2,Linecode=BT503_BT503_5_2_1,Length=0.003164000,Units=km
new line.18819704 bus1=BBT152086529.1.3.0,bus2=BBT152087081.1.3.0,Phases=2,Linecode=BT503_BT503_5_2_1,Length=0.003607000,Units=km
new line.18819755 bus1=BBT2712858.1.2.0,bus2=BBT152088611.1.2.0,Phases=2,Linecode=BT503_BT503_5_2_1,Length=0.003607000,Units=km
new line.18819757 bus1=BBT152088611.1.2.0,bus2=BBT152088644.1.2.0,Phases=2,Linecode=BT503_BT503_5_2_1,Length=0.023713000,Units=km
new line.18819758 bus1=BBT152088644.1.2.0,bus2=BBT152088645.1.2.0,Phases=2,Linecode=BT503_BT503_5_2_1,Length=0.006085000,Units=km
new line.18819759 bus1=BBT152088645.1.2.0,bus2=BBT152088689.1.2.0,Phases=2,Linecode=BT503_BT503_5_2_1,Length=0.009437000,Units=km
new line.18819760 bus1=BBT152088689.1.2.0,bus2=BBT152088692.1.2.0,Phases=2,Linecode=BT503_BT503_5_2_1,Length=0.008002000,Units=km
new line.18819761 bus1=BBT152088692.1.2.0,bus2=BBT152088703.1.2.0,Phases=2,Linecode=BT503_BT503_5_2_1,Length=0.008249000,Units=km
new line.18819763 bus1=BBT152088703.1.2.0,bus2=BBT152088711.1.2.0,Phases=2,Linecode=BT503_BT503_5_2_1,Length=0.008249000,Units=km
new line.18819765 bus1=BBT152088711.1.2.0,bus2=BBT152088800.1.2.0,Phases=2,Linecode=BT503_BT503_5_2_1,Length=0.009058000,Units=km
new line.18819766 bus1=BBT152088800.1.2.0,bus2=BBT152088813.1.2.0,Phases=2,Linecode=BT503_BT503_5_2_1,Length=0.007073000,Units=km
new line.18819767 bus1=BBT152088813.1.2.0,bus2=BBT152088835.1.2.0,Phases=2,Linecode=BT503_BT503_5_2_1,Length=0.007282000,Units=km
new line.18819769 bus1=BBT152088835.1.2.0,bus2=BBT152088847.1.2.0,Phases=2,Linecode=BT503_BT503_5_2_1,Length=0.007213000,Units=km
new line.18819770 bus1=BBT152088847.1.2.0,bus2=BBT152088854.1.2.0,Phases=2,Linecode=BT503_BT503_5_2_1,Length=0.007213000,Units=km
new line.18819771 bus1=BBT152088854.1.2.0,bus2=BBT152088864.1.2.0,Phases=2,Linecode=BT503_BT503_5_2_1,Length=0.008065000,Units=km
new line.18819787 bus1=BBT152088645.1.2.0,bus2=BBT152090057.1.2.0,Phases=2,Linecode=BT503_BT503_5_2_1,Length=0.004474000,Units=km
new line.18819788 bus1=BBT152088689.1.2.0,bus2=BBT152090064.1.2.0,Phases=2,Linecode=BT503_BT503_5_2_1,Length=0.004125000,Units=km
new line.18819789 bus1=BBT152088692.1.2.0,bus2=BBT152090076.1.2.0,Phases=2,Linecode=BT503_BT503_5_2_1,Length=0.004001000,Units=km
new line.18819790 bus1=BBT152088703.1.2.0,bus2=BBT152090077.1.2.0,Phases=2,Linecode=BT503_BT503_5_2_1,Length=0.004125000,Units=km
new line.18819791 bus1=BBT152088711.1.2.0,bus2=BBT152090083.1.2.0,Phases=2,Linecode=BT503_BT503_5_2_1,Length=0.004001000,Units=km
new line.18819793 bus1=BBT152088800.1.2.0,bus2=BBT152090136.1.2.0,Phases=2,Linecode=BT503_BT503_5_2_1,Length=0.004125000,Units=km
new line.18819794 bus1=BBT152088813.1.2.0,bus2=BBT152090137.1.2.0,Phases=2,Linecode=BT503_BT503_5_2_1,Length=0.004001000,Units=km
new line.18819796 bus1=BBT152088847.1.2.0,bus2=BBT152090186.1.2.0,Phases=2,Linecode=BT503_BT503_5_2_1,Length=0.004244000,Units=km
new line.18819798 bus1=BBT152088854.1.2.0,bus2=BBT152090195.1.2.0,Phases=2,Linecode=BT503_BT503_5_2_1,Length=0.004001000,Units=km
new line.18819799 bus1=BBT152088864.1.2.0,bus2=BBT152090198.1.2.0,Phases=2,Linecode=BT503_BT503_5_2_1,Length=0.004125000,Units=km
new line.18819803 bus1=BBT152088835.1.2.0,bus2=BBT152090249.1.2.0,Phases=2,Linecode=BT503_BT503_5_2_1,Length=0.004474000,Units=km
new line.18819856 bus1=BBT2730876.1.2.3.0,bus2=BBT152091605.1.2.3.0,Phases=3,Linecode=BT503_BT503_5_3_1,Length=0.005002000,Units=km
new line.18819857 bus1=BBT152091605.1.2.3.0,bus2=BBT152091624.1.2.3.0,Phases=3,Linecode=BT503_BT503_5_3_1,Length=0.025086000,Units=km
new line.18819859 bus1=BBT152091624.1.3.0,bus2=BBT152091759.1.3.0,Phases=2,Linecode=BT503_BT503_5_2_1,Length=0.009222000,Units=km
new line.18819860 bus1=BBT152091759.1.3.0,bus2=BBT152091760.1.3.0,Phases=2,Linecode=BT503_BT503_5_2_1,Length=0.008002000,Units=km
new line.18819861 bus1=BBT152091760.1.3.0,bus2=BBT152091811.1.3.0,Phases=2,Linecode=BT503_BT503_5_2_1,Length=0.017209000,Units=km
new line.18819862 bus1=BBT152091811.1.3.0,bus2=BBT152091812.1.3.0,Phases=2,Linecode=BT503_BT503_5_2_1,Length=0.012045000,Units=km
new line.18819863 bus1=BBT152091811.1.3.0,bus2=BBT152091838.1.3.0,Phases=2,Linecode=BT503_BT503_5_2_1,Length=0.025561000,Units=km
new line.18819864 bus1=BBT152091838.1.3.0,bus2=BBT152091839.1.3.0,Phases=2,Linecode=BT503_BT503_5_2_1,Length=0.010299000,Units=km
new line.18819865 bus1=BBT152091838.1.3.0,bus2=BBT152091840.1.3.0,Phases=2,Linecode=BT503_BT503_5_2_1,Length=0.011317000,Units=km
new line.18819866 bus1=BBT152091624.1.2.0,bus2=BBT152091843.1.2.0,Phases=2,Linecode=BT503_BT503_5_2_1,Length=0.021029000,Units=km
new line.18819867 bus1=BBT152091843.1.2.0,bus2=BBT152091923.1.2.0,Phases=2,Linecode=BT503_BT503_5_2_1,Length=0.027900000,Units=km
new line.18819868 bus1=BBT152091923.1.2.0,bus2=BBT152091930.1.2.0,Phases=2,Linecode=BT503_BT503_5_2_1,Length=0.016004000,Units=km
new line.18819869 bus1=BBT152091930.1.2.0,bus2=BBT152091973.1.2.0,Phases=2,Linecode=BT503_BT503_5_2_1,Length=0.013420000,Units=km
new line.18819870 bus1=BBT152091973.1.2.0,bus2=BBT152091974.1.2.0,Phases=2,Linecode=BT503_BT503_5_2_1,Length=0.014769000,Units=km
new line.18819871 bus1=BBT152091974.1.2.0,bus2=BBT152091975.1.2.0,Phases=2,Linecode=BT503_BT503_5_2_1,Length=0.013042000,Units=km
new line.18819872 bus1=BBT152091975.1.2.0,bus2=BBT152092010.1.2.0,Phases=2,Linecode=BT503_BT503_5_2_1,Length=0.018793000,Units=km
new line.18819874 bus1=BBT152092010.1.2.0,bus2=BBT152092067.1.2.0,Phases=2,Linecode=BT503_BT503_5_2_1,Length=0.011184000,Units=km
new line.18819875 bus1=BBT152091839.1.3.0,bus2=BBT152092483.1.3.0,Phases=2,Linecode=BT503_BT503_5_2_1,Length=0.004125000,Units=km
new line.18819876 bus1=BBT152091838.1.3.0,bus2=BBT152092556.1.3.0,Phases=2,Linecode=BT503_BT503_5_2_1,Length=0.004474000,Units=km
new line.18819877 bus1=BBT152091840.1.3.0,bus2=BBT152092582.1.3.0,Phases=2,Linecode=BT503_BT503_5_2_1,Length=0.003607000,Units=km
new line.18819899 bus1=BBT152091624.1.2.0,bus2=BBT152093385.1.2.0,Phases=2,Linecode=BT503_BT503_5_2_1,Length=0.013896000,Units=km
new line.18819900 bus1=BBT152093385.1.2.0,bus2=BBT152093386.1.2.0,Phases=2,Linecode=BT503_BT503_5_2_1,Length=0.033024000,Units=km
new line.18819901 bus1=BBT152093386.1.2.0,bus2=BBT152093388.1.2.0,Phases=2,Linecode=BT503_BT503_5_2_1,Length=0.015816000,Units=km
new line.18819905 bus1=BBT152093385.1.2.0,bus2=BBT152093487.1.2.0,Phases=2,Linecode=BT503_BT503_5_2_1,Length=0.004001000,Units=km
new line.18819906 bus1=BBT152093386.1.2.0,bus2=BBT152093488.1.2.0,Phases=2,Linecode=BT503_BT503_5_2_1,Length=0.004001000,Units=km
new line.18819907 bus1=BBT152093388.1.2.0,bus2=BBT152093500.1.2.0,Phases=2,Linecode=BT503_BT503_5_2_1,Length=0.004001000,Units=km
new line.18819908 bus1=BBT152091759.1.3.0,bus2=BBT152093521.1.3.0,Phases=2,Linecode=BT503_BT503_5_2_1,Length=0.004001000,Units=km
new line.18819909 bus1=BBT152091760.1.3.0,bus2=BBT152093522.1.3.0,Phases=2,Linecode=BT503_BT503_5_2_1,Length=0.004001000,Units=km
new line.18819910 bus1=BBT152091811.1.3.0,bus2=BBT152093526.1.3.0,Phases=2,Linecode=BT503_BT503_5_2_1,Length=0.004001000,Units=km
new line.18819911 bus1=BBT152091812.1.3.0,bus2=BBT152093550.1.3.0,Phases=2,Linecode=BT503_BT503_5_2_1,Length=0.004001000,Units=km
new line.18819912 bus1=BBT152091843.1.2.0,bus2=BBT152093596.1.2.0,Phases=2,Linecode=BT503_BT503_5_2_1,Length=0.004001000,Units=km
new line.18819913 bus1=BBT152091923.1.2.0,bus2=BBT152093597.1.2.0,Phases=2,Linecode=BT503_BT503_5_2_1,Length=0.004001000,Units=km
new line.18819914 bus1=BBT152091930.1.2.0,bus2=BBT152093603.1.2.0,Phases=2,Linecode=BT503_BT503_5_2_1,Length=0.004125000,Units=km
new line.18819915 bus1=BBT152091973.1.2.0,bus2=BBT152093610.1.2.0,Phases=2,Linecode=BT503_BT503_5_2_1,Length=0.004244000,Units=km
new line.18819916 bus1=BBT152091974.1.2.0,bus2=BBT152093640.1.2.0,Phases=2,Linecode=BT503_BT503_5_2_1,Length=0.004001000,Units=km
new line.18819917 bus1=BBT152091975.1.2.0,bus2=BBT152093661.1.2.0,Phases=2,Linecode=BT503_BT503_5_2_1,Length=0.004125000,Units=km
new line.18819918 bus1=BBT152092010.1.2.0,bus2=BBT152093692.1.2.0,Phases=2,Linecode=BT503_BT503_5_2_1,Length=0.004001000,Units=km
new line.18819919 bus1=BBT152092067.1.2.0,bus2=BBT152093693.1.2.0,Phases=2,Linecode=BT503_BT503_5_2_1,Length=0.003607000,Units=km
new line.18820052 bus1=BBT2731408.1.2.3.0,bus2=BBT152097248.1.2.3.0,Phases=3,Linecode=BT505_BT505_5_3_1,Length=0.006002000,Units=km
new line.18820053 bus1=BBT152097248.1.2.3.0,bus2=BBT152097249.1.2.3.0,Phases=3,Linecode=BT505_BT505_5_3_1,Length=0.013932000,Units=km
new line.18820054 bus1=BBT152097249.1.2.3.0,bus2=BBT152097254.1.2.3.0,Phases=3,Linecode=BT505_BT505_5_3_1,Length=0.045288000,Units=km
new line.18820055 bus1=BBT152097254.1.2.3.0,bus2=BBT152097255.1.2.3.0,Phases=3,Linecode=BT505_BT505_5_3_1,Length=0.046659000,Units=km
new line.18820066 bus1=BBT152097249.1.2.3.0,bus2=BBT152097597.1.2.3.0,Phases=3,Linecode=BT505_BT505_5_3_1,Length=0.003607000,Units=km
new line.18820067 bus1=BBT152097254.1.2.3.0,bus2=BBT152097612.1.2.3.0,Phases=3,Linecode=BT505_BT505_5_3_1,Length=0.004474000,Units=km
new line.18820068 bus1=BBT152097255.1.2.3.0,bus2=BBT152097613.1.2.3.0,Phases=3,Linecode=BT505_BT505_5_3_1,Length=0.003607000,Units=km
new line.18820070 bus1=BBT2712788.1.2.0,bus2=BBT152097692.1.2.0,Phases=2,Linecode=BT505_BT505_5_2_1,Length=0.005101000,Units=km
new line.18820072 bus1=BBT152097692.1.2.0,bus2=BBT152097696.1.2.0,Phases=2,Linecode=BT505_BT505_5_2_1,Length=0.023006000,Units=km
new line.18820073 bus1=BBT152097696.1.2.0,bus2=BBT152097700.1.2.0,Phases=2,Linecode=BT505_BT505_5_2_1,Length=0.041023000,Units=km
new line.18820074 bus1=BBT152097696.1.2.0,bus2=BBT152097707.1.2.0,Phases=2,Linecode=BT505_BT505_5_2_1,Length=0.040023000,Units=km
new line.18820076 bus1=BBT152097707.1.2.0,bus2=BBT152097711.1.2.0,Phases=2,Linecode=BT505_BT505_5_2_1,Length=0.039023000,Units=km
new line.18820079 bus1=BBT152097700.1.2.0,bus2=BBT152097805.1.2.0,Phases=2,Linecode=BT505_BT505_5_2_1,Length=0.005002000,Units=km
new line.18820080 bus1=BBT152097696.1.2.0,bus2=BBT152097806.1.2.0,Phases=2,Linecode=BT505_BT505_5_2_1,Length=0.005002000,Units=km
new line.18820081 bus1=BBT152097707.1.2.0,bus2=BBT152097807.1.2.0,Phases=2,Linecode=BT505_BT505_5_2_1,Length=0.006002000,Units=km
new line.18820082 bus1=BBT152097711.1.2.0,bus2=BBT152097808.1.2.0,Phases=2,Linecode=BT505_BT505_5_2_1,Length=0.005002000,Units=km
new line.18820083 bus1=BBT152097711.1.2.0,bus2=BBT152097809.1.2.0,Phases=2,Linecode=BT505_BT505_5_2_1,Length=0.026179000,Units=km
new line.18820084 bus1=BBT152097809.1.2.0,bus2=BBT152097810.1.2.0,Phases=2,Linecode=BT505_BT505_5_2_1,Length=0.038023000,Units=km
new line.13496099 bus1=BBT4259403.1.3.0,bus2=BBT4259417.1.3.0,Phases=2,Linecode=BT302_BT302_5_2_1,Length=0.013605000,Units=km
new line.13496106 bus1=BBT4259403.1.3.0,bus2=BBT4259410.1.3.0,Phases=2,Linecode=BT302_BT302_5_2_1,Length=0.021938000,Units=km
new line.13496120 bus1=BBT4259417.1.3.0,bus2=BBT4259438.1.3.0,Phases=2,Linecode=BT302_BT302_5_2_1,Length=0.022478000,Units=km
new line.13496127 bus1=BBT4259417.1.3.0,bus2=BBT4259424.1.3.0,Phases=2,Linecode=BT302_BT302_5_2_1,Length=0.011405000,Units=km
new line.13496169 bus1=BBT4259424.1.3.0,bus2=BBT4259431.1.3.0,Phases=2,Linecode=BT302_BT302_5_2_1,Length=0.014146000,Units=km
new line.16754375 bus1=BBT2604463.1.2.3.0,bus2=BBT44179998.1.2.3.0,Phases=3,Linecode=BT803_BT803_4_3_4,Length=0.024048000,Units=km
new line.17761262 bus1=BBT83200364.1.2.3.0,bus2=BBT83200679.1.2.3.0,Phases=3,Linecode=BT503_BT503_5_3_1,Length=0.004125000,Units=km
new line.17761269 bus1=BBT83200357.1.2.3.0,bus2=BBT83200686.1.2.3.0,Phases=3,Linecode=BT503_BT503_5_3_1,Length=0.004474000,Units=km
new line.18054590 bus1=BBT104145610.1.2.3.0,bus2=BBT2714111.1.2.3.0,Phases=3,Linecode=BT810_BT810_4_3_4,Length=0.017809000,Units=km
new line.18837938 bus1=BBT110415853.1.2.3.0,bus2=BBT152619147.1.2.3.0,Phases=3,Linecode=BT513_BT513_5_3_1,Length=0.009437000,Units=km
new line.7168652 bus1=BBT2278368.1.2.0,bus2=BBT2278361.1.2.0,Phases=2,Linecode=BT503_BT503_5_2_1,Length=0.011405000,Units=km
new line.7168673 bus1=BBT2278375.1.2.0,bus2=BBT2278368.1.2.0,Phases=2,Linecode=BT503_BT503_5_2_1,Length=0.015236000,Units=km
new line.7168701 bus1=BBT2278382.1.2.3.0,bus2=BBT2278375.1.2.3.0,Phases=3,Linecode=BT108_BT111_7_3_1,Length=0.025968000,Units=km
new line.7168729 bus1=BBT2278389.1.2.3.0,bus2=BBT2278382.1.2.3.0,Phases=3,Linecode=BT108_BT111_7_3_1,Length=0.032993000,Units=km
new line.7168736 bus1=BBT2278354.1.2.3.0,bus2=BBT2278389.1.2.3.0,Phases=3,Linecode=BT514_BT514_7_3_1,Length=0.000501000,Units=km
new line.7168743 bus1=BBT2278389.1.2.3.0,bus2=BBT2278396.1.2.3.0,Phases=3,Linecode=BT108_BT111_7_3_1,Length=0.027900000,Units=km
new line.7168764 bus1=BBT2278396.1.2.3.0,bus2=BBT3863819.1.2.3.0,Phases=3,Linecode=BT112_BT112_7_3_1,Length=0.034491000,Units=km
new line.7171473 bus1=BBT2279145.1.2.3.0,bus2=BBT2279138.1.2.3.0,Phases=3,Linecode=BT809_BT809_4_3_4,Length=0.010201000,Units=km
new line.7171501 bus1=BBT2279152.1.2.3.0,bus2=BBT2279145.1.2.3.0,Phases=3,Linecode=BT809_BT809_4_3_4,Length=0.005101000,Units=km
new line.7171522 bus1=BBT2279166.1.2.3.0,bus2=BBT2279152.1.2.3.0,Phases=3,Linecode=BT809_BT809_4_3_4,Length=0.017725000,Units=km
new line.7171550 bus1=BBT2279173.1.2.3.0,bus2=BBT2279159.1.2.3.0,Phases=3,Linecode=BT805_BT805_4_3_4,Length=0.035786000,Units=km
new line.7171557 bus1=BBT2279173.1.2.3.0,bus2=BBT2279166.1.2.3.0,Phases=3,Linecode=BT809_BT809_4_3_4,Length=0.018606000,Units=km
new line.7171578 bus1=BBT2279180.1.2.3.0,bus2=BBT2279173.1.2.3.0,Phases=3,Linecode=BT805_BT805_4_3_4,Length=0.037600000,Units=km
new line.7171585 bus1=BBT2279131.1.2.3.0,bus2=BBT2279180.1.2.3.0,Phases=3,Linecode=BT513_BT513_7_3_1,Length=0.000501000,Units=km
new line.7171592 bus1=BBT2279180.1.2.3.0,bus2=BBT2279187.1.2.3.0,Phases=3,Linecode=BT805_BT805_4_3_4,Length=0.037600000,Units=km
new line.7171627 bus1=BBT2279187.1.2.3.0,bus2=BBT4218831.1.2.3.0,Phases=3,Linecode=BT805_BT805_4_3_4,Length=0.024214000,Units=km
new line.7171655 bus1=BBT4218831.1.2.3.0,bus2=BBT4218845.1.2.3.0,Phases=3,Linecode=BT805_BT805_4_3_4,Length=0.018116000,Units=km
new line.7171662 bus1=BBT4218831.1.2.3.0,bus2=BBT4218838.1.2.3.0,Phases=3,Linecode=BT805_BT805_4_3_4,Length=0.017725000,Units=km
new line.7171669 bus1=BBT4218831.1.2.3.0,bus2=BBT4218852.1.2.3.0,Phases=3,Linecode=BT805_BT805_4_3_4,Length=0.012653000,Units=km
new line.7370427 bus1=BBT2336769.1.2.3.0,bus2=BBT2336776.1.2.3.0,Phases=3,Linecode=BT509_BT509_7_3_1,Length=0.000501000,Units=km
new line.7378029 bus1=BBT2338855.1.2.3.0,bus2=BBT2338848.1.2.3.0,Phases=3,Linecode=BT803_BT803_4_3_4,Length=0.035180000,Units=km
new line.7378036 bus1=BBT2338855.1.2.3.0,bus2=BBT3560222.1.2.3.0,Phases=3,Linecode=BT803_BT803_4_3_4,Length=0.012373000,Units=km
new line.7378085 bus1=BBT2338869.1.2.3.0,bus2=BBT2338855.1.2.3.0,Phases=3,Linecode=BT805_BT805_4_3_4,Length=0.031153000,Units=km
new line.7378106 bus1=BBT2338876.1.2.3.0,bus2=BBT2338869.1.2.3.0,Phases=3,Linecode=BT111_BT108_7_3_1,Length=0.031249000,Units=km
new line.7378113 bus1=BBT2338841.1.2.3.0,bus2=BBT2338876.1.2.3.0,Phases=3,Linecode=BT514_BT514_7_3_1,Length=0.000501000,Units=km
new line.7378120 bus1=BBT2338876.1.2.3.0,bus2=BBT2338883.1.2.3.0,Phases=3,Linecode=BT111_BT108_7_3_1,Length=0.029077000,Units=km
new line.7378141 bus1=BBT2338883.1.2.3.0,bus2=BBT2338890.1.2.3.0,Phases=3,Linecode=BT111_BT108_7_3_1,Length=0.030487000,Units=km
new line.7384210 bus1=BBT2340794.1.2.3.0,bus2=BBT2340787.1.2.3.0,Phases=3,Linecode=BT111_BT108_7_3_1,Length=0.010003000,Units=km
new line.7384217 bus1=BBT2340794.1.2.3.0,bus2=BBT2340780.1.2.3.0,Phases=3,Linecode=BT111_BT108_7_3_1,Length=0.021477000,Units=km
new line.7384224 bus1=BBT2340794.1.2.3.0,bus2=BBT2340822.1.2.3.0,Phases=3,Linecode=BT111_BT108_7_3_1,Length=0.026084000,Units=km
new line.7384266 bus1=BBT2340801.1.2.3.0,bus2=BBT2340794.1.2.3.0,Phases=3,Linecode=BT111_BT108_7_3_1,Length=0.012003000,Units=km
new line.7384308 bus1=BBT2340815.1.2.3.0,bus2=BBT2340801.1.2.3.0,Phases=3,Linecode=BT111_BT108_7_3_1,Length=0.026933000,Units=km
new line.7384315 bus1=BBT2340815.1.2.3.0,bus2=BBT2340843.1.2.3.0,Phases=3,Linecode=BT108_BT107_7_3_1,Length=0.014870000,Units=km
new line.7384350 bus1=BBT2340829.1.2.3.0,bus2=BBT2340815.1.2.3.0,Phases=3,Linecode=BT111_BT108_7_3_1,Length=0.030091000,Units=km
new line.7384378 bus1=BBT2340843.1.2.3.0,bus2=BBT2340871.1.2.3.0,Phases=3,Linecode=BT108_BT107_7_3_1,Length=0.024745000,Units=km
new line.7384406 bus1=BBT2340850.1.2.3.0,bus2=BBT2340836.1.2.3.0,Phases=3,Linecode=BT805_BT805_4_3_4,Length=0.017725000,Units=km
new line.7384413 bus1=BBT2340773.1.2.3.0,bus2=BBT2340850.1.2.3.0,Phases=3,Linecode=BT514_BT514_7_3_1,Length=0.000501000,Units=km
new line.7384420 bus1=BBT2340850.1.2.3.0,bus2=BBT2340864.1.2.3.0,Phases=3,Linecode=BT805_BT805_4_3_4,Length=0.029128000,Units=km
new line.7384448 bus1=BBT2340857.1.2.3.0,bus2=BBT2340878.1.2.3.0,Phases=3,Linecode=BT111_BT108_7_3_1,Length=0.036410000,Units=km
new line.7384455 bus1=BBT2340857.1.2.3.0,bus2=BBT2340808.1.2.3.0,Phases=3,Linecode=BT111_BT108_7_3_1,Length=0.022810000,Units=km
new line.7384504 bus1=BBT2340864.1.2.3.0,bus2=BBT2340857.1.2.3.0,Phases=3,Linecode=BT805_BT805_4_3_4,Length=0.011665000,Units=km
new line.8034146 bus1=BBT2522829.1.2.0,bus2=BBT2522815.1.2.0,Phases=2,Linecode=BT801_BT801_4_2_3,Length=0.031249000,Units=km
new line.8034209 bus1=BBT2816689.1.2.3.0,bus2=BBT2816696.1.2.3.0,Phases=3,Linecode=BT514_BT514_7_3_1,Length=0.000501000,Units=km
new line.8034216 bus1=BBT2521247.1.2.3.0,bus2=BBT3012486.1.2.3.0,Phases=3,Linecode=BT805_BT805_4_3_4,Length=0.021407000,Units=km
new line.8034293 bus1=BBT2521268.1.2.3.0,bus2=BBT2521247.1.2.3.0,Phases=3,Linecode=BT803_BT803_4_3_4,Length=0.021938000,Units=km
new line.8034300 bus1=BBT2521268.1.2.3.0,bus2=BBT2521303.1.2.3.0,Phases=3,Linecode=BT803_BT803_4_3_4,Length=0.041351000,Units=km
new line.8034342 bus1=BBT2521275.1.2.0,bus2=BBT2521254.1.2.0,Phases=2,Linecode=BT811_BT811_4_2_3,Length=0.032535000,Units=km
new line.8034384 bus1=BBT2521282.1.2.3.0,bus2=BBT2521268.1.2.3.0,Phases=3,Linecode=BT805_BT805_4_3_4,Length=0.020621000,Units=km
new line.11820761 bus1=BBT3560222.1.2.3.0,bus2=BBT2338862.1.2.3.0,Phases=3,Linecode=BT803_BT803_4_3_4,Length=0.009222000,Units=km
new line.11820768 bus1=BBT3560243.1.2.3.0,bus2=BBT3560250.1.2.3.0,Phases=3,Linecode=BT513_BT513_7_3_1,Length=0.000501000,Units=km
new line.14290319 bus1=BBT5468989.1.2.0,bus2=BBT5468996.1.2.0,Phases=2,Linecode=BT503_BT503_7_2_1,Length=0.031631000,Units=km
new line.14290333 bus1=BBT5468996.1.2.0,bus2=BBT5469003.1.2.0,Phases=2,Linecode=BT503_BT503_7_2_1,Length=0.004474000,Units=km
new line.14290347 bus1=BBT5469003.1.2.0,bus2=BBT5469017.1.2.0,Phases=2,Linecode=BT503_BT503_7_2_1,Length=0.009222000,Units=km
new line.14290368 bus1=BBT5469017.1.2.0,bus2=BBT5469010.1.2.0,Phases=2,Linecode=BT519_BT519_5_2_1,Length=0.004125000,Units=km
new line.16205792 bus1=BBT13693717.1.2.3.0,bus2=BBT13693864.1.2.3.0,Phases=3,Linecode=BT514_BT514_5_3_1,Length=0.013932000,Units=km
new line.16205799 bus1=BBT13693864.1.2.3.0,bus2=BBT13693871.1.2.3.0,Phases=3,Linecode=BT514_BT514_5_3_1,Length=0.008547000,Units=km
new line.16210867 bus1=BBT14073201.1.2.0,bus2=BBT14073628.1.2.0,Phases=2,Linecode=BT503_BT503_5_2_1,Length=0.004125000,Units=km
new line.16210881 bus1=BBT14072396.1.2.0,bus2=BBT14072403.1.2.0,Phases=2,Linecode=BT503_BT503_5_2_1,Length=0.014217000,Units=km
new line.16210888 bus1=BBT14072403.1.2.0,bus2=BBT14072466.1.2.0,Phases=2,Linecode=BT503_BT503_5_2_1,Length=0.006085000,Units=km
new line.16210895 bus1=BBT14072648.1.2.0,bus2=BBT14073201.1.2.0,Phases=2,Linecode=BT503_BT503_5_2_1,Length=0.027900000,Units=km
new line.16210902 bus1=BBT14072648.1.2.0,bus2=BBT14072655.1.2.0,Phases=2,Linecode=BT503_BT503_5_2_1,Length=0.006002000,Units=km
new line.16210923 bus1=BBT14073628.1.2.0,bus2=BBT14073810.1.2.0,Phases=2,Linecode=BT503_BT503_5_2_1,Length=0.014040000,Units=km
new line.16210930 bus1=BBT14073810.1.2.0,bus2=BBT14073817.1.2.0,Phases=2,Linecode=BT503_BT503_5_2_1,Length=0.004001000,Units=km
new line.16210937 bus1=BBT14073824.1.2.0,bus2=BBT14073831.1.2.0,Phases=2,Linecode=BT503_BT503_5_2_1,Length=0.004474000,Units=km
new line.16210965 bus1=BBT14077947.1.2.0,bus2=BBT2646316.1.2.0,Phases=2,Linecode=BT503_BT503_5_2_1,Length=0.018363000,Units=km
new line.17071496 bus1=BBT46464035.1.2.3.0,bus2=BBT46464042.1.2.3.0,Phases=3,Linecode=BT513_BT513_7_3_1,Length=0.000501000,Units=km
new line.17071503 bus1=BBT2497888.1.2.3.0,bus2=BBT46464343.1.2.3.0,Phases=3,Linecode=BT805_BT805_4_3_4,Length=0.014870000,Units=km
new line.17071825 bus1=BBT46464042.1.2.0,bus2=BBT46480499.1.2.0,Phases=2,Linecode=BT514_BT514_5_2_1,Length=0.005101000,Units=km
new line.17071832 bus1=BBT46480499.1.2.0,bus2=BBT46480506.1.2.0,Phases=2,Linecode=BT514_BT514_5_2_1,Length=0.013345000,Units=km
new line.17071839 bus1=BBT46480506.1.2.0,bus2=BBT46480611.1.2.0,Phases=2,Linecode=BT514_BT514_5_2_1,Length=0.008547000,Units=km
new line.18617971 bus1=BBT3648590.1.2.3.0,bus2=BBT137594431.1.2.3.0,Phases=3,Linecode=BT810_BT810_4_3_4,Length=0.040010000,Units=km
new line.19169717 bus1=BBT2344140.1.2.3.0,bus2=BBT163487049.1.2.3.0,Phases=3,Linecode=BT514_BT514_5_3_1,Length=0.007282000,Units=km
new line.19169718 bus1=BBT163487049.1.2.3.0,bus2=BBT163487050.1.2.3.0,Phases=3,Linecode=BT514_BT514_5_3_1,Length=0.009003000,Units=km
new line.19169719 bus1=BBT163487050.1.2.3.0,bus2=BBT163487060.1.2.3.0,Phases=3,Linecode=BT514_BT514_5_3_1,Length=0.009003000,Units=km
new line.19169733 bus1=BBT2344140.1.2.3.0,bus2=BBT163487562.1.2.3.0,Phases=3,Linecode=BT514_BT514_5_3_1,Length=0.010773000,Units=km
new line.19169734 bus1=BBT163487562.1.2.3.0,bus2=BBT163487566.1.2.3.0,Phases=3,Linecode=BT514_BT514_5_3_1,Length=0.011003000,Units=km
new line.19169735 bus1=BBT163487566.1.2.3.0,bus2=BBT163487567.1.2.3.0,Phases=3,Linecode=BT514_BT514_5_3_1,Length=0.010003000,Units=km
new line.19415134 bus1=BBT2481732.1.2.3.0,bus2=BBT170836271.1.2.3.0,Phases=3,Linecode=BT514_BT514_5_3_1,Length=0.003607000,Units=km
new line.19415135 bus1=BBT170836271.1.2.3.0,bus2=BBT170836272.1.2.3.0,Phases=3,Linecode=BT514_BT514_5_3_1,Length=0.014870000,Units=km
new line.7288394 bus1=BBT2313641.1.2.3.0,bus2=BBT2313634.1.2.3.0,Phases=3,Linecode=BT811_BT811_4_3_3,Length=0.033024000,Units=km
new line.7288408 bus1=BBT2313648.1.2.3.0,bus2=BBT2313641.1.2.3.0,Phases=3,Linecode=BT111_BT108_7_3_1,Length=0.036410000,Units=km
new line.7288429 bus1=BBT2313655.1.2.3.0,bus2=BBT2313648.1.2.3.0,Phases=3,Linecode=BT111_BT108_7_3_1,Length=0.035393000,Units=km
new line.7288436 bus1=BBT2313627.1.2.3.0,bus2=BBT2313655.1.2.3.0,Phases=3,Linecode=BT513_BT513_7_3_1,Length=0.000501000,Units=km
new line.7288443 bus1=BBT2313655.1.2.3.0,bus2=BBT2313662.1.2.3.0,Phases=3,Linecode=BT111_BT108_7_3_1,Length=0.021938000,Units=km
new line.7288471 bus1=BBT2313662.1.2.3.0,bus2=BBT2313669.1.2.3.0,Phases=3,Linecode=BT111_BT108_7_3_1,Length=0.019110000,Units=km
new line.7288485 bus1=BBT2313669.1.2.3.0,bus2=BBT2313683.1.2.3.0,Phases=3,Linecode=BT108_BT107_7_3_1,Length=0.009437000,Units=km
new line.7288520 bus1=BBT2313683.1.2.3.0,bus2=BBT2313676.1.2.3.0,Phases=3,Linecode=BT111_BT108_7_3_1,Length=0.007073000,Units=km
new line.7288527 bus1=BBT2313683.1.2.3.0,bus2=BBT2313690.1.2.3.0,Phases=3,Linecode=BT108_BT107_7_3_1,Length=0.024214000,Units=km
new line.7907215 bus1=BBT2521324.1.2.0,bus2=BBT2521317.1.2.0,Phases=2,Linecode=BT503_BT503_5_2_1,Length=0.019703000,Units=km
new line.7913053 bus1=BBT2522864.1.2.3.0,bus2=BBT2522850.1.2.3.0,Phases=3,Linecode=BT803_BT803_4_3_4,Length=0.029008000,Units=km
new line.7913060 bus1=BBT2522864.1.2.3.0,bus2=BBT2522871.1.2.3.0,Phases=3,Linecode=BT803_BT803_4_3_4,Length=0.033979000,Units=km
new line.7913088 bus1=BBT2484287.1.2.3.0,bus2=BBT2484280.1.2.3.0,Phases=3,Linecode=BT108_BT107_7_3_1,Length=0.039633000,Units=km
new line.7913151 bus1=BBT2484301.1.2.3.0,bus2=BBT2484287.1.2.3.0,Phases=3,Linecode=BT111_BT108_7_3_1,Length=0.038194000,Units=km
new line.7913158 bus1=BBT2484301.1.2.3.0,bus2=BBT2484294.1.2.3.0,Phases=3,Linecode=BT108_BT107_7_3_1,Length=0.029706000,Units=km
new line.7913186 bus1=BBT2484308.1.2.3.0,bus2=BBT2484301.1.2.3.0,Phases=3,Linecode=BT111_BT108_7_3_1,Length=0.031153000,Units=km
new line.7913193 bus1=BBT2484273.1.2.3.0,bus2=BBT2484308.1.2.3.0,Phases=3,Linecode=BT314_BT314_7_3_1,Length=0.000501000,Units=km
new line.7913200 bus1=BBT2484308.1.2.3.0,bus2=BBT2484315.1.2.3.0,Phases=3,Linecode=BT111_BT108_7_3_1,Length=0.019804000,Units=km
new line.8103635 bus1=BBT2541841.1.2.3.0,bus2=BBT2541834.1.2.3.0,Phases=3,Linecode=BT111_BT108_7_3_1,Length=0.024048000,Units=km
new line.8103642 bus1=BBT2541827.1.2.3.0,bus2=BBT2541841.1.2.3.0,Phases=3,Linecode=BT313_BT313_7_3_1,Length=0.000501000,Units=km
new line.8103649 bus1=BBT2541841.1.2.3.0,bus2=BBT2541848.1.2.3.0,Phases=3,Linecode=BT111_BT108_7_3_1,Length=0.021938000,Units=km
new line.8103684 bus1=BBT2541848.1.2.3.0,bus2=BBT2541855.1.2.3.0,Phases=3,Linecode=BT111_BT108_7_3_1,Length=0.039608000,Units=km
new line.8114926 bus1=BBT2545306.1.2.0,bus2=BBT2545299.1.2.0,Phases=2,Linecode=BT811_BT811_4_2_3,Length=0.024419000,Units=km
new line.8114968 bus1=BBT2545313.1.2.0,bus2=BBT2548519.1.2.0,Phases=2,Linecode=BT808_BT808_4_2_3,Length=0.026313000,Units=km
new line.8114996 bus1=BBT2545327.1.2.0,bus2=BBT2545313.1.2.0,Phases=2,Linecode=BT808_BT808_4_2_3,Length=0.023351000,Units=km
new line.8115024 bus1=BBT2545334.1.2.0,bus2=BBT2545306.1.2.0,Phases=2,Linecode=BT808_BT808_4_2_3,Length=0.023201000,Units=km
new line.12362204 bus1=BBT3790564.1.2.3.0,bus2=BBT3790571.1.2.3.0,Phases=3,Linecode=BT111_BT108_7_3_1,Length=0.010820000,Units=km
new line.13414192 bus1=BBT4208450.1.2.3.0,bus2=BBT2614928.1.2.3.0,Phases=3,Linecode=BT805_BT805_4_3_4,Length=0.009852000,Units=km
new line.13414213 bus1=BBT4208457.1.2.3.0,bus2=BBT4208464.1.2.3.0,Phases=3,Linecode=BT514_BT514_7_3_1,Length=0.000501000,Units=km
new line.13578447 bus1=BBT4299135.1.2.3.0,bus2=BBT4299156.1.2.3.0,Phases=3,Linecode=BT111_BT108_7_3_1,Length=0.019804000,Units=km
new line.13578580 bus1=BBT4299156.1.2.3.0,bus2=BBT2589189.1.2.3.0,Phases=3,Linecode=BT111_BT108_7_3_1,Length=0.013345000,Units=km
new line.14078646 bus1=BBT4854221.1.2.3.0,bus2=BBT4854228.1.2.3.0,Phases=3,Linecode=BT514_BT514_7_3_1,Length=0.000501000,Units=km
new line.17558339 bus1=BBT2668674.1.3.0,bus2=BBT83175899.1.3.0,Phases=2,Linecode=BT808_BT808_4_2_3,Length=0.042070000,Units=km