new line.TR12280558 bus1=BMT158970915.1.2.3,bus2=BMT154120113.1.2.3,Phases=3,Linecode=CAB907_4_3,Length=0.026933000,Units=km
new line.TR12282323 bus1=BMT8847153B.1.2.3,bus2=BMT99166671.1.2.3,Phases=3,Linecode=CAB611_3_3,Length=0.125035000,Units=km
new line.TR12283144 bus1=BMT167613147.1.2.3,bus2=BMT167613146.1.2.3,Phases=3,Linecode=CABA06_3_3,Length=0.031914000,Units=km
new line.TR3385586 bus1=BMT1937503B.1.2.3,bus2=BMT170646674.1.2.3,Phases=3,Linecode=CABA08_3_3,Length=0.037746000,Units=km
new line.TR3385607 bus1=BMT170646674.1.2.3,bus2=BMT1937524B.1.2.3,Phases=3,Linecode=CABA08_3_3,Length=0.030537000,Units=km
new line.TR3385642 bus1=BMT1937524B.1.2.3,bus2=BMT99166699.1.2.3,Phases=3,Linecode=CABA08_3_3,Length=0.009437000,Units=km
new line.TR3385677 bus1=BMT1937538B.1.2.3,bus2=BMT170646675.1.2.3,Phases=3,Linecode=CABA08_3_3,Length=0.032257000,Units=km
new line.TR3385789 bus1=BMT170646675.1.2.3,bus2=BMT170646676.1.2.3,Phases=3,Linecode=CABA08_3_3,Length=0.043393000,Units=km
new line.TR3385796 bus1=BMT170646675.1.2.3,bus2=BMT1922635B.1.2.3,Phases=3,Linecode=CABA08_3_3,Length=0.044733000,Units=km
new line.TR3389310 bus1=BMT1939078B.1.2.3,bus2=BMT3836183.1.2.3,Phases=3,Linecode=CAB108_3_3,Length=0.029622000,Units=km
new line.TR3478210 bus1=BMT1974680B.1.2.3,bus2=BMT99166888.1.2.3,Phases=3,Linecode=CAB103_3_3,Length=0.026933000,Units=km
new line.TR3481549 bus1=BMT154388739.1.2.3,bus2=BMT113772199.1.2.3,Phases=3,Linecode=CAB108_3_3,Length=0.028869000,Units=km
new line.TR3481563 bus1=BMT1976108B.1.2.3,bus2=BMT2090285B.1.2.3,Phases=3,Linecode=CAB108_3_3,Length=0.027864000,Units=km
new line.TR3481577 bus1=BMT113772199.1.2.3,bus2=BMT154388740.1.2.3,Phases=3,Linecode=CAB108_3_3,Length=0.017469000,Units=km
new line.TR3481591 bus1=BMT154388741.1.2.3,bus2=BMT1976108B.1.2.3,Phases=3,Linecode=CAB108_3_3,Length=0.025639000,Units=km
new line.TR3481626 bus1=BMT1976136B.1.2.3,bus2=BMT154388741.1.2.3,Phases=3,Linecode=CAB108_3_3,Length=0.027864000,Units=km
new line.TR3481661 bus1=BMT1976150B.1.2.3,bus2=BMT99166958.1.2.3,Phases=3,Linecode=CAB108_3_3,Length=0.031329000,Units=km
new line.TR3481703 bus1=BMT172712045.1.2.3,bus2=BMT172712046.1.2.3,Phases=3,Linecode=CAB108_3_3,Length=0.031024000,Units=km
new line.TR3877504 bus1=BMT170836192.1.2.3,bus2=BMT2084125B.1.2.3,Phases=3,Linecode=CAB103_3_3,Length=0.038907000,Units=km
new line.TR3877511 bus1=BMT99167217.1.2.3,bus2=BMT2119377B.1.2.3,Phases=3,Linecode=CAB108_3_3,Length=0.025502000,Units=km
new line.TR3877532 bus1=BMT2084125B.1.2.3,bus2=BMT2084132B.1.2.3,Phases=3,Linecode=CAB103_3_3,Length=0.041736000,Units=km
new line.TR3877546 bus1=BMT2084132B.1.2.3,bus2=BMT170836193.1.2.3,Phases=3,Linecode=CAB103_3_3,Length=0.039608000,Units=km
new line.TR3877567 bus1=BMT170836193.1.2.3,bus2=BMT2129485B.1.2.3,Phases=3,Linecode=CAB103_3_3,Length=0.042461000,Units=km
new line.TR3936367 bus1=BMT171428788.1.2.3,bus2=BMT2104096B.1.2.3,Phases=3,Linecode=CABA06_3_3,Length=0.028468000,Units=km
new line.TR3937753 bus1=BMT172712046.1.2.3,bus2=BMT2097397B.1.2.3,Phases=3,Linecode=CAB108_3_3,Length=0.022478000,Units=km
new line.TR3937760 bus1=BMT172712046.1.2.3,bus2=BMT172712048.1.2.3,Phases=3,Linecode=CAB108_3_3,Length=0.034794000,Units=km
new line.TR3937788 bus1=BMT172712048.1.2.3,bus2=BMT172712049.1.2.3,Phases=3,Linecode=CABA06_3_3,Length=0.033847000,Units=km
new line.TR3938817 bus1=BMT171428787.1.2.3,bus2=BMT171428788.1.2.3,Phases=3,Linecode=CABA06_3_3,Length=0.028239000,Units=km
new line.TR3938824 bus1=BMT171428787.1.2.3,bus2=BMT171428789.1.2.3,Phases=3,Linecode=CAB103_3_3,Length=0.095544000,Units=km
new line.TR3938880 bus1=BMT171428789.1.2.3,bus2=BMT2101954B.1.2.3,Phases=3,Linecode=CAB103_3_3,Length=0.036065000,Units=km
new line.TR3938908 bus1=BMT2104096B.1.2.3,bus2=BMT2110837B.1.2.3,Phases=3,Linecode=CABA06_3_3,Length=0.036697000,Units=km
new line.TR3942093 bus1=BMT171909859.1.2.3,bus2=BMT2110298B.1.2.3,Phases=3,Linecode=CAB108_3_3,Length=0.027810000,Units=km
new line.TR3974188 bus1=BMT2116934B.1.2.3,bus2=BMT2116948B.1.2.3,Phases=3,Linecode=CAB103_3_3,Length=0.031836000,Units=km
new line.TR3974216 bus1=BMT2116948B.1.2.3,bus2=BMT152578699.1.2.3,Phases=3,Linecode=CAB103_3_3,Length=0.031153000,Units=km
new line.TR3974237 bus1=BMT152578699.1.2.3,bus2=BMT2086386B.1.2.3,Phases=3,Linecode=CAB103_3_3,Length=0.028292000,Units=km
new line.TR3976421 bus1=BMT2117690B.1.2.3,bus2=BMT171909864.1.2.3,Phases=3,Linecode=CAB108_3_3,Length=0.005659000,Units=km
new line.TR3976470 bus1=BMT2117704B.1.2.3,bus2=BMT2117718B.1.2.3,Phases=3,Linecode=CAB108_3_3,Length=0.026877000,Units=km
new line.TR3976491 bus1=BMT2117711B.1.2.3,bus2=BMT99167203.1.2.3,Phases=3,Linecode=CAB108_3_3,Length=0.026877000,Units=km
new line.TR3976519 bus1=BMT2117718B.1.2.3,bus2=BMT171909865.1.2.3,Phases=3,Linecode=CAB108_3_3,Length=0.029008000,Units=km
new line.TR3976554 bus1=BMT172076192.1.2.3,bus2=BMT99167217.1.2.3,Phases=3,Linecode=CAB108_3_3,Length=0.027593000,Units=km
new line.TR4038966 bus1=BMT2138046B.1,bus2=BMT99189022.1,Phases=1,Linecode=CABA06_3_1,Length=0.016283000,Units=km
new line.TR4038987 bus1=BMT99189001.1,bus2=BMT99189008.1,Phases=1,Linecode=CABA06_3_1,Length=0.036244000,Units=km
new line.TR4039008 bus1=BMT2138060B.1,bus2=BMT99189001.1,Phases=1,Linecode=CABA06_3_1,Length=0.033250000,Units=km
new line.TR4039043 bus1=BMT2138067B.1,bus2=BMT2138060B.1,Phases=1,Linecode=CABA06_3_1,Length=0.029214000,Units=km
new line.TR4039085 bus1=BMT2138081B.1,bus2=BMT2138067B.1,Phases=1,Linecode=CABA06_3_1,Length=0.033846000,Units=km
new line.TR4039463 bus1=BMT2138214B.1,bus2=BMT2138221B.1,Phases=1,Linecode=CABA06_3_1,Length=0.036134000,Units=km
new line.TR4039491 bus1=BMT2138221B.1,bus2=BMT2138228B.1,Phases=1,Linecode=CABA06_3_1,Length=0.034664000,Units=km
new line.TR4039512 bus1=BMT2138228B.1,bus2=BMT2138235B.1,Phases=1,Linecode=CABA06_3_1,Length=0.034549000,Units=km
new line.TR4039540 bus1=BMT2138235B.1,bus2=BMT2138242B.1,Phases=1,Linecode=CABA06_3_1,Length=0.033250000,Units=km
new line.TR4039561 bus1=BMT2138242B.1,bus2=BMT2138249B.1,Phases=1,Linecode=CABA06_3_1,Length=0.030422000,Units=km
new line.TR4039582 bus1=BMT2138249B.1,bus2=BMT99188994.1,Phases=1,Linecode=CABA06_3_1,Length=0.033008000,Units=km
new line.TR4039603 bus1=BMT99188994.1,bus2=BMT2138263B.1,Phases=1,Linecode=CABA06_3_1,Length=0.031329000,Units=km
new line.TR4039624 bus1=BMT2138263B.1,bus2=BMT2138277B.1,Phases=1,Linecode=CABA06_3_1,Length=0.031249000,Units=km
new line.TR4039673 bus1=BMT2138277B.1,bus2=BMT2138298B.1,Phases=1,Linecode=CABA06_3_1,Length=0.030422000,Units=km
new line.TR4039736 bus1=BMT2138298B.1,bus2=BMT2138326B.1,Phases=1,Linecode=CABA06_3_1,Length=0.029418000,Units=km
new line.TR4039785 bus1=BMT2138326B.1,bus2=BMT2138347B.1,Phases=1,Linecode=CABA06_3_1,Length=0.035618000,Units=km
new line.TR12272065 bus1=BMT2251257B.1.2.3,bus2=BMT8875909B.1.2.3,Phases=3,Linecode=CAB103_3_3,Length=0.026084000,Units=km
new line.TR12272066 bus1=BMT8875909B.1.2.3,bus2=BMT2251250B.1.2.3,Phases=3,Linecode=CAB103_3_3,Length=0.028292000,Units=km
new line.TR12636209 bus1=BMT99167063.1.2.3,bus2=BMT167601072.1.2.3,Phases=3,Linecode=CAB108_3_3,Length=0.013605000,Units=km
new line.TR3014502 bus1=BMT170646672.1.2.3,bus2=BMT6384114B.1.2.3,Phases=3,Linecode=CABA08_3_3,Length=0.012210000,Units=km
new line.TR3014530 bus1=BMT1796761B.1.2.3,bus2=BMT1796768B.1.2.3,Phases=3,Linecode=CABA08_3_3,Length=0.032458000,Units=km
new line.TR3014558 bus1=BMT1796768B.1.2.3,bus2=BMT1796775B.1.2.3,Phases=3,Linecode=CABA08_3_3,Length=0.033295000,Units=km
new line.TR3014593 bus1=BMT1796775B.1.2.3,bus2=BMT170646673.1.2.3,Phases=3,Linecode=CABA08_3_3,Length=0.036065000,Units=km
new line.TR3014628 bus1=BMT170646673.1.2.3,bus2=BMT1796789B.1.2.3,Phases=3,Linecode=CABA08_3_3,Length=0.026634000,Units=km
new line.TR3014649 bus1=BMT1796789B.1.2.3,bus2=BMT1796796B.1.2.3,Phases=3,Linecode=CABA08_3_3,Length=0.010299000,Units=km
new line.TR3014670 bus1=BMT1796796B.1.2.3,bus2=BMT1796803B.1.2.3,Phases=3,Linecode=CABA08_3_3,Length=0.031073000,Units=km
new line.TR3014698 bus1=BMT1796803B.1.2.3,bus2=BMT1937503B.1.2.3,Phases=3,Linecode=CABA08_3_3,Length=0.029419000,Units=km
new line.TR3335963 bus1=BMT99168533.1.2.3,bus2=BMT99168540.1.2.3,Phases=3,Linecode=CABA06_3_3,Length=0.016160000,Units=km
new line.TR3335977 bus1=BMT1916804B.1.2.3,bus2=BMT99168526.1.2.3,Phases=3,Linecode=CAB902_4_3,Length=0.040507000,Units=km
new line.TR3335991 bus1=BMT1916811B.1.2.3,bus2=BMT1916804B.1.2.3,Phases=3,Linecode=CAB902_4_3,Length=0.030879000,Units=km
new line.TR3336005 bus1=BMT1916818B.1.2.3,bus2=BMT1916811B.1.2.3,Phases=3,Linecode=CAB902_4_3,Length=0.012169000,Units=km
new line.TR3336012 bus1=BMT1916818B.1.2.3,bus2=BMT99168519.1.2.3,Phases=3,Linecode=CAB902_4_3,Length=0.035786000,Units=km
new line.TR3336047 bus1=BMT170646676.1.2.3,bus2=BMT170646678.1.2.3,Phases=3,Linecode=CAB108_3_3,Length=0.036245000,Units=km
new line.TR3336082 bus1=BMT170646678.1.2.3,bus2=BMT1916853B.1.2.3,Phases=3,Linecode=CAB108_3_3,Length=0.040717000,Units=km
new line.TR3336103 bus1=BMT1916853B.1.2.3,bus2=BMT1916860B.1.2.3,Phases=3,Linecode=CAB108_3_3,Length=0.017005000,Units=km
new line.TR3336117 bus1=BMT1916860B.1.2.3,bus2=BMT99166734.1.2.3,Phases=3,Linecode=CAB108_3_3,Length=0.017209000,Units=km
new line.TR3336138 bus1=BMT154388937.1.2.3,bus2=BMT154388938.1.2.3,Phases=3,Linecode=CAB108_3_3,Length=0.034447000,Units=km
new line.TR3460535 bus1=BMT149528031.1.2.3,bus2=BMT1967666B.1.2.3,Phases=3,Linecode=CAB103_3_3,Length=0.034679000,Units=km
new line.TR3463776 bus1=BMT154388734.1.2.3,bus2=BMT154388735.1.2.3,Phases=3,Linecode=CAB108_3_3,Length=0.017725000,Units=km
new line.TR3467395 bus1=BMT154388737.1.2.3,bus2=BMT154388739.1.2.3,Phases=3,Linecode=CAB108_3_3,Length=0.029841000,Units=km
new line.TR3896831 bus1=BMT2090285B.1.2.3,bus2=BMT154388742.1.2.3,Phases=3,Linecode=CAB108_3_3,Length=0.026578000,Units=km
new line.TR3955414 bus1=BMT167941521.1.2.3,bus2=BMT167941522.1.2.3,Phases=3,Linecode=CAB103_3_3,Length=0.012810000,Units=km
new line.TR3956135 bus1=BMT2110298B.1.2.3,bus2=BMT2110312B.1.2.3,Phases=3,Linecode=CAB108_3_3,Length=0.025463000,Units=km
new line.TR3956156 bus1=BMT2110312B.1.2.3,bus2=BMT99167182.1.2.3,Phases=3,Linecode=CAB108_3_3,Length=0.025463000,Units=km
new line.TR3956177 bus1=BMT152578698.1.2.3,bus2=BMT2110326B.1.2.3,Phases=3,Linecode=CAB103_3_3,Length=0.029740000,Units=km
new line.TR3956184 bus1=BMT99167182.1.2.3,bus2=BMT171909860.1.2.3,Phases=3,Linecode=CAB108_3_3,Length=0.033250000,Units=km
new line.TR3956205 bus1=BMT2110326B.1.2.3,bus2=BMT2116934B.1.2.3,Phases=3,Linecode=CAB103_3_3,Length=0.034664000,Units=km
new line.TR3956219 bus1=BMT171909863.1.2.3,bus2=BMT2117690B.1.2.3,Phases=3,Linecode=CAB108_3_3,Length=0.033250000,Units=km
new line.TR3957598 bus1=BMT2110837B.1.2.3,bus2=BMT171428791.1.2.3,Phases=3,Linecode=CABA06_3_3,Length=0.035180000,Units=km
new line.TR4023608 bus1=BMT108081339.1.2.3,bus2=BMT108081346.1.2.3,Phases=3,Linecode=CAB108_3_3,Length=0.021938000,Units=km
new line.TR4023643 bus1=BMT108081346.1.2.3,bus2=BMT108081353.1.2.3,Phases=3,Linecode=CAB108_3_3,Length=0.039608000,Units=km
new line.TR4023650 bus1=BMT108081346.1.2.3,bus2=BMT2145606B.1.2.3,Phases=3,Linecode=CABA08_3_3,Length=0.028327000,Units=km
new line.TR4064936 bus1=BMT163605172.1.2.3,bus2=BMT3785811.1.2.3,Phases=3,Linecode=CAB108_3_3,Length=0.029706000,Units=km
new line.TR4064957 bus1=BMT2147776B.1.2.3,bus2=BMT163605172.1.2.3,Phases=3,Linecode=CAB108_3_3,Length=0.017697000,Units=km
new line.TR4127775 bus1=BMT2170617B.1.2.3,bus2=BMT2170652B.1.2.3,Phases=3,Linecode=CABA08_3_3,Length=0.030537000,Units=km
new line.TR4127873 bus1=BMT2170652B.1.2.3,bus2=BMT2170687B.1.2.3,Phases=3,Linecode=CABA08_3_3,Length=0.038089000,Units=km
new line.TR4127950 bus1=BMT2170687B.1.2.3,bus2=BMT2192877B.1.2.3,Phases=3,Linecode=CABA08_3_3,Length=0.030537000,Units=km
new line.TR4131534 bus1=BMT163605177.1.2.3,bus2=BMT2171947B.1.2.3,Phases=3,Linecode=CAB108_3_3,Length=0.018444000,Units=km
new line.TR4131569 bus1=BMT2171947B.1.2.3,bus2=BMT2171954B.1.2.3,Phases=3,Linecode=CAB108_3_3,Length=0.021938000,Units=km
new line.TR4131604 bus1=BMT2171968B.1.2.3,bus2=BMT99167497.1.2.3,Phases=3,Linecode=CAB103_3_3,Length=0.015004000,Units=km
new line.TR4132528 bus1=BMT163296835.1.2.3,bus2=BMT163296838.1.2.3,Phases=3,Linecode=CAB103_3_3,Length=0.023351000,Units=km
new line.TR4132549 bus1=BMT163296834.1.2.3,bus2=BMT163296835.1.2.3,Phases=3,Linecode=CAB103_3_3,Length=0.021938000,Units=km
new line.TR4132556 bus1=BMT163296834.1.2.3,bus2=BMT3356711B.1.2.3,Phases=3,Linecode=CABA06_3_3,Length=0.020597000,Units=km
new line.TR4200729 bus1=BMT2196020B.1.2.3,bus2=BMT2196027B.1.2.3,Phases=3,Linecode=CABA06_3_3,Length=0.023860000,Units=km
new line.TR4200750 bus1=BMT2196027B.1.2.3,bus2=BMT163296836.1.2.3,Phases=3,Linecode=CABA06_3_3,Length=0.031024000,Units=km
new line.TR4200771 bus1=BMT163296836.1.2.3,bus2=BMT163296837.1.2.3,Phases=3,Linecode=CABA06_3_3,Length=0.033069000,Units=km
new line.TR4202318 bus1=BMT2196545B.1.2.3,bus2=BMT154195041.1.2.3,Phases=3,Linecode=CABA06_3_3,Length=0.034995000,Units=km
new line.TR4202346 bus1=BMT154195040.1.2.3,bus2=BMT99188490.1.2.3,Phases=3,Linecode=CAB103_3_3,Length=0.011708000,Units=km
new line.TR4202353 bus1=BMT154195040.1.2.3,bus2=BMT2196545B.1.2.3,Phases=3,Linecode=CABA06_3_3,Length=0.043428000,Units=km
new line.TR4206938 bus1=BMT2198036B.1.2.3,bus2=BMT170149307.1.2.3,Phases=3,Linecode=CAB103_3_3,Length=0.031249000,Units=km
new line.TR4206966 bus1=BMT2198043B.1.2.3,bus2=BMT2198036B.1.2.3,Phases=3,Linecode=CAB103_3_3,Length=0.035009000,Units=km
new line.TR11519607 bus1=BMT2275547B.1.2.3,bus2=BMT7731495B.1.2.3,Phases=3,Linecode=CAB103_3_3,Length=0.014426000,Units=km
new line.TR11519614 bus1=BMT2275561B.1.2.3,bus2=BMT7731495B.1.2.3,Phases=3,Linecode=CAB103_3_3,Length=0.017809000,Units=km
new line.TR11693683 bus1=BMT113772794.1.2.3,bus2=BMT113772801.1.2.3,Phases=3,Linecode=CABA06_3_3,Length=0.019110000,Units=km
new line.TR12647172 bus1=BMT172712010.1.2.3,bus2=BMT2098034C.1.2.3,Phases=3,Linecode=CAB104_3_3,Length=0.016160000,Units=km
new line.TR3370683 bus1=BMT1931504B.1.2.3,bus2=BMT154388941.1.2.3,Phases=3,Linecode=CABA08_3_3,Length=0.039061000,Units=km
new line.TR3370697 bus1=BMT154388941.1.2.3,bus2=BMT1931518B.1.2.3,Phases=3,Linecode=CABA08_3_3,Length=0.029706000,Units=km
new line.TR3370725 bus1=BMT1931518B.1.2.3,bus2=BMT1931525B.1.2.3,Phases=3,Linecode=CABA08_3_3,Length=0.029077000,Units=km
new line.TR3919826 bus1=BMT2097397B.1.2.3,bus2=BMT172712047.1.2.3,Phases=3,Linecode=CAB108_3_3,Length=0.021546000,Units=km
new line.TR3919847 bus1=BMT172712051.1.2.3,bus2=BMT2097418B.1.2.3,Phases=3,Linecode=CAB108_3_3,Length=0.033250000,Units=km
new line.TR3919868 bus1=BMT2097418B.1.2.3,bus2=BMT172712052.1.2.3,Phases=3,Linecode=CAB108_3_3,Length=0.039570000,Units=km
new line.TR3921555 bus1=BMT2097985B.1.2.3,bus2=BMT172712053.1.2.3,Phases=3,Linecode=CAB108_3_3,Length=0.005833000,Units=km
new line.TR3921576 bus1=BMT171428786.1.2.3,bus2=BMT2098006B.1.2.3,Phases=3,Linecode=CAB103_3_3,Length=0.021546000,Units=km
new line.TR3921604 bus1=BMT172712008.1.2.3,bus2=BMT172712009.1.2.3,Phases=3,Linecode=CAB108_3_3,Length=0.028292000,Units=km
new line.TR3921625 bus1=BMT2098006B.1.2.3,bus2=BMT171428787.1.2.3,Phases=3,Linecode=CAB103_3_3,Length=0.014322000,Units=km
new line.TR3921653 bus1=BMT172712009.1.2.3,bus2=BMT2098020B.1.2.3,Phases=3,Linecode=CAB108_3_3,Length=0.029740000,Units=km
new line.TR3921681 bus1=BMT2098020B.1.2.3,bus2=BMT2098027B.1.2.3,Phases=3,Linecode=CAB108_3_3,Length=0.018033000,Units=km
new line.TR3921716 bus1=BMT2098027B.1.2.3,bus2=BMT172712010.1.2.3,Phases=3,Linecode=CAB108_3_3,Length=0.013042000,Units=km
new line.TR4008474 bus1=BMT2127252B.1.2.3,bus2=BMT172076197.1.2.3,Phases=3,Linecode=CABA06_3_3,Length=0.035477000,Units=km
new line.TR4014809 bus1=BMT2129485B.1.2.3,bus2=BMT170836194.1.2.3,Phases=3,Linecode=CAB103_3_3,Length=0.033979000,Units=km
new line.TR4015901 bus1=BMT2129842B.1.2.3,bus2=BMT2129849B.1.2.3,Phases=3,Linecode=CAB103_3_3,Length=0.031153000,Units=km
new line.TR4015915 bus1=BMT2129849B.1.2.3,bus2=BMT99168358.1.2.3,Phases=3,Linecode=CAB103_3_3,Length=0.031836000,Units=km
new line.TR4015950 bus1=BMT99168358.1.2.3,bus2=BMT2129870B.1.2.3,Phases=3,Linecode=CAB103_3_3,Length=0.038194000,Units=km
new line.TR4015999 bus1=BMT2129870B.1.2.3,bus2=BMT2140951B.1.2.3,Phases=3,Linecode=CAB103_3_3,Length=0.026179000,Units=km
new line.TR4098599 bus1=BMT2160082B.1.2.3,bus2=BMT3355367B.1.2.3,Phases=3,Linecode=CABA08_3_3,Length=0.027302000,Units=km
new line.TR4098627 bus1=BMT163605171.1.2.3,bus2=BMT163605170.1.2.3,Phases=3,Linecode=CAB108_3_3,Length=0.004244000,Units=km
new line.TR4182508 bus1=BMT2190161B.1.2.3,bus2=BMT2167817B.1.2.3,Phases=3,Linecode=CAB103_3_3,Length=0.016406000,Units=km
new line.TR4182571 bus1=BMT154195042.1.2.3,bus2=BMT2190161B.1.2.3,Phases=3,Linecode=CAB103_3_3,Length=0.027792000,Units=km
new line.TR4182648 bus1=BMT2190203B.1.2.3,bus2=BMT154195042.1.2.3,Phases=3,Linecode=CAB103_3_3,Length=0.027792000,Units=km
new line.TR4182697 bus1=BMT2190217B.1.2.3,bus2=BMT2190203B.1.2.3,Phases=3,Linecode=CAB103_3_3,Length=0.029740000,Units=km
new line.TR4182718 bus1=BMT2190224B.1.2.3,bus2=BMT2190217B.1.2.3,Phases=3,Linecode=CAB103_3_3,Length=0.022209000,Units=km
new line.TR4182739 bus1=BMT2190231B.1.2.3,bus2=BMT2190224B.1.2.3,Phases=3,Linecode=CAB103_3_3,Length=0.022367000,Units=km
new line.TR4182760 bus1=BMT2190238B.1.2.3,bus2=BMT2190231B.1.2.3,Phases=3,Linecode=CAB103_3_3,Length=0.022142000,Units=km
new line.TR4182781 bus1=BMT99188490.1.2.3,bus2=BMT2190238B.1.2.3,Phases=3,Linecode=CAB103_3_3,Length=0.037653000,Units=km
new line.TR4182788 bus1=BMT99188532.1.2.3,bus2=BMT2204910B.1.2.3,Phases=3,Linecode=CAB103_3_3,Length=0.027864000,Units=km
new line.TR4185441 bus1=BMT2191127B.1.2.3,bus2=BMT158970914.1.2.3,Phases=3,Linecode=CAB103_3_3,Length=0.031056000,Units=km
new line.TR4185469 bus1=BMT2191134B.1.2.3,bus2=BMT2199373B.1.2.3,Phases=3,Linecode=CABA08_3_3,Length=0.030240000,Units=km
new line.TR4185497 bus1=BMT158970913.1.2.3,bus2=BMT2191127B.1.2.3,Phases=3,Linecode=CAB103_3_3,Length=0.029419000,Units=km
new line.TR4185504 bus1=BMT158970913.1.2.3,bus2=BMT2191134B.1.2.3,Phases=3,Linecode=CABA08_3_3,Length=0.028309000,Units=km
new line.TR4185539 bus1=BMT2191148B.1.2.3,bus2=BMT158970913.1.2.3,Phases=3,Linecode=CABA08_3_3,Length=0.026084000,Units=km
new line.TR4185567 bus1=BMT158970912.1.2.3,bus2=BMT2191148B.1.2.3,Phases=3,Linecode=CABA08_3_3,Length=0.032257000,Units=km
new line.TR4185574 bus1=BMT158970912.1.2.3,bus2=BMT99188455.1.2.3,Phases=3,Linecode=CABA06_3_3,Length=0.005101000,Units=km
new line.TR4189515 bus1=BMT2192443B.1.2.3,bus2=BMT154195038.1.2.3,Phases=3,Linecode=CAB103_3_3,Length=0.035237000,Units=km
new line.TR4189529 bus1=BMT2192450B.1.2.3,bus2=BMT2192443B.1.2.3,Phases=3,Linecode=CAB103_3_3,Length=0.034679000,Units=km
new line.TR4189543 bus1=BMT2192457B.1.2.3,bus2=BMT2192450B.1.2.3,Phases=3,Linecode=CAB103_3_3,Length=0.028852000,Units=km
new line.TR4189557 bus1=BMT154195037.1.2.3,bus2=BMT2192457B.1.2.3,Phases=3,Linecode=CAB103_3_3,Length=0.029076000,Units=km
new line.TR4189564 bus1=BMT154195037.1.2.3,bus2=BMT2204903B.1.2.3,Phases=3,Linecode=CAB103_3_3,Length=0.038907000,Units=km
new line.TR4190803 bus1=BMT2192877B.1.2.3,bus2=BMT155176211.1.2.3,Phases=3,Linecode=CABA08_3_3,Length=0.034995000,Units=km
new line.TR4190810 bus1=BMT155176211.1.2.3,bus2=BMT2192912B.1.2.3,Phases=3,Linecode=CABA08_3_3,Length=0.031914000,Units=km
new line.TR4190922 bus1=BMT2192912B.1.2.3,bus2=BMT99167357.1.2.3,Phases=3,Linecode=CABA08_3_3,Length=0.017209000,Units=km
new line.TR4190978 bus1=BMT2192933B.1.2.3,bus2=BMT2209530B.1.2.3,Phases=3,Linecode=CABA08_3_3,Length=0.025639000,Units=km
new line.TR4267502 bus1=BMT2218854B.1.2.3,bus2=BMT2204273B.1.2.3,Phases=3,Linecode=CAB103_3_3,Length=0.032397000,Units=km
new line.TR4267523 bus1=BMT2218861B.1.2.3,bus2=BMT152578047.1.2.3,Phases=3,Linecode=CAB103_3_3,Length=0.033624000,Units=km
new line.TR4268174 bus1=BMT2219085B.1.2.3,bus2=BMT117809253.1.2.3,Phases=3,Linecode=CAB103_3_3,Length=0.026933000,Units=km
new line.TR4269938 bus1=BMT2219687B.1.2.3,bus2=BMT152682498.1.2.3,Phases=3,Linecode=CAB103_3_3,Length=0.043057000,Units=km
new line.TR4271198 bus1=BMT2220212B.1.2.3,bus2=BMT2220226B.1.2.3,Phases=3,Linecode=CAB108_3_3,Length=0.029537000,Units=km
new line.TR12290731 bus1=BMT157786855.1.2.3,bus2=BMT2274392B.1.2.3,Phases=3,Linecode=CABA08_3_3,Length=0.015301000,Units=km
new line.TR12291590 bus1=BMT163912043.1.2.3,bus2=BMT163912045.1.2.3,Phases=3,Linecode=CABA06_3_3,Length=0.024603000,Units=km
new line.TR12292019 bus1=BMT164376760.1.2.3,bus2=BMT2250655B.1.2.3,Phases=3,Linecode=CABA08_3_3,Length=0.033550000,Units=km
new line.TR12292079 bus1=BMT163912044.1.2.3,bus2=BMT163912046.1.2.3,Phases=3,Linecode=CABA08_3_3,Length=0.038610000,Units=km
new line.TR12292214 bus1=BMT163912046.1.2.3,bus2=BMT163912047.1.2.3,Phases=3,Linecode=CABA06_3_3,Length=0.019422000,Units=km
new line.TR12292329 bus1=BMT2281896B.1.2.3,bus2=BMT2281903B.1.2.3,Phases=3,Linecode=CABA08_3_3,Length=0.030091000,Units=km
new line.TR12292333 bus1=BMT2281903B.1.2.3,bus2=BMT2281931B.1.2.3,Phases=3,Linecode=CABA08_3_3,Length=0.030602000,Units=km
new line.TR12292359 bus1=BMT2281931B.1.2.3,bus2=BMT2281924B.1.2.3,Phases=3,Linecode=CABA08_3_3,Length=0.036023000,Units=km
new line.TR12292361 bus1=BMT2281924B.1.2.3,bus2=BMT2281917B.1.2.3,Phases=3,Linecode=CABA08_3_3,Length=0.029007000,Units=km
new line.TR3361576 bus1=BMT154388938.1.2.3,bus2=BMT1928032B.1.2.3,Phases=3,Linecode=CABA08_3_3,Length=0.040827000,Units=km
new line.TR3361583 bus1=BMT154388938.1.2.3,bus2=BMT1939078B.1.2.3,Phases=3,Linecode=CAB108_3_3,Length=0.021938000,Units=km
new line.TR3361590 bus1=BMT154388938.1.2.3,bus2=BMT154388940.1.2.3,Phases=3,Linecode=CABA08_3_3,Length=0.020402000,Units=km
new line.TR3361604 bus1=BMT1928032B.1.2.3,bus2=BMT1928039B.1.2.3,Phases=3,Linecode=CABA08_3_3,Length=0.008547000,Units=km
new line.TR3361625 bus1=BMT1928039B.1.2.3,bus2=BMT154388939.1.2.3,Phases=3,Linecode=CABA08_3_3,Length=0.030537000,Units=km
new line.TR3361653 bus1=BMT154388939.1.2.3,bus2=BMT1928053B.1.2.3,Phases=3,Linecode=CABA08_3_3,Length=0.032765000,Units=km
new line.TR3361674 bus1=BMT1928053B.1.2.3,bus2=BMT1928060B.1.2.3,Phases=3,Linecode=CABA08_3_3,Length=0.025561000,Units=km
new line.TR3361695 bus1=BMT1928060B.1.2.3,bus2=BMT1931504B.1.2.3,Phases=3,Linecode=CABA08_3_3,Length=0.035520000,Units=km
new line.TR4000424 bus1=BMT2124977B.1.2.3,bus2=BMT172076195.1.2.3,Phases=3,Linecode=CAB108_3_3,Length=0.010003000,Units=km
new line.TR4000452 bus1=BMT172076195.1.2.3,bus2=BMT3785545.1.2.3,Phases=3,Linecode=CAB108_3_3,Length=0.024765000,Units=km
new line.TR4000459 bus1=BMT172076195.1.2.3,bus2=BMT2124991B.1.2.3,Phases=3,Linecode=CAB108_3_3,Length=0.013457000,Units=km
new line.TR4000480 bus1=BMT2124991B.1.2.3,bus2=BMT172076196.1.2.3,Phases=3,Linecode=CAB108_3_3,Length=0.025463000,Units=km
new line.TR4000508 bus1=BMT172076196.1.2.3,bus2=BMT2125005B.1.2.3,Phases=3,Linecode=CABA06_3_3,Length=0.014146000,Units=km
new line.TR4000515 bus1=BMT172076196.1.2.3,bus2=BMT2125012B.1.2.3,Phases=3,Linecode=CAB108_3_3,Length=0.029008000,Units=km
new line.TR4000543 bus1=BMT2125005B.1.2.3,bus2=BMT2127252B.1.2.3,Phases=3,Linecode=CABA06_3_3,Length=0.030487000,Units=km
new line.TR4000571 bus1=BMT2125012B.1.2.3,bus2=BMT172076198.1.2.3,Phases=3,Linecode=CAB108_3_3,Length=0.028292000,Units=km
new line.TR4000627 bus1=BMT172076198.1.2.3,bus2=BMT172076199.1.2.3,Phases=3,Linecode=CAB108_3_3,Length=0.031153000,Units=km
new line.TR4000669 bus1=BMT99167280.1.2.3,bus2=BMT2125054B.1.2.3,Phases=3,Linecode=CAB108_3_3,Length=0.029706000,Units=km
new line.TR4000718 bus1=BMT2125054B.1.2.3,bus2=BMT108081339.1.2.3,Phases=3,Linecode=CAB108_3_3,Length=0.024048000,Units=km
new line.TR4003980 bus1=BMT2125971B.1.2.3,bus2=BMT2324449B.1.2.3,Phases=3,Linecode=CAB103_3_3,Length=0.031789000,Units=km
new line.TR4004001 bus1=BMT99188903.1.2.3,bus2=BMT2125971B.1.2.3,Phases=3,Linecode=CAB103_3_3,Length=0.030471000,Units=km
new line.TR4004008 bus1=BMT99188903.1.2.3,bus2=BMT2125985B.1.2.3,Phases=3,Linecode=CAB103_3_3,Length=0.024846000,Units=km
new line.TR4004036 bus1=BMT2125985B.1.2.3,bus2=BMT2125992B.1.2.3,Phases=3,Linecode=CAB103_3_3,Length=0.025006000,Units=km
new line.TR4004057 bus1=BMT2125992B.1.2.3,bus2=BMT2125999B.1.2.3,Phases=3,Linecode=CAB103_3_3,Length=0.024705000,Units=km
new line.TR4004078 bus1=BMT2125999B.1.2.3,bus2=BMT2126006B.1.2.3,Phases=3,Linecode=CAB103_3_3,Length=0.035364000,Units=km
new line.TR4004106 bus1=BMT2126006B.1.2.3,bus2=BMT99188917.1.2.3,Phases=3,Linecode=CAB103_3_3,Length=0.030024000,Units=km
new line.TR4004134 bus1=BMT99188917.1,bus2=BMT99188924.1,Phases=1,Linecode=CAB103_3_1,Length=0.030536000,Units=km
new line.TR4004162 bus1=BMT99188987.1,bus2=BMT2126027B.1,Phases=1,Linecode=CABA06_3_1,Length=0.030024000,Units=km
new line.TR4004190 bus1=BMT2126027B.1,bus2=BMT2126034B.1,Phases=1,Linecode=CABA06_3_1,Length=0.029162000,Units=km
new line.TR4004218 bus1=BMT2126034B.1,bus2=BMT2126041B.1,Phases=1,Linecode=CABA06_3_1,Length=0.020005000,Units=km
new line.TR4004239 bus1=BMT2126041B.1,bus2=BMT4114398B.1,Phases=1,Linecode=CABA06_3_1,Length=0.012653000,Units=km
new line.TR4086041 bus1=BMT2155266B.1.2.3,bus2=BMT2155273B.1.2.3,Phases=3,Linecode=CAB108_3_3,Length=0.030422000,Units=km
new line.TR4086062 bus1=BMT2155273B.1.2.3,bus2=BMT163605173.1.2.3,Phases=3,Linecode=CAB108_3_3,Length=0.028608000,Units=km
new line.TR4086076 bus1=BMT163605173.1.2.3,bus2=BMT2155287B.1.2.3,Phases=3,Linecode=CAB108_3_3,Length=0.026256000,Units=km
new line.TR4086090 bus1=BMT2155287B.1.2.3,bus2=BMT2155294B.1.2.3,Phases=3,Linecode=CAB108_3_3,Length=0.034243000,Units=km
new line.TR4086118 bus1=BMT2155294B.1.2.3,bus2=BMT99187867.1.2.3,Phases=3,Linecode=CAB108_3_3,Length=0.024193000,Units=km
new line.TR4086174 bus1=BMT99187874.1.2.3,bus2=BMT99187881.1.2.3,Phases=3,Linecode=CAB108_3_3,Length=0.030273000,Units=km
new line.TR4176019 bus1=BMT99187881.1.2.3,bus2=BMT2178142B.1.2.3,Phases=3,Linecode=CAB108_3_3,Length=0.026313000,Units=km
new line.TR4252256 bus1=BMT152682498.1.2.3,bus2=BMT2213408B.1.2.3,Phases=3,Linecode=CAB103_3_3,Length=0.009003000,Units=km
new line.TR4252263 bus1=BMT152682498.1.2.3,bus2=BMT152682500.1.2.3,Phases=3,Linecode=CAB103_3_3,Length=0.025949000,Units=km
new line.TR4252284 bus1=BMT2213408B.1.2.3,bus2=BMT2213415B.1.2.3,Phases=3,Linecode=CAB103_3_3,Length=0.032658000,Units=km
new line.TR4252298 bus1=BMT2213415B.1.2.3,bus2=BMT152682499.1.2.3,Phases=3,Linecode=CAB103_3_3,Length=0.033130000,Units=km
new line.TR4254454 bus1=BMT2214143B.1.2.3,bus2=BMT99188539.1.2.3,Phases=3,Linecode=CAB103_3_3,Length=0.034418000,Units=km
new line.TR4254489 bus1=BMT2214157B.1.2.3,bus2=BMT154196068.1.2.3,Phases=3,Linecode=CABA06_3_3,Length=0.036065000,Units=km
new line.TR4254510 bus1=BMT99188539.1.2.3,bus2=BMT99188546.1.2.3,Phases=3,Linecode=CAB103_3_3,Length=0.019031000,Units=km
new line.TR4254517 bus1=BMT99188539.1.2.3,bus2=BMT2214171B.1.2.3,Phases=3,Linecode=CAB103_3_3,Length=0.027302000,Units=km
new line.TR4039813 bus1=BMT2138347B.1,bus2=BMT2138361B.1,Phases=1,Linecode=CABA06_3_1,Length=0.033846000,Units=km
new line.TR4039834 bus1=BMT2138354B.1,bus2=BMT2138081B.1,Phases=1,Linecode=CABA06_3_1,Length=0.021546000,Units=km
new line.TR4039855 bus1=BMT2138361B.1,bus2=BMT2138382B.1,Phases=1,Linecode=CABA06_3_1,Length=0.036258000,Units=km
new line.TR4039890 bus1=BMT2138368B.1,bus2=BMT2138354B.1,Phases=1,Linecode=CABA06_3_1,Length=0.020105000,Units=km
new line.TR4039925 bus1=BMT2138375B.1,bus2=BMT2138368B.1,Phases=1,Linecode=CABA06_3_1,Length=0.031773000,Units=km
new line.TR4039946 bus1=BMT2138382B.1,bus2=BMT2138375B.1,Phases=1,Linecode=CABA06_3_1,Length=0.018444000,Units=km
new line.TR4041990 bus1=BMT163605174.1.2.3,bus2=BMT2160082B.1.2.3,Phases=3,Linecode=CABA08_3_3,Length=0.042461000,Units=km
new line.TR4106929 bus1=BMT155176210.1.2.3,bus2=BMT2162952B.1.2.3,Phases=3,Linecode=CABA08_3_3,Length=0.029076000,Units=km
new line.TR4106978 bus1=BMT2162952B.1.2.3,bus2=BMT99167343.1.2.3,Phases=3,Linecode=CABA08_3_3,Length=0.038481000,Units=km
new line.TR4107069 bus1=BMT99167343.1.2.3,bus2=BMT2170617B.1.2.3,Phases=3,Linecode=CABA08_3_3,Length=0.032765000,Units=km
new line.TR4107076 bus1=BMT99168337.1.2.3,bus2=BMT99168344.1.2.3,Phases=3,Linecode=CAB103_3_3,Length=0.029622000,Units=km
new line.TR4149566 bus1=BMT2178121B.1.2.3,bus2=BMT2178128B.1.2.3,Phases=3,Linecode=CAB108_3_3,Length=0.030024000,Units=km
new line.TR4149573 bus1=BMT2178121B.1.2.3,bus2=BMT2198008B.1.2.3,Phases=3,Linecode=CAB103_3_3,Length=0.022853000,Units=km
new line.TR4149601 bus1=BMT2178128B.1.2.3,bus2=BMT99187909.1.2.3,Phases=3,Linecode=CAB108_3_3,Length=0.023006000,Units=km
new line.TR4149622 bus1=BMT99187895.1.2.3,bus2=BMT2178121B.1.2.3,Phases=3,Linecode=CAB108_3_3,Length=0.031024000,Units=km
new line.TR4149636 bus1=BMT2178142B.1.2.3,bus2=BMT99187888.1.2.3,Phases=3,Linecode=CAB108_3_3,Length=0.011049000,Units=km
new line.TR4149650 bus1=BMT99187888.1.2.3,bus2=BMT99187895.1.2.3,Phases=3,Linecode=CAB108_3_3,Length=0.027666000,Units=km
new line.TR4149657 bus1=BMT99187888.1.2.3,bus2=BMT99187902.1.2.3,Phases=3,Linecode=CAB108_3_3,Length=0.020886000,Units=km
new line.TR4149678 bus1=BMT170149304.1.2.3,bus2=BMT170149305.1.2.3,Phases=3,Linecode=CAB108_3_3,Length=0.027210000,Units=km
new line.TR4224872 bus1=BMT2204259B.1.2.3,bus2=BMT152578046.1.2.3,Phases=3,Linecode=CAB103_3_3,Length=0.035520000,Units=km
new line.TR4224886 bus1=BMT2204266B.1.2.3,bus2=BMT2204259B.1.2.3,Phases=3,Linecode=CAB103_3_3,Length=0.036369000,Units=km
new line.TR4224893 bus1=BMT2204266B.1.2.3,bus2=BMT2204280B.1.2.3,Phases=3,Linecode=CAB103_3_3,Length=0.035364000,Units=km
new line.TR4224914 bus1=BMT2204273B.1.2.3,bus2=BMT2204266B.1.2.3,Phases=3,Linecode=CAB103_3_3,Length=0.036506000,Units=km
new line.TR4226314 bus1=BMT154195036.1.2.3,bus2=BMT154195037.1.2.3,Phases=3,Linecode=CAB103_3_3,Length=0.030422000,Units=km
new line.TR4226335 bus1=BMT154195039.1.2.3,bus2=BMT154195040.1.2.3,Phases=3,Linecode=CAB103_3_3,Length=0.027302000,Units=km