new line.RML10001118 bus1=BBT2288630.1.2.3.0,bus2=RML1060001118.1.2.3.0,Phases=3,Linecode=CABBTG07_4_3,Length=0.029000000,Units=km
new line.RML10002280 bus1=BBT2664922.1.2.3.0,bus2=RML1060002280.1.2.3.0,Phases=3,Linecode=CABBTG06_4_3,Length=0.017000000,Units=km
new line.RML10018086 bus1=BBT2637573.1.2.3.0,bus2=RML1060018086.1.2.3.0,Phases=3,Linecode=CABBTG06_4_3,Length=0.017000000,Units=km
new line.RML10042892 bus1=BBT2532944.1.2.3.0,bus2=RML1060042892.1.2.3.0,Phases=3,Linecode=CABBTG06_4_3,Length=0.017000000,Units=km
new line.RML10060900 bus1=BBT2574825.1.2.3.0,bus2=RML1060060900.1.2.3.0,Phases=3,Linecode=CABBT810_4_3,Length=0.017000000,Units=km
new line.RML10066560 bus1=BBT2518846.1.2.0,bus2=RML1060066560.1.2.0,Phases=2,Linecode=CABBTG05_4_2,Length=0.029000000,Units=km
new line.RML10073831 bus1=BBT2659280.1.2.0,bus2=RML1060073831.1.2.0,Phases=2,Linecode=CABBTG05_4_2,Length=0.017000000,Units=km
new line.RML10073835 bus1=BBT2684774.1.2.3.0,bus2=RML1060073835.1.2.3.0,Phases=3,Linecode=CABBTG06_4_3,Length=0.007000000,Units=km
new line.RML10080802 bus1=BBT2340808.1.2.0,bus2=RML1060080802.1.2.0,Phases=2,Linecode=CABBTG05_4_2,Length=0.017000000,Units=km
new line.RML10095607 bus1=BBT2569134.1.2.3.0,bus2=RML1060095607.1.2.3.0,Phases=3,Linecode=CABBTG06_4_3,Length=0.017000000,Units=km
new line.RML10128314 bus1=BBT2699887.1.2.3.0,bus2=RML1060128314.1.2.3.0,Phases=3,Linecode=CABBTG06_4_3,Length=0.017000000,Units=km
new line.RML10133511 bus1=BBT2636439.1.2.3.0,bus2=RML1060133511.1.2.3.0,Phases=3,Linecode=CABBTG06_4_3,Length=0.017000000,Units=km
new line.RML10160523 bus1=BBT2635018.1.2.3.0,bus2=RML1060160523.1.2.3.0,Phases=3,Linecode=CABBT803_4_3,Length=0.017000000,Units=km
new line.RML10160525 bus1=BBT2771700.1.2.3.0,bus2=RML1060160525.1.2.3.0,Phases=3,Linecode=CABBT803_4_3,Length=0.017000000,Units=km
new line.RML10167118 bus1=BBT2340808.1.2.0,bus2=RML1060167118.1.2.0,Phases=2,Linecode=CABBTG04_4_2,Length=0.017000000,Units=km
new line.RML10181375 bus1=BBT2521296.1.2.3.0,bus2=RML1060181375.1.2.3.0,Phases=3,Linecode=CABBTG07_4_3,Length=0.017000000,Units=km
new line.RML10265175 bus1=BBT171428797.1.2.3.0,bus2=RML1060265175.1.2.3.0,Phases=3,Linecode=CABBTG10_4_3,Length=0.017000000,Units=km
new line.RML10270031 bus1=BBT2652896.1.2.3.0,bus2=RML1060270031.1.2.3.0,Phases=3,Linecode=CABBTG06_4_3,Length=0.017000000,Units=km
new line.RML10271025 bus1=BBT2646253.1.2.3.0,bus2=RML1060271025.1.2.3.0,Phases=3,Linecode=CABBTG10_4_3,Length=0.017000000,Units=km
new line.RML10271741 bus1=BBT2628480.1.0,bus2=RML1060271741.1.0,Phases=1,Linecode=CABBTG01_4_1,Length=0.017000000,Units=km
new line.RML10274207 bus1=BBT2614263.1.2.3.0,bus2=RML1060274207.1.2.3.0,Phases=3,Linecode=CABBTG06_4_3,Length=0.017000000,Units=km
new line.RML10275957 bus1=BBT2712830.1.0,bus2=RML1060275957.1.0,Phases=1,Linecode=CABBTG02_4_1,Length=0.017000000,Units=km
new line.RML10288427 bus1=BBT2746794.1.0,bus2=RML1060288427.1.0,Phases=1,Linecode=CABBTG02_4_1,Length=0.017000000,Units=km
new line.RML10304983 bus1=BBT2640513.1.2.0,bus2=RML1060304983.1.2.0,Phases=2,Linecode=CABBTG05_4_2,Length=0.017000000,Units=km
new line.RML10308004 bus1=BBT2272306.1.2.0,bus2=RML1060308004.1.2.0,Phases=2,Linecode=CABBTG05_4_2,Length=0.017000000,Units=km
new line.RML10319168 bus1=BBT2646281.1.0,bus2=RML1060319168.1.0,Phases=1,Linecode=CABBTG01_4_1,Length=0.017000000,Units=km
new line.RML10351763 bus1=BBT2619247.1.2.3.0,bus2=RML1060351763.1.2.3.0,Phases=3,Linecode=CABBTG06_4_3,Length=0.017000000,Units=km
new line.RML10358476 bus1=BBT2771679.1.2.3.0,bus2=RML1060358476.1.2.3.0,Phases=3,Linecode=CABBT813_4_3,Length=0.017000000,Units=km
new line.RML10431157 bus1=BBT2278389.2.3.0,bus2=RML1060431157.2.3.0,Phases=2,Linecode=CABBTG05_4_2,Length=0.017000000,Units=km
new line.RML10431713 bus1=BBT2614263.1.3.0,bus2=RML1060431713.1.3.0,Phases=2,Linecode=CABBTG05_4_2,Length=0.017000000,Units=km
new line.RML10434998 bus1=BBT2634997.1.2.0,bus2=RML1060434998.1.2.0,Phases=2,Linecode=CABBTG05_4_2,Length=0.017000000,Units=km
new line.RML10480040 bus1=BBT2628480.1.2.3.0,bus2=RML1060480040.1.2.3.0,Phases=3,Linecode=CABBTG06_4_3,Length=0.017000000,Units=km
new line.RML10507589 bus1=BBT2672083.2.0,bus2=RML1060507589.2.0,Phases=1,Linecode=CABBTG02_4_1,Length=0.017000000,Units=km
new line.RML10545815 bus1=BBT2340864.1.0,bus2=RML1060545815.1.0,Phases=1,Linecode=CABBTG01_4_1,Length=0.007000000,Units=km
new line.RML10545823 bus1=BBT2646246.2.0,bus2=RML1060545823.2.0,Phases=1,Linecode=CABBTG01_4_1,Length=0.007000000,Units=km
new line.RML10570922 bus1=BBT2765533.1.2.0,bus2=RML1060570922.1.2.0,Phases=2,Linecode=CABBTG05_4_2,Length=0.016000000,Units=km
new line.RML10575048 bus1=BBT4218845.1.0,bus2=RML1060575048.1.0,Phases=1,Linecode=CABBTG02_4_1,Length=0.017000000,Units=km
new line.RML10586946 bus1=BBT2642123.1.0,bus2=RML1060586946.1.0,Phases=1,Linecode=CABBTG02_4_1,Length=0.017000000,Units=km
new line.RML10697624 bus1=BBT2498644.2.0,bus2=RML1060697624.2.0,Phases=1,Linecode=CABBTG02_4_1,Length=0.017000000,Units=km
new line.RML10727241 bus1=BBT2619247.1.2.3.0,bus2=RML1060727241.1.2.3.0,Phases=3,Linecode=CABBTG06_4_3,Length=0.017000000,Units=km
new line.RML10727246 bus1=BBT2614284.1.2.3.0,bus2=RML1060727246.1.2.3.0,Phases=3,Linecode=CABBTG06_4_3,Length=0.017000000,Units=km
new line.RML10745031 bus1=BBT2333472.1.2.3.0,bus2=RML1060745031.1.2.3.0,Phases=3,Linecode=CABBTG07_4_3,Length=0.015000000,Units=km
new line.RML10747458 bus1=BBT2771679.1.2.3.0,bus2=RML1060747458.1.2.3.0,Phases=3,Linecode=CABBT807_4_3,Length=0.015000000,Units=km
new line.RML10748900 bus1=BBT2279173.1.2.3.0,bus2=RML1060748900.1.2.3.0,Phases=3,Linecode=CABBTG07_4_3,Length=0.015000000,Units=km
new line.RML10753275 bus1=BBT2619226.1.2.3.0,bus2=RML1060753275.1.2.3.0,Phases=3,Linecode=CABBTG06_4_3,Length=0.015000000,Units=km
new line.RML10808079 bus1=BBT166354207.1.2.3.0,bus2=RML1060808079.1.2.3.0,Phases=3,Linecode=CABBTG09_4_3,Length=0.017000000,Units=km
new line.RML10825543 bus1=BBT166354207.1.2.3.0,bus2=RML1060825543.1.2.3.0,Phases=3,Linecode=CABBTG08_4_3,Length=0.017000000,Units=km
new line.RML10878799 bus1=BBT2313641.1.2.3.0,bus2=RML1060878799.1.2.3.0,Phases=3,Linecode=CABBTG06_4_3,Length=0.029000000,Units=km
new line.RML10879051 bus1=BBT2730876.1.0,bus2=RML1060879051.1.0,Phases=1,Linecode=CABBTG02_4_1,Length=0.017000000,Units=km
new line.RML10879796 bus1=BBT2628501.1.2.3.0,bus2=RML1060879796.1.2.3.0,Phases=3,Linecode=CABBTG06_4_3,Length=0.017000000,Units=km
new line.RML10885867 bus1=BBT2646239.1.2.0,bus2=RML1060885867.1.2.0,Phases=2,Linecode=CABBTG05_4_2,Length=0.017000000,Units=km
new line.RML10916871 bus1=BBT2686419.1.2.3.0,bus2=RML1060916871.1.2.3.0,Phases=3,Linecode=CABBTG07_4_3,Length=0.017000000,Units=km
new line.RML10920168 bus1=BBT2707846.1.2.0,bus2=RML1060920168.1.2.0,Phases=2,Linecode=CABBTG05_4_2,Length=0.017000000,Units=km
new line.RML10972873 bus1=BBT2338876.1.2.3.0,bus2=RML1060972873.1.2.3.0,Phases=3,Linecode=CABBTG06_4_3,Length=0.017000000,Units=km
new line.RML11039411 bus1=BBT2637384.1.2.3.0,bus2=RML1061039411.1.2.3.0,Phases=3,Linecode=CABBTG06_4_3,Length=0.017000000,Units=km
new line.RML11040465 bus1=BBT2712830.1.2.3.0,bus2=RML1061040465.1.2.3.0,Phases=3,Linecode=CABBTG06_4_3,Length=0.017000000,Units=km
new line.RML11040476 bus1=BBT2730876.1.2.3.0,bus2=RML1061040476.1.2.3.0,Phases=3,Linecode=CABBTG06_4_3,Length=0.017000000,Units=km
new line.RML11040497 bus1=BBT2674904.1.2.0,bus2=RML1061040497.1.2.0,Phases=2,Linecode=CABBTG05_4_2,Length=0.017000000,Units=km
new line.RML11042018 bus1=BBT2640520.1.2.0,bus2=RML1061042018.1.2.0,Phases=2,Linecode=CABBTG05_4_2,Length=0.017000000,Units=km
new line.RML11042470 bus1=BBT2746822.2.0,bus2=RML1061042470.2.0,Phases=1,Linecode=CABBTG02_4_1,Length=0.017000000,Units=km
new line.RML4316341 bus1=BBT4208464.1.2.3.0,bus2=RML1054316341.1.2.3.0,Phases=3,Linecode=CABBTG07_4_3,Length=0.017000000,Units=km
new line.RML4690757 bus1=BBT2276177.1.2.3.0,bus2=RML1054690757.1.2.3.0,Phases=3,Linecode=CABBTG09_4_3,Length=0.017000000,Units=km
new line.RML4690764 bus1=BBT4244850.1.2.3.0,bus2=RML1054690764.1.2.3.0,Phases=3,Linecode=CABBTG07_4_3,Length=0.017000000,Units=km
new line.RML4690771 bus1=BBT4244850.1.2.3.0,bus2=RML1054690771.1.2.3.0,Phases=3,Linecode=CABBTG07_4_3,Length=0.017000000,Units=km
new line.RML4690778 bus1=BBT4244850.1.2.3.0,bus2=RML1054690778.1.2.3.0,Phases=3,Linecode=CABBTG07_4_3,Length=0.017000000,Units=km
new line.RML4690785 bus1=BBT2271711.1.2.3.0,bus2=RML1054690785.1.2.3.0,Phases=3,Linecode=CABBTG07_4_3,Length=0.017000000,Units=km
new line.RML4690792 bus1=BBT2271711.1.2.3.0,bus2=RML1054690792.1.2.3.0,Phases=3,Linecode=CABBTG07_4_3,Length=0.017000000,Units=km
new line.RML4690799 bus1=BBT2271711.1.2.3.0,bus2=RML1054690799.1.2.3.0,Phases=3,Linecode=CABBTG07_4_3,Length=0.017000000,Units=km
new line.RML4690806 bus1=BBT2271718.1.2.3.0,bus2=RML1054690806.1.2.3.0,Phases=3,Linecode=CABBTG07_4_3,Length=0.017000000,Units=km
new line.RML4690813 bus1=BBT2271732.1.2.3.0,bus2=RML1054690813.1.2.3.0,Phases=3,Linecode=CABBTG07_4_3,Length=0.017000000,Units=km
new line.RML4691975 bus1=BBT9240408.2.0,bus2=RML1054691975.2.0,Phases=1,Linecode=CABBTG01_4_1,Length=0.017000000,Units=km
new line.RML4691982 bus1=BBT9240408.1.0,bus2=RML1054691982.1.0,Phases=1,Linecode=CABBTG01_4_1,Length=0.017000000,Units=km
new line.RML4691989 bus1=BBT2272306.1.2.3.0,bus2=RML1054691989.1.2.3.0,Phases=3,Linecode=CABBTG06_4_3,Length=0.017000000,Units=km
new line.RML4697995 bus1=BBT2275176.1.0,bus2=RML1054697995.1.0,Phases=1,Linecode=CABBTG01_4_1,Length=0.017000000,Units=km
new line.RML4698002 bus1=BBT2275183.1.2.3.0,bus2=RML1054698002.1.2.3.0,Phases=3,Linecode=CABBTG07_4_3,Length=0.017000000,Units=km
new line.RML4707242 bus1=BBT2278389.1.2.3.0,bus2=RML1054707242.1.2.3.0,Phases=3,Linecode=CABBTG07_4_3,Length=0.017000000,Units=km
new line.RML4707249 bus1=BBT2278389.1.2.3.0,bus2=RML1054707249.1.2.3.0,Phases=3,Linecode=CABBTG07_4_3,Length=0.017000000,Units=km
new line.RML4707256 bus1=BBT2278389.1.2.3.0,bus2=RML1054707256.1.2.3.0,Phases=3,Linecode=CABBTG07_4_3,Length=0.017000000,Units=km
new line.RML4707263 bus1=BBT2278389.1.2.3.0,bus2=RML1054707263.1.2.3.0,Phases=3,Linecode=CABBTG07_4_3,Length=0.017000000,Units=km
new line.RML4707270 bus1=BBT2278396.1.2.3.0,bus2=RML1054707270.1.2.3.0,Phases=3,Linecode=CABBTG07_4_3,Length=0.017000000,Units=km
new line.RML4709125 bus1=BBT2279138.2.0,bus2=RML1054709125.2.0,Phases=1,Linecode=CABBTG01_4_1,Length=0.017000000,Units=km
new line.RML4709132 bus1=BBT2279138.3.0,bus2=RML1054709132.3.0,Phases=1,Linecode=CABBTG01_4_1,Length=0.017000000,Units=km
new line.RML4709139 bus1=BBT2279138.1.0,bus2=RML1054709139.1.0,Phases=1,Linecode=CABBTG01_4_1,Length=0.017000000,Units=km
new line.RML4709146 bus1=BBT2279152.1.0,bus2=RML1054709146.1.0,Phases=1,Linecode=CABBTG01_4_1,Length=0.017000000,Units=km
new line.RML4709153 bus1=BBT2279152.3.0,bus2=RML1054709153.3.0,Phases=1,Linecode=CABBTG01_4_1,Length=0.017000000,Units=km
new line.RML4709160 bus1=BBT2279152.1.0,bus2=RML1054709160.1.0,Phases=1,Linecode=CABBTG01_4_1,Length=0.017000000,Units=km
new line.RML4709167 bus1=BBT2279159.1.2.3.0,bus2=RML1054709167.1.2.3.0,Phases=3,Linecode=CABBTG06_4_3,Length=0.017000000,Units=km
new line.RML4709174 bus1=BBT2279159.1.2.3.0,bus2=RML1054709174.1.2.3.0,Phases=3,Linecode=CABBTG06_4_3,Length=0.017000000,Units=km
new line.RML4709181 bus1=BBT2279173.1.2.3.0,bus2=RML1054709181.1.2.3.0,Phases=3,Linecode=CABBTG07_4_3,Length=0.017000000,Units=km
new line.RML4709188 bus1=BBT2279173.1.2.3.0,bus2=RML1054709188.1.2.3.0,Phases=3,Linecode=CABBTG07_4_3,Length=0.017000000,Units=km
new line.RML4709195 bus1=BBT2279187.1.2.3.0,bus2=RML1054709195.1.2.3.0,Phases=3,Linecode=CABBTG07_4_3,Length=0.017000000,Units=km
new line.RML4709202 bus1=BBT2279187.1.2.3.0,bus2=RML1054709202.1.2.3.0,Phases=3,Linecode=CABBTG07_4_3,Length=0.017000000,Units=km
new line.RML4709209 bus1=BBT2279187.1.2.3.0,bus2=RML1054709209.1.2.3.0,Phases=3,Linecode=CABBTG07_4_3,Length=0.017000000,Units=km
new line.RML4709216 bus1=BBT2279187.1.2.3.0,bus2=RML1054709216.1.2.3.0,Phases=3,Linecode=CABBTG07_4_3,Length=0.017000000,Units=km
new line.RML4709223 bus1=BBT2279187.1.0,bus2=RML1054709223.1.0,Phases=1,Linecode=CABBTG01_4_1,Length=0.017000000,Units=km
new line.RML4712506 bus1=BBT2275043.1.2.3.0,bus2=RML1054712506.1.2.3.0,Phases=3,Linecode=CABBTG07_4_3,Length=0.017000000,Units=km
new line.RML4719779 bus1=BBT2284514.1.2.3.0,bus2=RML1054719779.1.2.3.0,Phases=3,Linecode=CABBTG07_4_3,Length=0.017000000,Units=km
new line.RML4719786 bus1=BBT2284521.1.2.3.0,bus2=RML1054719786.1.2.3.0,Phases=3,Linecode=CABBTG07_4_3,Length=0.017000000,Units=km
new line.RML4719793 bus1=BBT2284535.1.2.3.0,bus2=RML1054719793.1.2.3.0,Phases=3,Linecode=CABBTG07_4_3,Length=0.017000000,Units=km
new line.RML4719800 bus1=BBT2284535.1.2.3.0,bus2=RML1054719800.1.2.3.0,Phases=3,Linecode=CABBTG07_4_3,Length=0.017000000,Units=km
new line.RML4731539 bus1=BBT2288609.1.2.3.0,bus2=RML1054731539.1.2.3.0,Phases=3,Linecode=CABBTG07_4_3,Length=0.017000000,Units=km
new line.RML4731546 bus1=BBT2288616.1.2.3.0,bus2=RML1054731546.1.2.3.0,Phases=3,Linecode=CABBTG07_4_3,Length=0.017000000,Units=km
new line.RML4731553 bus1=BBT2288616.1.2.3.0,bus2=RML1054731553.1.2.3.0,Phases=3,Linecode=CABBTG07_4_3,Length=0.017000000,Units=km
new line.RML4731560 bus1=BBT2288623.1.2.3.0,bus2=RML1054731560.1.2.3.0,Phases=3,Linecode=CABBTG07_4_3,Length=0.017000000,Units=km
new line.RML4731567 bus1=BBT2288623.1.2.3.0,bus2=RML1054731567.1.2.3.0,Phases=3,Linecode=CABBTG07_4_3,Length=0.017000000,Units=km
new line.RML4731574 bus1=BBT2288630.1.2.3.0,bus2=RML1054731574.1.2.3.0,Phases=3,Linecode=CABBTG07_4_3,Length=0.029000000,Units=km
new line.RML4744643 bus1=BBT2294251.1.2.3.0,bus2=RML1054744643.1.2.3.0,Phases=3,Linecode=CABBTG07_4_3,Length=0.017000000,Units=km
new line.RML4744650 bus1=BBT2294251.1.2.3.0,bus2=RML1054744650.1.2.3.0,Phases=3,Linecode=CABBTG07_4_3,Length=0.017000000,Units=km
new line.RML4744657 bus1=BBT2294251.1.2.3.0,bus2=RML1054744657.1.2.3.0,Phases=3,Linecode=CABBTG07_4_3,Length=0.017000000,Units=km
new line.RML4744664 bus1=BBT3836512.1.2.3.0,bus2=RML1054744664.1.2.3.0,Phases=3,Linecode=CABBTG07_4_3,Length=0.029000000,Units=km
new line.RML4744671 bus1=BBT3836512.1.2.3.0,bus2=RML1054744671.1.2.3.0,Phases=3,Linecode=CABBTG07_4_3,Length=0.029000000,Units=km
new line.RML4744678 bus1=BBT3836512.1.2.3.0,bus2=RML1054744678.1.2.3.0,Phases=3,Linecode=CABBTG08_4_3,Length=0.029000000,Units=km
new line.RML4748423 bus1=BBT2121113.1.2.3.0,bus2=RML1054748423.1.2.3.0,Phases=3,Linecode=CABBTG07_4_3,Length=0.017000000,Units=km
new line.RML4748430 bus1=BBT2296148.1.2.3.0,bus2=RML1054748430.1.2.3.0,Phases=3,Linecode=CABBTG07_4_3,Length=0.017000000,Units=km
new line.RML4748437 bus1=BBT164438966.1.2.3.0,bus2=RML1054748437.1.2.3.0,Phases=3,Linecode=CABBTG07_4_3,Length=0.017000000,Units=km
new line.RML4748444 bus1=BBT2296155.1.2.3.0,bus2=RML1054748444.1.2.3.0,Phases=3,Linecode=CABBTG07_4_3,Length=0.017000000,Units=km
new line.RML4748451 bus1=BBT2296169.1.2.3.0,bus2=RML1054748451.1.2.3.0,Phases=3,Linecode=CABBTG07_4_3,Length=0.017000000,Units=km
new line.RML4801896 bus1=BBT2313641.1.2.3.0,bus2=RML1054801896.1.2.3.0,Phases=3,Linecode=CABBTG07_4_3,Length=0.029000000,Units=km
new line.RML4801903 bus1=BBT2313641.1.2.3.0,bus2=RML1054801903.1.2.3.0,Phases=3,Linecode=CABBTG07_4_3,Length=0.029000000,Units=km
new line.RML4801910 bus1=BBT2313641.1.2.3.0,bus2=RML1054801910.1.2.3.0,Phases=3,Linecode=CABBTG11_4_3,Length=0.029000000,Units=km
new line.RML4801917 bus1=BBT2313648.1.2.3.0,bus2=RML1054801917.1.2.3.0,Phases=3,Linecode=CABBTG07_4_3,Length=0.017000000,Units=km
new line.RML4801924 bus1=BBT2313648.1.2.3.0,bus2=RML1054801924.1.2.3.0,Phases=3,Linecode=CABBTG07_4_3,Length=0.017000000,Units=km
new line.RML4801931 bus1=BBT2313648.1.2.3.0,bus2=RML1054801931.1.2.3.0,Phases=3,Linecode=CABBTG07_4_3,Length=0.017000000,Units=km
new line.RML4801938 bus1=BBT2313655.1.2.3.0,bus2=RML1054801938.1.2.3.0,Phases=3,Linecode=CABBTG07_4_3,Length=0.017000000,Units=km
new line.RML4801945 bus1=BBT2313655.1.2.3.0,bus2=RML1054801945.1.2.3.0,Phases=3,Linecode=CABBTG07_4_3,Length=0.017000000,Units=km
new line.RML4801952 bus1=BBT2313662.1.2.3.0,bus2=RML1054801952.1.2.3.0,Phases=3,Linecode=CABBTG07_4_3,Length=0.017000000,Units=km
new line.RML4801959 bus1=BBT2313662.1.2.3.0,bus2=RML1054801959.1.2.3.0,Phases=3,Linecode=CABBTG07_4_3,Length=0.017000000,Units=km
new line.RML4811878 bus1=BBT3836512.1.2.3.0,bus2=RML1054811878.1.2.3.0,Phases=3,Linecode=CABBTG07_4_3,Length=0.029000000,Units=km
new line.RML4811885 bus1=BBT3836512.1.2.3.0,bus2=RML1054811885.1.2.3.0,Phases=3,Linecode=CABBTG07_4_3,Length=0.029000000,Units=km
new line.RML4811892 bus1=BBT2316532.1.2.3.0,bus2=RML1054811892.1.2.3.0,Phases=3,Linecode=CABBTG07_4_3,Length=0.017000000,Units=km
new line.RML4811899 bus1=BBT2316532.1.2.3.0,bus2=RML1054811899.1.2.3.0,Phases=3,Linecode=CABBTG07_4_3,Length=0.017000000,Units=km
new line.RML4811906 bus1=BBT2316532.1.2.3.0,bus2=RML1054811906.1.2.3.0,Phases=3,Linecode=CABBTG07_4_3,Length=0.017000000,Units=km
new line.RML4811913 bus1=BBT2316532.1.2.3.0,bus2=RML1054811913.1.2.3.0,Phases=3,Linecode=CABBTG07_4_3,Length=0.017000000,Units=km
new line.RML4811920 bus1=BBT2316532.1.2.3.0,bus2=RML1054811920.1.2.3.0,Phases=3,Linecode=CABBTG07_4_3,Length=0.017000000,Units=km
new line.RML4811927 bus1=BBT2316532.1.2.3.0,bus2=RML1054811927.1.2.3.0,Phases=3,Linecode=CABBTG07_4_3,Length=0.017000000,Units=km
new line.RML4811941 bus1=BBT3835063.1.2.3.0,bus2=RML1054811941.1.2.3.0,Phases=3,Linecode=CABBTG07_4_3,Length=0.017000000,Units=km
new line.RML4811955 bus1=BBT2316560.1.2.3.0,bus2=RML1054811955.1.2.3.0,Phases=3,Linecode=CABBTG07_4_3,Length=0.017000000,Units=km
new line.RML4863783 bus1=BBT2333458.1.2.3.0,bus2=RML1054863783.1.2.3.0,Phases=3,Linecode=CABBTG07_4_3,Length=0.017000000,Units=km
new line.RML4863790 bus1=BBT2333458.1.2.3.0,bus2=RML1054863790.1.2.3.0,Phases=3,Linecode=CABBTG07_4_3,Length=0.017000000,Units=km
new line.RML4863797 bus1=BBT2333465.1.2.3.0,bus2=RML1054863797.1.2.3.0,Phases=3,Linecode=CABBTG07_4_3,Length=0.017000000,Units=km
new line.RML4863804 bus1=BBT2333472.1.2.3.0,bus2=RML1054863804.1.2.3.0,Phases=3,Linecode=CABBTG07_4_3,Length=0.017000000,Units=km
new line.RML4863811 bus1=BBT2333472.1.2.3.0,bus2=RML1054863811.1.2.3.0,Phases=3,Linecode=CABBTG07_4_3,Length=0.017000000,Units=km
new line.RML4863818 bus1=BBT149527996.1.2.3.0,bus2=RML1054863818.1.2.3.0,Phases=3,Linecode=CABBTG06_4_3,Length=0.017000000,Units=km
new line.RML4863825 bus1=BBT2333479.1.2.3.0,bus2=RML1054863825.1.2.3.0,Phases=3,Linecode=CABBTG12_4_3,Length=0.017000000,Units=km
new line.RML4867773 bus1=BBT2334991.1.2.3.0,bus2=RML1054867773.1.2.3.0,Phases=3,Linecode=CABBTG07_4_3,Length=0.017000000,Units=km
new line.RML4872246 bus1=BBT2336776.1.2.3.0,bus2=RML1054872246.1.2.3.0,Phases=3,Linecode=CABBTG07_4_3,Length=0.017000000,Units=km
new line.RML4878224 bus1=BBT2338848.1.2.3.0,bus2=RML1054878224.1.2.3.0,Phases=3,Linecode=CABBTG07_4_3,Length=0.017000000,Units=km
new line.RML4878231 bus1=BBT2338855.1.2.3.0,bus2=RML1054878231.1.2.3.0,Phases=3,Linecode=CABBTG07_4_3,Length=0.017000000,Units=km
new line.RML4878238 bus1=BBT2338855.1.2.3.0,bus2=RML1054878238.1.2.3.0,Phases=3,Linecode=CABBTG07_4_3,Length=0.017000000,Units=km
new line.RML4878245 bus1=BBT2338862.1.2.3.0,bus2=RML1054878245.1.2.3.0,Phases=3,Linecode=CABBTG07_4_3,Length=0.017000000,Units=km
new line.RML4878252 bus1=BBT2338862.1.2.3.0,bus2=RML1054878252.1.2.3.0,Phases=3,Linecode=CABBTG07_4_3,Length=0.017000000,Units=km
new line.RML4878259 bus1=BBT2338869.1.2.3.0,bus2=RML1054878259.1.2.3.0,Phases=3,Linecode=CABBTG07_4_3,Length=0.017000000,Units=km
new line.RML4878266 bus1=BBT2338869.1.2.3.0,bus2=RML1054878266.1.2.3.0,Phases=3,Linecode=CABBTG07_4_3,Length=0.017000000,Units=km
new line.RML4878280 bus1=BBT2338876.1.2.3.0,bus2=RML1054878280.1.2.3.0,Phases=3,Linecode=CABBTG06_4_3,Length=0.017000000,Units=km
new line.RML4878294 bus1=BBT2338883.1.2.3.0,bus2=RML1054878294.1.2.3.0,Phases=3,Linecode=CABBTG07_4_3,Length=0.029000000,Units=km
new line.RML4878301 bus1=BBT2338883.1.2.3.0,bus2=RML1054878301.1.2.3.0,Phases=3,Linecode=CABBTG07_4_3,Length=0.029000000,Units=km
new line.RML4878308 bus1=BBT2338883.1.2.3.0,bus2=RML1054878308.1.2.3.0,Phases=3,Linecode=CABBTG07_4_3,Length=0.029000000,Units=km
new line.RML4878315 bus1=BBT2338883.1.2.3.0,bus2=RML1054878315.1.2.3.0,Phases=3,Linecode=CABBTG07_4_3,Length=0.029000000,Units=km
new line.RML4878322 bus1=BBT2338883.1.2.3.0,bus2=RML1054878322.1.2.3.0,Phases=3,Linecode=CABBTG07_4_3,Length=0.029000000,Units=km
new line.RML4878329 bus1=BBT2338883.1.2.3.0,bus2=RML1054878329.1.2.3.0,Phases=3,Linecode=CABBTG07_4_3,Length=0.029000000,Units=km
new line.RML4883838 bus1=BBT2340801.1.2.3.0,bus2=RML1054883838.1.2.3.0,Phases=3,Linecode=CABBTG07_4_3,Length=0.017000000,Units=km
new line.RML4883845 bus1=BBT2340801.1.2.3.0,bus2=RML1054883845.1.2.3.0,Phases=3,Linecode=CABBTG07_4_3,Length=0.017000000,Units=km
new line.RML4883852 bus1=BBT2340808.1.2.3.0,bus2=RML1054883852.1.2.3.0,Phases=3,Linecode=CABBTG07_4_3,Length=0.017000000,Units=km
new line.RML4883859 bus1=BBT2340815.1.2.3.0,bus2=RML1054883859.1.2.3.0,Phases=3,Linecode=CABBTG07_4_3,Length=0.017000000,Units=km
new line.RML4883866 bus1=BBT2340815.1.2.3.0,bus2=RML1054883866.1.2.3.0,Phases=3,Linecode=CABBTG07_4_3,Length=0.017000000,Units=km
new line.RML4883873 bus1=BBT2340822.1.2.0,bus2=RML1054883873.1.2.0,Phases=2,Linecode=CABBTG05_4_2,Length=0.017000000,Units=km
new line.RML4883880 bus1=BBT2340829.1.2.3.0,bus2=RML1054883880.1.2.3.0,Phases=3,Linecode=CABBTG06_4_3,Length=0.017000000,Units=km
new line.RML4883887 bus1=BBT2340829.1.2.3.0,bus2=RML1054883887.1.2.3.0,Phases=3,Linecode=CABBTG07_4_3,Length=0.017000000,Units=km
new line.RML4883894 bus1=BBT2340829.1.2.3.0,bus2=RML1054883894.1.2.3.0,Phases=3,Linecode=CABBTG07_4_3,Length=0.017000000,Units=km
new line.RML4883901 bus1=BBT2340829.1.2.3.0,bus2=RML1054883901.1.2.3.0,Phases=3,Linecode=CABBTG07_4_3,Length=0.017000000,Units=km
new line.RML4883908 bus1=BBT2340829.1.2.3.0,bus2=RML1054883908.1.2.3.0,Phases=3,Linecode=CABBTG07_4_3,Length=0.017000000,Units=km
new line.RML4883915 bus1=BBT2340843.1.2.3.0,bus2=RML1054883915.1.2.3.0,Phases=3,Linecode=CABBTG07_4_3,Length=0.017000000,Units=km
new line.RML4883922 bus1=BBT2340850.1.2.3.0,bus2=RML1054883922.1.2.3.0,Phases=3,Linecode=CABBTG07_4_3,Length=0.017000000,Units=km
new line.RML4883929 bus1=BBT2340850.1.2.3.0,bus2=RML1054883929.1.2.3.0,Phases=3,Linecode=CABBTG07_4_3,Length=0.017000000,Units=km
new line.RML4883936 bus1=BBT2340850.1.2.3.0,bus2=RML1054883936.1.2.3.0,Phases=3,Linecode=CABBTG07_4_3,Length=0.017000000,Units=km
new line.RML4883943 bus1=BBT2340850.1.2.3.0,bus2=RML1054883943.1.2.3.0,Phases=3,Linecode=CABBTG07_4_3,Length=0.017000000,Units=km
new line.RML4883957 bus1=BBT2340871.1.2.3.0,bus2=RML1054883957.1.2.3.0,Phases=3,Linecode=CABBTG07_4_3,Length=0.017000000,Units=km
new line.RML4883964 bus1=BBT2340871.1.2.3.0,bus2=RML1054883964.1.2.3.0,Phases=3,Linecode=CABBTG07_4_3,Length=0.017000000,Units=km
new line.RML4883971 bus1=BBT2340871.1.2.3.0,bus2=RML1054883971.1.2.3.0,Phases=3,Linecode=CABBTG06_4_3,Length=0.017000000,Units=km
new line.RML4883978 bus1=BBT2340878.1.2.3.0,bus2=RML1054883978.1.2.3.0,Phases=3,Linecode=CABBTG07_4_3,Length=0.017000000,Units=km
new line.RML4887674 bus1=BBT4220854.1.2.3.0,bus2=RML1054887674.1.2.3.0,Phases=3,Linecode=CABBT504_7_3,Length=0.009000000,Units=km
new line.RML4887681 bus1=BBT2342313.1.2.3.0,bus2=RML1054887681.1.2.3.0,Phases=3,Linecode=CABBTG07_4_3,Length=0.017000000,Units=km
new line.RML4887688 bus1=BBT2342320.1.2.3.0,bus2=RML1054887688.1.2.3.0,Phases=3,Linecode=CABBTG07_4_3,Length=0.017000000,Units=km
new line.RML4887695 bus1=BBT2342334.1.2.3.0,bus2=RML1054887695.1.2.3.0,Phases=3,Linecode=CABBTG07_4_3,Length=0.017000000,Units=km
new line.RML4887702 bus1=BBT2342341.1.2.3.0,bus2=RML1054887702.1.2.3.0,Phases=3,Linecode=CABBTG07_4_3,Length=0.029000000,Units=km
new line.RML4891139 bus1=BBT2344112.1.2.3.0,bus2=RML1054891139.1.2.3.0,Phases=3,Linecode=CABBTG07_4_3,Length=0.017000000,Units=km
new line.RML4891146 bus1=BBT2344119.1.2.3.0,bus2=RML1054891146.1.2.3.0,Phases=3,Linecode=CABBTG07_4_3,Length=0.029000000,Units=km
new line.RML4891153 bus1=BBT2344119.1.2.3.0,bus2=RML1054891153.1.2.3.0,Phases=3,Linecode=CABBTG07_4_3,Length=0.029000000,Units=km
new line.RML4891160 bus1=BBT2344119.1.2.3.0,bus2=RML1054891160.1.2.3.0,Phases=3,Linecode=CABBTG07_4_3,Length=0.029000000,Units=km
new line.RML4891167 bus1=BBT2344119.1.2.3.0,bus2=RML1054891167.1.2.3.0,Phases=3,Linecode=CABBTG07_4_3,Length=0.029000000,Units=km
new line.RML4891174 bus1=BBT2344126.1.2.3.0,bus2=RML1054891174.1.2.3.0,Phases=3,Linecode=CABBTG07_4_3,Length=0.017000000,Units=km
new line.RML4891181 bus1=BBT2344133.1.2.3.0,bus2=RML1054891181.1.2.3.0,Phases=3,Linecode=CABBTG07_4_3,Length=0.017000000,Units=km
new line.RML4891188 bus1=BBT2344133.1.2.3.0,bus2=RML1054891188.1.2.3.0,Phases=3,Linecode=CABBTG07_4_3,Length=0.017000000,Units=km
new line.RML4891195 bus1=BBT153348823.1.2.3.0,bus2=RML1054891195.1.2.3.0,Phases=3,Linecode=CABBTG07_4_3,Length=0.029000000,Units=km
new line.RML4891202 bus1=BBT2344161.1.2.3.0,bus2=RML1054891202.1.2.3.0,Phases=3,Linecode=CABBTG07_4_3,Length=0.017000000,Units=km
new line.RML4891209 bus1=BBT2344161.1.2.3.0,bus2=RML1054891209.1.2.3.0,Phases=3,Linecode=CABBTG07_4_3,Length=0.017000000,Units=km
new line.RML4891216 bus1=BBT2344168.1.2.3.0,bus2=RML1054891216.1.2.3.0,Phases=3,Linecode=CABBTG07_4_3,Length=0.017000000,Units=km
new line.RML4891223 bus1=BBT2344175.1.2.3.0,bus2=RML1054891223.1.2.3.0,Phases=3,Linecode=CABBTG07_4_3,Length=0.017000000,Units=km
new line.RML4891230 bus1=BBT2344175.1.2.3.0,bus2=RML1054891230.1.2.3.0,Phases=3,Linecode=CABBTG07_4_3,Length=0.017000000,Units=km
new line.RML4891237 bus1=BBT2344182.1.2.3.0,bus2=RML1054891237.1.2.3.0,Phases=3,Linecode=CABBTG07_4_3,Length=0.017000000,Units=km
new line.RML4891244 bus1=BBT2344182.1.2.3.0,bus2=RML1054891244.1.2.3.0,Phases=3,Linecode=CABBTG07_4_3,Length=0.017000000,Units=km
new line.RML5294423 bus1=BBT2481718.1.2.3.0,bus2=RML1055294423.1.2.3.0,Phases=3,Linecode=CABBTG07_4_3,Length=0.017000000,Units=km
new line.RML5294430 bus1=BBT2481718.1.2.3.0,bus2=RML1055294430.1.2.3.0,Phases=3,Linecode=CABBTG07_4_3,Length=0.017000000,Units=km
new line.RML5294437 bus1=BBT2481718.1.2.3.0,bus2=RML1055294437.1.2.3.0,Phases=3,Linecode=CABBTG07_4_3,Length=0.017000000,Units=km
new line.RML5294444 bus1=BBT2481718.1.2.3.0,bus2=RML1055294444.1.2.3.0,Phases=3,Linecode=CABBTG06_4_3,Length=0.017000000,Units=km
new line.RML5294451 bus1=BBT2481718.1.2.3.0,bus2=RML1055294451.1.2.3.0,Phases=3,Linecode=CABBTG07_4_3,Length=0.017000000,Units=km
new line.RML5294458 bus1=BBT2481718.1.2.3.0,bus2=RML1055294458.1.2.3.0,Phases=3,Linecode=CABBTG07_4_3,Length=0.017000000,Units=km
new line.RML5294465 bus1=BBT2481725.1.2.3.0,bus2=RML1055294465.1.2.3.0,Phases=3,Linecode=CABBTG07_4_3,Length=0.017000000,Units=km
new line.RML5294472 bus1=BBT2481725.1.2.3.0,bus2=RML1055294472.1.2.3.0,Phases=3,Linecode=CABBTG07_4_3,Length=0.017000000,Units=km
new line.RML5294479 bus1=BBT2481725.1.2.3.0,bus2=RML1055294479.1.2.3.0,Phases=3,Linecode=CABBTG07_4_3,Length=0.017000000,Units=km
new line.RML5294486 bus1=BBT2481725.1.2.3.0,bus2=RML1055294486.1.2.3.0,Phases=3,Linecode=CABBTG07_4_3,Length=0.017000000,Units=km
new line.RML5294493 bus1=BBT170836272.1.2.3.0,bus2=RML1055294493.1.2.3.0,Phases=3,Linecode=CABBTG07_4_3,Length=0.017000000,Units=km
new line.RML5294500 bus1=BBT2481725.1.2.3.0,bus2=RML1055294500.1.2.3.0,Phases=3,Linecode=CABBTG07_4_3,Length=0.017000000,Units=km
new line.RML5294507 bus1=BBT2481732.1.2.3.0,bus2=RML1055294507.1.2.3.0,Phases=3,Linecode=CABBTG07_4_3,Length=0.017000000,Units=km
new line.RML5294514 bus1=BBT2481732.1.2.3.0,bus2=RML1055294514.1.2.3.0,Phases=3,Linecode=CABBTG07_4_3,Length=0.017000000,Units=km
new line.RML5294521 bus1=BBT2481732.1.2.3.0,bus2=RML1055294521.1.2.3.0,Phases=3,Linecode=CABBTG07_4_3,Length=0.017000000,Units=km
new line.RML5294528 bus1=BBT2481732.1.2.3.0,bus2=RML1055294528.1.2.3.0,Phases=3,Linecode=CABBTG07_4_3,Length=0.017000000,Units=km
new line.RML5294535 bus1=BBT2481732.1.2.3.0,bus2=RML1055294535.1.2.3.0,Phases=3,Linecode=CABBTG07_4_3,Length=0.017000000,Units=km
new line.RML5294542 bus1=BBT2481739.1.2.3.0,bus2=RML1055294542.1.2.3.0,Phases=3,Linecode=CABBTG07_4_3,Length=0.017000000,Units=km
new line.RML5294549 bus1=BBT2481739.1.2.3.0,bus2=RML1055294549.1.2.3.0,Phases=3,Linecode=CABBTG07_4_3,Length=0.017000000,Units=km
new line.RML5294556 bus1=BBT2481739.1.2.3.0,bus2=RML1055294556.1.2.3.0,Phases=3,Linecode=CABBTG07_4_3,Length=0.017000000,Units=km
new line.RML5294563 bus1=BBT2481739.1.2.3.0,bus2=RML1055294563.1.2.3.0,Phases=3,Linecode=CABBTG07_4_3,Length=0.017000000,Units=km
new line.RML5294570 bus1=BBT2481753.1.2.3.0,bus2=RML1055294570.1.2.3.0,Phases=3,Linecode=CABBTG07_4_3,Length=0.017000000,Units=km
new line.RML5294577 bus1=BBT2481760.1.2.0,bus2=RML1055294577.1.2.0,Phases=2,Linecode=CABBTG05_4_2,Length=0.017000000,Units=km
new line.RML5294584 bus1=BBT2481760.1.2.3.0,bus2=RML1055294584.1.2.3.0,Phases=3,Linecode=CABBTG07_4_3,Length=0.017000000,Units=km
new line.RML5294591 bus1=BBT2481760.1.2.3.0,bus2=RML1055294591.1.2.3.0,Phases=3,Linecode=CABBTG07_4_3,Length=0.017000000,Units=km
new line.RML5294598 bus1=BBT2481760.1.2.3.0,bus2=RML1055294598.1.2.3.0,Phases=3,Linecode=CABBTG07_4_3,Length=0.017000000,Units=km
new line.RML5301360 bus1=BBT2484280.1.2.3.0,bus2=RML1055301360.1.2.3.0,Phases=3,Linecode=CABBTG07_4_3,Length=0.017000000,Units=km
new line.RML5301367 bus1=BBT2484280.1.2.3.0,bus2=RML1055301367.1.2.3.0,Phases=3,Linecode=CABBTG07_4_3,Length=0.017000000,Units=km
new line.RML5301374 bus1=BBT2484287.1.2.3.0,bus2=RML1055301374.1.2.3.0,Phases=3,Linecode=CABBTG07_4_3,Length=0.017000000,Units=km
new line.RML5301381 bus1=BBT2484287.1.2.3.0,bus2=RML1055301381.1.2.3.0,Phases=3,Linecode=CABBTG07_4_3,Length=0.017000000,Units=km
new line.RML5301388 bus1=BBT2484287.1.2.3.0,bus2=RML1055301388.1.2.3.0,Phases=3,Linecode=CABBTG07_4_3,Length=0.017000000,Units=km