new line.RML10106449 bus1=BBT147657619.1.0,bus2=RML1010106449.1.0,Phases=1,Linecode=CABBTG02_4_1,Length=0.02,Units=km
new line.RML10133261 bus1=BBT1720970.2.0,bus2=RML1010133261.2.0,Phases=1,Linecode=CABBTG02_4_1,Length=0.02,Units=km
new line.RML10154374 bus1=BBT1615214.1.2.0,bus2=RML1010154374.1.2.0,Phases=2,Linecode=CABBTG05_4_2,Length=0.02,Units=km
new line.RML10154975 bus1=BBT1781156.1.2.0,bus2=RML1010154975.1.2.0,Phases=2,Linecode=CABBTG05_4_2,Length=0.02,Units=km
new line.RML10212356 bus1=BBT1789031.2.3.0,bus2=RML1010212356.2.3.0,Phases=2,Linecode=CABBTG05_4_2,Length=0.02,Units=km
new line.RML10212361 bus1=BBT1789031.2.3.0,bus2=RML1010212361.2.3.0,Phases=2,Linecode=CABBTG05_4_2,Length=0.02,Units=km
new line.RML10213922 bus1=BBT1723189.1.2.3.0,bus2=RML1010213922.1.2.3.0,Phases=3,Linecode=CABBTG06_4_3,Length=0.02,Units=km
new line.RML10245381 bus1=BBT147657619.3.0,bus2=RML1010245381.3.0,Phases=1,Linecode=CABBTG02_4_1,Length=0.02,Units=km
new line.RML10263400 bus1=BBT1791103.2.0,bus2=RML1010263400.2.0,Phases=1,Linecode=CABBTG02_4_1,Length=0.02,Units=km
new line.RML10264391 bus1=BBT147657619.2.3.0,bus2=RML1010264391.2.3.0,Phases=2,Linecode=CABBTG05_4_2,Length=0.02,Units=km
new line.RML10264726 bus1=BBT1791103.1.2.3.0,bus2=RML1010264726.1.2.3.0,Phases=3,Linecode=CABBTG06_4_3,Length=0.02,Units=km
new line.RML10265291 bus1=BBT1748648.1.2.0,bus2=RML1010265291.1.2.0,Phases=2,Linecode=CABBTG05_4_2,Length=0.02,Units=km
new line.RML10290049 bus1=BBT1732492.1.2.3.0,bus2=RML1010290049.1.2.3.0,Phases=3,Linecode=CABBTG06_4_3,Length=0.02,Units=km
new line.RML10291382 bus1=BBT1722783.1.2.3.0,bus2=RML1010291382.1.2.3.0,Phases=3,Linecode=CABBTG07_4_3,Length=0.02,Units=km
new line.RML10291392 bus1=BBT1722804.1.2.3.0,bus2=RML1010291392.1.2.3.0,Phases=3,Linecode=CABBTG07_4_3,Length=0.02,Units=km
new line.RML10303843 bus1=BBT1784894.1.2.0,bus2=RML1010303843.1.2.0,Phases=2,Linecode=CABBTG05_4_2,Length=0.02,Units=km
new line.RML10303857 bus1=BBT1748515.1.0,bus2=RML1010303857.1.0,Phases=1,Linecode=CABBTG02_4_1,Length=0.02,Units=km
new line.RML10304383 bus1=BBT93876262.1.0,bus2=RML1010304383.1.0,Phases=1,Linecode=CABBTG02_4_1,Length=0.02,Units=km
new line.RML10316339 bus1=BBT147657619.3.0,bus2=RML1010316339.3.0,Phases=1,Linecode=CABBTG02_4_1,Length=0.02,Units=km
new line.RML10316472 bus1=BBT1778342.2.0,bus2=RML1010316472.2.0,Phases=1,Linecode=CABBTG02_4_1,Length=0.02,Units=km
new line.RML10325935 bus1=BBT1741291.1.0,bus2=RML1010325935.1.0,Phases=1,Linecode=CABBTG02_4_1,Length=0.02,Units=km
new line.RML10327344 bus1=BBT1801435.2.0,bus2=RML1010327344.2.0,Phases=1,Linecode=CABBTG02_4_1,Length=0.02,Units=km
new line.RML10328119 bus1=BBT1729125.1.0,bus2=RML1010328119.1.0,Phases=1,Linecode=CABBTG02_4_1,Length=0.02,Units=km
new line.RML10328617 bus1=BBT1789108.1.2.0,bus2=RML1010328617.1.2.0,Phases=2,Linecode=CABBTG05_4_2,Length=0.02,Units=km
new line.RML10356023 bus1=BBT1761633.1.2.0,bus2=RML1010356023.1.2.0,Phases=2,Linecode=CABBTG05_4_2,Length=0.02,Units=km
new line.RML10368775 bus1=BBT1800238.1.0,bus2=RML1010368775.1.0,Phases=1,Linecode=CABBTG02_4_1,Length=0.02,Units=km
new line.RML10382975 bus1=BBT1728628.1.2.0,bus2=RML1010382975.1.2.0,Phases=2,Linecode=CABBTG05_4_2,Length=0.02,Units=km
new line.RML10392097 bus1=BBT1743839.2.3.0,bus2=RML1010392097.2.3.0,Phases=2,Linecode=CABBTG05_4_2,Length=0.02,Units=km
new line.RML10414205 bus1=BBT1801526.1.2.0,bus2=RML1010414205.1.2.0,Phases=2,Linecode=CABBTG05_4_2,Length=0.02,Units=km
new line.RML10414235 bus1=BBT147657927.1.0,bus2=RML1010414235.1.0,Phases=1,Linecode=CABBTG02_4_1,Length=0.02,Units=km
new line.RML10422846 bus1=BBT1607423.2.3.0,bus2=RML1010422846.2.3.0,Phases=2,Linecode=CABBTG05_4_2,Length=0.02,Units=km
new line.RML10451591 bus1=BBT1615347.1.2.3.0,bus2=RML1010451591.1.2.3.0,Phases=3,Linecode=CABBTG12_4_3,Length=0.02,Units=km
new line.RML10466182 bus1=BBT1764979.1.2.3.0,bus2=RML1010466182.1.2.3.0,Phases=3,Linecode=CABBTG06_4_3,Length=0.02,Units=km
new line.RML10466748 bus1=BBT1730539.1.2.3.0,bus2=RML1010466748.1.2.3.0,Phases=3,Linecode=CABBTG06_4_3,Length=0.02,Units=km
new line.RML10482289 bus1=BBT1730280.1.2.0,bus2=RML1010482289.1.2.0,Phases=2,Linecode=CABBTG05_4_2,Length=0.02,Units=km
new line.RML10482296 bus1=BBT1721173.1.0,bus2=RML1010482296.1.0,Phases=1,Linecode=CABBTG02_4_1,Length=0.02,Units=km
new line.RML10483480 bus1=BBT1719325.1.2.0,bus2=RML1010483480.1.2.0,Phases=2,Linecode=CABBTG05_4_2,Length=0.018,Units=km
new line.RML10484050 bus1=BBT2355562.1.2.0,bus2=RML1010484050.1.2.0,Phases=2,Linecode=CABBTG05_4_2,Length=0.016,Units=km
new line.RML10485028 bus1=BBT4039818.3.0,bus2=RML1010485028.3.0,Phases=1,Linecode=CABBTG02_4_1,Length=0.023,Units=km
new line.RML10494525 bus1=BBT1789129.1.2.0,bus2=RML1010494525.1.2.0,Phases=2,Linecode=CABBTG05_4_2,Length=0.02,Units=km
new line.RML10494552 bus1=BBT1741788.1.0,bus2=RML1010494552.1.0,Phases=1,Linecode=CABBTG02_4_1,Length=0.02,Units=km
new line.RML10497106 bus1=BBT2896375.1.0,bus2=RML1010497106.1.0,Phases=1,Linecode=CABBTG02_4_1,Length=0.015,Units=km
new line.RML10529027 bus1=BBT1736286.1.2.3.0,bus2=RML1010529027.1.2.3.0,Phases=3,Linecode=CABBTG06_4_3,Length=0.019,Units=km
new line.RML10529324 bus1=BBT1731134.2.0,bus2=RML1010529324.2.0,Phases=1,Linecode=CABBTG02_4_1,Length=0.011,Units=km
new line.RML10529919 bus1=BBT1752036.2.3.0,bus2=RML1010529919.2.3.0,Phases=2,Linecode=CABBTG05_4_2,Length=0.009,Units=km
new line.RML10544639 bus1=BBT2158540.1.0,bus2=RML1010544639.1.0,Phases=1,Linecode=CABBTG02_4_1,Length=0.019,Units=km
new line.RML10560946 bus1=BBT1608578.1.2.0,bus2=RML1010560946.1.2.0,Phases=2,Linecode=CABBT811_4_2,Length=0.02,Units=km
new line.RML10589900 bus1=BBT1764972.1.0,bus2=RML1010589900.1.0,Phases=1,Linecode=CABBTG02_4_1,Length=0.02,Units=km
new line.RML10593114 bus1=BBT1732205.1.0,bus2=RML1010593114.1.0,Phases=1,Linecode=CABBTG02_4_1,Length=0.02,Units=km
new line.RML10593290 bus1=BBT147657619.1.0,bus2=RML1010593290.1.0,Phases=1,Linecode=CABBTG02_4_1,Length=0.02,Units=km
new line.RML10593427 bus1=BBT2754429.1.2.0,bus2=RML1010593427.1.2.0,Phases=2,Linecode=CABBTG05_4_2,Length=0.02,Units=km
new line.RML10615603 bus1=BBT2020276.1.0,bus2=RML1010615603.1.0,Phases=1,Linecode=CABBTG02_4_1,Length=0.011,Units=km
new line.RML10615604 bus1=BBT1609950.1.2.0,bus2=RML1010615604.1.2.0,Phases=2,Linecode=CABBTG05_4_2,Length=0.018,Units=km
new line.RML10617661 bus1=BBT1615214.1.2.3.0,bus2=RML1010617661.1.2.3.0,Phases=3,Linecode=CABBTG06_4_3,Length=0.033,Units=km
new line.RML10676970 bus1=BBT147655456.1.0,bus2=RML1010676970.1.0,Phases=1,Linecode=CABBTG02_4_1,Length=0.025,Units=km
new line.RML10677002 bus1=BBT2747072.1.2.0,bus2=RML1010677002.1.2.0,Phases=2,Linecode=CABBTG05_4_2,Length=0.024,Units=km
new line.RML10677029 bus1=BBT4480426.1.0,bus2=RML1010677029.1.0,Phases=1,Linecode=CABBTG02_4_1,Length=0.01,Units=km
new line.RML10043763 bus1=BBT1729174.3.0,bus2=RML1010043763.3.0,Phases=1,Linecode=CABBTG02_4_1,Length=0.02,Units=km
new line.RML10057514 bus1=BBT1925202.2.3.0,bus2=RML1010057514.2.3.0,Phases=2,Linecode=CABBTG05_4_2,Length=0.02,Units=km
new line.RML10072684 bus1=BBT1736321.1.2.3.0,bus2=RML1010072684.1.2.3.0,Phases=3,Linecode=CABBTG06_4_3,Length=0.02,Units=km
new line.RML10073638 bus1=BBT127579274.3.0,bus2=RML1010073638.3.0,Phases=1,Linecode=CABBTG02_4_1,Length=0.02,Units=km
new line.RML10104166 bus1=BBT151278422.1.2.0,bus2=RML1010104166.1.2.0,Phases=2,Linecode=CABBTG05_4_2,Length=0.02,Units=km
new line.RML10128767 bus1=BBT147657927.2.3.0,bus2=RML1010128767.2.3.0,Phases=2,Linecode=CABBTG05_4_2,Length=0.02,Units=km
new line.RML10128772 bus1=BBT147656149.2.0,bus2=RML1010128772.2.0,Phases=1,Linecode=CABBTG02_4_1,Length=0.02,Units=km
new line.RML10162695 bus1=BBT1719787.1.2.3.0,bus2=RML1010162695.1.2.3.0,Phases=3,Linecode=CABBTG06_4_3,Length=0.02,Units=km
new line.RML10164134 bus1=BBT147657619.1.0,bus2=RML1010164134.1.0,Phases=1,Linecode=CABBTG02_4_1,Length=0.02,Units=km
new line.RML10164135 bus1=BBT1782360.1.0,bus2=RML1010164135.1.0,Phases=1,Linecode=CABBTG02_4_1,Length=0.02,Units=km
new line.RML10164347 bus1=BBT1607465.1.2.0,bus2=RML1010164347.1.2.0,Phases=2,Linecode=CABBTG05_4_2,Length=0.02,Units=km
new line.RML10193693 bus1=BBT1750804.3.0,bus2=RML1010193693.3.0,Phases=1,Linecode=CABBTG02_4_1,Length=0.014,Units=km
new line.RML10205266 bus1=BBT147657927.1.2.0,bus2=RML1010205266.1.2.0,Phases=2,Linecode=CABBTG05_4_2,Length=0.02,Units=km
new line.RML10241339 bus1=BBT1924173.1.0,bus2=RML1010241339.1.0,Phases=1,Linecode=CABBTG02_4_1,Length=0.02,Units=km
new line.RML10241352 bus1=BBT1924208.2.3.0,bus2=RML1010241352.2.3.0,Phases=2,Linecode=CABBTG05_4_2,Length=0.02,Units=km
new line.RML10255155 bus1=BBT147657927.2.0,bus2=RML1010255155.2.0,Phases=1,Linecode=CABBTG02_4_1,Length=0.02,Units=km
new line.RML10256443 bus1=BBT1735726.1.2.0,bus2=RML1010256443.1.2.0,Phases=2,Linecode=CABBTG05_4_2,Length=0.02,Units=km
new line.RML10266182 bus1=BBT1730441.1.2.3.0,bus2=RML1010266182.1.2.3.0,Phases=3,Linecode=CABBTG11_4_3,Length=0.02,Units=km
new line.RML10268054 bus1=BBT1752050.1.0,bus2=RML1010268054.1.0,Phases=1,Linecode=CABBTG02_4_1,Length=0.02,Units=km
new line.RML10269185 bus1=BBT1761689.2.3.0,bus2=RML1010269185.2.3.0,Phases=2,Linecode=CABBTG05_4_2,Length=0.02,Units=km
new line.RML10305568 bus1=BBT1739968.3.0,bus2=RML1010305568.3.0,Phases=1,Linecode=CABBTG02_4_1,Length=0.02,Units=km
new line.RML10305604 bus1=BBT1754542.3.0,bus2=RML1010305604.3.0,Phases=1,Linecode=CABBTG02_4_1,Length=0.02,Units=km
new line.RML10319533 bus1=BBT1607570.1.2.3.0,bus2=RML1010319533.1.2.3.0,Phases=3,Linecode=CABBTG06_4_3,Length=0.02,Units=km
new line.RML10319681 bus1=BBT2835412.2.3.0,bus2=RML1010319681.2.3.0,Phases=2,Linecode=CABBTG05_4_2,Length=0.02,Units=km
new line.RML10320777 bus1=BBT1782325.2.3.0,bus2=RML1010320777.2.3.0,Phases=2,Linecode=CABBTG05_4_2,Length=0.02,Units=km
new line.RML10320779 bus1=BBT1782395.1.3.0,bus2=RML1010320779.1.3.0,Phases=2,Linecode=CABBTG05_4_2,Length=0.02,Units=km
new line.RML10320789 bus1=BBT1782395.1.2.0,bus2=RML1010320789.1.2.0,Phases=2,Linecode=CABBTG05_4_2,Length=0.02,Units=km
new line.RML10320790 bus1=BBT1782395.1.2.0,bus2=RML1010320790.1.2.0,Phases=2,Linecode=CABBTG05_4_2,Length=0.02,Units=km
new line.RML10343196 bus1=BBT1720963.1.0,bus2=RML1010343196.1.0,Phases=1,Linecode=CABBTG02_4_1,Length=0.02,Units=km
new line.RML10343358 bus1=BBT147657619.1.0,bus2=RML1010343358.1.0,Phases=1,Linecode=CABBTG02_4_1,Length=0.02,Units=km
new line.RML10356678 bus1=BBT1784138.1.2.0,bus2=RML1010356678.1.2.0,Phases=2,Linecode=CABBTG05_4_2,Length=0.02,Units=km
new line.RML10357479 bus1=BBT4039818.2.0,bus2=RML1010357479.2.0,Phases=1,Linecode=CABBTG02_4_1,Length=0.02,Units=km
new line.RML10421129 bus1=BBT1747563.1.0,bus2=RML1010421129.1.0,Phases=1,Linecode=CABBTG02_4_1,Length=0.02,Units=km
new line.RML10447724 bus1=BBT1617377.1.0,bus2=RML1010447724.1.0,Phases=1,Linecode=CABBTG02_4_1,Length=0.02,Units=km
new line.RML10459641 bus1=BBT154747565.1.2.3.0,bus2=RML1010459641.1.2.3.0,Phases=3,Linecode=CABBTG08_4_3,Length=0.02,Units=km
new line.RML10475406 bus1=BBT1764930.1.2.3.0,bus2=RML1010475406.1.2.3.0,Phases=3,Linecode=CABBTG06_4_3,Length=0.02,Units=km
new line.RML10497208 bus1=BBT147657927.1.0,bus2=RML1010497208.1.0,Phases=1,Linecode=CABBTG02_4_1,Length=0.02,Units=km
new line.RML10497762 bus1=BBT1755732.2.0,bus2=RML1010497762.2.0,Phases=1,Linecode=CABBTG02_4_1,Length=0.017,Units=km
new line.RML10499251 bus1=BBT147657927.2.0,bus2=RML1010499251.2.0,Phases=1,Linecode=CABBTG02_4_1,Length=0.016,Units=km
new line.RML10510882 bus1=BBT1615235.1.3.0,bus2=RML1010510882.1.3.0,Phases=2,Linecode=CABBTG05_4_2,Length=0.033,Units=km
new line.RML10521422 bus1=BBT1777005.2.0,bus2=RML1010521422.2.0,Phases=1,Linecode=CABBTG02_4_1,Length=0.009,Units=km
new line.RML10521514 bus1=BBT1800189.2.3.0,bus2=RML1010521514.2.3.0,Phases=2,Linecode=CABBTG05_4_2,Length=0.024,Units=km
new line.RML10569317 bus1=BBT147657941.1.0,bus2=RML1010569317.1.0,Phases=1,Linecode=CABBTG02_4_1,Length=0.021,Units=km
new line.RML10583043 bus1=BBT1798257.1.0,bus2=RML1010583043.1.0,Phases=1,Linecode=CABBTG02_4_1,Length=0.015,Units=km
new line.RML10610015 bus1=BBT1723308.1.2.3.0,bus2=RML1010610015.1.2.3.0,Phases=3,Linecode=CABBTG06_4_3,Length=0.018,Units=km
new line.RML10651703 bus1=BBT2943016.1.0,bus2=RML1010651703.1.0,Phases=1,Linecode=CABBTG02_4_1,Length=0.022,Units=km
new line.RML10651756 bus1=BBT1608627.1.0,bus2=RML1010651756.1.0,Phases=1,Linecode=CABBTG02_4_1,Length=0.021,Units=km
new line.RML10651842 bus1=BBT1752057.1.0,bus2=RML1010651842.1.0,Phases=1,Linecode=CABBTG02_4_1,Length=0.021,Units=km
new line.RML10653490 bus1=BBT1800189.1.2.0,bus2=RML1010653490.1.2.0,Phases=2,Linecode=CABBTG05_4_2,Length=0.02,Units=km
new line.RML10681101 bus1=BBT147655456.2.0,bus2=RML1010681101.2.0,Phases=1,Linecode=CABBTG02_4_1,Length=0.015,Units=km
new line.RML10681202 bus1=BBT1791068.3.0,bus2=RML1010681202.3.0,Phases=1,Linecode=CABBTG02_4_1,Length=0.02,Units=km
new line.RML10682395 bus1=BBT147655911.1.2.0,bus2=RML1010682395.1.2.0,Phases=2,Linecode=CABBTG05_4_2,Length=0.02,Units=km
new line.RML10692187 bus1=BBT160968618.1.2.0,bus2=RML1010692187.1.2.0,Phases=2,Linecode=CABBTG05_4_2,Length=0.02,Units=km
new line.RML10692232 bus1=BBT6011606.1.2.0,bus2=RML1010692232.1.2.0,Phases=2,Linecode=CABBTG05_4_2,Length=0.02,Units=km
new line.RML10692259 bus1=BBT1617384.1.2.0,bus2=RML1010692259.1.2.0,Phases=2,Linecode=CABBTG05_4_2,Length=0.02,Units=km
new line.RML10692307 bus1=BBT1800189.1.2.0,bus2=RML1010692307.1.2.0,Phases=2,Linecode=CABBTG05_4_2,Length=0.02,Units=km
new line.RML10692367 bus1=BBT1800189.1.2.0,bus2=RML1010692367.1.2.0,Phases=2,Linecode=CABBTG05_4_2,Length=0.02,Units=km
new line.RML10046885 bus1=BBT1736601.2.0,bus2=RML1010046885.2.0,Phases=1,Linecode=CABBTG02_4_1,Length=0.02,Units=km
new line.RML10052817 bus1=BBT1925258.2.0,bus2=RML1010052817.2.0,Phases=1,Linecode=CABBTG01_4_1,Length=0.02,Units=km
new line.RML10052820 bus1=BBT147657619.1.2.3.0,bus2=RML1010052820.1.2.3.0,Phases=3,Linecode=CABBTG06_4_3,Length=0.02,Units=km
new line.RML10052826 bus1=BBT1800154.2.3.0,bus2=RML1010052826.2.3.0,Phases=2,Linecode=CABBTG05_4_2,Length=0.02,Units=km
new line.RML10052833 bus1=BBT1741781.1.0,bus2=RML1010052833.1.0,Phases=1,Linecode=CABBTG01_4_1,Length=0.02,Units=km
new line.RML10053192 bus1=BBT1734627.1.2.0,bus2=RML1010053192.1.2.0,Phases=2,Linecode=CABBTG05_4_2,Length=0.02,Units=km
new line.RML10054254 bus1=BBT1761101.2.0,bus2=RML1010054254.2.0,Phases=1,Linecode=CABBTG02_4_1,Length=0.02,Units=km
new line.RML10054485 bus1=BBT1721173.2.3.0,bus2=RML1010054485.2.3.0,Phases=2,Linecode=CABBT811_4_2,Length=0.02,Units=km
new line.RML10069000 bus1=BBT2279423.2.0,bus2=RML1010069000.2.0,Phases=1,Linecode=CABBTG02_4_1,Length=0.02,Units=km
new line.RML10069068 bus1=BBT1761640.2.0,bus2=RML1010069068.2.0,Phases=1,Linecode=CABBTG02_4_1,Length=0.02,Units=km
new line.RML10111983 bus1=BBT1801582.1.2.3.0,bus2=RML1010111983.1.2.3.0,Phases=3,Linecode=CABBTG11_4_3,Length=0.02,Units=km
new line.RML10181354 bus1=BBT147657927.1.0,bus2=RML1010181354.1.0,Phases=1,Linecode=CABBTG02_4_1,Length=0.02,Units=km
new line.RML10183325 bus1=BBT1801589.2.3.0,bus2=RML1010183325.2.3.0,Phases=2,Linecode=CABBTG05_4_2,Length=0.02,Units=km
new line.RML10184484 bus1=BBT1731204.1.0,bus2=RML1010184484.1.0,Phases=1,Linecode=CABBTG02_4_1,Length=0.02,Units=km
new line.RML10196635 bus1=BBT1784271.1.2.0,bus2=RML1010196635.1.2.0,Phases=2,Linecode=CABBTG05_4_2,Length=0.02,Units=km
new line.RML10196835 bus1=BBT1734627.1.3.0,bus2=RML1010196835.1.3.0,Phases=2,Linecode=CABBTG05_4_2,Length=0.02,Units=km
new line.RML10208107 bus1=BBT1798698.1.2.0,bus2=RML1010208107.1.2.0,Phases=2,Linecode=CABBTG05_4_2,Length=0.02,Units=km
new line.RML10236405 bus1=BBT1615263.1.2.0,bus2=RML1010236405.1.2.0,Phases=2,Linecode=CABBTG05_4_2,Length=0.02,Units=km
new line.RML10237079 bus1=BBT1617391.2.3.0,bus2=RML1010237079.2.3.0,Phases=2,Linecode=CABBTG05_4_2,Length=0.02,Units=km
new line.RML10250785 bus1=BBT1765784.1.2.0,bus2=RML1010250785.1.2.0,Phases=2,Linecode=CABBTG05_4_2,Length=0.02,Units=km
new line.RML10251264 bus1=BBT70001019.2.0,bus2=RML1010251264.2.0,Phases=1,Linecode=CABBTG02_4_1,Length=0.02,Units=km
new line.RML10251865 bus1=BBT5367697.3.0,bus2=RML1010251865.3.0,Phases=1,Linecode=CABBTG02_4_1,Length=0.02,Units=km
new line.RML10253627 bus1=BBT2020241.2.0,bus2=RML1010253627.2.0,Phases=1,Linecode=CABBTG02_4_1,Length=0.02,Units=km
new line.RML10254429 bus1=BBT1730749.2.0,bus2=RML1010254429.2.0,Phases=1,Linecode=CABBTG02_4_1,Length=0.02,Units=km
new line.RML10279185 bus1=BBT147657619.2.0,bus2=RML1010279185.2.0,Phases=1,Linecode=CABBTG02_4_1,Length=0.02,Units=km
new line.RML10309349 bus1=BBT1748921.1.2.0,bus2=RML1010309349.1.2.0,Phases=2,Linecode=CABBTG05_4_2,Length=0.02,Units=km
new line.RML10309453 bus1=BBT70001229.2.0,bus2=RML1010309453.2.0,Phases=1,Linecode=CABBTG02_4_1,Length=0.02,Units=km
new line.RML10321098 bus1=BBT5210393.3.0,bus2=RML1010321098.3.0,Phases=1,Linecode=CABBTG02_4_1,Length=0.02,Units=km
new line.RML10329647 bus1=BBT1607416.1.2.0,bus2=RML1010329647.1.2.0,Phases=2,Linecode=CABBTG05_4_2,Length=0.02,Units=km
new line.RML10348153 bus1=BBT147657927.3.0,bus2=RML1010348153.3.0,Phases=1,Linecode=CABBTG02_4_1,Length=0.02,Units=km
new line.RML10348154 bus1=BBT147657927.3.0,bus2=RML1010348154.3.0,Phases=1,Linecode=CABBTG02_4_1,Length=0.02,Units=km
new line.RML10366194 bus1=BBT1722769.2.0,bus2=RML1010366194.2.0,Phases=1,Linecode=CABBTG02_4_1,Length=0.02,Units=km
new line.RML10387875 bus1=BBT1782346.2.3.0,bus2=RML1010387875.2.3.0,Phases=2,Linecode=CABBTG05_4_2,Length=0.02,Units=km
new line.RML10430093 bus1=BBT1796465.1.0,bus2=RML1010430093.1.0,Phases=1,Linecode=CABBTG02_4_1,Length=0.02,Units=km
new line.RML10477462 bus1=BBT1801540.2.0,bus2=RML1010477462.2.0,Phases=1,Linecode=CABBTG02_4_1,Length=0.02,Units=km
new line.RML10479465 bus1=BBT155330513.1.0,bus2=RML1010479465.1.0,Phases=1,Linecode=CABBTG02_4_1,Length=0.023,Units=km
new line.RML10489644 bus1=BBT1608634.1.0,bus2=RML1010489644.1.0,Phases=1,Linecode=CABBTG02_4_1,Length=0.02,Units=km
new line.RML10492504 bus1=BBT147657927.2.0,bus2=RML1010492504.2.0,Phases=1,Linecode=CABBTG02_4_1,Length=0.023,Units=km
new line.RML10506602 bus1=BBT1741144.1.0,bus2=RML1010506602.1.0,Phases=1,Linecode=CABBTG02_4_1,Length=0.018,Units=km
new line.RML10530997 bus1=BBT1801582.1.2.3.0,bus2=RML1010530997.1.2.3.0,Phases=3,Linecode=CABBTG06_4_3,Length=0.02,Units=km
new line.RML10532247 bus1=BBT1750783.1.2.0,bus2=RML1010532247.1.2.0,Phases=2,Linecode=CABBTG05_4_2,Length=0.023,Units=km
new line.RML10548428 bus1=BBT147657941.1.0,bus2=RML1010548428.1.0,Phases=1,Linecode=CABBTG02_4_1,Length=0.017,Units=km
new line.RML10567011 bus1=BBT1732205.1.0,bus2=RML1010567011.1.0,Phases=1,Linecode=CABBTG02_4_1,Length=0.02,Units=km
new line.RML10586030 bus1=BBT1789108.1.2.3.0,bus2=RML1010586030.1.2.3.0,Phases=3,Linecode=CABBTG06_4_3,Length=0.012,Units=km
new line.RML10610501 bus1=BBT1748571.2.0,bus2=RML1010610501.2.0,Phases=1,Linecode=CABBTG02_4_1,Length=0.02,Units=km
new line.RML10610748 bus1=BBT1748501.1.0,bus2=RML1010610748.1.0,Phases=1,Linecode=CABBTG02_4_1,Length=0.02,Units=km
new line.RML10635888 bus1=BBT1719801.1.2.3.0,bus2=RML1010635888.1.2.3.0,Phases=3,Linecode=CABBTG06_4_3,Length=0.027,Units=km
new line.RML10685414 bus1=BBT1925230.1.2.0,bus2=RML1010685414.1.2.0,Phases=2,Linecode=CABBTG05_4_2,Length=0.012,Units=km
new line.RML10696012 bus1=BBT1615214.1.0,bus2=RML1010696012.1.0,Phases=1,Linecode=CABBTG02_4_1,Length=0.02,Units=km
new line.RML10696017 bus1=BBT1765707.2.0,bus2=RML1010696017.2.0,Phases=1,Linecode=CABBTG02_4_1,Length=0.02,Units=km
new line.RML10713491 bus1=BBT1741186.2.0,bus2=RML1010713491.2.0,Phases=1,Linecode=CABBTG02_4_1,Length=0.017,Units=km
new line.RML10757143 bus1=BBT1734676.1.0,bus2=RML1010757143.1.0,Phases=1,Linecode=CABBTG02_4_1,Length=0.02,Units=km
new line.RML10757146 bus1=BBT1608333.1.2.0,bus2=RML1010757146.1.2.0,Phases=2,Linecode=CABBTG05_4_2,Length=0.02,Units=km
new line.RML10763202 bus1=BBT1721187.1.2.0,bus2=RML1010763202.1.2.0,Phases=2,Linecode=CABBTG05_4_2,Length=0.016,Units=km
new line.RML10770942 bus1=BBT1608480.1.0,bus2=RML1010770942.1.0,Phases=1,Linecode=CABBTG02_4_1,Length=0.02,Units=km
new line.RML10772736 bus1=BBT160968618.2.0,bus2=RML1010772736.2.0,Phases=1,Linecode=CABBTG02_4_1,Length=0.02,Units=km
new line.RML10806278 bus1=BBT1747605.1.2.0,bus2=RML1010806278.1.2.0,Phases=2,Linecode=CABBTG05_4_2,Length=0.015,Units=km
new line.RML10061500 bus1=BBT1610265.1.0,bus2=RML1010061500.1.0,Phases=1,Linecode=CABBTG02_4_1,Length=0.02,Units=km
new line.RML10062492 bus1=BBT1747682.2.0,bus2=RML1010062492.2.0,Phases=1,Linecode=CABBTG01_4_1,Length=0.02,Units=km
new line.RML10091432 bus1=BBT1721215.1.2.3.0,bus2=RML1010091432.1.2.3.0,Phases=3,Linecode=CABBTG06_4_3,Length=0.02,Units=km
new line.RML10151890 bus1=BBT1754346.1.2.0,bus2=RML1010151890.1.2.0,Phases=2,Linecode=CABBTG04_4_2,Length=0.02,Units=km
new line.RML10176796 bus1=BBT147657927.1.0,bus2=RML1010176796.1.0,Phases=1,Linecode=CABBTG02_4_1,Length=0.02,Units=km
new line.RML10179935 bus1=BBT1787169.3.0,bus2=RML1010179935.3.0,Phases=1,Linecode=CABBTG02_4_1,Length=0.02,Units=km
new line.RML10188803 bus1=BBT1798215.2.0,bus2=RML1010188803.2.0,Phases=1,Linecode=CABBTG01_4_1,Length=0.02,Units=km
new line.RML10249945 bus1=BBT1741179.2.0,bus2=RML1010249945.2.0,Phases=1,Linecode=CABBTG02_4_1,Length=0.02,Units=km
new line.RML10258862 bus1=BBT1743790.1.2.3.0,bus2=RML1010258862.1.2.3.0,Phases=3,Linecode=CABBTG06_4_3,Length=0.02,Units=km
new line.RML10259690 bus1=BBT147657619.1.0,bus2=RML1010259690.1.0,Phases=1,Linecode=CABBTG02_4_1,Length=0.02,Units=km
new line.RML10259693 bus1=BBT147657619.2.0,bus2=RML1010259693.2.0,Phases=1,Linecode=CABBTG02_4_1,Length=0.02,Units=km
new line.RML10259899 bus1=BBT147657619.2.3.0,bus2=RML1010259899.2.3.0,Phases=2,Linecode=CABBTG05_4_2,Length=0.02,Units=km
new line.RML10287372 bus1=BBT147657927.2.0,bus2=RML1010287372.2.0,Phases=1,Linecode=CABBTG02_4_1,Length=0.02,Units=km
new line.RML10350452 bus1=BBT1753751.1.2.0,bus2=RML1010350452.1.2.0,Phases=2,Linecode=CABBTG05_4_2,Length=0.02,Units=km
new line.RML10352050 bus1=BBT1747633.1.3.0,bus2=RML1010352050.1.3.0,Phases=2,Linecode=CABBTG05_4_2,Length=0.02,Units=km
new line.RML10360969 bus1=BBT111843442.1.2.3.0,bus2=RML1010360969.1.2.3.0,Phases=3,Linecode=CABBTG06_4_3,Length=0.02,Units=km
new line.RML10361229 bus1=BBT1752092.1.3.0,bus2=RML1010361229.1.3.0,Phases=2,Linecode=CABBTG05_4_2,Length=0.02,Units=km
new line.RML10361828 bus1=BBT1765791.2.0,bus2=RML1010361828.2.0,Phases=1,Linecode=CABBTG02_4_1,Length=0.02,Units=km
new line.RML10373359 bus1=BBT1745491.3.0,bus2=RML1010373359.3.0,Phases=1,Linecode=CABBTG02_4_1,Length=0.02,Units=km
new line.RML10373878 bus1=BBT93873525.1.2.0,bus2=RML1010373878.1.2.0,Phases=2,Linecode=CABBTG05_4_2,Length=0.02,Units=km
new line.RML10384112 bus1=BBT171105083.1.2.3.0,bus2=RML1010384112.1.2.3.0,Phases=3,Linecode=CABBTG06_4_3,Length=0.02,Units=km
new line.RML10435146 bus1=BBT1748907.3.0,bus2=RML1010435146.3.0,Phases=1,Linecode=CABBTG02_4_1,Length=0.02,Units=km
new line.RML10435472 bus1=BBT1617412.1.3.0,bus2=RML1010435472.1.3.0,Phases=2,Linecode=CABBTG05_4_2,Length=0.02,Units=km
new line.RML10435541 bus1=BBT1765196.1.0,bus2=RML1010435541.1.0,Phases=1,Linecode=CABBTG02_4_1,Length=0.02,Units=km
new line.RML10436123 bus1=BBT1607626.1.2.0,bus2=RML1010436123.1.2.0,Phases=2,Linecode=CABBTG05_4_2,Length=0.02,Units=km
new line.RML10469976 bus1=BBT1754465.1.3.0,bus2=RML1010469976.1.3.0,Phases=2,Linecode=CABBTG05_4_2,Length=0.02,Units=km
new line.RML10470880 bus1=BBT5358849.1.2.0,bus2=RML1010470880.1.2.0,Phases=2,Linecode=CABBTG05_4_2,Length=0.02,Units=km
new line.RML10524656 bus1=BBT1753436.1.2.0,bus2=RML1010524656.1.2.0,Phases=2,Linecode=CABBTG05_4_2,Length=0.017,Units=km
new line.RML10525542 bus1=BBT1615354.1.2.0,bus2=RML1010525542.1.2.0,Phases=2,Linecode=CABBTG05_4_2,Length=0.016,Units=km
new line.RML10526362 bus1=BBT1754941.3.0,bus2=RML1010526362.3.0,Phases=1,Linecode=CABBTG02_4_1,Length=0.021,Units=km
new line.RML10542168 bus1=BBT1732205.1.2.0,bus2=RML1010542168.1.2.0,Phases=2,Linecode=CABBTG05_4_2,Length=0.02,Units=km
new line.RML10618468 bus1=BBT1729174.1.2.3.0,bus2=RML1010618468.1.2.3.0,Phases=3,Linecode=CABBTG06_4_3,Length=0.02,Units=km
new line.RML10621075 bus1=BBT3305532.1.2.3.0,bus2=RML1010621075.1.2.3.0,Phases=3,Linecode=CABBTG06_4_3,Length=0.019,Units=km
new line.RML10632551 bus1=BBT1754521.1.2.0,bus2=RML1010632551.1.2.0,Phases=2,Linecode=CABBTG05_4_2,Length=0.016,Units=km
new line.RML10648813 bus1=BBT1745477.1.0,bus2=RML1010648813.1.0,Phases=1,Linecode=CABBTG02_4_1,Length=0.019,Units=km
new line.RML10650404 bus1=BBT1802128.3.0,bus2=RML1010650404.3.0,Phases=1,Linecode=CABBTG02_4_1,Length=0.013,Units=km
new line.RML10717463 bus1=BBT1722839.1.2.0,bus2=RML1010717463.1.2.0,Phases=2,Linecode=CABBTG05_4_2,Length=0.02,Units=km
new line.RML10736121 bus1=BBT1736272.1.2.3.0,bus2=RML1010736121.1.2.3.0,Phases=3,Linecode=CABBTG07_4_3,Length=0.018,Units=km
new line.RML10736143 bus1=BBT1765000.1.2.3.0,bus2=RML1010736143.1.2.3.0,Phases=3,Linecode=CABBTG07_4_3,Length=0.018,Units=km
new line.RML10736180 bus1=BBT1730315.1.2.3.0,bus2=RML1010736180.1.2.3.0,Phases=3,Linecode=CABBTG07_4_3,Length=0.018,Units=km
new line.RML10736189 bus1=BBT1748613.3.0,bus2=RML1010736189.3.0,Phases=1,Linecode=CABBTG01_4_1,Length=0.018,Units=km
new line.RML10736209 bus1=BBT1754332.1.0,bus2=RML1010736209.1.0,Phases=1,Linecode=CABBTG11_4_1,Length=0.018,Units=km
new line.RML10736215 bus1=BBT1781254.1.0,bus2=RML1010736215.1.0,Phases=1,Linecode=CABBTG01_4_1,Length=0.018,Units=km
new line.RML10736227 bus1=BBT1741179.1.2.3.0,bus2=RML1010736227.1.2.3.0,Phases=3,Linecode=CABBTG07_4_3,Length=0.018,Units=km
new line.RML10736321 bus1=BBT1750804.1.2.3.0,bus2=RML1010736321.1.2.3.0,Phases=3,Linecode=CABBTG07_4_3,Length=0.018,Units=km
new line.RML10736351 bus1=BBT1778272.1.2.0,bus2=RML1010736351.1.2.0,Phases=2,Linecode=CABBTG05_4_2,Length=0.018,Units=km
new line.RML10736352 bus1=BBT1778272.2.0,bus2=RML1010736352.2.0,Phases=1,Linecode=CABBTG07_4_1,Length=0.018,Units=km
new line.RML10743606 bus1=BBT1761108.3.0,bus2=RML1010743606.3.0,Phases=1,Linecode=CABBTG01_4_1,Length=0.018,Units=km
new line.RML10743698 bus1=BBT1800140.2.0,bus2=RML1010743698.2.0,Phases=1,Linecode=CABBTG01_4_1,Length=0.018,Units=km
new line.RML10744276 bus1=BBT1781254.1.2.0,bus2=RML1010744276.1.2.0,Phases=2,Linecode=CABBTG05_4_2,Length=0.018,Units=km
new line.RML10768019 bus1=BBT1755767.1.2.0,bus2=RML1010768019.1.2.0,Phases=2,Linecode=CABBTG05_4_2,Length=0.013,Units=km
new line.RML10786127 bus1=BBT1718632.1.2.0,bus2=RML1010786127.1.2.0,Phases=2,Linecode=CABBTG05_4_2,Length=0.02,Units=km
new line.RML10789054 bus1=BBT1741039.1.3.0,bus2=RML1010789054.1.3.0,Phases=2,Linecode=CABBTG05_4_2,Length=0.02,Units=km
new line.RML10932290 bus1=BBT1789136.1.0,bus2=RML1010932290.1.0,Phases=1,Linecode=CABBTG02_4_1,Length=0.021,Units=km
new line.RML11036485 bus1=BBT1752183.2.0,bus2=RML1011036485.2.0,Phases=1,Linecode=CABBTG02_4_1,Length=0.02,Units=km
new line.RML11055851 bus1=BBT1754521.1.2.0,bus2=RML1011055851.1.2.0,Phases=2,Linecode=CABBTG05_4_2,Length=0.026,Units=km
new line.RML11057410 bus1=BBT3810792.1.2.0,bus2=RML1011057410.1.2.0,Phases=2,Linecode=CABBTG05_4_2,Length=0.018,Units=km
new line.RML10677039 bus1=BBT1702077.3.0,bus2=RML1010677039.3.0,Phases=1,Linecode=CABBTG02_4_1,Length=0.015,Units=km
new line.RML10700599 bus1=BBT1798257.1.2.0,bus2=RML1010700599.1.2.0,Phases=2,Linecode=CABBTG05_4_2,Length=0.02,Units=km
new line.RML10703489 bus1=BBT1789038.2.0,bus2=RML1010703489.2.0,Phases=1,Linecode=CABBTG02_4_1,Length=0.019,Units=km
new line.RML10703490 bus1=BBT129732621.1.0,bus2=RML1010703490.1.0,Phases=1,Linecode=CABBTG02_4_1,Length=0.02,Units=km
new line.RML10703491 bus1=BBT1782332.1.0,bus2=RML1010703491.1.0,Phases=1,Linecode=CABBTG02_4_1,Length=0.014,Units=km
new line.RML10703493 bus1=BBT1789073.1.0,bus2=RML1010703493.1.0,Phases=1,Linecode=CABBTG02_4_1,Length=0.024,Units=km
new line.RML10709097 bus1=BBT1781240.1.2.0,bus2=RML1010709097.1.2.0,Phases=2,Linecode=CABBTG05_4_2,Length=0.013,Units=km
new line.RML10709105 bus1=BBT1781240.3.0,bus2=RML1010709105.3.0,Phases=1,Linecode=CABBTG02_4_1,Length=0.023,Units=km
new line.RML10710844 bus1=BBT160968645.1.0,bus2=RML1010710844.1.0,Phases=1,Linecode=CABBTG02_4_1,Length=0.02,Units=km
new line.RML10791383 bus1=BBT1609852.1.3.0,bus2=RML1010791383.1.3.0,Phases=2,Linecode=CABBTG05_4_2,Length=0.02,Units=km
new line.RML10805394 bus1=BBT1747591.1.2.0,bus2=RML1010805394.1.2.0,Phases=2,Linecode=CABBTG05_4_2,Length=0.015,Units=km
new line.RML10820914 bus1=BBT1803990.2.0,bus2=RML1010820914.2.0,Phases=1,Linecode=CABBTG02_4_1,Length=0.02,Units=km
new line.RML10839619 bus1=BBT1800182.1.2.3.0,bus2=RML1010839619.1.2.3.0,Phases=3,Linecode=CABBTG06_4_3,Length=0.027,Units=km
new line.RML10839669 bus1=BBT1709308.1.2.0,bus2=RML1010839669.1.2.0,Phases=2,Linecode=CABBTG05_4_2,Length=0.013,Units=km
new line.RML10858020 bus1=BBT129732621.2.3.0,bus2=RML1010858020.2.3.0,Phases=2,Linecode=CABBTG05_4_2,Length=0.01,Units=km
new line.RML10858213 bus1=BBT1791194.3.0,bus2=RML1010858213.3.0,Phases=1,Linecode=CABBTG02_4_1,Length=0.018,Units=km
new line.RML10889450 bus1=BBT1734494.1.2.0,bus2=RML1010889450.1.2.0,Phases=2,Linecode=CABBTG05_4_2,Length=0.019,Units=km
new line.RML10889928 bus1=BBT1730329.2.3.0,bus2=RML1010889928.2.3.0,Phases=2,Linecode=CABBTG05_4_2,Length=0.019,Units=km
new line.RML10902343 bus1=BBT1747682.2.3.0,bus2=RML1010902343.2.3.0,Phases=2,Linecode=CABBTG05_4_2,Length=0.013,Units=km
new line.RML10902401 bus1=BBT1764986.2.0,bus2=RML1010902401.2.0,Phases=1,Linecode=CABBTG02_4_1,Length=0.02,Units=km
new line.RML10933744 bus1=BBT5439937.1.2.0,bus2=RML1010933744.1.2.0,Phases=2,Linecode=CABBT811_4_2,Length=0.015,Units=km
new line.RML10934733 bus1=BBT1787190.1.2.0,bus2=RML1010934733.1.2.0,Phases=2,Linecode=CABBT811_4_2,Length=0.02,Units=km
new line.RML10935241 bus1=BBT1925237.1.2.0,bus2=RML1010935241.1.2.0,Phases=2,Linecode=CABBTG05_4_2,Length=0.02,Units=km