new line.10090198 bus1=BBT147655449.1.2.3.0,bus2=BBT147655456.1.2.3.0,Phases=3,Linecode=BT518_BT518_7_3_1,Length=0.000501000,Units=km
new line.10090254 bus1=BBT147655456.1.2.3.0,bus2=BBT147655911.1.2.3.0,Phases=3,Linecode=BT803_BT803_4_3_4,Length=0.024419000,Units=km
new line.10090275 bus1=BBT147655456.1.2.3.0,bus2=BBT147656149.1.2.3.0,Phases=3,Linecode=BT803_BT803_4_3_4,Length=0.024419000,Units=km
new line.10090289 bus1=BBT147656149.1.2.3.0,bus2=BBT147656170.1.2.3.0,Phases=3,Linecode=BT803_BT803_4_3_4,Length=0.016647000,Units=km
new line.10090457 bus1=BBT147656149.1.2.3.0,bus2=BBT147657619.1.2.3.0,Phases=3,Linecode=BT803_BT803_4_3_4,Length=0.039124000,Units=km
new line.10090464 bus1=BBT147657619.1.2.3.0,bus2=BBT147657927.1.2.3.0,Phases=3,Linecode=BT803_BT803_4_3_4,Length=0.038022000,Units=km
new line.10090478 bus1=BBT147657927.1.2.3.0,bus2=BBT147657941.1.2.3.0,Phases=3,Linecode=BT803_BT803_4_3_4,Length=0.038842000,Units=km
new line.1490754 bus1=BBT1608529.1.2.3.0,bus2=BBT1608508.1.2.3.0,Phases=3,Linecode=BT108_BT107_7_3_1,Length=0.038022000,Units=km
new line.1490761 bus1=BBT1608543.1.2.3.0,bus2=BBT1608515.1.2.3.0,Phases=3,Linecode=BT810_BT810_4_3_4,Length=0.034213000,Units=km
new line.1490768 bus1=BBT1608543.1.2.3.0,bus2=BBT1608571.1.2.3.0,Phases=3,Linecode=BT803_BT803_4_3_4,Length=0.033023000,Units=km
new line.1490775 bus1=BBT1608585.1.2.3.0,bus2=BBT1608543.1.2.3.0,Phases=3,Linecode=BT803_BT803_4_3_4,Length=0.035236000,Units=km
new line.1490782 bus1=BBT1608557.1.2.3.0,bus2=BBT1608529.1.2.3.0,Phases=3,Linecode=BT108_BT107_7_3_1,Length=0.030813000,Units=km
new line.1490789 bus1=BBT1608431.1.2.3.0,bus2=BBT1608557.1.2.3.0,Phases=3,Linecode=BT307_BT307_7_3_1,Length=0.000501000,Units=km
new line.1490796 bus1=BBT1608557.1.2.3.0,bus2=BBT1608599.1.2.3.0,Phases=3,Linecode=BT108_BT107_7_3_1,Length=0.031630000,Units=km
new line.1490803 bus1=BBT1608564.1.2.3.0,bus2=BBT1608718.1.2.3.0,Phases=3,Linecode=BT803_BT803_4_3_4,Length=0.015268000,Units=km
new line.1490810 bus1=BBT1608571.1.2.3.0,bus2=BBT1608683.1.2.3.0,Phases=3,Linecode=BT803_BT803_4_3_4,Length=0.032457000,Units=km
new line.1490817 bus1=BBT1608578.1.2.3.0,bus2=BBT1608606.1.2.3.0,Phases=3,Linecode=BT803_BT803_4_3_4,Length=0.034417000,Units=km
new line.1490824 bus1=BBT1608585.1.2.3.0,bus2=BBT1608613.1.2.3.0,Phases=3,Linecode=BT803_BT803_4_3_4,Length=0.031630000,Units=km
new line.1490831 bus1=BBT1608592.1.2.3.0,bus2=BBT1608564.1.2.3.0,Phases=3,Linecode=BT803_BT803_4_3_4,Length=0.036409000,Units=km
new line.1490838 bus1=BBT1608599.1.2.3.0,bus2=BBT1608704.1.2.3.0,Phases=3,Linecode=BT108_BT107_7_3_1,Length=0.015004000,Units=km
new line.1490845 bus1=BBT1608641.1.2.3.0,bus2=BBT127578126.1.2.3.0,Phases=3,Linecode=BT810_BT810_4_3_4,Length=0.036628000,Units=km
new line.1490852 bus1=BBT1608627.1.2.3.0,bus2=BBT1608648.1.2.3.0,Phases=3,Linecode=BT106_BT106_7_3_1,Length=0.033846000,Units=km
new line.1490859 bus1=BBT1608613.1.2.3.0,bus2=BBT1608634.1.2.3.0,Phases=3,Linecode=BT803_BT803_4_3_4,Length=0.029418000,Units=km
new line.1490866 bus1=BBT1608697.1.2.3.0,bus2=BBT1608641.1.2.3.0,Phases=3,Linecode=BT810_BT810_4_3_4,Length=0.017209000,Units=km
new line.1490873 bus1=BBT1608648.1.2.3.0,bus2=BBT1608669.1.2.3.0,Phases=3,Linecode=BT106_BT106_7_3_1,Length=0.032210000,Units=km
new line.1490880 bus1=BBT1608655.1.2.3.0,bus2=BBT93902414.1.2.3.0,Phases=3,Linecode=BT810_BT810_4_3_4,Length=0.031630000,Units=km
new line.1490887 bus1=BBT1608662.1.2.3.0,bus2=BBT5210386.1.2.3.0,Phases=3,Linecode=BT810_BT810_4_3_4,Length=0.028607000,Units=km
new line.1490894 bus1=BBT5210386.1.2.3.0,bus2=BBT5210393.1.2.3.0,Phases=3,Linecode=BT810_BT810_4_3_4,Length=0.023436000,Units=km
new line.1490901 bus1=BBT1608634.1.2.3.0,bus2=BBT1608697.1.2.3.0,Phases=3,Linecode=BT803_BT803_4_3_4,Length=0.016647000,Units=km
new line.1490908 bus1=BBT1608697.1.2.3.0,bus2=BBT1608655.1.2.3.0,Phases=3,Linecode=BT803_BT803_4_3_4,Length=0.014216000,Units=km
new line.1490915 bus1=BBT1608697.1.2.3.0,bus2=BBT1608662.1.2.3.0,Phases=3,Linecode=BT810_BT810_4_3_4,Length=0.018606000,Units=km
new line.1490922 bus1=BBT1608704.1.2.3.0,bus2=BBT1608592.1.2.3.0,Phases=3,Linecode=BT803_BT803_4_3_4,Length=0.025006000,Units=km
new line.1490929 bus1=BBT1608704.1.2.3.0,bus2=BBT1608620.1.2.3.0,Phases=3,Linecode=BT803_BT803_4_3_4,Length=0.010003000,Units=km
new line.1490936 bus1=BBT1608704.1.2.3.0,bus2=BBT1608627.1.2.3.0,Phases=3,Linecode=BT108_BT107_7_3_1,Length=0.014426000,Units=km
new line.1490943 bus1=BBT1608711.1.2.3.0,bus2=BBT1608459.1.2.3.0,Phases=3,Linecode=BT803_BT803_4_3_4,Length=0.007812000,Units=km
new line.1490950 bus1=BBT1608711.1.2.3.0,bus2=BBT1608466.1.2.3.0,Phases=3,Linecode=BT803_BT803_4_3_4,Length=0.006710000,Units=km
new line.1490957 bus1=BBT1608711.1.2.3.0,bus2=BBT1608494.1.2.3.0,Phases=3,Linecode=BT803_BT803_4_3_4,Length=0.032023000,Units=km
new line.1490964 bus1=BBT1608718.1.2.3.0,bus2=BBT1608550.1.2.3.0,Phases=3,Linecode=BT803_BT803_4_3_4,Length=0.017809000,Units=km
new line.1490971 bus1=BBT1608718.1.2.3.0,bus2=BBT1608536.1.2.3.0,Phases=3,Linecode=BT803_BT803_4_3_4,Length=0.016405000,Units=km
new line.1490978 bus1=BBT1608718.1.2.3.0,bus2=BBT1608578.1.2.3.0,Phases=3,Linecode=BT803_BT803_4_3_4,Length=0.017809000,Units=km
new line.1492028 bus1=BBT1609796.1.2.3.0,bus2=BBT1609789.1.2.3.0,Phases=3,Linecode=BT107_BT107_7_3_1,Length=0.035059000,Units=km
new line.1492035 bus1=BBT1609803.1.2.3.0,bus2=BBT1609796.1.2.3.0,Phases=3,Linecode=BT107_BT107_7_3_1,Length=0.028660000,Units=km
new line.1492042 bus1=BBT1609817.1.2.3.0,bus2=BBT1609803.1.2.3.0,Phases=3,Linecode=BT107_BT107_7_3_1,Length=0.029267000,Units=km
new line.1492049 bus1=BBT1609817.1.2.3.0,bus2=BBT1609810.1.2.3.0,Phases=3,Linecode=BT108_BT107_7_3_1,Length=0.035236000,Units=km
new line.1492056 bus1=BBT1609824.1.2.3.0,bus2=BBT5008926.1.2.3.0,Phases=3,Linecode=BT810_BT810_4_3_4,Length=0.044100000,Units=km
new line.1492063 bus1=BBT1609831.1.2.3.0,bus2=BBT1609817.1.2.3.0,Phases=3,Linecode=BT108_BT107_7_3_1,Length=0.027809000,Units=km
new line.1492070 bus1=BBT1609838.1.2.3.0,bus2=BBT1609831.1.2.3.0,Phases=3,Linecode=BT108_BT107_7_3_1,Length=0.030813000,Units=km
new line.1492077 bus1=BBT1609782.1.2.3.0,bus2=BBT1609838.1.2.3.0,Phases=3,Linecode=BT518_BT518_7_3_1,Length=0.000501000,Units=km
new line.1492084 bus1=BBT1609838.1.2.3.0,bus2=BBT1609859.1.2.3.0,Phases=3,Linecode=BT108_BT107_7_3_1,Length=0.020620000,Units=km
new line.1492091 bus1=BBT2925390.1.2.3.0,bus2=BBT1609824.1.2.3.0,Phases=3,Linecode=BT106_BT106_7_3_1,Length=0.035054000,Units=km
new line.1492098 bus1=BBT1609845.1.2.3.0,bus2=BBT2925390.1.2.3.0,Phases=3,Linecode=BT106_BT106_7_3_1,Length=0.009494000,Units=km
new line.1492105 bus1=BBT1609845.1.2.3.0,bus2=BBT1609852.1.2.3.0,Phases=3,Linecode=BT108_BT107_7_3_1,Length=0.024419000,Units=km
new line.1492112 bus1=BBT1610265.1.2.3.0,bus2=BBT1610272.1.2.3.0,Phases=3,Linecode=BT805_BT805_4_3_4,Length=0.043611000,Units=km
new line.1492126 bus1=BBT1609859.1.2.3.0,bus2=BBT1609845.1.2.3.0,Phases=3,Linecode=BT108_BT107_7_3_1,Length=0.008605000,Units=km
new line.1492168 bus1=BBT1609915.1.2.3.0,bus2=BBT1609901.1.2.3.0,Phases=3,Linecode=BT810_BT810_4_3_4,Length=0.035683000,Units=km
new line.1492175 bus1=BBT1609922.1.2.3.0,bus2=BBT1609908.1.2.3.0,Phases=3,Linecode=BT803_BT803_4_3_4,Length=0.029418000,Units=km
new line.1492182 bus1=BBT1609929.1.2.3.0,bus2=BBT2908345.1.2.3.0,Phases=3,Linecode=BT803_BT803_4_3_4,Length=0.005002000,Units=km
new line.1489487 bus1=BBT1617405.1.2.3.0,bus2=BBT1617370.1.2.3.0,Phases=3,Linecode=BT803_BT803_4_3_4,Length=0.029418000,Units=km
new line.1489494 bus1=BBT1617405.1.2.3.0,bus2=BBT1617426.1.2.3.0,Phases=3,Linecode=BT803_BT803_4_3_4,Length=0.035008000,Units=km
new line.1489501 bus1=BBT1607339.1.2.3.0,bus2=BBT1607332.1.2.3.0,Phases=3,Linecode=BT803_BT803_4_3_4,Length=0.025245000,Units=km
new line.1489508 bus1=BBT1607346.1.2.3.0,bus2=BBT1607325.1.2.3.0,Phases=3,Linecode=BT803_BT803_4_3_4,Length=0.032810000,Units=km
new line.1489515 bus1=BBT1607353.1.2.3.0,bus2=BBT1607339.1.2.3.0,Phases=3,Linecode=BT803_BT803_4_3_4,Length=0.023606000,Units=km
new line.1489522 bus1=BBT1607367.1.2.3.0,bus2=BBT1607514.1.2.3.0,Phases=3,Linecode=BT803_BT803_4_3_4,Length=0.009437000,Units=km
new line.1489529 bus1=BBT1607374.1.2.3.0,bus2=BBT1607388.1.2.3.0,Phases=3,Linecode=BT803_BT803_4_3_4,Length=0.035617000,Units=km
new line.1489536 bus1=BBT1607381.1.2.3.0,bus2=BBT1607360.1.2.3.0,Phases=3,Linecode=BT803_BT803_4_3_4,Length=0.034213000,Units=km
new line.1489543 bus1=BBT1607507.1.2.3.0,bus2=BBT174632330.1.2.3.0,Phases=3,Linecode=BT803_BT803_4_3_4,Length=0.022809000,Units=km
new line.1489550 bus1=BBT1607395.1.2.3.0,bus2=BBT1607367.1.2.3.0,Phases=3,Linecode=BT803_BT803_4_3_4,Length=0.037811000,Units=km
new line.1489557 bus1=BBT1607318.1.2.3.0,bus2=BBT1607395.1.2.3.0,Phases=3,Linecode=BT307_BT307_7_3_1,Length=0.000501000,Units=km
new line.1489564 bus1=BBT1607395.1.2.3.0,bus2=BBT1607416.1.2.3.0,Phases=3,Linecode=BT803_BT803_4_3_4,Length=0.036628000,Units=km
new line.1489571 bus1=BBT1607402.1.2.3.0,bus2=BBT1607430.1.2.3.0,Phases=3,Linecode=BT803_BT803_4_3_4,Length=0.035813000,Units=km
new line.1489578 bus1=BBT2905678.1.2.3.0,bus2=BBT1607409.1.2.3.0,Phases=3,Linecode=BT803_BT803_4_3_4,Length=0.033023000,Units=km
new line.1489585 bus1=BBT1607416.1.2.3.0,bus2=BBT1607451.1.2.3.0,Phases=3,Linecode=BT803_BT803_4_3_4,Length=0.029840000,Units=km
new line.1489592 bus1=BBT1607444.1.2.3.0,bus2=BBT1607423.1.2.3.0,Phases=3,Linecode=BT803_BT803_4_3_4,Length=0.026633000,Units=km
new line.1489599 bus1=BBT1607451.1.2.3.0,bus2=BBT1607444.1.2.3.0,Phases=3,Linecode=BT803_BT803_4_3_4,Length=0.003607000,Units=km
new line.1489606 bus1=BBT1607451.1.2.3.0,bus2=BBT1607458.1.2.3.0,Phases=3,Linecode=BT803_BT803_4_3_4,Length=0.006710000,Units=km
new line.1489613 bus1=BBT1607451.1.2.3.0,bus2=BBT1607465.1.2.3.0,Phases=3,Linecode=BT803_BT803_4_3_4,Length=0.032210000,Units=km
new line.1489620 bus1=BBT1607458.1.2.3.0,bus2=BBT1607479.1.2.3.0,Phases=3,Linecode=BT803_BT803_4_3_4,Length=0.030239000,Units=km
new line.1489627 bus1=BBT1607465.1.2.3.0,bus2=BBT1607486.1.2.3.0,Phases=3,Linecode=BT803_BT803_4_3_4,Length=0.024419000,Units=km
new line.1489634 bus1=BBT1607472.1.2.3.0,bus2=BBT2905678.1.2.3.0,Phases=3,Linecode=BT803_BT803_4_3_4,Length=0.035008000,Units=km
new line.1489641 bus1=BBT1607493.1.2.3.0,bus2=BBT174632245.1.2.3.0,Phases=3,Linecode=BT803_BT803_4_3_4,Length=0.024845000,Units=km
new line.1489648 bus1=BBT1607493.1.2.3.0,bus2=BBT1607472.1.2.3.0,Phases=3,Linecode=BT803_BT803_4_3_4,Length=0.033023000,Units=km
new line.1489655 bus1=BBT1607493.1.2.3.0,bus2=BBT1607500.1.2.3.0,Phases=3,Linecode=BT803_BT803_4_3_4,Length=0.032210000,Units=km
new line.1489662 bus1=BBT1607507.1.2.3.0,bus2=BBT1607381.1.2.3.0,Phases=3,Linecode=BT803_BT803_4_3_4,Length=0.023027000,Units=km
new line.1489669 bus1=BBT1607507.1.2.3.0,bus2=BBT1607402.1.2.3.0,Phases=3,Linecode=BT803_BT803_4_3_4,Length=0.010819000,Units=km
new line.1489676 bus1=BBT1607409.1.2.3.0,bus2=BBT1607507.1.2.3.0,Phases=3,Linecode=BT803_BT803_4_3_4,Length=0.010003000,Units=km
new line.1489683 bus1=BBT1607514.1.2.3.0,bus2=BBT1607346.1.2.3.0,Phases=3,Linecode=BT803_BT803_4_3_4,Length=0.022809000,Units=km
new line.1489690 bus1=BBT1607514.1.2.3.0,bus2=BBT1607353.1.2.3.0,Phases=3,Linecode=BT803_BT803_4_3_4,Length=0.013420000,Units=km
new line.1489697 bus1=BBT1607514.1.2.3.0,bus2=BBT1607374.1.2.3.0,Phases=3,Linecode=BT803_BT803_4_3_4,Length=0.021265000,Units=km
new line.1489704 bus1=BBT1607535.1.2.3.0,bus2=BBT1607528.1.2.3.0,Phases=3,Linecode=BT107_BT107_7_3_1,Length=0.031439000,Units=km
new line.1489711 bus1=BBT1607542.1.2.3.0,bus2=BBT1607535.1.2.3.0,Phases=3,Linecode=BT107_BT107_7_3_1,Length=0.028637000,Units=km
new line.1489718 bus1=BBT1607549.1.2.3.0,bus2=BBT1607542.1.2.3.0,Phases=3,Linecode=BT107_BT107_7_3_1,Length=0.029243000,Units=km
new line.1489725 bus1=BBT1607549.1.2.3.0,bus2=BBT1607570.1.2.3.0,Phases=3,Linecode=BT107_BT107_7_3_1,Length=0.029842000,Units=km
new line.1489732 bus1=BBT1607577.1.2.3.0,bus2=BBT1607556.1.2.3.0,Phases=3,Linecode=BT803_BT803_4_3_4,Length=0.027238000,Units=km
new line.1489739 bus1=BBT1607584.1.2.3.0,bus2=BBT1607563.1.2.3.0,Phases=3,Linecode=BT108_BT107_7_3_1,Length=0.041795000,Units=km
new line.1489746 bus1=BBT1607584.1.2.3.0,bus2=BBT1607577.1.2.3.0,Phases=3,Linecode=BT803_BT803_4_3_4,Length=0.009004000,Units=km
new line.1489753 bus1=BBT1607591.1.2.3.0,bus2=BBT1607549.1.2.3.0,Phases=3,Linecode=BT107_BT107_7_3_1,Length=0.033464000,Units=km
new line.1489760 bus1=BBT1607598.1.2.3.0,bus2=BBT1607584.1.2.3.0,Phases=3,Linecode=BT108_BT107_7_3_1,Length=0.034937000,Units=km
new line.1489767 bus1=BBT1607605.1.2.3.0,bus2=BBT1607598.1.2.3.0,Phases=3,Linecode=BT108_BT107_7_3_1,Length=0.018979000,Units=km
new line.1489774 bus1=BBT1607521.1.2.3.0,bus2=BBT1607605.1.2.3.0,Phases=3,Linecode=BT307_BT307_7_3_1,Length=0.000501000,Units=km
new line.1489781 bus1=BBT1607605.1.2.3.0,bus2=BBT1607612.1.2.3.0,Phases=3,Linecode=BT108_BT107_7_3_1,Length=0.027864000,Units=km
new line.1489788 bus1=BBT1607612.1.2.3.0,bus2=BBT1607591.1.2.3.0,Phases=3,Linecode=BT107_BT107_7_3_1,Length=0.032244000,Units=km
new line.1489795 bus1=BBT1607612.1.2.3.0,bus2=BBT1607619.1.2.3.0,Phases=3,Linecode=BT108_BT107_7_3_1,Length=0.022853000,Units=km
new line.1489802 bus1=BBT1607612.1.2.3.0,bus2=BBT1607626.1.2.3.0,Phases=3,Linecode=BT107_BT107_7_3_1,Length=0.013009000,Units=km
new line.1489809 bus1=BBT1607626.1.2.3.0,bus2=BBT1607633.1.2.3.0,Phases=3,Linecode=BT107_BT107_7_3_1,Length=0.041200000,Units=km
new line.1489816 bus1=BBT1607633.1.2.3.0,bus2=BBT1607640.1.2.3.0,Phases=3,Linecode=BT107_BT107_7_3_1,Length=0.050633000,Units=km
new line.1490425 bus1=BBT1608235.1.2.3.0,bus2=BBT1608228.1.2.3.0,Phases=3,Linecode=BT803_BT803_4_3_4,Length=0.026633000,Units=km
new line.1490432 bus1=BBT1608242.1.2.3.0,bus2=BBT1608221.1.2.3.0,Phases=3,Linecode=BT803_BT803_4_3_4,Length=0.040875000,Units=km
new line.1490439 bus1=BBT1608242.1.2.3.0,bus2=BBT1608235.1.2.3.0,Phases=3,Linecode=BT803_BT803_4_3_4,Length=0.027809000,Units=km
new line.1490446 bus1=BBT1608242.1.2.3.0,bus2=BBT1608256.1.2.3.0,Phases=3,Linecode=BT803_BT803_4_3_4,Length=0.033429000,Units=km
new line.1490453 bus1=BBT1608249.1.2.3.0,bus2=BBT1608242.1.2.3.0,Phases=3,Linecode=BT803_BT803_4_3_4,Length=0.030813000,Units=km
new line.1490460 bus1=BBT1608214.1.2.3.0,bus2=BBT1608249.1.2.3.0,Phases=3,Linecode=BT518_BT518_7_3_1,Length=0.000501000,Units=km
new line.1490467 bus1=BBT1608249.1.2.3.0,bus2=BBT1608263.1.2.3.0,Phases=3,Linecode=BT803_BT803_4_3_4,Length=0.030813000,Units=km
new line.1490474 bus1=BBT1608256.1.2.3.0,bus2=BBT1608270.1.2.3.0,Phases=3,Linecode=BT803_BT803_4_3_4,Length=0.030813000,Units=km
new line.1490481 bus1=BBT1608263.1.2.3.0,bus2=BBT1608277.1.2.3.0,Phases=3,Linecode=BT803_BT803_4_3_4,Length=0.038022000,Units=km
new line.1490488 bus1=BBT1608263.1.2.3.0,bus2=BBT1608284.1.2.3.0,Phases=3,Linecode=BT803_BT803_4_3_4,Length=0.033023000,Units=km
new line.1477629 bus1=BBT1593948.1.2.3.0,bus2=BBT1593955.1.2.3.0,Phases=3,Linecode=BT514_BT514_7_3_1,Length=0.000501000,Units=km
new line.1477636 bus1=BBT1702091.1.2.3.0,bus2=BBT1702084.1.2.3.0,Phases=3,Linecode=BT805_BT805_4_3_4,Length=0.032023000,Units=km
new line.1477741 bus1=BBT1702098.1.2.3.0,bus2=BBT1702091.1.2.3.0,Phases=3,Linecode=BT805_BT805_4_3_4,Length=0.030601000,Units=km
new line.1477748 bus1=BBT1594067.1.2.3.0,bus2=BBT1594074.1.2.3.0,Phases=3,Linecode=BT514_BT514_7_3_1,Length=0.000501000,Units=km
new line.1496158 bus1=BBT1617468.1.2.3.0,bus2=BBT1617475.1.2.3.0,Phases=3,Linecode=BT803_BT803_4_3_4,Length=0.031630000,Units=km
new line.1496165 bus1=BBT1617468.1.2.3.0,bus2=BBT1617447.1.2.3.0,Phases=3,Linecode=BT803_BT803_4_3_4,Length=0.036409000,Units=km
new line.1497467 bus1=BBT1615214.1.2.3.0,bus2=BBT1615207.1.2.3.0,Phases=3,Linecode=BT809_BT809_4_3_4,Length=0.033023000,Units=km
new line.1497474 bus1=BBT1615228.1.2.3.0,bus2=BBT1615214.1.2.3.0,Phases=3,Linecode=BT809_BT809_4_3_4,Length=0.034417000,Units=km
new line.1497481 bus1=BBT1615242.1.2.3.0,bus2=BBT1615221.1.2.3.0,Phases=3,Linecode=BT803_BT803_4_3_4,Length=0.032810000,Units=km
new line.1497488 bus1=BBT1615242.1.2.3.0,bus2=BBT2158540.1.2.3.0,Phases=3,Linecode=BT809_BT809_4_3_4,Length=0.010443000,Units=km
new line.1497495 bus1=BBT1615249.1.2.3.0,bus2=BBT1615235.1.2.3.0,Phases=3,Linecode=BT809_BT809_4_3_4,Length=0.038022000,Units=km
new line.1497502 bus1=BBT1615256.1.2.3.0,bus2=BBT1615242.1.2.3.0,Phases=3,Linecode=BT803_BT803_4_3_4,Length=0.022809000,Units=km
new line.1497509 bus1=BBT1615200.1.2.3.0,bus2=BBT1615256.1.2.3.0,Phases=3,Linecode=BT307_BT307_7_3_1,Length=0.000501000,Units=km
new line.1497516 bus1=BBT1615256.1.2.3.0,bus2=BBT1615263.1.2.3.0,Phases=3,Linecode=BT803_BT803_4_3_4,Length=0.030007000,Units=km
new line.1497523 bus1=BBT1615263.1.2.3.0,bus2=BBT1615270.1.2.3.0,Phases=3,Linecode=BT803_BT803_4_3_4,Length=0.022209000,Units=km
new line.1497530 bus1=BBT1615263.1.2.3.0,bus2=BBT2158561.1.2.3.0,Phases=3,Linecode=BT809_BT809_4_3_4,Length=0.009489000,Units=km
new line.1497558 bus1=BBT1615312.1.2.3.0,bus2=BBT1615298.1.2.3.0,Phases=3,Linecode=BT108_BT107_7_3_1,Length=0.030007000,Units=km
new line.1497565 bus1=BBT1615319.1.2.3.0,bus2=BBT1615340.1.2.3.0,Phases=3,Linecode=BT106_BT106_7_3_1,Length=0.028076000,Units=km
new line.1497572 bus1=BBT1615326.1.2.3.0,bus2=BBT2904971.1.2.3.0,Phases=3,Linecode=BT108_BT108_7_3_1,Length=0.021937000,Units=km
new line.1497579 bus1=BBT1615333.1.2.3.0,bus2=BBT1615326.1.2.3.0,Phases=3,Linecode=BT108_BT108_7_3_1,Length=0.022209000,Units=km
new line.1497586 bus1=BBT1615291.1.2.3.0,bus2=BBT1615333.1.2.3.0,Phases=3,Linecode=BT307_BT307_7_3_1,Length=0.000501000,Units=km
new line.1497593 bus1=BBT1615333.1.2.3.0,bus2=BBT1615347.1.2.3.0,Phases=3,Linecode=BT108_BT108_7_3_1,Length=0.034213000,Units=km
new line.1497600 bus1=BBT1615340.1.2.3.0,bus2=BBT1615354.1.2.3.0,Phases=3,Linecode=BT106_BT106_7_3_1,Length=0.035879000,Units=km
new line.1497607 bus1=BBT1615347.1.2.3.0,bus2=BBT1615368.1.2.3.0,Phases=3,Linecode=BT803_BT803_4_3_4,Length=0.036310000,Units=km
new line.1497614 bus1=BBT1615347.1.2.3.0,bus2=BBT1615361.1.2.3.0,Phases=3,Linecode=BT108_BT108_7_3_1,Length=0.035814000,Units=km
new line.1497621 bus1=BBT1615354.1.2.3.0,bus2=BBT1615396.1.2.3.0,Phases=3,Linecode=BT106_BT106_7_3_1,Length=0.035630000,Units=km
new line.1497628 bus1=BBT1615382.1.2.3.0,bus2=BBT1615403.1.2.3.0,Phases=3,Linecode=BT106_BT106_7_3_1,Length=0.032210000,Units=km
new line.1497635 bus1=BBT1615396.1.2.3.0,bus2=BBT1615389.1.2.3.0,Phases=3,Linecode=BT106_BT106_7_3_1,Length=0.024419000,Units=km
new line.1497642 bus1=BBT1615396.1.2.3.0,bus2=BBT1615375.1.2.3.0,Phases=3,Linecode=BT106_BT106_7_3_1,Length=0.005002000,Units=km
new line.1497649 bus1=BBT1615396.1.2.3.0,bus2=BBT1615382.1.2.3.0,Phases=3,Linecode=BT106_BT106_7_3_1,Length=0.003163000,Units=km
new line.1498027 bus1=BBT1615781.1.2.3.0,bus2=BBT1615774.1.2.3.0,Phases=3,Linecode=BT803_BT803_4_3_4,Length=0.034668000,Units=km
new line.1498034 bus1=BBT1615781.1.2.3.0,bus2=BBT1615809.1.2.3.0,Phases=3,Linecode=BT803_BT803_4_3_4,Length=0.017010000,Units=km
new line.1498041 bus1=BBT1615788.1.2.3.0,bus2=BBT1615781.1.2.3.0,Phases=3,Linecode=BT803_BT803_4_3_4,Length=0.008009000,Units=km
new line.1498048 bus1=BBT1615802.1.2.3.0,bus2=BBT1615788.1.2.3.0,Phases=3,Linecode=BT803_BT803_4_3_4,Length=0.022050000,Units=km
new line.1498055 bus1=BBT1615816.1.2.3.0,bus2=BBT1615802.1.2.3.0,Phases=3,Linecode=BT803_BT803_4_3_4,Length=0.021287000,Units=km
new line.1498062 bus1=BBT1615823.1.2.3.0,bus2=BBT1615795.1.2.3.0,Phases=3,Linecode=BT803_BT803_4_3_4,Length=0.035009000,Units=km
new line.1498069 bus1=BBT1615837.1.2.3.0,bus2=BBT1615907.1.2.3.0,Phases=3,Linecode=BT803_BT803_4_3_4,Length=0.027053000,Units=km
new line.1498076 bus1=BBT1615844.1.2.3.0,bus2=BBT1615837.1.2.3.0,Phases=3,Linecode=BT108_BT107_7_3_1,Length=0.035654000,Units=km
new line.1498083 bus1=BBT1615851.1.2.3.0,bus2=BBT1615844.1.2.3.0,Phases=3,Linecode=BT108_BT107_7_3_1,Length=0.034249000,Units=km
new line.1498090 bus1=BBT1615767.1.2.3.0,bus2=BBT1615851.1.2.3.0,Phases=3,Linecode=BT307_BT307_7_3_1,Length=0.000501000,Units=km
new line.1498097 bus1=BBT1615851.1.2.3.0,bus2=BBT1615858.1.2.3.0,Phases=3,Linecode=BT108_BT107_7_3_1,Length=0.029243000,Units=km
new line.1498104 bus1=BBT1615858.1.2.3.0,bus2=BBT1615914.1.2.3.0,Phases=3,Linecode=BT108_BT107_7_3_1,Length=0.005007000,Units=km
new line.1498111 bus1=BBT1615872.1.2.3.0,bus2=BBT1615886.1.2.3.0,Phases=3,Linecode=BT108_BT107_7_3_1,Length=0.035009000,Units=km
new line.1498118 bus1=BBT1615879.1.2.3.0,bus2=BBT1615893.1.2.3.0,Phases=3,Linecode=BT108_BT107_7_3_1,Length=0.035654000,Units=km
new line.1498125 bus1=BBT1615893.1.2.3.0,bus2=BBT1615900.1.2.3.0,Phases=3,Linecode=BT108_BT107_7_3_1,Length=0.033643000,Units=km
new line.1498132 bus1=BBT1615907.1.2.3.0,bus2=BBT1615816.1.2.3.0,Phases=3,Linecode=BT803_BT803_4_3_4,Length=0.005839000,Units=km
new line.1498139 bus1=BBT1615907.1.2.3.0,bus2=BBT1615823.1.2.3.0,Phases=3,Linecode=BT803_BT803_4_3_4,Length=0.005833000,Units=km
new line.1498146 bus1=BBT1615907.1.2.3.0,bus2=BBT1615830.1.2.3.0,Phases=3,Linecode=BT803_BT803_4_3_4,Length=0.030008000,Units=km
new line.1498153 bus1=BBT1615914.1.2.3.0,bus2=BBT1615865.1.2.3.0,Phases=3,Linecode=BT108_BT107_7_3_1,Length=0.005387000,Units=km
new line.1498160 bus1=BBT1615914.1.2.3.0,bus2=BBT1615872.1.2.3.0,Phases=3,Linecode=BT108_BT107_7_3_1,Length=0.031250000,Units=km
new line.1498167 bus1=BBT1615914.1.2.3.0,bus2=BBT1615879.1.2.3.0,Phases=3,Linecode=BT108_BT107_7_3_1,Length=0.032056000,Units=km
new line.1498321 bus1=BBT1616117.1.2.3.0,bus2=BBT1616110.1.2.3.0,Phases=3,Linecode=BT108_BT107_7_3_1,Length=0.035879000,Units=km
new line.1498328 bus1=BBT1616124.1.2.3.0,bus2=BBT1616117.1.2.3.0,Phases=3,Linecode=BT108_BT107_7_3_1,Length=0.037818000,Units=km
new line.1498335 bus1=BBT1616131.1.2.3.0,bus2=BBT1616124.1.2.3.0,Phases=3,Linecode=BT108_BT107_7_3_1,Length=0.040814000,Units=km
new line.1498342 bus1=BBT1616103.1.2.3.0,bus2=BBT1616131.1.2.3.0,Phases=3,Linecode=BT307_BT307_7_3_1,Length=0.000501000,Units=km
new line.1498349 bus1=BBT1616131.1.2.3.0,bus2=BBT1616138.1.2.3.0,Phases=3,Linecode=BT108_BT107_7_3_1,Length=0.030007000,Units=km
new line.1498356 bus1=BBT1616138.1.2.3.0,bus2=BBT1616159.1.2.3.0,Phases=3,Linecode=BT108_BT107_7_3_1,Length=0.031408000,Units=km
new line.1498363 bus1=BBT1616152.1.2.3.0,bus2=BBT2747023.1.2.3.0,Phases=3,Linecode=BT810_BT810_4_3_4,Length=0.032458000,Units=km
new line.1490495 bus1=BBT1608263.1.2.0,bus2=BBT4480426.1.2.0,Phases=2,Linecode=BT808_BT808_4_2_3,Length=0.046137000,Units=km
new line.1490502 bus1=BBT1608270.1.2.3.0,bus2=BBT1608298.1.2.3.0,Phases=3,Linecode=BT803_BT803_4_3_4,Length=0.030007000,Units=km
new line.1490509 bus1=BBT1608277.1.2.3.0,bus2=BBT1608291.1.2.3.0,Phases=3,Linecode=BT803_BT803_4_3_4,Length=0.035008000,Units=km
new line.1490516 bus1=BBT1608284.1.2.3.0,bus2=BBT1608312.1.2.3.0,Phases=3,Linecode=BT803_BT803_4_3_4,Length=0.033023000,Units=km
new line.1490523 bus1=BBT1932034.1.2.3.0,bus2=BBT1931936.1.2.3.0,Phases=3,Linecode=BT803_BT803_4_3_4,Length=0.041966000,Units=km
new line.1490530 bus1=BBT1608298.1.2.3.0,bus2=BBT1608368.1.2.3.0,Phases=3,Linecode=BT803_BT803_4_3_4,Length=0.005833000,Units=km
new line.1490537 bus1=BBT1608305.1.2.3.0,bus2=BBT3810792.1.2.3.0,Phases=3,Linecode=BT803_BT803_4_3_4,Length=0.020005000,Units=km
new line.1490544 bus1=BBT1608312.1.2.3.0,bus2=BBT1608333.1.2.3.0,Phases=3,Linecode=BT803_BT803_4_3_4,Length=0.033608000,Units=km
new line.1490551 bus1=BBT1608326.1.2.3.0,bus2=BBT1608340.1.2.3.0,Phases=3,Linecode=BT803_BT803_4_3_4,Length=0.030007000,Units=km
new line.1490558 bus1=BBT1608333.1.2.3.0,bus2=BBT1608319.1.2.3.0,Phases=3,Linecode=BT803_BT803_4_3_4,Length=0.033023000,Units=km
new line.1490565 bus1=BBT1608333.1.2.3.0,bus2=BBT1608347.1.2.3.0,Phases=3,Linecode=BT803_BT803_4_3_4,Length=0.034836000,Units=km
new line.1490572 bus1=BBT1608333.1.2.3.0,bus2=BBT1608354.1.2.3.0,Phases=3,Linecode=BT803_BT803_4_3_4,Length=0.040234000,Units=km
new line.1490579 bus1=BBT93903961.1.2.3.0,bus2=BBT1608375.1.2.3.0,Phases=3,Linecode=BT803_BT803_4_3_4,Length=0.008065000,Units=km
new line.1490586 bus1=BBT1608368.1.2.3.0,bus2=BBT1608305.1.2.3.0,Phases=3,Linecode=BT803_BT803_4_3_4,Length=0.010819000,Units=km
new line.1490593 bus1=BBT1608368.1.2.3.0,bus2=BBT1608326.1.2.3.0,Phases=3,Linecode=BT803_BT803_4_3_4,Length=0.037211000,Units=km
new line.1490600 bus1=BBT1608368.1.2.3.0,bus2=BBT1608361.1.2.3.0,Phases=3,Linecode=BT803_BT803_4_3_4,Length=0.031630000,Units=km
new line.1490670 bus1=BBT1608445.1.2.3.0,bus2=BBT1608438.1.2.3.0,Phases=3,Linecode=BT803_BT803_4_3_4,Length=0.032210000,Units=km
new line.1490677 bus1=BBT1608466.1.2.3.0,bus2=BBT1608445.1.2.3.0,Phases=3,Linecode=BT803_BT803_4_3_4,Length=0.031630000,Units=km
new line.1490684 bus1=BBT1608473.1.2.3.0,bus2=BBT1608452.1.2.3.0,Phases=3,Linecode=BT810_BT810_4_3_4,Length=0.033023000,Units=km
new line.1490691 bus1=BBT1608480.1.2.0,bus2=BBT1608690.1.2.0,Phases=2,Linecode=BT107_BT107_7_2_1,Length=0.033623000,Units=km
new line.1490698 bus1=BBT1608487.1.2.3.0,bus2=BBT1608711.1.2.3.0,Phases=3,Linecode=BT803_BT803_4_3_4,Length=0.033294000,Units=km
new line.1490705 bus1=BBT1608494.1.2.3.0,bus2=BBT5740643.1.2.3.0,Phases=3,Linecode=BT803_BT803_4_3_4,Length=0.029418000,Units=km
new line.1490712 bus1=BBT1608508.1.2.3.0,bus2=BBT1608473.1.2.3.0,Phases=3,Linecode=BT810_BT810_4_3_4,Length=0.033846000,Units=km
new line.1490719 bus1=BBT1608508.1.2.3.0,bus2=BBT1608480.1.2.3.0,Phases=3,Linecode=BT107_BT107_7_3_1,Length=0.035349000,Units=km
new line.1490726 bus1=BBT1608508.1.2.3.0,bus2=BBT1608487.1.2.3.0,Phases=3,Linecode=BT803_BT803_4_3_4,Length=0.041627000,Units=km
new line.1490733 bus1=BBT1608522.1.2.3.0,bus2=BBT127578091.1.2.3.0,Phases=3,Linecode=BT803_BT803_4_3_4,Length=0.032023000,Units=km
new line.1490740 bus1=BBT1608515.1.2.3.0,bus2=BBT1608501.1.2.3.0,Phases=3,Linecode=BT810_BT810_4_3_4,Length=0.028432000,Units=km
new line.1490747 bus1=BBT1608543.1.2.3.0,bus2=BBT1608522.1.2.3.0,Phases=3,Linecode=BT803_BT803_4_3_4,Length=0.030007000,Units=km
new line.1499532 bus1=BBT1617342.1.2.3.0,bus2=BBT1617482.1.2.3.0,Phases=3,Linecode=BT803_BT803_4_3_4,Length=0.020253000,Units=km
new line.1499539 bus1=BBT1617356.1.2.3.0,bus2=BBT1617377.1.2.3.0,Phases=3,Linecode=BT803_BT803_4_3_4,Length=0.030007000,Units=km
new line.1499546 bus1=BBT1617363.1.2.3.0,bus2=BBT1617342.1.2.3.0,Phases=3,Linecode=BT803_BT803_4_3_4,Length=0.029213000,Units=km
new line.1499553 bus1=BBT1617363.1.2.3.0,bus2=BBT1617356.1.2.3.0,Phases=3,Linecode=BT803_BT803_4_3_4,Length=0.010053000,Units=km
new line.1499560 bus1=BBT1617370.1.2.3.0,bus2=BBT1617349.1.2.3.0,Phases=3,Linecode=BT803_BT803_4_3_4,Length=0.031408000,Units=km
new line.1499567 bus1=BBT1617377.1.2.3.0,bus2=BBT1617405.1.2.3.0,Phases=3,Linecode=BT803_BT803_4_3_4,Length=0.031248000,Units=km
new line.1499574 bus1=BBT1617391.1.2.3.0,bus2=BBT1617363.1.2.3.0,Phases=3,Linecode=BT803_BT803_4_3_4,Length=0.037211000,Units=km
new line.1499581 bus1=BBT1617328.1.2.3.0,bus2=BBT1617391.1.2.3.0,Phases=3,Linecode=BT513_BT513_7_3_1,Length=0.000501000,Units=km
new line.1499588 bus1=BBT1617391.1.2.3.0,bus2=BBT1617419.1.2.3.0,Phases=3,Linecode=BT803_BT803_4_3_4,Length=0.033608000,Units=km
new line.1499595 bus1=BBT1617398.1.2.3.0,bus2=BBT1617489.1.2.3.0,Phases=3,Linecode=BT810_BT810_4_3_4,Length=0.026426000,Units=km
new line.1499602 bus1=BBT1617412.1.2.3.0,bus2=BBT1617384.1.2.3.0,Phases=3,Linecode=BT809_BT809_4_3_4,Length=0.034836000,Units=km
new line.1499609 bus1=BBT1617412.1.2.3.0,bus2=BBT1617398.1.2.3.0,Phases=3,Linecode=BT809_BT809_4_3_4,Length=0.023606000,Units=km
new line.1499616 bus1=BBT1617419.1.2.3.0,bus2=BBT1617440.1.2.3.0,Phases=3,Linecode=BT803_BT803_4_3_4,Length=0.037224000,Units=km
new line.1499623 bus1=BBT1617426.1.2.3.0,bus2=BBT2903662.1.2.3.0,Phases=3,Linecode=BT803_BT803_4_3_4,Length=0.040814000,Units=km
new line.1499630 bus1=BBT1617433.1.2.3.0,bus2=BBT1617412.1.2.3.0,Phases=3,Linecode=BT809_BT809_4_3_4,Length=0.029418000,Units=km
new line.1499637 bus1=BBT1617440.1.2.3.0,bus2=BBT1617461.1.2.3.0,Phases=3,Linecode=BT803_BT803_4_3_4,Length=0.034721000,Units=km
new line.1499644 bus1=BBT1617440.1.2.3.0,bus2=BBT1617433.1.2.3.0,Phases=3,Linecode=BT809_BT809_4_3_4,Length=0.029007000,Units=km
new line.1499651 bus1=BBT1617440.1.2.3.0,bus2=BBT1617454.1.2.3.0,Phases=3,Linecode=BT803_BT803_4_3_4,Length=0.029418000,Units=km
new line.1499658 bus1=BBT1617454.1.2.3.0,bus2=BBT1617468.1.2.3.0,Phases=3,Linecode=BT803_BT803_4_3_4,Length=0.035008000,Units=km
new line.1499665 bus1=BBT1617482.1.2.3.0,bus2=BBT1617335.1.2.3.0,Phases=3,Linecode=BT803_BT803_4_3_4,Length=0.014216000,Units=km
new line.1499672 bus1=BBT1947917.1.2.3.0,bus2=BBT1947924.1.2.3.0,Phases=3,Linecode=BT508_BT508_7_3_1,Length=0.000501000,Units=km
new line.1499679 bus1=BBT1617489.1.2.3.0,bus2=BBT1617496.1.2.3.0,Phases=3,Linecode=BT810_BT810_4_3_4,Length=0.030813000,Units=km
new line.1572087 bus1=BBT1702070.1.2.3.0,bus2=BBT1702063.1.2.3.0,Phases=3,Linecode=BT803_BT803_4_3_4,Length=0.027665000,Units=km
new line.1572094 bus1=BBT1702077.1.2.3.0,bus2=BBT1702070.1.2.3.0,Phases=3,Linecode=BT803_BT803_4_3_4,Length=0.034533000,Units=km
new line.1572101 bus1=BBT1702084.1.2.3.0,bus2=BBT1702077.1.2.3.0,Phases=3,Linecode=BT803_BT803_4_3_4,Length=0.035911000,Units=km
new line.1572108 bus1=BBT1702105.1.2.3.0,bus2=BBT1702098.1.2.3.0,Phases=3,Linecode=BT805_BT805_4_3_4,Length=0.029621000,Units=km
new line.1572115 bus1=BBT1702056.1.2.3.0,bus2=BBT1702105.1.2.3.0,Phases=3,Linecode=BT514_BT514_7_3_1,Length=0.000501000,Units=km
new line.1572122 bus1=BBT1702105.1.2.3.0,bus2=BBT1702112.1.2.3.0,Phases=3,Linecode=BT805_BT805_4_3_4,Length=0.031961000,Units=km
new line.1572129 bus1=BBT1702112.1.2.3.0,bus2=BBT172460562.1.2.3.0,Phases=3,Linecode=BT805_BT805_4_3_4,Length=0.016647000,Units=km
new line.1572136 bus1=BBT1702112.1.2.0,bus2=BBT2500882.1.2.0,Phases=2,Linecode=BT505_BT505_5_2_1,Length=0.004474000,Units=km
new line.1492189 bus1=BBT1609936.1.2.3.0,bus2=BBT1609957.1.2.3.0,Phases=3,Linecode=BT810_BT810_4_3_4,Length=0.032210000,Units=km