! manter este comentario para compatibilidade do C#
new circuit.alimMCLU14 bus1=BMT123156821.1.2.3,basekv=13.800000000,pu=1.040000000

