new load.3010551961M1 bus1=RML1004741050.3.0,Phases=1,kv=0.127,kW=0.7982,pf=0.92,Vminpu=0.92,Vmaxpu=1.5,model=8,zipv=[0.5,0,0.5,1,0,0,0],daily=RES2_10,status=variable
new load.3010735824M1 bus1=RML1002320716.1.2.3.0,Phases=3,kv=0.22,kW=1.00532,pf=0.92,Vminpu=0.92,Vmaxpu=1.5,model=8,zipv=[0.5,0,0.5,1,0,0,0],daily=RES2_14,status=variable
new load.3003920036M1 bus1=RML1002320548.1.2.3.0,Phases=3,kv=0.22,kW=1.30102,pf=0.92,Vminpu=0.92,Vmaxpu=1.5,model=8,zipv=[0.5,0,0.5,1,0,0,0],daily=RES3_12,status=variable
new load.3003831086M1 bus1=RML1002638453.1.3.0,Phases=2,kv=0.22,kW=0.72502,pf=0.92,Vminpu=0.92,Vmaxpu=1.5,model=8,zipv=[0.5,0,0.5,1,0,0,0],daily=RES2_10,status=variable
new load.3003723276M1 bus1=RML1002638306.1.0,Phases=1,kv=0.127,kW=0.88386,pf=0.92,Vminpu=0.92,Vmaxpu=1.5,model=8,zipv=[0.5,0,0.5,1,0,0,0],daily=RES2_6,status=variable
new load.3004222745M1 bus1=RML1002638558.1.2.3.0,Phases=3,kv=0.22,kW=0.3766,pf=0.92,Vminpu=0.92,Vmaxpu=1.5,model=8,zipv=[0.5,0,0.5,1,0,0,0],daily=RES2_23,status=variable
new load.3004291220M1 bus1=RML1002638418.1.2.3.0,Phases=3,kv=0.22,kW=0.82826,pf=0.92,Vminpu=0.92,Vmaxpu=1.5,model=8,zipv=[0.5,0,0.5,1,0,0,0],daily=RES2_25,status=variable
new load.3010495310M1 bus1=RML1004740245.2.0,Phases=1,kv=0.127,kW=0.96304,pf=0.92,Vminpu=0.92,Vmaxpu=1.5,model=8,zipv=[0.5,0,0.5,1,0,0,0],daily=RES2_7,status=variable
new load.3000404395M1 bus1=RML1002535126.1.2.3.0,Phases=3,kv=0.22,kW=0.15774,pf=0.92,Vminpu=0.92,Vmaxpu=1.5,model=8,zipv=[0.5,0,0.5,1,0,0,0],daily=COM1_11,status=variable
new load.3000404396M1 bus1=RML1002535126.1.2.3.0,Phases=3,kv=0.22,kW=0.65122,pf=0.92,Vminpu=0.92,Vmaxpu=1.5,model=8,zipv=[0.5,0,0.5,1,0,0,0],daily=COM1_11,status=variable
new load.3000404397M1 bus1=RML1002535091.2.3.0,Phases=2,kv=0.22,kW=1.14088,pf=0.92,Vminpu=0.92,Vmaxpu=1.5,model=8,zipv=[0.5,0,0.5,1,0,0,0],daily=RES2_6,status=variable
new load.3000404399M1 bus1=RML1002535091.2.3.0,Phases=2,kv=0.22,kW=0.06876,pf=0.92,Vminpu=0.92,Vmaxpu=1.5,model=8,zipv=[0.5,0,0.5,1,0,0,0],daily=COM1_11,status=variable
new load.3000404400M1 bus1=RML1005719704.2.3.0,Phases=2,kv=0.22,kW=1.85252,pf=0.92,Vminpu=0.92,Vmaxpu=1.5,model=8,zipv=[0.5,0,0.5,1,0,0,0],daily=COM1_11,status=variable
new load.3000404401M1 bus1=RML1002535105.1.2.3.0,Phases=3,kv=0.22,kW=7.35802,pf=0.92,Vminpu=0.92,Vmaxpu=1.5,model=8,zipv=[0.5,0,0.5,1,0,0,0],daily=COM2_10,status=variable
new load.3000404416M1 bus1=RML1002535070.1.2.3.0,Phases=3,kv=0.22,kW=3.88588,pf=0.92,Vminpu=0.92,Vmaxpu=1.5,model=8,zipv=[0.5,0,0.5,1,0,0,0],daily=RES6_10,status=variable
new load.3000404417M1 bus1=RML1002535063.1.2.3.0,Phases=3,kv=0.22,kW=2.80942,pf=0.92,Vminpu=0.92,Vmaxpu=1.5,model=8,zipv=[0.5,0,0.5,1,0,0,0],daily=COM3_8,status=variable
new load.3000404419M1 bus1=RML1002535084.1.2.3.0,Phases=3,kv=0.22,kW=8.92408,pf=0.92,Vminpu=0.92,Vmaxpu=1.5,model=8,zipv=[0.5,0,0.5,1,0,0,0],daily=COM4_10,status=variable
new load.3000404420M1 bus1=RML1002535098.1.3.0,Phases=2,kv=0.22,kW=0.65526,pf=0.92,Vminpu=0.92,Vmaxpu=1.5,model=8,zipv=[0.5,0,0.5,1,0,0,0],daily=COM1_11,status=variable
new load.3001664516M1 bus1=RML1002643185.2.3.0,Phases=2,kv=0.22,kW=0.34942,pf=0.92,Vminpu=0.92,Vmaxpu=1.5,model=8,zipv=[0.5,0,0.5,1,0,0,0],daily=RES1_10,status=variable
new load.3001664517M1 bus1=RML1002643164.1.0,Phases=1,kv=0.127,kW=0.3716,pf=0.92,Vminpu=0.92,Vmaxpu=1.5,model=8,zipv=[0.5,0,0.5,1,0,0,0],daily=RES1_10,status=variable
new load.3001664518M1 bus1=RML1002643101.2.0,Phases=1,kv=0.127,kW=0.3106,pf=0.92,Vminpu=0.92,Vmaxpu=1.5,model=8,zipv=[0.5,0,0.5,1,0,0,0],daily=RES1_10,status=variable
new load.3001664520M1 bus1=RML1002643115.1.0,Phases=1,kv=0.127,kW=1.26392,pf=0.92,Vminpu=0.92,Vmaxpu=1.5,model=8,zipv=[0.5,0,0.5,1,0,0,0],daily=RES3_11,status=variable
new load.3001664521M1 bus1=RML1002643059.2.0,Phases=1,kv=0.127,kW=1.12412,pf=0.92,Vminpu=0.92,Vmaxpu=1.5,model=8,zipv=[0.5,0,0.5,1,0,0,0],daily=RES2_10,status=variable
new load.3001664522M1 bus1=RML1002643094.1.0,Phases=1,kv=0.127,kW=0.03326,pf=0.92,Vminpu=0.92,Vmaxpu=1.5,model=8,zipv=[0.5,0,0.5,1,0,0,0],daily=RES2_10,status=variable
new load.3001664523M1 bus1=RML1002643087.1.0,Phases=1,kv=0.127,kW=0.00554,pf=0.92,Vminpu=0.92,Vmaxpu=1.5,model=8,zipv=[0.5,0,0.5,1,0,0,0],daily=RES1_10,status=variable
new load.3001664537M1 bus1=RML1002659656.1.0,Phases=1,kv=0.127,kW=0.70506,pf=0.92,Vminpu=0.92,Vmaxpu=1.5,model=8,zipv=[0.5,0,0.5,1,0,0,0],daily=RES2_10,status=variable
new load.3001664538M1 bus1=RML1002659824.1.2.3.0,Phases=3,kv=0.22,kW=0.46562,pf=0.92,Vminpu=0.92,Vmaxpu=1.5,model=8,zipv=[0.5,0,0.5,1,0,0,0],daily=RES2_10,status=variable
new load.3003742002M1 bus1=RML1002659677.1.0,Phases=1,kv=0.127,kW=0.69972,pf=0.92,Vminpu=0.92,Vmaxpu=1.5,model=8,zipv=[0.5,0,0.5,1,0,0,0],daily=RES2_7,status=variable
new load.3003782927M1 bus1=RML1002643178.1.0,Phases=1,kv=0.127,kW=0.95552,pf=0.92,Vminpu=0.92,Vmaxpu=1.5,model=8,zipv=[0.5,0,0.5,1,0,0,0],daily=RES2_7,status=variable
new load.3003830328M1 bus1=RML1002643080.3.0,Phases=1,kv=0.127,kW=0.93122,pf=0.92,Vminpu=0.92,Vmaxpu=1.5,model=8,zipv=[0.5,0,0.5,1,0,0,0],daily=RES2_10,status=variable
new load.3003864368M1 bus1=RML1002643213.2.0,Phases=1,kv=0.127,kW=0.87544,pf=0.92,Vminpu=0.92,Vmaxpu=1.5,model=8,zipv=[0.5,0,0.5,1,0,0,0],daily=RES1_8,status=variable
new load.3002388892M1 bus1=RML1002643171.1.0,Phases=1,kv=0.127,kW=1.00988,pf=0.92,Vminpu=0.92,Vmaxpu=1.5,model=8,zipv=[0.5,0,0.5,1,0,0,0],daily=RES3_4,status=variable
new load.3010667206M1 bus1=RML1002529757.2.0,Phases=1,kv=0.127,kW=0.33958,pf=0.92,Vminpu=0.92,Vmaxpu=1.5,model=8,zipv=[0.5,0,0.5,1,0,0,0],daily=RES1_11,status=variable
new load.3010667207M1 bus1=RML1002529757.2.0,Phases=1,kv=0.127,kW=1.54804,pf=0.92,Vminpu=0.92,Vmaxpu=1.5,model=8,zipv=[0.5,0,0.5,1,0,0,0],daily=RES1_11,status=variable
new load.3010667208M1 bus1=RML1002529757.2.0,Phases=1,kv=0.127,kW=1.13746,pf=0.92,Vminpu=0.92,Vmaxpu=1.5,model=8,zipv=[0.5,0,0.5,1,0,0,0],daily=RES2_11,status=variable
new load.3010667209M1 bus1=RML1002529757.2.0,Phases=1,kv=0.127,kW=0.16978,pf=0.92,Vminpu=0.92,Vmaxpu=1.5,model=8,zipv=[0.5,0,0.5,1,0,0,0],daily=RES1_11,status=variable
new load.3010667260M1 bus1=RML1002529757.2.0,Phases=1,kv=0.127,kW=2.09944,pf=0.92,Vminpu=0.92,Vmaxpu=1.5,model=8,zipv=[0.5,0,0.5,1,0,0,0],daily=COM2_15,status=variable
new load.3010369187M1 bus1=RML1002559381.1.2.3.0,Phases=3,kv=0.22,kW=0.01838,pf=0.92,Vminpu=0.92,Vmaxpu=1.5,model=8,zipv=[0.5,0,0.5,1,0,0,0],daily=RES1_5,status=variable
new load.3001664332M1 bus1=RML1002559388.2.3.0,Phases=2,kv=0.22,kW=1.57032,pf=0.92,Vminpu=0.92,Vmaxpu=1.5,model=8,zipv=[0.5,0,0.5,1,0,0,0],daily=RES4_12,status=variable
new load.3001664333M1 bus1=RML1002559486.2.0,Phases=1,kv=0.127,kW=1.54316,pf=0.92,Vminpu=0.92,Vmaxpu=1.5,model=8,zipv=[0.5,0,0.5,1,0,0,0],daily=RES2_10,status=variable
new load.3001664334M1 bus1=RML1002559605.1.2.3.0,Phases=3,kv=0.22,kW=0.31614,pf=0.92,Vminpu=0.92,Vmaxpu=1.5,model=8,zipv=[0.5,0,0.5,1,0,0,0],daily=RES1_10,status=variable
new load.3001664335M1 bus1=RML1002559605.1.2.3.0,Phases=3,kv=0.22,kW=0.09428,pf=0.92,Vminpu=0.92,Vmaxpu=1.5,model=8,zipv=[0.5,0,0.5,1,0,0,0],daily=RES1_10,status=variable
new load.3001664336M1 bus1=RML1002559577.1.2.0,Phases=2,kv=0.22,kW=1.45004,pf=0.92,Vminpu=0.92,Vmaxpu=1.5,model=8,zipv=[0.5,0,0.5,1,0,0,0],daily=RES2_10,status=variable
new load.3001664337M1 bus1=RML1002559563.2.0,Phases=1,kv=0.127,kW=0.8342,pf=0.92,Vminpu=0.92,Vmaxpu=1.5,model=8,zipv=[0.5,0,0.5,1,0,0,0],daily=RES3_11,status=variable
new load.3001664338M1 bus1=RML1002559633.3.0,Phases=1,kv=0.127,kW=1.08698,pf=0.92,Vminpu=0.92,Vmaxpu=1.5,model=8,zipv=[0.5,0,0.5,1,0,0,0],daily=RES3_11,status=variable
new load.3001664339M1 bus1=RML1002559640.2.0,Phases=1,kv=0.127,kW=0.99428,pf=0.92,Vminpu=0.92,Vmaxpu=1.5,model=8,zipv=[0.5,0,0.5,1,0,0,0],daily=RES3_11,status=variable
new load.3001664340M1 bus1=RML1002559654.1.0,Phases=1,kv=0.127,kW=0.42708,pf=0.92,Vminpu=0.92,Vmaxpu=1.5,model=8,zipv=[0.5,0,0.5,1,0,0,0],daily=RES1_10,status=variable
new load.3001664341M1 bus1=RML1002559654.1.0,Phases=1,kv=0.127,kW=1.0177,pf=0.92,Vminpu=0.92,Vmaxpu=1.5,model=8,zipv=[0.5,0,0.5,1,0,0,0],daily=RES2_10,status=variable
new load.3001664342M1 bus1=RML1002559647.1.0,Phases=1,kv=0.127,kW=1.02434,pf=0.92,Vminpu=0.92,Vmaxpu=1.5,model=8,zipv=[0.5,0,0.5,1,0,0,0],daily=RES2_10,status=variable
new load.3001664343M1 bus1=RML1003555152.1.2.3.0,Phases=3,kv=0.22,kW=0.43816,pf=0.92,Vminpu=0.92,Vmaxpu=1.5,model=8,zipv=[0.5,0,0.5,1,0,0,0],daily=RES1_10,status=variable
new load.3001664344M1 bus1=RML1002559584.1.0,Phases=1,kv=0.127,kW=1.19728,pf=0.92,Vminpu=0.92,Vmaxpu=1.5,model=8,zipv=[0.5,0,0.5,1,0,0,0],daily=RES2_10,status=variable
new load.3001664346M1 bus1=RML1011123880.1.2.0,Phases=2,kv=0.22,kW=0.42152,pf=0.92,Vminpu=0.92,Vmaxpu=1.5,model=8,zipv=[0.5,0,0.5,1,0,0,0],daily=RES1_10,status=variable
new load.3001664347M1 bus1=RML1002559542.1.0,Phases=1,kv=0.127,kW=0.8381,pf=0.92,Vminpu=0.92,Vmaxpu=1.5,model=8,zipv=[0.5,0,0.5,1,0,0,0],daily=RES2_10,status=variable
new load.3001664348M1 bus1=RML1002559556.3.0,Phases=1,kv=0.127,kW=0.69176,pf=0.92,Vminpu=0.92,Vmaxpu=1.5,model=8,zipv=[0.5,0,0.5,1,0,0,0],daily=RES2_10,status=variable
new load.3001664275M1 bus1=RML1002559255.1.0,Phases=1,kv=0.127,kW=0.439,pf=0.92,Vminpu=0.92,Vmaxpu=1.5,model=8,zipv=[0.5,0,0.5,1,0,0,0],daily=RES2_10,status=variable
new load.3001664276M1 bus1=RML1002559318.3.0,Phases=1,kv=0.127,kW=0.65186,pf=0.92,Vminpu=0.92,Vmaxpu=1.5,model=8,zipv=[0.5,0,0.5,1,0,0,0],daily=RES2_10,status=variable
new load.3001664277M1 bus1=RML1002559311.1.0,Phases=1,kv=0.127,kW=1.05748,pf=0.92,Vminpu=0.92,Vmaxpu=1.5,model=8,zipv=[0.5,0,0.5,1,0,0,0],daily=RES3_11,status=variable
new load.3001664278M1 bus1=RML1010898385.1.0,Phases=1,kv=0.127,kW=0.36052,pf=0.92,Vminpu=0.92,Vmaxpu=1.5,model=8,zipv=[0.5,0,0.5,1,0,0,0],daily=RES1_10,status=variable
new load.3001664279M1 bus1=RML1002559437.1.3.0,Phases=2,kv=0.22,kW=1.02434,pf=0.92,Vminpu=0.92,Vmaxpu=1.5,model=8,zipv=[0.5,0,0.5,1,0,0,0],daily=RES2_10,status=variable
new load.3001664280M1 bus1=RML1002559430.1.2.0,Phases=2,kv=0.22,kW=1.35028,pf=0.92,Vminpu=0.92,Vmaxpu=1.5,model=8,zipv=[0.5,0,0.5,1,0,0,0],daily=RES2_10,status=variable
new load.3001664281M1 bus1=RML1002559451.1.0,Phases=1,kv=0.127,kW=0.38824,pf=0.92,Vminpu=0.92,Vmaxpu=1.5,model=8,zipv=[0.5,0,0.5,1,0,0,0],daily=RES1_10,status=variable
new load.3001664282M1 bus1=RML1002559458.1.2.0,Phases=2,kv=0.22,kW=0.3539,pf=0.92,Vminpu=0.92,Vmaxpu=1.5,model=8,zipv=[0.5,0,0.5,1,0,0,0],daily=RES3_11,status=variable
new load.3001664283M1 bus1=RML1002559458.1.2.0,Phases=2,kv=0.22,kW=0.67846,pf=0.92,Vminpu=0.92,Vmaxpu=1.5,model=8,zipv=[0.5,0,0.5,1,0,0,0],daily=RES2_10,status=variable
new load.3001664284M1 bus1=RML1002559458.1.2.0,Phases=2,kv=0.22,kW=0.67182,pf=0.92,Vminpu=0.92,Vmaxpu=1.5,model=8,zipv=[0.5,0,0.5,1,0,0,0],daily=RES2_10,status=variable
new load.3001664285M1 bus1=RML1002559304.1.2.3.0,Phases=3,kv=0.22,kW=0.02218,pf=0.92,Vminpu=0.92,Vmaxpu=1.5,model=8,zipv=[0.5,0,0.5,1,0,0,0],daily=RES1_10,status=variable
new load.3001664286M1 bus1=RML1002559248.3.0,Phases=1,kv=0.127,kW=2.18544,pf=0.92,Vminpu=0.92,Vmaxpu=1.5,model=8,zipv=[0.5,0,0.5,1,0,0,0],daily=RES5_11,status=variable
new load.3001664301M1 bus1=RML1002559528.3.0,Phases=1,kv=0.127,kW=0.7982,pf=0.92,Vminpu=0.92,Vmaxpu=1.5,model=8,zipv=[0.5,0,0.5,1,0,0,0],daily=RES2_10,status=variable
new load.3001664302M1 bus1=RML1002559395.1.2.3.0,Phases=3,kv=0.22,kW=1.2106,pf=0.92,Vminpu=0.92,Vmaxpu=1.5,model=8,zipv=[0.5,0,0.5,1,0,0,0],daily=RES2_10,status=variable
new load.3001664303M1 bus1=RML1002559381.1.2.3.0,Phases=3,kv=0.22,kW=0.61186,pf=0.92,Vminpu=0.92,Vmaxpu=1.5,model=8,zipv=[0.5,0,0.5,1,0,0,0],daily=COM1_13,status=variable
new load.3001664877M1 bus1=RML1002559241.1.2.0,Phases=2,kv=0.22,kW=1.03764,pf=0.92,Vminpu=0.92,Vmaxpu=1.5,model=8,zipv=[0.5,0,0.5,1,0,0,0],daily=RES2_10,status=variable
new load.3001664878M1 bus1=RML1002559276.1.2.3.0,Phases=3,kv=0.22,kW=1.46982,pf=0.92,Vminpu=0.92,Vmaxpu=1.5,model=8,zipv=[0.5,0,0.5,1,0,0,0],daily=RES4_12,status=variable
new load.3001664879M1 bus1=RML1002559269.1.0,Phases=1,kv=0.127,kW=0.13312,pf=0.92,Vminpu=0.92,Vmaxpu=1.5,model=8,zipv=[0.5,0,0.5,1,0,0,0],daily=RES1_10,status=variable
new load.3001664908M1 bus1=RML1002559220.1.0,Phases=1,kv=0.127,kW=1.30372,pf=0.92,Vminpu=0.92,Vmaxpu=1.5,model=8,zipv=[0.5,0,0.5,1,0,0,0],daily=RES2_10,status=variable
new load.3001664909M1 bus1=RML1002559234.1.2.0,Phases=2,kv=0.22,kW=0.99774,pf=0.92,Vminpu=0.92,Vmaxpu=1.5,model=8,zipv=[0.5,0,0.5,1,0,0,0],daily=RES2_10,status=variable
new load.3003450320M1 bus1=RML1002559598.2.0,Phases=1,kv=0.127,kW=0.5676,pf=0.92,Vminpu=0.92,Vmaxpu=1.5,model=8,zipv=[0.5,0,0.5,1,0,0,0],daily=RES2_2,status=variable
new load.3003929318M1 bus1=RML1002559661.2.3.0,Phases=2,kv=0.22,kW=0.11644,pf=0.92,Vminpu=0.92,Vmaxpu=1.5,model=8,zipv=[0.5,0,0.5,1,0,0,0],daily=RES2_12,status=variable
new load.3004164491M1 bus1=RML1002559570.2.3.0,Phases=2,kv=0.22,kW=0.31936,pf=0.92,Vminpu=0.92,Vmaxpu=1.5,model=8,zipv=[0.5,0,0.5,1,0,0,0],daily=RES1_17,status=variable
new load.3004138463M1 bus1=RML1002317307.1.2.3.0,Phases=3,kv=0.22,kW=0.95424,pf=0.92,Vminpu=0.92,Vmaxpu=1.5,model=8,zipv=[0.5,0,0.5,1,0,0,0],daily=RES2_19,status=variable
new load.3004105232M1 bus1=RML1002317482.1.3.0,Phases=2,kv=0.22,kW=0.59218,pf=0.92,Vminpu=0.92,Vmaxpu=1.5,model=8,zipv=[0.5,0,0.5,1,0,0,0],daily=RES2_18,status=variable
new load.3000943921M1 bus1=RML1002317678.1.2.3.0,Phases=3,kv=0.22,kW=0.69436,pf=0.92,Vminpu=0.92,Vmaxpu=1.5,model=8,zipv=[0.5,0,0.5,1,0,0,0],daily=RES2_23,status=variable
new load.3000943922M1 bus1=RML1002317678.1.2.3.0,Phases=3,kv=0.22,kW=0.28102,pf=0.92,Vminpu=0.92,Vmaxpu=1.5,model=8,zipv=[0.5,0,0.5,1,0,0,0],daily=RES1_19,status=variable
new load.3000943923M1 bus1=RML1002317790.1.2.3.0,Phases=3,kv=0.22,kW=0.29,pf=0.92,Vminpu=0.92,Vmaxpu=1.5,model=8,zipv=[0.5,0,0.5,1,0,0,0],daily=RES1_19,status=variable
new load.3000943924M1 bus1=RML1002317783.3.0,Phases=1,kv=0.127,kW=0.42368,pf=0.92,Vminpu=0.92,Vmaxpu=1.5,model=8,zipv=[0.5,0,0.5,1,0,0,0],daily=RES2_23,status=variable
new load.3000943925M1 bus1=RML1002317671.3.0,Phases=1,kv=0.127,kW=1.35838,pf=0.92,Vminpu=0.92,Vmaxpu=1.5,model=8,zipv=[0.5,0,0.5,1,0,0,0],daily=RES4_19,status=variable
new load.3000943926M1 bus1=RML1002317664.1.2.0,Phases=2,kv=0.22,kW=0.61198,pf=0.92,Vminpu=0.92,Vmaxpu=1.5,model=8,zipv=[0.5,0,0.5,1,0,0,0],daily=RES2_23,status=variable
new load.3000943927M1 bus1=RML1002317643.1.0,Phases=1,kv=0.127,kW=1.30106,pf=0.92,Vminpu=0.92,Vmaxpu=1.5,model=8,zipv=[0.5,0,0.5,1,0,0,0],daily=RES5_17,status=variable
new load.3000943928M1 bus1=RML1002317720.2.0,Phases=1,kv=0.127,kW=0.7885,pf=0.92,Vminpu=0.92,Vmaxpu=1.5,model=8,zipv=[0.5,0,0.5,1,0,0,0],daily=RES2_23,status=variable
new load.3000943929M1 bus1=RML1002317748.2.3.0,Phases=2,kv=0.22,kW=0.45898,pf=0.92,Vminpu=0.92,Vmaxpu=1.5,model=8,zipv=[0.5,0,0.5,1,0,0,0],daily=RES2_23,status=variable
new load.3000943930M1 bus1=RML1002317734.3.0,Phases=1,kv=0.127,kW=0.59236,pf=0.92,Vminpu=0.92,Vmaxpu=1.5,model=8,zipv=[0.5,0,0.5,1,0,0,0],daily=RES2_23,status=variable
new load.3000943931M1 bus1=RML1002317727.1.0,Phases=1,kv=0.127,kW=0.39622,pf=0.92,Vminpu=0.92,Vmaxpu=1.5,model=8,zipv=[0.5,0,0.5,1,0,0,0],daily=RES2_23,status=variable
new load.3000943935M1 bus1=RML1002317776.3.0,Phases=1,kv=0.127,kW=0.43544,pf=0.92,Vminpu=0.92,Vmaxpu=1.5,model=8,zipv=[0.5,0,0.5,1,0,0,0],daily=RES2_23,status=variable
new load.3010667860M1 bus1=RML1002317482.1.3.0,Phases=2,kv=0.22,kW=1.13746,pf=0.92,Vminpu=0.92,Vmaxpu=1.5,model=8,zipv=[0.5,0,0.5,1,0,0,0],daily=RES2_11,status=variable
new load.3010426597M1 bus1=RML1002318035.1.3.0,Phases=2,kv=0.22,kW=0.00972,pf=0.92,Vminpu=0.92,Vmaxpu=1.5,model=8,zipv=[0.5,0,0.5,1,0,0,0],daily=COM1_12,status=variable
new load.3001664774M1 bus1=RML1003771277.1.2.0,Phases=2,kv=0.22,kW=0.2668,pf=0.92,Vminpu=0.92,Vmaxpu=1.5,model=8,zipv=[0.5,0,0.5,1,0,0,0],daily=COM1_13,status=variable
new load.3001664776M1 bus1=RML1002318028.1.0,Phases=1,kv=0.127,kW=0.73832,pf=0.92,Vminpu=0.92,Vmaxpu=1.5,model=8,zipv=[0.5,0,0.5,1,0,0,0],daily=RES2_10,status=variable
new load.3001664778M1 bus1=RML1002318014.1.0,Phases=1,kv=0.127,kW=0.85806,pf=0.92,Vminpu=0.92,Vmaxpu=1.5,model=8,zipv=[0.5,0,0.5,1,0,0,0],daily=RES2_10,status=variable
new load.3001664779M1 bus1=RML1002318021.1.3.0,Phases=2,kv=0.22,kW=0.6319,pf=0.92,Vminpu=0.92,Vmaxpu=1.5,model=8,zipv=[0.5,0,0.5,1,0,0,0],daily=RES2_10,status=variable
new load.3001664781M1 bus1=RML1002317993.2.0,Phases=1,kv=0.127,kW=0.43236,pf=0.92,Vminpu=0.92,Vmaxpu=1.5,model=8,zipv=[0.5,0,0.5,1,0,0,0],daily=RES2_10,status=variable
new load.3001664782M1 bus1=RML1002317993.2.0,Phases=1,kv=0.127,kW=0.61194,pf=0.92,Vminpu=0.92,Vmaxpu=1.5,model=8,zipv=[0.5,0,0.5,1,0,0,0],daily=RES2_10,status=variable
new load.3001664783M1 bus1=RML1002317986.2.0,Phases=1,kv=0.127,kW=0.3217,pf=0.92,Vminpu=0.92,Vmaxpu=1.5,model=8,zipv=[0.5,0,0.5,1,0,0,0],daily=RES1_10,status=variable
new load.3001664784M1 bus1=RML1002317958.3.0,Phases=1,kv=0.127,kW=1.01104,pf=0.92,Vminpu=0.92,Vmaxpu=1.5,model=8,zipv=[0.5,0,0.5,1,0,0,0],daily=RES2_10,status=variable
new load.3001664786M1 bus1=RML1002317972.2.0,Phases=1,kv=0.127,kW=0.44372,pf=0.92,Vminpu=0.92,Vmaxpu=1.5,model=8,zipv=[0.5,0,0.5,1,0,0,0],daily=RES1_10,status=variable
new load.3001664788M1 bus1=RML1002317944.1.2.3.0,Phases=3,kv=0.22,kW=0.71838,pf=0.92,Vminpu=0.92,Vmaxpu=1.5,model=8,zipv=[0.5,0,0.5,1,0,0,0],daily=RES2_10,status=variable
new load.3001664789M1 bus1=RML1002317937.1.2.3.0,Phases=3,kv=0.22,kW=1.17734,pf=0.92,Vminpu=0.92,Vmaxpu=1.5,model=8,zipv=[0.5,0,0.5,1,0,0,0],daily=RES2_10,status=variable
new load.3001664791M1 bus1=RML1002317923.1.0,Phases=1,kv=0.127,kW=0.26068,pf=0.92,Vminpu=0.92,Vmaxpu=1.5,model=8,zipv=[0.5,0,0.5,1,0,0,0],daily=RES1_10,status=variable
new load.3001664792M1 bus1=RML1002317881.1.2.0,Phases=2,kv=0.22,kW=1.49226,pf=0.92,Vminpu=0.92,Vmaxpu=1.5,model=8,zipv=[0.5,0,0.5,1,0,0,0],daily=RES5_11,status=variable
new load.3001664769M1 bus1=RML1002317874.1.0,Phases=1,kv=0.127,kW=0.71172,pf=0.92,Vminpu=0.92,Vmaxpu=1.5,model=8,zipv=[0.5,0,0.5,1,0,0,0],daily=RES2_10,status=variable
new load.3004113655M1 bus1=RML1002317930.2.0,Phases=1,kv=0.127,kW=1.30526,pf=0.92,Vminpu=0.92,Vmaxpu=1.5,model=8,zipv=[0.5,0,0.5,1,0,0,0],daily=RES3_15,status=variable
new load.3004113656M1 bus1=RML1002317888.3.0,Phases=1,kv=0.127,kW=0.39008,pf=0.92,Vminpu=0.92,Vmaxpu=1.5,model=8,zipv=[0.5,0,0.5,1,0,0,0],daily=RES2_18,status=variable
new load.3004081319M1 bus1=RML1002318063.2.0,Phases=1,kv=0.127,kW=0.3355,pf=0.92,Vminpu=0.92,Vmaxpu=1.5,model=8,zipv=[0.5,0,0.5,1,0,0,0],daily=RES2_17,status=variable
new load.3004072127M1 bus1=RML1002317909.3.0,Phases=1,kv=0.127,kW=0.70514,pf=0.92,Vminpu=0.92,Vmaxpu=1.5,model=8,zipv=[0.5,0,0.5,1,0,0,0],daily=RES1_14,status=variable
new load.3004299032M1 bus1=RML1002319757.1.2.0,Phases=2,kv=0.22,kW=0.69324,pf=0.92,Vminpu=0.92,Vmaxpu=1.5,model=8,zipv=[0.5,0,0.5,1,0,0,0],daily=RES1_21,status=variable
new load.3003929322M1 bus1=RML1002319442.1.0,Phases=1,kv=0.127,kW=2.58356,pf=0.92,Vminpu=0.92,Vmaxpu=1.5,model=8,zipv=[0.5,0,0.5,1,0,0,0],daily=RES4_13,status=variable
new load.3003929323M1 bus1=RML1002319456.1.0,Phases=1,kv=0.127,kW=2.02176,pf=0.92,Vminpu=0.92,Vmaxpu=1.5,model=8,zipv=[0.5,0,0.5,1,0,0,0],daily=RES2_12,status=variable
new load.3004029878M1 bus1=RML1002319876.1.0,Phases=1,kv=0.127,kW=0.46992,pf=0.92,Vminpu=0.92,Vmaxpu=1.5,model=8,zipv=[0.5,0,0.5,1,0,0,0],daily=RES2_16,status=variable
new load.3003889402M1 bus1=RML1002319421.1.0,Phases=1,kv=0.127,kW=1.04906,pf=0.92,Vminpu=0.92,Vmaxpu=1.5,model=8,zipv=[0.5,0,0.5,1,0,0,0],daily=RES3_11,status=variable
new load.3003765919M1 bus1=RML1002319624.1.0,Phases=1,kv=0.127,kW=0.96758,pf=0.92,Vminpu=0.92,Vmaxpu=1.5,model=8,zipv=[0.5,0,0.5,1,0,0,0],daily=RES1_6,status=variable
new load.3003757028M1 bus1=RML1002319708.2.0,Phases=1,kv=0.127,kW=0.77494,pf=0.92,Vminpu=0.92,Vmaxpu=1.5,model=8,zipv=[0.5,0,0.5,1,0,0,0],daily=RES2_7,status=variable
new load.3003757029M1 bus1=RML1002319694.1.2.0,Phases=2,kv=0.22,kW=1.00066,pf=0.92,Vminpu=0.92,Vmaxpu=1.5,model=8,zipv=[0.5,0,0.5,1,0,0,0],daily=RES2_7,status=variable
new load.3003757687M1 bus1=RML1002319435.1.0,Phases=1,kv=0.127,kW=0.85018,pf=0.92,Vminpu=0.92,Vmaxpu=1.5,model=8,zipv=[0.5,0,0.5,1,0,0,0],daily=RES2_7,status=variable
new load.3003757688M1 bus1=RML1002319428.1.0,Phases=1,kv=0.127,kW=3.25892,pf=0.92,Vminpu=0.92,Vmaxpu=1.5,model=8,zipv=[0.5,0,0.5,1,0,0,0],daily=RES3_8,status=variable
new load.3002388917M1 bus1=RML1002319757.1.2.0,Phases=2,kv=0.22,kW=0.3585,pf=0.92,Vminpu=0.92,Vmaxpu=1.5,model=8,zipv=[0.5,0,0.5,1,0,0,0],daily=RES4_5,status=variable
new load.3010552432M1 bus1=RML1004741064.3.0,Phases=1,kv=0.127,kW=2.15406,pf=0.92,Vminpu=0.92,Vmaxpu=1.5,model=8,zipv=[0.5,0,0.5,1,0,0,0],daily=RES4_11,status=variable
new load.3010565119M1 bus1=RML1004741421.2.3.0,Phases=2,kv=0.22,kW=0.39244,pf=0.92,Vminpu=0.92,Vmaxpu=1.5,model=8,zipv=[0.5,0,0.5,1,0,0,0],daily=RES2_10,status=variable
new load.3010778169M1 bus1=RML1004813794.2.3.0,Phases=2,kv=0.22,kW=1.5202,pf=0.92,Vminpu=0.92,Vmaxpu=1.5,model=8,zipv=[0.5,0,0.5,1,0,0,0],daily=RES2_15,status=variable
new load.3003765917M1 bus1=RML1002323775.1.2.0,Phases=2,kv=0.22,kW=0.73158,pf=0.92,Vminpu=0.92,Vmaxpu=1.5,model=8,zipv=[0.5,0,0.5,1,0,0,0],daily=RES1_6,status=variable
new load.3003905529M1 bus1=RML1002320387.2.3.0,Phases=2,kv=0.22,kW=0.85526,pf=0.92,Vminpu=0.92,Vmaxpu=1.5,model=8,zipv=[0.5,0,0.5,1,0,0,0],daily=RES3_11,status=variable
new load.3003831085M1 bus1=RML1002320681.2.3.0,Phases=2,kv=0.22,kW=0.69842,pf=0.92,Vminpu=0.92,Vmaxpu=1.5,model=8,zipv=[0.5,0,0.5,1,0,0,0],daily=RES2_10,status=variable
new load.3001665193M1 bus1=RML1002323530.1.3.0,Phases=2,kv=0.22,kW=0.68512,pf=0.92,Vminpu=0.92,Vmaxpu=1.5,model=8,zipv=[0.5,0,0.5,1,0,0,0],daily=RES2_10,status=variable
new load.3001665194M1 bus1=RML1002323502.1.2.0,Phases=2,kv=0.22,kW=2.58978,pf=0.92,Vminpu=0.92,Vmaxpu=1.5,model=8,zipv=[0.5,0,0.5,1,0,0,0],daily=RES5_11,status=variable
new load.3001665195M1 bus1=RML1002323593.3.0,Phases=1,kv=0.127,kW=1.11082,pf=0.92,Vminpu=0.92,Vmaxpu=1.5,model=8,zipv=[0.5,0,0.5,1,0,0,0],daily=RES2_10,status=variable
new load.3004163378M1 bus1=RML1002323565.1.2.3.0,Phases=3,kv=0.22,kW=2.73758,pf=0.92,Vminpu=0.92,Vmaxpu=1.5,model=8,zipv=[0.5,0,0.5,1,0,0,0],daily=COM1_21,status=variable
new load.3010736366M1 bus1=RML1004795195.3.0,Phases=1,kv=0.127,kW=1.38114,pf=0.92,Vminpu=0.92,Vmaxpu=1.5,model=8,zipv=[0.5,0,0.5,1,0,0,0],daily=RES2_14,status=variable
new load.3010667011M1 bus1=RML1002323523.1.2.3.0,Phases=3,kv=0.22,kW=0.73906,pf=0.92,Vminpu=0.92,Vmaxpu=1.5,model=8,zipv=[0.5,0,0.5,1,0,0,0],daily=RES1_11,status=variable
new load.3010667013M1 bus1=RML1002323523.1.2.3.0,Phases=3,kv=0.22,kW=1.75494,pf=0.92,Vminpu=0.92,Vmaxpu=1.5,model=8,zipv=[0.5,0,0.5,1,0,0,0],daily=RES2_11,status=variable
new load.3001664807M1 bus1=RML1002323600.3.0,Phases=1,kv=0.127,kW=0.10672,pf=0.92,Vminpu=0.92,Vmaxpu=1.5,model=8,zipv=[0.5,0,0.5,1,0,0,0],daily=COM1_13,status=variable
new load.3001665111M1 bus1=RML1002323488.1.2.3.0,Phases=3,kv=0.22,kW=0.74992,pf=0.92,Vminpu=0.92,Vmaxpu=1.5,model=8,zipv=[0.5,0,0.5,1,0,0,0],daily=RES3_11,status=variable
new load.3001665112M1 bus1=RML1002323474.2.0,Phases=1,kv=0.127,kW=0.71838,pf=0.92,Vminpu=0.92,Vmaxpu=1.5,model=8,zipv=[0.5,0,0.5,1,0,0,0],daily=RES2_10,status=variable
new load.3001665113M1 bus1=RML1002323495.3.0,Phases=1,kv=0.127,kW=0.88466,pf=0.92,Vminpu=0.92,Vmaxpu=1.5,model=8,zipv=[0.5,0,0.5,1,0,0,0],daily=RES2_10,status=variable
new load.3001665114M1 bus1=RML1002323467.1.2.3.0,Phases=3,kv=0.22,kW=0.89132,pf=0.92,Vminpu=0.92,Vmaxpu=1.5,model=8,zipv=[0.5,0,0.5,1,0,0,0],daily=RES2_10,status=variable
new load.3001665115M1 bus1=RML1003161255.1.2.3.0,Phases=3,kv=0.22,kW=0.32724,pf=0.92,Vminpu=0.92,Vmaxpu=1.5,model=8,zipv=[0.5,0,0.5,1,0,0,0],daily=RES1_10,status=variable
new load.3001665116M1 bus1=RML1002323460.3.0,Phases=1,kv=0.127,kW=0.40488,pf=0.92,Vminpu=0.92,Vmaxpu=1.5,model=8,zipv=[0.5,0,0.5,1,0,0,0],daily=RES1_10,status=variable
new load.3001665117M1 bus1=RML1002323439.1.3.0,Phases=2,kv=0.22,kW=0.89612,pf=0.92,Vminpu=0.92,Vmaxpu=1.5,model=8,zipv=[0.5,0,0.5,1,0,0,0],daily=RES4_12,status=variable
new load.3001665118M1 bus1=RML1002323432.3.0,Phases=1,kv=0.127,kW=0.43262,pf=0.92,Vminpu=0.92,Vmaxpu=1.5,model=8,zipv=[0.5,0,0.5,1,0,0,0],daily=RES1_10,status=variable
new load.3001665119M1 bus1=RML1002323411.1.2.3.0,Phases=3,kv=0.22,kW=1.17734,pf=0.92,Vminpu=0.92,Vmaxpu=1.5,model=8,zipv=[0.5,0,0.5,1,0,0,0],daily=RES2_10,status=variable
new load.3001665170M1 bus1=RML1002323418.3.0,Phases=1,kv=0.127,kW=0.95216,pf=0.92,Vminpu=0.92,Vmaxpu=1.5,model=8,zipv=[0.5,0,0.5,1,0,0,0],daily=RES3_11,status=variable
new load.3001665172M1 bus1=RML1002323558.3.0,Phases=1,kv=0.127,kW=0.09984,pf=0.92,Vminpu=0.92,Vmaxpu=1.5,model=8,zipv=[0.5,0,0.5,1,0,0,0],daily=RES1_10,status=variable
new load.3001665177M1 bus1=RML1002323579.3.0,Phases=1,kv=0.127,kW=0.6053,pf=0.92,Vminpu=0.92,Vmaxpu=1.5,model=8,zipv=[0.5,0,0.5,1,0,0,0],daily=RES2_10,status=variable
new load.3001665178M1 bus1=RML1002323572.1.0,Phases=1,kv=0.127,kW=0.771,pf=0.92,Vminpu=0.92,Vmaxpu=1.5,model=8,zipv=[0.5,0,0.5,1,0,0,0],daily=RES3_11,status=variable
new load.3001665180M1 bus1=RML1002323509.2.0,Phases=1,kv=0.127,kW=1.59254,pf=0.92,Vminpu=0.92,Vmaxpu=1.5,model=8,zipv=[0.5,0,0.5,1,0,0,0],daily=RES3_11,status=variable
new load.3001665181M1 bus1=RML1002323509.2.0,Phases=1,kv=0.127,kW=0.8647,pf=0.92,Vminpu=0.92,Vmaxpu=1.5,model=8,zipv=[0.5,0,0.5,1,0,0,0],daily=RES2_10,status=variable
new load.3001665182M1 bus1=RML1002323523.1.2.3.0,Phases=3,kv=0.22,kW=0.6585,pf=0.92,Vminpu=0.92,Vmaxpu=1.5,model=8,zipv=[0.5,0,0.5,1,0,0,0],daily=RES2_10,status=variable
new load.3001665183M1 bus1=RML1002323537.3.0,Phases=1,kv=0.127,kW=0.6319,pf=0.92,Vminpu=0.92,Vmaxpu=1.5,model=8,zipv=[0.5,0,0.5,1,0,0,0],daily=RES2_10,status=variable
new load.3001665184M1 bus1=RML1002323516.1.0,Phases=1,kv=0.127,kW=0.92458,pf=0.92,Vminpu=0.92,Vmaxpu=1.5,model=8,zipv=[0.5,0,0.5,1,0,0,0],daily=RES2_10,status=variable
new load.3001665185M1 bus1=RML1002323544.1.2.3.0,Phases=3,kv=0.22,kW=0.87136,pf=0.92,Vminpu=0.92,Vmaxpu=1.5,model=8,zipv=[0.5,0,0.5,1,0,0,0],daily=RES2_10,status=variable
new load.3003765916M1 bus1=RML1002323894.2.0,Phases=1,kv=0.127,kW=2.46352,pf=0.92,Vminpu=0.92,Vmaxpu=1.5,model=8,zipv=[0.5,0,0.5,1,0,0,0],daily=RES3_8,status=variable
new load.3003757020M1 bus1=RML1002324342.2.0,Phases=1,kv=0.127,kW=0.96304,pf=0.92,Vminpu=0.92,Vmaxpu=1.5,model=8,zipv=[0.5,0,0.5,1,0,0,0],daily=RES2_7,status=variable
new load.3003757021M1 bus1=RML1002324356.2.0,Phases=1,kv=0.127,kW=0.84266,pf=0.92,Vminpu=0.92,Vmaxpu=1.5,model=8,zipv=[0.5,0,0.5,1,0,0,0],daily=RES2_7,status=variable
new load.3003757022M1 bus1=RML1002324286.1.0,Phases=1,kv=0.127,kW=4.67664,pf=0.92,Vminpu=0.92,Vmaxpu=1.5,model=8,zipv=[0.5,0,0.5,1,0,0,0],daily=RES4_10,status=variable
new load.3003757023M1 bus1=RML1002324293.1.0,Phases=1,kv=0.127,kW=0.05056,pf=0.92,Vminpu=0.92,Vmaxpu=1.5,model=8,zipv=[0.5,0,0.5,1,0,0,0],daily=RES4_10,status=variable
new load.3003757024M1 bus1=RML1002324300.3.0,Phases=1,kv=0.127,kW=0.96304,pf=0.92,Vminpu=0.92,Vmaxpu=1.5,model=8,zipv=[0.5,0,0.5,1,0,0,0],daily=RES2_7,status=variable
new load.3003757025M1 bus1=RML1002324307.1.0,Phases=1,kv=0.127,kW=2.3862,pf=0.92,Vminpu=0.92,Vmaxpu=1.5,model=8,zipv=[0.5,0,0.5,1,0,0,0],daily=RES3_8,status=variable
new load.3003757026M1 bus1=RML1002324335.2.0,Phases=1,kv=0.127,kW=1.23898,pf=0.92,Vminpu=0.92,Vmaxpu=1.5,model=8,zipv=[0.5,0,0.5,1,0,0,0],daily=RES1_6,status=variable
new load.3003757027M1 bus1=RML1002324349.2.0,Phases=1,kv=0.127,kW=3.07112,pf=0.92,Vminpu=0.92,Vmaxpu=1.5,model=8,zipv=[0.5,0,0.5,1,0,0,0],daily=RES3_8,status=variable
new load.3004089931M1 bus1=RML1002324209.3.0,Phases=1,kv=0.127,kW=0.82502,pf=0.92,Vminpu=0.92,Vmaxpu=1.5,model=8,zipv=[0.5,0,0.5,1,0,0,0],daily=RES3_15,status=variable
new load.3004291219M1 bus1=RML1002324251.1.2.3.0,Phases=3,kv=0.22,kW=0.63712,pf=0.92,Vminpu=0.92,Vmaxpu=1.5,model=8,zipv=[0.5,0,0.5,1,0,0,0],daily=RES2_25,status=variable
new load.3010514326M1 bus1=RML1004595030.1.2.3.0,Phases=3,kv=0.22,kW=0.06534,pf=0.92,Vminpu=0.92,Vmaxpu=1.5,model=8,zipv=[0.5,0,0.5,1,0,0,0],daily=RES1_8,status=variable
new load.3010308505M1 bus1=RML1004595030.1.2.3.0,Phases=3,kv=0.22,kW=5.35736,pf=0.92,Vminpu=0.92,Vmaxpu=1.5,model=8,zipv=[0.5,0,0.5,1,0,0,0],daily=COM3_7,status=variable
new load.3010585530M1 bus1=RML1004742863.1.0,Phases=1,kv=0.127,kW=1.0177,pf=0.92,Vminpu=0.92,Vmaxpu=1.5,model=8,zipv=[0.5,0,0.5,1,0,0,0],daily=RES2_10,status=variable
new load.3001664793M1 bus1=RML1002327282.2.0,Phases=1,kv=0.127,kW=0.83144,pf=0.92,Vminpu=0.92,Vmaxpu=1.5,model=8,zipv=[0.5,0,0.5,1,0,0,0],daily=RES2_10,status=variable
new load.3001664794M1 bus1=RML1002327289.2.0,Phases=1,kv=0.127,kW=0.62524,pf=0.92,Vminpu=0.92,Vmaxpu=1.5,model=8,zipv=[0.5,0,0.5,1,0,0,0],daily=RES2_10,status=variable
new load.3001664795M1 bus1=RML1002327261.3.0,Phases=1,kv=0.127,kW=0.03326,pf=0.92,Vminpu=0.92,Vmaxpu=1.5,model=8,zipv=[0.5,0,0.5,1,0,0,0],daily=RES2_10,status=variable
new load.3001664796M1 bus1=RML1002327275.1.0,Phases=1,kv=0.127,kW=0.1664,pf=0.92,Vminpu=0.92,Vmaxpu=1.5,model=8,zipv=[0.5,0,0.5,1,0,0,0],daily=RES1_10,status=variable
new load.3001664802M1 bus1=RML1002327212.1.0,Phases=1,kv=0.127,kW=0.43816,pf=0.92,Vminpu=0.92,Vmaxpu=1.5,model=8,zipv=[0.5,0,0.5,1,0,0,0],daily=RES1_10,status=variable
new load.3001664803M1 bus1=RML1002327205.1.2.3.0,Phases=3,kv=0.22,kW=0.6319,pf=0.92,Vminpu=0.92,Vmaxpu=1.5,model=8,zipv=[0.5,0,0.5,1,0,0,0],daily=RES2_10,status=variable
new load.3001664805M1 bus1=RML1002327198.2.0,Phases=1,kv=0.127,kW=1.16402,pf=0.92,Vminpu=0.92,Vmaxpu=1.5,model=8,zipv=[0.5,0,0.5,1,0,0,0],daily=RES2_10,status=variable
new load.3001664806M1 bus1=RML1002327170.1.2.3.0,Phases=3,kv=0.22,kW=1.19652,pf=0.92,Vminpu=0.92,Vmaxpu=1.5,model=8,zipv=[0.5,0,0.5,1,0,0,0],daily=RES3_11,status=variable
new load.3004323182M1 bus1=RML1002327296.2.0,Phases=1,kv=0.127,kW=0.30314,pf=0.92,Vminpu=0.92,Vmaxpu=1.5,model=8,zipv=[0.5,0,0.5,1,0,0,0],daily=RES2_27,status=variable