new line.1272620IP bus1=BBT3220426.1.2.0,bus2=BBT5001272620.1.2.0,Phases=2,Linecode=IP,Length=0.002840000,Units=km
new line.1318638IP bus1=BBT3616290.1.2.0,bus2=BBT5001318638.1.2.0,Phases=2,Linecode=IP,Length=0.002840000,Units=km
new line.1318645IP bus1=BBT3616283.1.2.0,bus2=BBT5001318645.1.2.0,Phases=2,Linecode=IP,Length=0.002840000,Units=km
new line.1318652IP bus1=BBT3616304.1.2.0,bus2=BBT5001318652.1.2.0,Phases=2,Linecode=IP,Length=0.002840000,Units=km
new line.1318659IP bus1=BBT3616297.1.2.0,bus2=BBT5001318659.1.2.0,Phases=2,Linecode=IP,Length=0.002840000,Units=km
new line.1318666IP bus1=BBT3616276.1.2.0,bus2=BBT5001318666.1.2.0,Phases=2,Linecode=IP,Length=0.002840000,Units=km
new line.1318680IP bus1=BBT3616402.1.2.0,bus2=BBT5001318680.1.2.0,Phases=2,Linecode=IP,Length=0.002840000,Units=km
new line.1318687IP bus1=BBT3616395.1.2.0,bus2=BBT5001318687.1.2.0,Phases=2,Linecode=IP,Length=0.002840000,Units=km
new line.1318694IP bus1=BBT3616388.1.2.0,bus2=BBT5001318694.1.2.0,Phases=2,Linecode=IP,Length=0.002840000,Units=km
new line.1318701IP bus1=BBT3616360.1.2.0,bus2=BBT5001318701.1.2.0,Phases=2,Linecode=IP,Length=0.002840000,Units=km
new line.1318708IP bus1=BBT3616360.1.2.0,bus2=BBT5001318708.1.2.0,Phases=2,Linecode=IP,Length=0.002840000,Units=km
new line.1318715IP bus1=BBT3616353.1.2.0,bus2=BBT5001318715.1.2.0,Phases=2,Linecode=IP,Length=0.002840000,Units=km
new line.1318722IP bus1=BBT3616325.1.2.0,bus2=BBT5001318722.1.2.0,Phases=2,Linecode=IP,Length=0.002840000,Units=km
new line.1318729IP bus1=BBT3616332.1.2.0,bus2=BBT5001318729.1.2.0,Phases=2,Linecode=IP,Length=0.002840000,Units=km
new line.1318736IP bus1=BBT3616339.1.2.0,bus2=BBT5001318736.1.2.0,Phases=2,Linecode=IP,Length=0.002840000,Units=km
new line.1318757IP bus1=BBT3616374.1.2.0,bus2=BBT5001318757.1.2.0,Phases=2,Linecode=IP,Length=0.002840000,Units=km
new line.1318764IP bus1=BBT3616381.1.2.0,bus2=BBT5001318764.1.2.0,Phases=2,Linecode=IP,Length=0.002840000,Units=km
new line.1320059IP bus1=BBT3620084.1.2.0,bus2=BBT5001320059.1.2.0,Phases=2,Linecode=IP,Length=0.002840000,Units=km
new line.1367708IP bus1=BBT5415696.1.2.0,bus2=BBT5001367708.1.2.0,Phases=2,Linecode=IP,Length=0.002840000,Units=km
new line.1367715IP bus1=BBT5415696.1.2.0,bus2=BBT5001367715.1.2.0,Phases=2,Linecode=IP,Length=0.002840000,Units=km
new line.1367722IP bus1=BBT5415738.1.2.0,bus2=BBT5001367722.1.2.0,Phases=2,Linecode=IP,Length=0.002840000,Units=km
new line.1367729IP bus1=BBT5415745.1.2.0,bus2=BBT5001367729.1.2.0,Phases=2,Linecode=IP,Length=0.002840000,Units=km
new line.1367736IP bus1=BBT5415759.1.2.0,bus2=BBT5001367736.1.2.0,Phases=2,Linecode=IP,Length=0.002840000,Units=km
new line.1367743IP bus1=BBT5415703.1.2.0,bus2=BBT5001367743.1.2.0,Phases=2,Linecode=IP,Length=0.002840000,Units=km
new line.1367750IP bus1=BBT5415752.1.2.0,bus2=BBT5001367750.1.2.0,Phases=2,Linecode=IP,Length=0.002840000,Units=km
new line.1367757IP bus1=BBT5415745.1.2.0,bus2=BBT5001367757.1.2.0,Phases=2,Linecode=IP,Length=0.002840000,Units=km
new line.1367764IP bus1=BBT5415689.1.2.0,bus2=BBT5001367764.1.2.0,Phases=2,Linecode=IP,Length=0.002840000,Units=km
new line.1367771IP bus1=BBT5415724.1.2.0,bus2=BBT5001367771.1.2.0,Phases=2,Linecode=IP,Length=0.002840000,Units=km
new line.1367778IP bus1=BBT5415717.1.2.0,bus2=BBT5001367778.1.2.0,Phases=2,Linecode=IP,Length=0.002840000,Units=km
new line.1367785IP bus1=BBT5415857.1.2.0,bus2=BBT5001367785.1.2.0,Phases=2,Linecode=IP,Length=0.002840000,Units=km
new line.1367792IP bus1=BBT5415864.1.2.0,bus2=BBT5001367792.1.2.0,Phases=2,Linecode=IP,Length=0.002840000,Units=km
new line.1367799IP bus1=BBT5415871.1.2.0,bus2=BBT5001367799.1.2.0,Phases=2,Linecode=IP,Length=0.002840000,Units=km
new line.1367806IP bus1=BBT5415878.1.2.0,bus2=BBT5001367806.1.2.0,Phases=2,Linecode=IP,Length=0.002840000,Units=km
new line.1367827IP bus1=BBT5415934.1.2.0,bus2=BBT5001367827.1.2.0,Phases=2,Linecode=IP,Length=0.002840000,Units=km
new line.1367834IP bus1=BBT5415871.1.2.0,bus2=BBT5001367834.1.2.0,Phases=2,Linecode=IP,Length=0.002840000,Units=km
new line.1367841IP bus1=BBT1950122.1.2.0,bus2=BBT5001367841.1.2.0,Phases=2,Linecode=IP,Length=0.002840000,Units=km
new line.1367855IP bus1=BBT5415654.1.2.0,bus2=BBT5001367855.1.2.0,Phases=2,Linecode=IP,Length=0.002840000,Units=km
new line.1367862IP bus1=BBT5415654.1.2.0,bus2=BBT5001367862.1.2.0,Phases=2,Linecode=IP,Length=0.002840000,Units=km
new line.1403842IP bus1=BBT6486731.1.2.0,bus2=BBT5001403842.1.2.0,Phases=2,Linecode=IP,Length=0.002840000,Units=km
new line.1403849IP bus1=BBT6486780.1.2.0,bus2=BBT5001403849.1.2.0,Phases=2,Linecode=IP,Length=0.002840000,Units=km
new line.1403856IP bus1=BBT6486787.1.2.0,bus2=BBT5001403856.1.2.0,Phases=2,Linecode=IP,Length=0.002840000,Units=km
new line.1403863IP bus1=BBT6486997.1.2.0,bus2=BBT5001403863.1.2.0,Phases=2,Linecode=IP,Length=0.002840000,Units=km
new line.1403870IP bus1=BBT6487004.1.2.0,bus2=BBT5001403870.1.2.0,Phases=2,Linecode=IP,Length=0.002840000,Units=km
new line.1403884IP bus1=BBT6487536.1.2.0,bus2=BBT5001403884.1.2.0,Phases=2,Linecode=IP,Length=0.002840000,Units=km
new line.1403891IP bus1=BBT6487543.2.3.0,bus2=BBT5001403891.2.3.0,Phases=2,Linecode=IP,Length=0.002840000,Units=km
new line.1403898IP bus1=BBT6487550.1.3.0,bus2=BBT5001403898.1.3.0,Phases=2,Linecode=IP,Length=0.002840000,Units=km
new line.1468095 bus1=BBT1583861.1.2.0,bus2=BBT1583868.1.2.0,Phases=2,Linecode=BT521_BT521_7_2_1,Length=0.000501000,Units=km
new line.1468102 bus1=BBT1583868.1.2.0,bus2=BBT1583875.1.2.0,Phases=2,Linecode=BT807_BT807_4_2_3,Length=0.038301000,Units=km
new line.1468109 bus1=BBT1583868.1.2.0,bus2=BBT1583882.1.2.0,Phases=2,Linecode=BT807_BT807_4_2_3,Length=0.039611000,Units=km
new line.1468116 bus1=BBT1583875.1.2.0,bus2=BBT3258296.1.2.0,Phases=2,Linecode=BT808_BT808_4_2_3,Length=0.037026000,Units=km
new line.1468123 bus1=BBT1583882.1.2.0,bus2=BBT1583889.1.2.0,Phases=2,Linecode=BT807_BT807_4_2_3,Length=0.039863000,Units=km
new line.1468193 bus1=BBT1583938.1.2.0,bus2=BBT1583945.1.2.0,Phases=2,Linecode=BT508_BT508_7_2_1,Length=0.000501000,Units=km
new line.1468200 bus1=BBT1583945.1.2.0,bus2=BBT1583952.1.2.0,Phases=2,Linecode=BT108_BT108_7_2_1,Length=0.034246000,Units=km
new line.1468207 bus1=BBT1583945.1.2.0,bus2=BBT1583987.1.2.0,Phases=2,Linecode=BT108_BT108_7_2_1,Length=0.038483000,Units=km
new line.1468214 bus1=BBT1583952.1.2.0,bus2=BBT1583959.1.2.0,Phases=2,Linecode=BT106_BT106_7_2_1,Length=0.040805000,Units=km
new line.1468221 bus1=BBT1583973.1.2.0,bus2=BBT160198025.1.2.0,Phases=2,Linecode=BT807_BT807_4_2_3,Length=0.039408000,Units=km
new line.1468228 bus1=BBT1583959.1.2.0,bus2=BBT1583966.1.2.0,Phases=2,Linecode=BT106_BT106_7_2_1,Length=0.027866000,Units=km
new line.1468235 bus1=BBT1583980.1.2.0,bus2=BBT1583973.1.2.0,Phases=2,Linecode=BT807_BT807_4_2_3,Length=0.035395000,Units=km
new line.1468242 bus1=BBT1583987.1.2.0,bus2=BBT1583994.1.2.0,Phases=2,Linecode=BT107_BT107_7_2_1,Length=0.035239000,Units=km
new line.1468249 bus1=BBT1583987.1.2.0,bus2=BBT1584008.1.2.0,Phases=2,Linecode=BT107_BT107_7_2_1,Length=0.037708000,Units=km
new line.1468256 bus1=BBT1583994.1.2.0,bus2=BBT1584001.1.2.0,Phases=2,Linecode=BT107_BT107_7_2_1,Length=0.035367000,Units=km
new line.1468263 bus1=BBT1584008.1.2.0,bus2=BBT1584015.1.2.0,Phases=2,Linecode=BT107_BT107_7_2_1,Length=0.038288000,Units=km
new line.1468291 bus1=BBT1584036.1.2.0,bus2=BBT1584043.1.2.0,Phases=2,Linecode=BT521_BT521_7_2_1,Length=0.000501000,Units=km
new line.1468298 bus1=BBT1584043.1.2.0,bus2=BBT1584050.1.2.0,Phases=2,Linecode=BT108_BT107_7_2_1,Length=0.040374000,Units=km
new line.1468305 bus1=BBT1584043.1.2.0,bus2=BBT1584099.1.2.0,Phases=2,Linecode=BT108_BT107_7_2_1,Length=0.037496000,Units=km
new line.1468312 bus1=BBT1584050.1.2.0,bus2=BBT1584057.1.2.0,Phases=2,Linecode=BT106_BT106_7_2_1,Length=0.039128000,Units=km
new line.1468319 bus1=BBT1584050.1.2.0,bus2=BBT1584078.1.2.0,Phases=2,Linecode=BT108_BT107_7_2_1,Length=0.031155000,Units=km
new line.1468326 bus1=BBT1584050.1.2.0,bus2=BBT1584127.1.2.0,Phases=2,Linecode=BT107_BT106_7_2_1,Length=0.044669000,Units=km
new line.1468333 bus1=BBT1584057.1.2.0,bus2=BBT1584064.1.2.0,Phases=2,Linecode=BT106_BT106_7_2_1,Length=0.038222000,Units=km
new line.1468340 bus1=BBT1584064.1.2.0,bus2=BBT1584071.1.2.0,Phases=2,Linecode=BT106_BT106_7_2_1,Length=0.031775000,Units=km
new line.1468347 bus1=BBT1603965.1.2.0,bus2=BBT1603972.1.2.0,Phases=2,Linecode=BT521_BT521_7_2_1,Length=0.000501000,Units=km
new line.1468354 bus1=BBT1584078.1.2.0,bus2=BBT1584085.1.2.0,Phases=2,Linecode=BT108_BT107_7_2_1,Length=0.036247000,Units=km
new line.1468361 bus1=BBT1584085.1.2.0,bus2=BBT1584092.1.2.0,Phases=2,Linecode=BT108_BT107_7_2_1,Length=0.036081000,Units=km
new line.1468368 bus1=BBT1584092.1.2.0,bus2=BBT1584134.1.2.0,Phases=2,Linecode=BT106_BT106_7_2_1,Length=0.029078000,Units=km
new line.1468375 bus1=BBT1584092.1.2.0,bus2=BBT1584148.1.2.0,Phases=2,Linecode=BT106_BT106_7_2_1,Length=0.042073000,Units=km
new line.1468382 bus1=BBT1584099.1.2.0,bus2=BBT1584106.1.2.0,Phases=2,Linecode=BT807_BT807_4_2_3,Length=0.036809000,Units=km
new line.1468389 bus1=BBT1584106.1.2.0,bus2=BBT1584113.1.2.0,Phases=2,Linecode=BT807_BT807_4_2_3,Length=0.036809000,Units=km
new line.1468396 bus1=BBT1584113.1.2.0,bus2=BBT1584120.1.2.0,Phases=2,Linecode=BT807_BT807_4_2_3,Length=0.036081000,Units=km
new line.1468403 bus1=BBT1584134.1.2.0,bus2=BBT1584141.1.2.0,Phases=2,Linecode=BT106_BT106_7_2_1,Length=0.038196000,Units=km
new line.1468410 bus1=BBT1584148.1.2.0,bus2=BBT1584155.1.2.0,Phases=2,Linecode=BT106_BT106_7_2_1,Length=0.045292000,Units=km
new line.1468417 bus1=BBT1584155.1.2.0,bus2=BBT3258219.1.2.0,Phases=2,Linecode=BT808_BT808_4_2_3,Length=0.018034000,Units=km
new line.1468424 bus1=BBT1584155.1.2.0,bus2=BBT3258212.1.2.0,Phases=2,Linecode=BT808_BT808_4_2_3,Length=0.034070000,Units=km
new line.1468445 bus1=BBT1584176.1.2.0,bus2=BBT1584183.1.2.0,Phases=2,Linecode=BT513_BT513_7_2_1,Length=0.000501000,Units=km
new line.1468452 bus1=BBT1584183.1.2.0,bus2=BBT1584190.1.2.0,Phases=2,Linecode=BT807_BT807_4_2_3,Length=0.036137000,Units=km
new line.1468459 bus1=BBT1584183.1.2.0,bus2=BBT1584232.1.2.0,Phases=2,Linecode=BT807_BT807_4_2_3,Length=0.029079000,Units=km
new line.1468466 bus1=BBT1584190.1.2.0,bus2=BBT1584197.1.2.0,Phases=2,Linecode=BT807_BT807_4_2_3,Length=0.037496000,Units=km
new line.1468473 bus1=BBT1584197.1.2.0,bus2=BBT1584204.1.2.0,Phases=2,Linecode=BT807_BT807_4_2_3,Length=0.026085000,Units=km
new line.1468480 bus1=BBT1584197.1.2.0,bus2=BBT1584225.1.2.0,Phases=2,Linecode=BT807_BT807_4_2_3,Length=0.034725000,Units=km
new line.1468487 bus1=BBT1584204.1.2.0,bus2=BBT1584211.1.2.0,Phases=2,Linecode=BT807_BT807_4_2_3,Length=0.035395000,Units=km
new line.1468494 bus1=BBT1584204.1.2.0,bus2=BBT1584218.1.2.0,Phases=2,Linecode=BT801_BT801_4_2_3,Length=0.029284000,Units=km
new line.1468501 bus1=BBT1584225.1.2.0,bus2=BBT1584295.1.2.0,Phases=2,Linecode=BT801_BT801_4_2_3,Length=0.031123000,Units=km
new line.1468508 bus1=BBT1584232.1.2.0,bus2=BBT1584239.1.2.0,Phases=2,Linecode=BT807_BT807_4_2_3,Length=0.025088000,Units=km
new line.1468515 bus1=BBT1584239.1.2.0,bus2=BBT1584246.1.2.0,Phases=2,Linecode=BT807_BT807_4_2_3,Length=0.037748000,Units=km
new line.1468522 bus1=BBT1584239.1.2.0,bus2=BBT1584260.1.2.0,Phases=2,Linecode=BT807_BT807_4_2_3,Length=0.034940000,Units=km
new line.1468529 bus1=BBT1584246.1.2.0,bus2=BBT1584253.1.2.0,Phases=2,Linecode=BT807_BT807_4_2_3,Length=0.036904000,Units=km
new line.1468536 bus1=BBT1584260.1.2.0,bus2=BBT1584267.1.2.0,Phases=2,Linecode=BT807_BT807_4_2_3,Length=0.035480000,Units=km
new line.1468543 bus1=BBT1584267.1.2.0,bus2=BBT1584274.1.2.0,Phases=2,Linecode=BT807_BT807_4_2_3,Length=0.034450000,Units=km
new line.1468550 bus1=BBT1584274.1.2.0,bus2=BBT1584281.1.2.0,Phases=2,Linecode=BT807_BT807_4_2_3,Length=0.033627000,Units=km
new line.1468557 bus1=BBT1584281.1.2.0,bus2=BBT1584288.1.2.0,Phases=2,Linecode=BT807_BT807_4_2_3,Length=0.035480000,Units=km
new line.1468571 bus1=BBT1584547.1.2.0,bus2=BBT1584554.1.2.0,Phases=2,Linecode=BT518_BT518_7_2_1,Length=0.000501000,Units=km
new line.1468578 bus1=BBT1584295.1.2.0,bus2=BBT1584302.1.2.0,Phases=2,Linecode=BT801_BT801_4_2_3,Length=0.033849000,Units=km
new line.1468585 bus1=BBT1584302.1.2.0,bus2=BBT1584309.1.2.0,Phases=2,Linecode=BT801_BT801_4_2_3,Length=0.027812000,Units=km
new line.1468606 bus1=BBT1584330.1.2.0,bus2=BBT1584337.1.2.0,Phases=2,Linecode=BT521_BT521_7_2_1,Length=0.000501000,Units=km
new line.1468613 bus1=BBT1584337.1.2.0,bus2=BBT1584344.1.2.0,Phases=2,Linecode=BT108_BT108_7_2_1,Length=0.036782000,Units=km
new line.1468620 bus1=BBT1584337.1.2.0,bus2=BBT1584386.1.2.0,Phases=2,Linecode=BT108_BT108_7_2_1,Length=0.041739000,Units=km
new line.1468627 bus1=BBT1584344.1.2.0,bus2=BBT1584351.1.2.0,Phases=2,Linecode=BT107_BT106_7_2_1,Length=0.046545000,Units=km
new line.1468634 bus1=BBT1584344.1.2.0,bus2=BBT1584358.1.2.0,Phases=2,Linecode=BT107_BT106_7_2_1,Length=0.034493000,Units=km
new line.1468641 bus1=BBT1584344.1.2.0,bus2=BBT1584372.1.2.0,Phases=2,Linecode=BT107_BT107_7_2_1,Length=0.035367000,Units=km
new line.1468648 bus1=BBT1584358.1.2.0,bus2=BBT1584365.1.2.0,Phases=2,Linecode=BT107_BT106_7_2_1,Length=0.042204000,Units=km
new line.1468655 bus1=BBT1584372.1.2.0,bus2=BBT1584379.1.2.0,Phases=2,Linecode=BT107_BT107_7_2_1,Length=0.034667000,Units=km
new line.1468662 bus1=BBT1584386.1.2.0,bus2=BBT1584393.1.2.0,Phases=2,Linecode=BT107_BT107_7_2_1,Length=0.040324000,Units=km
new line.1468669 bus1=BBT1584386.1.2.0,bus2=BBT3258233.1.2.0,Phases=2,Linecode=BT808_BT808_4_2_3,Length=0.037655000,Units=km
new line.1468676 bus1=BBT1584393.1.2.0,bus2=BBT1584400.1.2.0,Phases=2,Linecode=BT107_BT107_7_2_1,Length=0.035367000,Units=km
new line.1468683 bus1=BBT1584400.1.2.0,bus2=BBT1584407.1.2.0,Phases=2,Linecode=BT106_BT106_7_2_1,Length=0.048036000,Units=km
new line.1468690 bus1=BBT1584400.1.2.0,bus2=BBT1584414.1.2.0,Phases=2,Linecode=BT106_BT106_7_2_1,Length=0.040262000,Units=km
new line.1468697 bus1=BBT1584407.1.2.0,bus2=BBT3258254.1.2.0,Phases=2,Linecode=BT808_BT808_4_2_3,Length=0.037496000,Units=km
new line.1468704 bus1=BBT1584407.1.2.0,bus2=BBT3258240.1.2.0,Phases=2,Linecode=BT808_BT808_4_2_3,Length=0.039459000,Units=km
new line.1468725 bus1=BBT1584435.1.2.0,bus2=BBT1584442.1.2.0,Phases=2,Linecode=BT518_BT518_7_2_1,Length=0.000501000,Units=km
new line.1468732 bus1=BBT1584442.1.2.0,bus2=BBT1584449.1.2.0,Phases=2,Linecode=BT807_BT807_4_2_3,Length=0.032568000,Units=km
new line.1468739 bus1=BBT1584442.1.2.0,bus2=BBT1584484.1.2.0,Phases=2,Linecode=BT807_BT807_4_2_3,Length=0.033252000,Units=km
new line.1468746 bus1=BBT1584449.1.2.0,bus2=BBT1584456.1.2.0,Phases=2,Linecode=BT801_BT801_4_2_3,Length=0.045358000,Units=km
new line.1468753 bus1=BBT1584449.1.2.0,bus2=BBT1584491.1.2.0,Phases=2,Linecode=BT807_BT807_4_2_3,Length=0.036081000,Units=km
new line.1468760 bus1=BBT1584456.1.2.0,bus2=BBT1584505.1.2.0,Phases=2,Linecode=BT801_BT801_4_2_3,Length=0.033982000,Units=km
new line.1468767 bus1=BBT1584456.1.2.0,bus2=BBT1584463.1.2.0,Phases=2,Linecode=BT801_BT801_4_2_3,Length=0.044702000,Units=km
new line.1468774 bus1=BBT1584456.1.2.0,bus2=BBT1584498.1.2.0,Phases=2,Linecode=BT801_BT801_4_2_3,Length=0.026181000,Units=km
new line.1468781 bus1=BBT1584463.1.2.0,bus2=BBT1584470.1.2.0,Phases=2,Linecode=BT801_BT801_4_2_3,Length=0.032026000,Units=km
new line.1468788 bus1=BBT1584470.1.2.0,bus2=BBT1584477.1.2.0,Phases=2,Linecode=BT801_BT801_4_2_3,Length=0.046243000,Units=km
new line.1468795 bus1=BBT1584484.1.2.0,bus2=BBT1584512.1.2.0,Phases=2,Linecode=BT807_BT807_4_2_3,Length=0.023353000,Units=km
new line.1468802 bus1=BBT1584512.1.2.0,bus2=BBT1584519.1.2.0,Phases=2,Linecode=BT807_BT807_4_2_3,Length=0.023267000,Units=km
new line.1468809 bus1=BBT1584519.1.2.0,bus2=BBT1584526.1.2.0,Phases=2,Linecode=BT807_BT807_4_2_3,Length=0.032213000,Units=km
new line.1468844 bus1=BBT1584582.1.2.0,bus2=BBT1584603.1.2.0,Phases=2,Linecode=BT807_BT807_4_2_3,Length=0.038961000,Units=km
new line.1468851 bus1=BBT1584575.1.2.0,bus2=BBT1584589.1.2.0,Phases=2,Linecode=BT521_BT521_7_2_1,Length=0.000501000,Units=km
new line.1468858 bus1=BBT1584589.1.2.0,bus2=BBT1584596.1.2.0,Phases=2,Linecode=BT807_BT807_4_2_3,Length=0.036890000,Units=km
new line.1468865 bus1=BBT1584589.1.2.0,bus2=BBT1584610.1.2.0,Phases=2,Linecode=BT807_BT807_4_2_3,Length=0.032706000,Units=km
new line.1468872 bus1=BBT1584596.1.2.0,bus2=BBT1584582.1.2.0,Phases=2,Linecode=BT807_BT807_4_2_3,Length=0.036081000,Units=km
new line.1468879 bus1=BBT1584610.1.2.0,bus2=BBT1584617.1.2.0,Phases=2,Linecode=BT807_BT807_4_2_3,Length=0.044792000,Units=km
new line.1468914 bus1=BBT1584638.1.2.0,bus2=BBT1584645.1.2.0,Phases=2,Linecode=BT518_BT518_7_2_1,Length=0.000501000,Units=km
new line.1468921 bus1=BBT160074972.1.2.0,bus2=BBT1584652.1.2.0,Phases=2,Linecode=BT807_BT807_4_2_3,Length=0.017470000,Units=km
new line.1468928 bus1=BBT1584645.1.2.0,bus2=BBT1584666.1.2.0,Phases=2,Linecode=BT807_BT807_4_2_3,Length=0.044926000,Units=km
new line.1468935 bus1=BBT1584652.1.2.0,bus2=BBT1584659.1.2.0,Phases=2,Linecode=BT807_BT807_4_2_3,Length=0.038910000,Units=km
new line.1468942 bus1=BBT1584659.1.2.0,bus2=BBT5326026.1.2.0,Phases=2,Linecode=BT808_BT808_4_2_3,Length=0.044026000,Units=km
new line.1468949 bus1=BBT1584666.1.2.0,bus2=BBT1584673.1.2.0,Phases=2,Linecode=BT807_BT807_4_2_3,Length=0.038652000,Units=km
new line.1514204 bus1=BBT1638342.1.2.0,bus2=BBT1638349.1.2.0,Phases=2,Linecode=BT308_BT308_7_2_1,Length=0.000501000,Units=km
new line.1514211 bus1=BBT1638356.1.2.0,bus2=BBT1638363.1.2.0,Phases=2,Linecode=BT518_BT518_7_2_1,Length=0.000501000,Units=km
new line.1514225 bus1=BBT1638363.1.2.0,bus2=BBT161400520.1.2.0,Phases=2,Linecode=BT807_BT807_4_2_3,Length=0.022479000,Units=km
new line.1514295 bus1=BBT1638496.1.2.0,bus2=BBT1638503.1.2.0,Phases=2,Linecode=BT307_BT307_7_2_1,Length=0.000501000,Units=km
new line.1514302 bus1=BBT1638510.1.2.0,bus2=BBT1638517.1.2.0,Phases=2,Linecode=BT509_BT509_7_2_1,Length=0.000501000,Units=km
new line.1514309 bus1=BBT1638517.1.2.0,bus2=BBT5432538.1.2.0,Phases=2,Linecode=BT808_BT808_4_2_3,Length=0.076917000,Units=km
new line.1514316 bus1=BBT1638517.1.0,bus2=BBT5432559.1.0,Phases=1,Linecode=BT107_BT206_7_1_1,Length=0.078284000,Units=km
new line.1514323 bus1=BBT1638524.1.2.0,bus2=BBT1638531.1.2.0,Phases=2,Linecode=BT508_BT508_7_2_1,Length=0.000501000,Units=km
new line.1514330 bus1=BBT153039222.1.2.0,bus2=BBT5432629.1.2.0,Phases=2,Linecode=BT807_BT807_4_2_3,Length=0.042202000,Units=km
new line.1514337 bus1=BBT1638531.1.0,bus2=BBT5432748.1.0,Phases=1,Linecode=BT107_BT206_7_1_1,Length=0.080178000,Units=km
new line.1514344 bus1=BBT1638538.1.2.0,bus2=BBT1638545.1.2.0,Phases=2,Linecode=BT509_BT509_7_2_1,Length=0.000501000,Units=km
new line.1514379 bus1=BBT1638608.1.2.3.0,bus2=BBT1638615.1.2.3.0,Phases=3,Linecode=BT313_BT313_7_3_1,Length=0.000501000,Units=km
new line.1514386 bus1=BBT1638622.1.2.0,bus2=BBT1638629.1.2.0,Phases=2,Linecode=BT305_BT305_7_2_1,Length=0.000501000,Units=km
new line.1514393 bus1=BBT1638636.1.2.3.0,bus2=BBT1638643.1.2.3.0,Phases=3,Linecode=BT313_BT313_7_3_1,Length=0.000501000,Units=km
new line.1514400 bus1=BBT1638650.1.2.0,bus2=BBT1638657.1.2.0,Phases=2,Linecode=BT307_BT307_7_2_1,Length=0.000501000,Units=km
new line.1514407 bus1=BBT1638664.1.2.0,bus2=BBT1638671.1.2.0,Phases=2,Linecode=BT509_BT509_7_2_1,Length=0.000501000,Units=km
new line.1514421 bus1=BBT1638678.1.2.0,bus2=BBT1638685.1.2.0,Phases=2,Linecode=BT304_BT304_7_2_1,Length=0.000501000,Units=km
new line.1514428 bus1=BBT1638692.1.2.0,bus2=BBT1638699.1.2.0,Phases=2,Linecode=BT305_BT305_7_2_1,Length=0.000501000,Units=km
new line.1514435 bus1=BBT1638706.1.2.0,bus2=BBT1638713.1.2.0,Phases=2,Linecode=BT509_BT509_7_2_1,Length=0.000501000,Units=km
new line.1514449 bus1=BBT1638713.2.0,bus2=BBT5433154.2.0,Phases=1,Linecode=BT107_BT107_7_1_1,Length=0.058480000,Units=km
new line.1514456 bus1=BBT1638713.1.0,bus2=BBT5433168.1.0,Phases=1,Linecode=BT107_BT107_7_1_1,Length=0.079268000,Units=km
new line.1514463 bus1=BBT1638720.1.2.3.0,bus2=BBT1638727.1.2.3.0,Phases=3,Linecode=BT513_BT513_7_3_1,Length=0.000501000,Units=km
new line.1514470 bus1=BBT1638734.1.2.3.0,bus2=BBT1638741.1.2.3.0,Phases=3,Linecode=BT313_BT313_7_3_1,Length=0.000501000,Units=km
new line.1514477 bus1=BBT1638748.1.2.0,bus2=BBT1638755.1.2.0,Phases=2,Linecode=BT308_BT308_7_2_1,Length=0.000501000,Units=km
new line.1514484 bus1=BBT1638762.1.2.3.0,bus2=BBT1638769.1.2.3.0,Phases=3,Linecode=BT308_BT308_7_3_1,Length=0.000501000,Units=km
new line.1514491 bus1=BBT1638776.1.2.0,bus2=BBT1638783.1.2.0,Phases=2,Linecode=BT307_BT307_7_2_1,Length=0.000501000,Units=km
new line.1514498 bus1=BBT1638790.1.2.0,bus2=BBT1638797.1.2.0,Phases=2,Linecode=BT304_BT304_7_2_1,Length=0.000501000,Units=km
new line.1514505 bus1=BBT1638804.1.2.0,bus2=BBT1638811.1.2.0,Phases=2,Linecode=BT304_BT304_7_2_1,Length=0.000501000,Units=km
new line.1514512 bus1=BBT1638818.1.2.0,bus2=BBT1638825.1.2.0,Phases=2,Linecode=BT311_BT311_7_2_1,Length=0.000501000,Units=km
new line.1515135 bus1=BBT1639700.1.2.0,bus2=BBT1639707.1.2.0,Phases=2,Linecode=BT305_BT305_7_2_1,Length=0.000501000,Units=km
new line.1629361 bus1=BBT1760086.1.2.0,bus2=BBT1760093.1.2.0,Phases=2,Linecode=BT509_BT509_7_2_1,Length=0.000501000,Units=km
new line.1629375 bus1=BBT1760093.1.0,bus2=BBT5332074.1.0,Phases=1,Linecode=BT107_BT107_7_1_1,Length=0.051882000,Units=km
new line.1629396 bus1=BBT1760128.1.2.0,bus2=BBT1760135.1.2.0,Phases=2,Linecode=BT305_BT305_7_2_1,Length=0.000501000,Units=km
new line.1629494 bus1=BBT1760254.1.2.0,bus2=BBT1760261.1.2.0,Phases=2,Linecode=BT305_BT305_7_2_1,Length=0.000501000,Units=km
new line.1629522 bus1=BBT1760296.1.2.0,bus2=BBT1760303.1.2.0,Phases=2,Linecode=BT509_BT509_7_2_1,Length=0.000501000,Units=km
new line.1629529 bus1=BBT1760303.2.0,bus2=BBT5333747.2.0,Phases=1,Linecode=BT107_BT107_7_1_1,Length=0.045290000,Units=km
new line.1629536 bus1=BBT1760303.1.0,bus2=BBT5333754.1.0,Phases=1,Linecode=BT107_BT107_7_1_1,Length=0.070084000,Units=km
new line.1629655 bus1=BBT1760408.1.2.0,bus2=BBT1760415.1.2.0,Phases=2,Linecode=BT305_BT305_7_2_1,Length=0.000501000,Units=km
new line.1629802 bus1=BBT1760590.1.2.0,bus2=BBT1760597.1.2.0,Phases=2,Linecode=BT518_BT518_7_2_1,Length=0.000501000,Units=km
new line.1629816 bus1=BBT1760597.1.0,bus2=BBT4234838.1.0,Phases=1,Linecode=BT107_BT107_7_1_1,Length=0.066663000,Units=km
new line.1629823 bus1=BBT1760597.1.0,bus2=BBT5332116.1.0,Phases=1,Linecode=BT107_BT206_7_1_1,Length=0.076510000,Units=km
new line.1629844 bus1=BBT1760632.1.2.0,bus2=BBT1760639.1.2.0,Phases=2,Linecode=BT307_BT307_7_2_1,Length=0.000501000,Units=km
new line.1630026 bus1=BBT1760800.1.2.0,bus2=BBT1760807.1.2.0,Phases=2,Linecode=BT521_BT521_7_2_1,Length=0.000501000,Units=km
new line.10032742 bus1=BBT145936956.1.2.0,bus2=BBT1583980.1.2.0,Phases=2,Linecode=BT803_BT803_4_2_4,Length=0.027027000,Units=km
new line.10034632 bus1=BBT145981700.1.2.0,bus2=BBT145981707.1.2.0,Phases=2,Linecode=BT521_BT521_7_2_1,Length=0.000501000,Units=km
new line.10034793 bus1=BBT145983128.1.2.0,bus2=BBT145983135.1.2.0,Phases=2,Linecode=BT508_BT508_7_2_1,Length=0.000501000,Units=km
new line.1232671IP bus1=BBT2186204.1.2.0,bus2=BBT5001232671.1.2.0,Phases=2,Linecode=IP,Length=0.002840000,Units=km
new line.1232734IP bus1=BBT624826.1.2.0,bus2=BBT5001232734.1.2.0,Phases=2,Linecode=IP,Length=0.001600000,Units=km
new line.1233483IP bus1=BBT576449.1.2.0,bus2=BBT5001233483.1.2.0,Phases=2,Linecode=IP,Length=0.002960000,Units=km
new line.1627324 bus1=BBT1758112.1.2.0,bus2=BBT1758119.1.2.0,Phases=2,Linecode=BT305_BT305_7_2_1,Length=0.000501000,Units=km
new line.1627331 bus1=BBT1758119.1.2.0,bus2=BBT3393683.1.2.0,Phases=2,Linecode=BT801_BT801_4_2_3,Length=0.035367000,Units=km
new line.1627555 bus1=BBT1758280.1.2.0,bus2=BBT1758287.1.2.0,Phases=2,Linecode=BT307_BT307_7_2_1,Length=0.000501000,Units=km
new line.1627828 bus1=BBT1758581.1.2.0,bus2=BBT1758588.1.2.0,Phases=2,Linecode=BT509_BT509_7_2_1,Length=0.000501000,Units=km
new line.1627835 bus1=BBT1758588.2.0,bus2=BBT5332172.2.0,Phases=1,Linecode=BT107_BT107_7_1_1,Length=0.053027000,Units=km
new line.1627863 bus1=BBT1758623.1.2.0,bus2=BBT1758630.1.2.0,Phases=2,Linecode=BT304_BT304_7_2_1,Length=0.000501000,Units=km
new line.1628059 bus1=BBT1758812.1.2.0,bus2=BBT1758819.1.2.0,Phases=2,Linecode=BT305_BT305_7_2_1,Length=0.000501000,Units=km
new line.1628353 bus1=BBT1759127.1.2.0,bus2=BBT1759134.1.2.0,Phases=2,Linecode=BT509_BT509_7_2_1,Length=0.000501000,Units=km
new line.1628381 bus1=BBT1759169.1.2.0,bus2=BBT1759176.1.2.0,Phases=2,Linecode=BT304_BT304_7_2_1,Length=0.000501000,Units=km
new line.1628682 bus1=BBT1759456.1.2.0,bus2=BBT1759463.1.2.0,Phases=2,Linecode=BT509_BT509_7_2_1,Length=0.000501000,Units=km
new line.1628696 bus1=BBT1759463.1.2.0,bus2=BBT3050984.1.2.0,Phases=2,Linecode=BT801_BT801_4_2_3,Length=0.037375000,Units=km
new line.1628703 bus1=BBT1759463.1.2.0,bus2=BBT5364645.1.2.0,Phases=2,Linecode=BT107_BT206_7_2_1,Length=0.069484000,Units=km
new line.1628710 bus1=BBT1759463.1.2.0,bus2=BBT5364666.1.2.0,Phases=2,Linecode=BT801_BT801_4_2_3,Length=0.063368000,Units=km
new line.1628864 bus1=BBT1759596.1.2.0,bus2=BBT1759603.1.2.0,Phases=2,Linecode=BT509_BT509_7_2_1,Length=0.000501000,Units=km
new line.1628871 bus1=BBT1759603.1.0,bus2=BBT5332081.1.0,Phases=1,Linecode=BT107_BT107_7_1_1,Length=0.082319000,Units=km
new line.1628878 bus1=BBT1759603.1.0,bus2=BBT5332102.1.0,Phases=1,Linecode=BT107_BT107_7_1_1,Length=0.064434000,Units=km
new line.1628885 bus1=BBT1759603.2.0,bus2=BBT5332095.2.0,Phases=1,Linecode=BT107_BT107_7_1_1,Length=0.055045000,Units=km
new line.1628906 bus1=BBT1759638.1.2.0,bus2=BBT1759645.1.2.0,Phases=2,Linecode=BT509_BT509_7_2_1,Length=0.000501000,Units=km
new line.1628913 bus1=BBT1759645.1.0,bus2=BBT5337751.1.0,Phases=1,Linecode=BT107_BT107_7_1_1,Length=0.069200000,Units=km
new line.1628920 bus1=BBT1759645.2.0,bus2=BBT5337660.2.0,Phases=1,Linecode=BT107_BT107_7_1_1,Length=0.079401000,Units=km
new line.1629137 bus1=BBT1759862.1.2.0,bus2=BBT1759869.1.2.0,Phases=2,Linecode=BT509_BT509_7_2_1,Length=0.000501000,Units=km
new line.1629144 bus1=BBT1759869.1.2.0,bus2=BBT5332067.1.2.0,Phases=2,Linecode=BT107_BT107_7_2_1,Length=0.038497000,Units=km
new line.1629172 bus1=BBT1759904.1.2.0,bus2=BBT1759911.1.2.0,Phases=2,Linecode=BT305_BT305_7_2_1,Length=0.000501000,Units=km
new line.1642780 bus1=BBT1774247.1.2.0,bus2=BBT1774254.1.2.0,Phases=2,Linecode=BT305_BT305_7_2_1,Length=0.000501000,Units=km
new line.1642787 bus1=BBT1774261.1.2.0,bus2=BBT1774268.1.2.0,Phases=2,Linecode=BT509_BT509_7_2_1,Length=0.000501000,Units=km
new line.1642829 bus1=BBT1774331.1.2.0,bus2=BBT1774338.1.2.0,Phases=2,Linecode=BT509_BT509_7_2_1,Length=0.000501000,Units=km
new line.1642836 bus1=BBT1774338.2.0,bus2=BBT5369587.2.0,Phases=1,Linecode=BT107_BT206_7_1_1,Length=0.081591000,Units=km
new line.1642843 bus1=BBT1774338.1.0,bus2=BBT5369601.1.0,Phases=1,Linecode=BT107_BT206_7_1_1,Length=0.049694000,Units=km
new line.1642850 bus1=BBT1774345.1.2.0,bus2=BBT1774352.1.2.0,Phases=2,Linecode=BT521_BT521_7_2_1,Length=0.000501000,Units=km
new line.1642857 bus1=BBT1774352.1.2.0,bus2=BBT2738476.1.2.0,Phases=2,Linecode=BT801_BT801_4_2_3,Length=0.051006000,Units=km
new line.1643158 bus1=BBT1774674.1.2.0,bus2=BBT1774681.1.2.0,Phases=2,Linecode=BT304_BT304_7_2_1,Length=0.000501000,Units=km
new line.1643165 bus1=BBT1774688.1.2.0,bus2=BBT1774695.1.2.0,Phases=2,Linecode=BT304_BT304_7_2_1,Length=0.000501000,Units=km
new line.1643207 bus1=BBT1774758.1.2.0,bus2=BBT1774765.1.2.0,Phases=2,Linecode=BT509_BT509_7_2_1,Length=0.000501000,Units=km
new line.1643214 bus1=BBT1774765.1.0,bus2=BBT5369622.1.0,Phases=1,Linecode=BT107_BT206_7_1_1,Length=0.087719000,Units=km
new line.1643221 bus1=BBT1774765.2.0,bus2=BBT5369608.2.0,Phases=1,Linecode=BT107_BT206_7_1_1,Length=0.078592000,Units=km
new line.1643228 bus1=BBT1774772.1.2.0,bus2=BBT1774779.1.2.0,Phases=2,Linecode=BT521_BT521_7_2_1,Length=0.000501000,Units=km
new line.1643522 bus1=BBT1775101.1.2.0,bus2=BBT1775108.1.2.0,Phases=2,Linecode=BT305_BT305_7_2_1,Length=0.000501000,Units=km
new line.1643529 bus1=BBT1775115.1.2.0,bus2=BBT1775122.1.2.0,Phases=2,Linecode=BT305_BT305_7_2_1,Length=0.000501000,Units=km
new line.1643543 bus1=BBT1775122.1.2.0,bus2=BBT3179644.1.2.0,Phases=2,Linecode=BT801_BT801_4_2_3,Length=0.036247000,Units=km
new line.1643550 bus1=BBT1775122.1.0,bus2=BBT5356875.1.0,Phases=1,Linecode=BT107_BT107_7_1_1,Length=0.047555000,Units=km
new line.1643606 bus1=BBT1775185.1.2.0,bus2=BBT1775192.1.2.0,Phases=2,Linecode=BT304_BT304_7_2_1,Length=0.000501000,Units=km
new line.1643613 bus1=BBT1775199.1.2.0,bus2=BBT1775206.1.2.0,Phases=2,Linecode=BT509_BT509_7_2_1,Length=0.000501000,Units=km
new line.1643879 bus1=BBT1775514.1.2.0,bus2=BBT1775521.1.2.0,Phases=2,Linecode=BT305_BT305_7_2_1,Length=0.000501000,Units=km
new line.1643886 bus1=BBT1775528.1.2.0,bus2=BBT1775535.1.2.0,Phases=2,Linecode=BT304_BT304_7_2_1,Length=0.000501000,Units=km
new line.1643893 bus1=BBT1775535.2.0,bus2=BBT5356882.2.0,Phases=1,Linecode=BT107_BT107_7_1_1,Length=0.059685000,Units=km
new line.1643900 bus1=BBT1775535.1.0,bus2=BBT5356889.1.0,Phases=1,Linecode=BT107_BT107_7_1_1,Length=0.096680000,Units=km
new line.1643949 bus1=BBT1775598.1.2.0,bus2=BBT1775605.1.2.0,Phases=2,Linecode=BT509_BT509_7_2_1,Length=0.000501000,Units=km
new line.1643963 bus1=BBT1775605.2.0,bus2=BBT4696866.2.0,Phases=1,Linecode=BT811_BT811_4_1_3,Length=0.041013000,Units=km
new line.1643970 bus1=BBT1775605.1.0,bus2=BBT5369706.1.0,Phases=1,Linecode=BT107_BT107_7_1_1,Length=0.057219000,Units=km
new line.1643977 bus1=BBT1775605.2.0,bus2=BBT5369699.2.0,Phases=1,Linecode=BT107_BT107_7_1_1,Length=0.082012000,Units=km
new line.1643984 bus1=BBT1775612.1.2.0,bus2=BBT1775619.1.2.0,Phases=2,Linecode=BT509_BT509_7_2_1,Length=0.000501000,Units=km
new line.1643998 bus1=BBT1775619.2.0,bus2=BBT5364869.2.0,Phases=1,Linecode=BT107_BT107_7_1_1,Length=0.044025000,Units=km
new line.1644327 bus1=BBT1775976.1.2.0,bus2=BBT1775983.1.2.0,Phases=2,Linecode=BT305_BT305_7_2_1,Length=0.000501000,Units=km