new line.CTR127854 bus1=BMT123282177.2,bus2=BMT123283283.2,Phases=1,LineCode=tieSwitch1,Length=0.001,Units=km,switch=T !numEQ NUMEQ:83608  - Data de conexão anterior06/2011.
new line.CTR128092 bus1=BMT163752614.3,bus2=BMT163826289.3,Phases=1,LineCode=tieSwitch1,Length=0.001,Units=km,switch=T !numEQ NUMEQ:83692  - Data de conexão anterior06/2011.
new line.CTR128106 bus1=BMT139858709.1.2.3,bus2=BMT143841345.1.2.3,Phases=3,LineCode=tieSwitch,Length=0.001,Units=km,switch=T !numEQ NUMEQ:40274  - Data de conexão anterior06/2011.
new line.CTR129422 bus1=BMT123288120.1,bus2=BMT123288148.1,Phases=1,LineCode=tieSwitch1,Length=0.001,Units=km,switch=T !numEQ NUMEQ:145665  - Data de conexão anterior06/2011.
new line.CTR147531 bus1=BMT123291144.3,bus2=BMT149693588.3,Phases=1,LineCode=tieSwitch1,Length=0.001,Units=km,switch=T !numEQ NUMEQ:129525  - Data de conexão anterior06/2011.
new line.CTR16736 bus1=BMT123270389.2,bus2=BMT123276612.2,Phases=1,LineCode=tieSwitch1,Length=0.001,Units=km,switch=T !numEQ NUMEQ:182762  - Data de conexão anterior06/2011.
new line.CTR181992 bus1=BMT123286755.1.2.3,bus2=BMT123286762.1.2.3,Phases=3,LineCode=tieSwitch,Length=0.001,Units=km,switch=T !numEQ NUMEQ:40442  - Data de conexão anterior06/2011.
new line.CTR181999 bus1=BMT123270319.3,bus2=BMT123287175.3,Phases=1,LineCode=tieSwitch1,Length=0.001,Units=km,switch=T !numEQ NUMEQ:40445  - Data de conexão anterior06/2011.
new line.CTR182006 bus1=BMT123286699.3,bus2=BMT123287161.3,Phases=1,LineCode=tieSwitch1,Length=0.001,Units=km,switch=T !numEQ NUMEQ:39482  - Data de conexão anterior06/2011.
new line.CTR182013 bus1=BMT139868201.1.2.3,bus2=BMT180155603.1.2.3,Phases=3,LineCode=tieSwitch,Length=0.001,Units=km,switch=T !numEQ NUMEQ:40463  - Data de conexão anterior06/2011.
new line.CTR182020 bus1=BMT123287504.3,bus2=BMT151357507.3,Phases=1,LineCode=tieSwitch1,Length=0.001,Units=km,switch=T !numEQ NUMEQ:40446  - Data de conexão anterior06/2011.
new line.CTR182118 bus1=BMT123281190.1.2.3,bus2=BMT135718132.1.2.3,Phases=3,LineCode=tieSwitch,Length=0.001,Units=km,switch=T !numEQ NUMEQ:40461  - Data de conexão anterior06/2011.
new line.CTR182125 bus1=BMT123288673.1,bus2=BMT123288694.1,Phases=1,LineCode=tieSwitch1,Length=0.001,Units=km,switch=T !numEQ NUMEQ:40447  - Data de conexão anterior06/2011.
new line.CTR182132 bus1=BMT123288113.1,bus2=BMT123288134.1,Phases=1,LineCode=tieSwitch1,Length=0.001,Units=km,switch=T !numEQ NUMEQ:40443  - Data de conexão anterior06/2011.
new line.CTR182139 bus1=BMT123286475.3,bus2=BMT168030190.3,Phases=1,LineCode=tieSwitch1,Length=0.001,Units=km,switch=T !numEQ NUMEQ:40464  - Data de conexão anterior06/2011.
new line.CTR182146 bus1=BMT123284935.3,bus2=BMT164939066.3,Phases=1,LineCode=tieSwitch1,Length=0.001,Units=km,switch=T !numEQ NUMEQ:40466  - Data de conexão anterior06/2011.
new line.CTR182153 bus1=BMT123281239.1.2.3,bus2=BMT174651336.1.2.3,Phases=3,LineCode=tieSwitch,Length=0.001,Units=km,switch=T !numEQ NUMEQ:40467  - Data de conexão anterior06/2011.
new line.CTR182160 bus1=BMT132766449.1.2.3,bus2=BMT135260255.1.2.3,Phases=3,LineCode=tieSwitch,Length=0.001,Units=km,switch=T !numEQ NUMEQ:40471  - Data de conexão anterior06/2011.
new line.CTR182167 bus1=BMT123281421.3,bus2=BMT123281456.3,Phases=1,LineCode=tieSwitch1,Length=0.001,Units=km,switch=T !numEQ NUMEQ:40473  - Data de conexão anterior06/2011.
new line.CTR182174 bus1=BMT176148216.1.2.3,bus2=BMT123270480.1.2.3,Phases=3,LineCode=tieSwitch,Length=0.001,Units=km,switch=T !numEQ NUMEQ:40474  - Data de conexão anterior06/2011.
new line.CTR182181 bus1=BMT123276374.3,bus2=BMT172227356.3,Phases=1,LineCode=tieSwitch1,Length=0.001,Units=km,switch=T !numEQ NUMEQ:40476  - Data de conexão anterior06/2011.
new line.CTR182195 bus1=BMT142132414.2,bus2=BMT142132827.2,Phases=1,LineCode=tieSwitch1,Length=0.001,Units=km,switch=T !numEQ NUMEQ:40481  - Data de conexão anterior06/2011.
new line.CTR182216 bus1=BMT123270641.1.2.3,bus2=BMT177343371.1.2.3,Phases=3,LineCode=tieSwitch,Length=0.001,Units=km,switch=T !numEQ NUMEQ:40477  - Data de conexão anterior06/2011.
new line.CTR182258 bus1=BMT123271691.1,bus2=BMT123271712.1,Phases=1,LineCode=tieSwitch1,Length=0.001,Units=km,switch=T !numEQ NUMEQ:40491  - Data de conexão anterior06/2011.
new line.CTR182265 bus1=BMT123281281.1.2.3,bus2=BMT177381163.1.2.3,Phases=3,LineCode=tieSwitch,Length=0.001,Units=km,switch=T !numEQ NUMEQ:40468  - Data de conexão anterior06/2011.
new line.CTR182272 bus1=BMT123281323.2,bus2=BMT135014037.2,Phases=1,LineCode=tieSwitch1,Length=0.001,Units=km,switch=T !numEQ NUMEQ:40469  - Data de conexão anterior06/2011.
new line.CTR182279 bus1=BMT123281344.1,bus2=BMT179121777.1,Phases=1,LineCode=tieSwitch1,Length=0.001,Units=km,switch=T !numEQ NUMEQ:40470  - Data de conexão anterior06/2011.
new line.CTR182286 bus1=BMT123281393.3,bus2=BMT161929075.3,Phases=1,LineCode=tieSwitch1,Length=0.001,Units=km,switch=T !numEQ NUMEQ:40472  - Data de conexão anterior06/2011.
new line.CTR182300 bus1=BMT123271733.1,bus2=BMT123271747.1,Phases=1,LineCode=tieSwitch1,Length=0.001,Units=km,switch=T !numEQ NUMEQ:40492  - Data de conexão anterior06/2011.
new line.CTR182307 bus1=BMT123270851.1,bus2=BMT123271579.1,Phases=1,LineCode=tieSwitch1,Length=0.001,Units=km,switch=T !numEQ NUMEQ:40493  - Data de conexão anterior06/2011.
new line.CTR182314 bus1=BMT123270900.1,bus2=BMT123271334.1,Phases=1,LineCode=tieSwitch1,Length=0.001,Units=km,switch=T !numEQ NUMEQ:40494  - Data de conexão anterior06/2011.
new line.CTR1994 bus1=BMT123288883.1,bus2=BMT123288897.1,Phases=1,LineCode=tieSwitch1,Length=0.001,Units=km,switch=T !numEQ NUMEQ:41954  - Data de conexão anterior06/2011.
new line.CTR224615 bus1=BMT139942954.3,bus2=BMT159144561.3,Phases=1,LineCode=tieSwitch1,Length=0.001,Units=km,switch=T !numEQ NUMEQ:217782  - Data de conexão anterior06/2011.
new line.CTR224636 bus1=BMT123273245.3,bus2=BMT177899776.3,Phases=1,LineCode=tieSwitch1,Length=0.001,Units=km,switch=T !numEQ NUMEQ:26564  - Data de conexão anterior06/2011.
new line.CTR225679 bus1=BMT123276934.1,bus2=BMT178780931.1,Phases=1,LineCode=tieSwitch1,Length=0.001,Units=km,switch=T !numEQ NUMEQ:26492  - Data de conexão anterior06/2011.
new line.CTR225686 bus1=BMT123083601.3,bus2=BMT123083608.3,Phases=1,LineCode=tieSwitch1,Length=0.001,Units=km,switch=T !numEQ NUMEQ:26485  - Data de conexão anterior06/2011.
new line.CTR225693 bus1=BMT162131995.1.2.3,bus2=BMT123082768.1.2.3,Phases=3,LineCode=tieSwitch,Length=0.001,Units=km,switch=T !numEQ NUMEQ:26489  - Data de conexão anterior06/2011.
new line.CTR225700 bus1=BMT123082782.1.2.3,bus2=BMT123082852.1.2.3,Phases=3,LineCode=tieSwitch,Length=0.001,Units=km,switch=T !numEQ NUMEQ:26490  - Data de conexão anterior06/2011.
new line.CTR225707 bus1=BMT123082803.1.2.3,bus2=BMT123082824.1.2.3,Phases=3,LineCode=tieSwitch,Length=0.001,Units=km,switch=T !numEQ NUMEQ:26491  - Data de conexão anterior06/2011.
new line.CTR225798 bus1=BMT123083594.3,bus2=BMT123083650.3,Phases=1,LineCode=tieSwitch1,Length=0.001,Units=km,switch=T !numEQ NUMEQ:26486  - Data de conexão anterior06/2011.
new line.CTR249633 bus1=BMT123270417.2,bus2=BMT123276598.2,Phases=1,LineCode=tieSwitch1,Length=0.001,Units=km,switch=T !numEQ NUMEQ:182761  - Data de conexão anterior06/2011.
new line.CTR24982 bus1=BMT123277158.2,bus2=BMT160045308.2,Phases=1,LineCode=tieSwitch1,Length=0.001,Units=km,switch=T !numEQ NUMEQ:178789  - Data de conexão anterior06/2011.
new line.CTR251026 bus1=BMT123284956.3,bus2=BMT123286076.3,Phases=1,LineCode=tieSwitch1,Length=0.001,Units=km,switch=T !numEQ NUMEQ:1878  - Data de conexão anterior06/2011.
new line.CTR27523 bus1=BMT123270935.1,bus2=BMT164016191.1,Phases=1,LineCode=tieSwitch1,Length=0.001,Units=km,switch=T !numEQ NUMEQ:178112  - Data de conexão anterior06/2011.
new line.CTR276114 bus1=BMT123271453.1,bus2=BMT123271558.1,Phases=1,LineCode=tieSwitch1,Length=0.001,Units=km,switch=T !numEQ NUMEQ:157001  - Data de conexão anterior06/2011.
new line.CTR276632 bus1=BMT123285117.3,bus2=BMT176259234.3,Phases=1,LineCode=tieSwitch1,Length=0.001,Units=km,switch=T !numEQ NUMEQ:21989  - Data de conexão anterior06/2011.
new line.CTR276639 bus1=BMT139947819.1.2.3,bus2=BMT139951361.1.2.3,Phases=3,LineCode=tieSwitch,Length=0.001,Units=km,switch=T !numEQ NUMEQ:25869  - Data de conexão anterior06/2011.
new line.CTR276646 bus1=BMT178272443.3,bus2=BMT178279171.3,Phases=1,LineCode=tieSwitch1,Length=0.001,Units=km,switch=T !numEQ NUMEQ:335779  - Data de conexão anterior06/2011.
new line.CTR101338 bus1=BMT123278845.1,bus2=BMT123279209.1,Phases=1,LineCode=tieSwitch1,Length=0.001,Units=km,switch=T !numEQ NUMEQ:104778  - Data de conexão anterior06/2011.
new line.CTR101366 bus1=BMT173751052.2,bus2=BMT121610948.2,Phases=1,LineCode=tieSwitch1,Length=0.001,Units=km,switch=T !numEQ NUMEQ:104782  - Data de conexão anterior06/2011.
new line.CTR1483 bus1=BMT167950566.1.2.3,bus2=BMT158252827.1.2.3,Phases=3,LineCode=tieSwitch,Length=0.001,Units=km,switch=T !numEQ NUMEQ:39455  - Data de conexão anterior06/2011.
new line.CTR186129 bus1=BMT123269332.1.2.3,bus2=BMT154757622.1.2.3,Phases=3,LineCode=tieSwitch,Length=0.001,Units=km,switch=T !numEQ NUMEQ:39753  - Data de conexão anterior06/2011.
new line.CTR186150 bus1=BMT123271943.3,bus2=BMT176165893.3,Phases=1,LineCode=tieSwitch1,Length=0.001,Units=km,switch=T !numEQ NUMEQ:39752  - Data de conexão anterior06/2011.
new line.CTR187277 bus1=BMT123270326.1.2.3,bus2=BMT123276647.1.2.3,Phases=3,LineCode=tieSwitch,Length=0.001,Units=km,switch=T !numEQ NUMEQ:39480  - Data de conexão anterior06/2011.
new line.CTR187291 bus1=BMT123287805.1,bus2=BMT123287812.1,Phases=1,LineCode=tieSwitch1,Length=0.001,Units=km,switch=T !numEQ NUMEQ:39475  - Data de conexão anterior06/2011.
new line.CTR187326 bus1=BMT123286916.3,bus2=BMT123286944.3,Phases=1,LineCode=tieSwitch1,Length=0.001,Units=km,switch=T !numEQ NUMEQ:39484  - Data de conexão anterior06/2011.
new line.CTR187333 bus1=BMT123276654.1.2.3,bus2=BMT178193827.1.2.3,Phases=3,LineCode=tieSwitch,Length=0.001,Units=km,switch=T !numEQ NUMEQ:39481  - Data de conexão anterior06/2011.
new line.CTR187375 bus1=BMT123286727.3,bus2=BMT161844321.3,Phases=1,LineCode=tieSwitch1,Length=0.001,Units=km,switch=T !numEQ NUMEQ:39483  - Data de conexão anterior06/2011.
new line.CTR187382 bus1=BMT123288085.1,bus2=BMT123288211.1,Phases=1,LineCode=tieSwitch1,Length=0.001,Units=km,switch=T !numEQ NUMEQ:39473  - Data de conexão anterior06/2011.
new line.CTR187389 bus1=BMT123288106.1,bus2=BMT123288176.1,Phases=1,LineCode=tieSwitch1,Length=0.001,Units=km,switch=T !numEQ NUMEQ:39474  - Data de conexão anterior06/2011.
new line.CTR187396 bus1=BMT123270249.1.2.3,bus2=BMT151528952.1.2.3,Phases=3,LineCode=tieSwitch,Length=0.001,Units=km,switch=T !numEQ NUMEQ:39478  - Data de conexão anterior06/2011.
new line.CTR233799 bus1=BMT123280091.2,bus2=BMT123280105.2,Phases=1,LineCode=tieSwitch1,Length=0.001,Units=km,switch=T !numEQ NUMEQ:24713  - Data de conexão anterior06/2011.
new line.CTR260679 bus1=BMT123288008.1,bus2=BMT174284116.1,Phases=1,LineCode=tieSwitch1,Length=0.001,Units=km,switch=T !numEQ NUMEQ:39472  - Data de conexão anterior06/2011.
new line.CTR260686 bus1=BMT123288036.1,bus2=BMT123288274.1,Phases=1,LineCode=tieSwitch1,Length=0.001,Units=km,switch=T !numEQ NUMEQ:40444  - Data de conexão anterior06/2011.
new line.CTR260693 bus1=BMT123276661.1.2.3,bus2=BMT123276668.1.2.3,Phases=3,LineCode=tieSwitch,Length=0.001,Units=km,switch=T !numEQ NUMEQ:39487  - Data de conexão anterior06/2011.
new line.CTR260819 bus1=BMT123276794.1,bus2=BMT179614974.1,Phases=1,LineCode=tieSwitch1,Length=0.001,Units=km,switch=T !numEQ NUMEQ:80366  - Data de conexão anterior06/2011.
new line.CTR260847 bus1=BMT123286923.3,bus2=BMT136387241.3,Phases=1,LineCode=tieSwitch1,Length=0.001,Units=km,switch=T !numEQ NUMEQ:26632  - Data de conexão anterior06/2011.
new line.CTR260854 bus1=BMT123286986.3,bus2=BMT123287000.3,Phases=1,LineCode=tieSwitch1,Length=0.001,Units=km,switch=T !numEQ NUMEQ:39485  - Data de conexão anterior06/2011.
new line.CTR261022 bus1=BMT123270809.1,bus2=BMT163892100.1,Phases=1,LineCode=tieSwitch1,Length=0.001,Units=km,switch=T !numEQ NUMEQ:41951  - Data de conexão anterior06/2011.
new line.CTR261029 bus1=BMT123270823.1,bus2=BMT123271663.1,Phases=1,LineCode=tieSwitch1,Length=0.001,Units=km,switch=T !numEQ NUMEQ:40490  - Data de conexão anterior06/2011.
new line.CTR261050 bus1=BMT123280084.2,bus2=BMT176943148.2,Phases=1,LineCode=tieSwitch1,Length=0.001,Units=km,switch=T !numEQ NUMEQ:80356  - Data de conexão anterior06/2011.
new line.CTR261057 bus1=BMT123280035.2,bus2=BMT123280952.2,Phases=1,LineCode=tieSwitch1,Length=0.001,Units=km,switch=T !numEQ NUMEQ:80355  - Data de conexão anterior06/2011.
new line.CTR261064 bus1=BMT123280959.2,bus2=BMT123280973.2,Phases=1,LineCode=tieSwitch1,Length=0.001,Units=km,switch=T !numEQ NUMEQ:15703  - Data de conexão anterior06/2011.
new line.CTR261106 bus1=BMT123270501.3,bus2=BMT123276325.3,Phases=1,LineCode=tieSwitch1,Length=0.001,Units=km,switch=T !numEQ NUMEQ:28126  - Data de conexão anterior06/2011.
new line.CTR261113 bus1=BMT123276724.1,bus2=BMT123281134.1,Phases=1,LineCode=tieSwitch1,Length=0.001,Units=km,switch=T !numEQ NUMEQ:80349  - Data de conexão anterior06/2011.
new line.CTR261120 bus1=BMT123276815.1.2.3,bus2=BMT178211600.1.2.3,Phases=3,LineCode=tieSwitch,Length=0.001,Units=km,switch=T !numEQ NUMEQ:15330  - Data de conexão anterior06/2011.
new line.CTR261197 bus1=BMT123276752.2,bus2=BMT123279972.2,Phases=1,LineCode=tieSwitch1,Length=0.001,Units=km,switch=T !numEQ NUMEQ:80353  - Data de conexão anterior06/2011.
new line.CTR261204 bus1=BMT123279993.2,bus2=BMT159681183.2,Phases=1,LineCode=tieSwitch1,Length=0.001,Units=km,switch=T !numEQ NUMEQ:80354  - Data de conexão anterior06/2011.
new line.CTR261274 bus1=BMT123274533.2,bus2=BMT135146463.2,Phases=1,LineCode=tieSwitch1,Length=0.001,Units=km,switch=T !numEQ NUMEQ:40487  - Data de conexão anterior06/2011.
new line.CTR261281 bus1=BMT123275002.2,bus2=BMT123275016.2,Phases=1,LineCode=tieSwitch1,Length=0.001,Units=km,switch=T !numEQ NUMEQ:15592  - Data de conexão anterior06/2011.
new line.CTR261393 bus1=BMT123277277.1.2.3,bus2=BMT174650745.1.2.3,Phases=3,LineCode=tieSwitch,Length=0.001,Units=km,switch=T !numEQ NUMEQ:80406  - Data de conexão anterior06/2011.
new line.CTR261414 bus1=BMT123277242.1.2.3,bus2=BMT123278663.1.2.3,Phases=3,LineCode=tieSwitch,Length=0.001,Units=km,switch=T !numEQ NUMEQ:80402  - Data de conexão anterior06/2011.
new line.CTR261421 bus1=BMT123278670.2,bus2=BMT123278684.2,Phases=1,LineCode=tieSwitch1,Length=0.001,Units=km,switch=T !numEQ NUMEQ:80403  - Data de conexão anterior06/2011.
new line.CTR261428 bus1=BMT123277249.1.2.3,bus2=BMT123278628.1.2.3,Phases=3,LineCode=tieSwitch,Length=0.001,Units=km,switch=T !numEQ NUMEQ:80397  - Data de conexão anterior06/2011.
new line.CTR261435 bus1=BMT123277270.2,bus2=BMT123278614.2,Phases=1,LineCode=tieSwitch1,Length=0.001,Units=km,switch=T !numEQ NUMEQ:80404  - Data de conexão anterior06/2011.
new line.CTR261449 bus1=BMT123286832.2,bus2=BMT123286846.2,Phases=1,LineCode=tieSwitch1,Length=0.001,Units=km,switch=T !numEQ NUMEQ:146004  - Data de conexão anterior06/2011.
new line.CTR261526 bus1=BMT123283640.3,bus2=BMT151364963.3,Phases=1,LineCode=tieSwitch1,Length=0.001,Units=km,switch=T !numEQ NUMEQ:101376  - Data de conexão anterior06/2011.
new line.CTR321768 bus1=BMT123273938.3,bus2=BMT164507388.3,Phases=1,LineCode=tieSwitch1,Length=0.001,Units=km,switch=T !numEQ NUMEQ:220570  - Data de conexão anterior06/2011.
new line.CTR321789 bus1=BMT123273140.3,bus2=BMT151364267.3,Phases=1,LineCode=tieSwitch1,Length=0.001,Units=km,switch=T !numEQ NUMEQ:220571  - Data de conexão anterior06/2011.
new line.CTR321817 bus1=BMT123272958.3,bus2=BMT151364129.3,Phases=1,LineCode=tieSwitch1,Length=0.001,Units=km,switch=T !numEQ NUMEQ:220572  - Data de conexão anterior06/2011.
new line.CTR35335 bus1=BMT123288463.1,bus2=BMT123288477.1,Phases=1,LineCode=tieSwitch1,Length=0.001,Units=km,switch=T !numEQ NUMEQ:159344  - Data de conexão anterior06/2011.
new line.CTR35342 bus1=BMT123275534.2,bus2=BMT123275562.2,Phases=1,LineCode=tieSwitch1,Length=0.001,Units=km,switch=T !numEQ NUMEQ:159345  - Data de conexão anterior06/2011.
new line.CTR35370 bus1=BMT123286979.3,bus2=BMT123287028.3,Phases=1,LineCode=tieSwitch1,Length=0.001,Units=km,switch=T !numEQ NUMEQ:159346  - Data de conexão anterior06/2011.
new line.CTR35601 bus1=BMT123275905.1,bus2=BMT123276129.1,Phases=1,LineCode=tieSwitch1,Length=0.001,Units=km,switch=T !numEQ NUMEQ:159070  - Data de conexão anterior06/2011.
new line.CTR35615 bus1=BMT123271474.1,bus2=BMT123271523.1,Phases=1,LineCode=tieSwitch1,Length=0.001,Units=km,switch=T !numEQ NUMEQ:159072  - Data de conexão anterior06/2011.
new line.CTR38282 bus1=BMT123270116.1,bus2=BMT123289471.1,Phases=1,LineCode=tieSwitch1,Length=0.001,Units=km,switch=T !numEQ NUMEQ:158318  - Data de conexão anterior06/2011.
new line.CTR135771 bus1=BMT123276871.1.2.3,bus2=BMT123278712.1.2.3,Phases=3,LineCode=tieSwitch,Length=0.001,Units=km,switch=T !numEQ NUMEQ:80392  - Data de conexão anterior06/2011.
new line.CTR135778 bus1=BMT123272951.3,bus2=BMT164410212.3,Phases=1,LineCode=tieSwitch1,Length=0.001,Units=km,switch=T !numEQ NUMEQ:83695  - Data de conexão anterior06/2011.
new line.CTR135785 bus1=BMT123273217.3,bus2=BMT166899503.3,Phases=1,LineCode=tieSwitch1,Length=0.001,Units=km,switch=T !numEQ NUMEQ:83689  - Data de conexão anterior06/2011.
new line.CTR135799 bus1=BMT123274526.2,bus2=BMT123274967.2,Phases=1,LineCode=tieSwitch1,Length=0.001,Units=km,switch=T !numEQ NUMEQ:1842  - Data de conexão anterior06/2011.
new line.CTR135834 bus1=BMT123278369.3,bus2=BMT169550215.3,Phases=1,LineCode=tieSwitch1,Length=0.001,Units=km,switch=T !numEQ NUMEQ:80415  - Data de conexão anterior06/2011.
new line.CTR135869 bus1=BMT123277459.2,bus2=BMT177379856.2,Phases=1,LineCode=tieSwitch1,Length=0.001,Units=km,switch=T !numEQ NUMEQ:80421  - Data de conexão anterior06/2011.
new line.CTR135890 bus1=BMT123277739.2,bus2=BMT123277802.2,Phases=1,LineCode=tieSwitch1,Length=0.001,Units=km,switch=T !numEQ NUMEQ:80428  - Data de conexão anterior06/2011.
new line.CTR135897 bus1=BMT123277746.2,bus2=BMT123277774.2,Phases=1,LineCode=tieSwitch1,Length=0.001,Units=km,switch=T !numEQ NUMEQ:80429  - Data de conexão anterior06/2011.
new line.CTR135911 bus1=BMT123277655.2,bus2=BMT123277683.2,Phases=1,LineCode=tieSwitch1,Length=0.001,Units=km,switch=T !numEQ NUMEQ:307555  - Data de conexão anterior06/2011.
new line.CTR135925 bus1=BMT123278285.3,bus2=BMT161197504.3,Phases=1,LineCode=tieSwitch1,Length=0.001,Units=km,switch=T !numEQ NUMEQ:80410  - Data de conexão anterior06/2011.
new line.CTR135932 bus1=BMT123278306.3,bus2=BMT135279757.3,Phases=1,LineCode=tieSwitch1,Length=0.001,Units=km,switch=T !numEQ NUMEQ:80414  - Data de conexão anterior06/2011.
new line.CTR135939 bus1=BMT135121872.3,bus2=BMT135281801.3,Phases=1,LineCode=tieSwitch1,Length=0.001,Units=km,switch=T !numEQ NUMEQ:80434  - Data de conexão anterior06/2011.
new line.CTR135946 bus1=BMT123277921.3,bus2=BMT162308377.3,Phases=1,LineCode=tieSwitch1,Length=0.001,Units=km,switch=T !numEQ NUMEQ:80435  - Data de conexão anterior06/2011.
new line.CTR135953 bus1=BMT123277585.2,bus2=BMT123277718.2,Phases=1,LineCode=tieSwitch1,Length=0.001,Units=km,switch=T !numEQ NUMEQ:80427  - Data de conexão anterior06/2011.
new line.CTR135960 bus1=BMT123277529.2,bus2=BMT177287380.2,Phases=1,LineCode=tieSwitch1,Length=0.001,Units=km,switch=T !numEQ NUMEQ:80448  - Data de conexão anterior06/2011.
new line.CTR135974 bus1=BMT123277571.2,bus2=BMT123277830.2,Phases=1,LineCode=tieSwitch1,Length=0.001,Units=km,switch=T !numEQ NUMEQ:80451  - Data de conexão anterior06/2011.
new line.CTR136730 bus1=BMT123278495.3,bus2=BMT141476766.3,Phases=1,LineCode=tieSwitch1,Length=0.001,Units=km,switch=T !numEQ NUMEQ:80348  - Data de conexão anterior06/2011.
new line.CTR136751 bus1=BMT123280406.2,bus2=BMT170185684.2,Phases=1,LineCode=tieSwitch1,Length=0.001,Units=km,switch=T !numEQ NUMEQ:80364  - Data de conexão anterior06/2011.
new line.CTR136758 bus1=BMT123278516.3,bus2=BMT159268313.3,Phases=1,LineCode=tieSwitch1,Length=0.001,Units=km,switch=T !numEQ NUMEQ:80346  - Data de conexão anterior06/2011.
new line.CTR154377 bus1=BMT123282191.2,bus2=BMT151364666.2,Phases=1,LineCode=tieSwitch1,Length=0.001,Units=km,switch=T !numEQ NUMEQ:25679  - Data de conexão anterior06/2011.
new line.CTR217468 bus1=BMT5636728.1.2.3,bus2=BMT162131999.1.2.3,Phases=3,LineCode=tieSwitch,Length=0.001,Units=km,switch=T !numEQ NUMEQ:28175  - Data de conexão anterior06/2011.
new line.CTR217881 bus1=BMT123279146.1,bus2=BMT123279174.1,Phases=1,LineCode=tieSwitch1,Length=0.001,Units=km,switch=T !numEQ NUMEQ:28390  - Data de conexão anterior06/2011.
new line.CTR218203 bus1=BMT123284942.3,bus2=BMT123286125.3,Phases=1,LineCode=tieSwitch1,Length=0.001,Units=km,switch=T !numEQ NUMEQ:28065  - Data de conexão anterior06/2011.
new line.CTR218413 bus1=BMT123276710.1.2.3,bus2=BMT174698629.1.2.3,Phases=3,LineCode=tieSwitch,Length=0.001,Units=km,switch=T !numEQ NUMEQ:28087  - Data de conexão anterior06/2011.
new line.CTR240001 bus1=BMT123284613.2,bus2=BMT123284669.2,Phases=1,LineCode=tieSwitch1,Length=0.001,Units=km,switch=T !numEQ NUMEQ:15966  - Data de conexão anterior06/2011.
new line.CTR240015 bus1=BMT123284718.2,bus2=BMT163144415.2,Phases=1,LineCode=tieSwitch1,Length=0.001,Units=km,switch=T !numEQ NUMEQ:15967  - Data de conexão anterior06/2011.
new line.CTR240708 bus1=BMT123082992.3,bus2=BMT123083699.3,Phases=1,LineCode=tieSwitch1,Length=0.001,Units=km,switch=T !numEQ NUMEQ:15741  - Data de conexão anterior06/2011.
new line.CTR240715 bus1=BMT123083104.3,bus2=BMT123083125.3,Phases=1,LineCode=tieSwitch1,Length=0.001,Units=km,switch=T !numEQ NUMEQ:15742  - Data de conexão anterior06/2011.
new line.CTR241380 bus1=BMT123278740.1.2.3,bus2=BMT123278747.1.2.3,Phases=3,LineCode=tieSwitch,Length=0.001,Units=km,switch=T !numEQ NUMEQ:15555  - Data de conexão anterior06/2011.
new line.CTR241429 bus1=BMT123278642.1.2.3,bus2=BMT123278649.1.2.3,Phases=3,LineCode=tieSwitch,Length=0.001,Units=km,switch=T !numEQ NUMEQ:15569  - Data de conexão anterior06/2011.
new line.CTR264886 bus1=BMT123286363.3,bus2=BMT123286566.3,Phases=1,LineCode=tieSwitch1,Length=0.001,Units=km,switch=T !numEQ NUMEQ:178024  - Data de conexão anterior06/2011.
new line.CTR265145 bus1=BMT123289681.2,bus2=BMT123289835.2,Phases=1,LineCode=tieSwitch1,Length=0.001,Units=km,switch=T !numEQ NUMEQ:39442  - Data de conexão anterior06/2011.
new line.CTR265306 bus1=BMT123289128.1,bus2=BMT167170560.1,Phases=1,LineCode=tieSwitch1,Length=0.001,Units=km,switch=T !numEQ NUMEQ:41956  - Data de conexão anterior06/2011.
new line.CTR266314 bus1=BMT123286860.2,bus2=BMT5006014.2,Phases=1,LineCode=tieSwitch1,Length=0.001,Units=km,switch=T !numEQ NUMEQ:146005  - Data de conexão anterior06/2011.
new line.CTR267392 bus1=BMT123279671.1,bus2=BMT150502034.1,Phases=1,LineCode=tieSwitch1,Length=0.001,Units=km,switch=T !numEQ NUMEQ:25863  - Data de conexão anterior06/2011.
new line.CTR267602 bus1=BMT123082698.1.2.3,bus2=BMT179951684.1.2.3,Phases=3,LineCode=tieSwitch,Length=0.001,Units=km,switch=T !numEQ NUMEQ:26487  - Data de conexão anterior06/2011.
new line.CTR290023 bus1=BMT123288925.1,bus2=BMT168071047.1,Phases=1,LineCode=tieSwitch1,Length=0.001,Units=km,switch=T !numEQ NUMEQ:195660  - Data de conexão anterior06/2011.
new line.CTR324890 bus1=BMT123282688.2,bus2=BMT151364758.2,Phases=1,LineCode=tieSwitch1,Length=0.001,Units=km,switch=T !numEQ NUMEQ:221216  - Data de conexão anterior06/2011.
new line.CTR325674 bus1=BMT123276038.1,bus2=BMT149693806.1,Phases=1,LineCode=tieSwitch1,Length=0.001,Units=km,switch=T !numEQ NUMEQ:220930  - Data de conexão anterior06/2011.
new line.CTR32731 bus1=BMT123287847.1,bus2=BMT123287875.1,Phases=1,LineCode=tieSwitch1,Length=0.001,Units=km,switch=T !numEQ NUMEQ:175852  - Data de conexão anterior06/2011.
new line.CTR32738 bus1=BMT123286790.2,bus2=BMT123286804.2,Phases=1,LineCode=tieSwitch1,Length=0.001,Units=km,switch=T !numEQ NUMEQ:175853  - Data de conexão anterior06/2011.
new line.CTR36406 bus1=BMT123278138.3,bus2=BMT168023573.3,Phases=1,LineCode=tieSwitch1,Length=0.001,Units=km,switch=T !numEQ NUMEQ:158925  - Data de conexão anterior06/2011.
new line.CTR36413 bus1=BMT123278236.3,bus2=BMT135281759.3,Phases=1,LineCode=tieSwitch1,Length=0.001,Units=km,switch=T !numEQ NUMEQ:158926  - Data de conexão anterior06/2011.
new line.CTR36420 bus1=BMT123278152.3,bus2=BMT171138932.3,Phases=1,LineCode=tieSwitch1,Length=0.001,Units=km,switch=T !numEQ NUMEQ:158927  - Data de conexão anterior06/2011.
new line.CTR364986 bus1=BMT123083433.3,bus2=BMT123083524.3,Phases=1,LineCode=tieSwitch1,Length=0.001,Units=km,switch=T !numEQ NUMEQ:228089  - Data de conexão anterior06/2011.
new line.CTR421189 bus1=BMT135223414.1,bus2=BMT135223512.1,Phases=1,LineCode=tieSwitch1,Length=0.001,Units=km,switch=T !numEQ NUMEQ:221244  - Data de conexão anterior06/2011.
new line.CTR421245 bus1=BMT158166043.3,bus2=BMT158166396.3,Phases=1,LineCode=tieSwitch1,Length=0.001,Units=km,switch=T !numEQ NUMEQ:220932  - Data de conexão anterior06/2011.
new line.CTR421686 bus1=BMT135314624.1,bus2=BMT135318012.1,Phases=1,LineCode=tieSwitch1,Length=0.001,Units=km,switch=T !numEQ NUMEQ:218015  - Data de conexão anterior06/2011.
new line.CTR104383 bus1=BMT123284130.3,bus2=BMT159033162.3,Phases=1,LineCode=tieSwitch1,Length=0.001,Units=km,switch=T !numEQ NUMEQ:101378  - Data de conexão anterior06/2011.
new line.CTR104411 bus1=BMT123280910.2,bus2=BMT161127021.2,Phases=1,LineCode=tieSwitch1,Length=0.001,Units=km,switch=T !numEQ NUMEQ:101382  - Data de conexão anterior06/2011.
new line.CTR133720 bus1=BMT123272461.1,bus2=BMT150227027.1,Phases=1,LineCode=tieSwitch1,Length=0.001,Units=km,switch=T !numEQ NUMEQ:81090  - Data de conexão anterior06/2011.
new line.CTR133951 bus1=BMT123082677.1.2.3,bus2=BMT123082901.1.2.3,Phases=3,LineCode=tieSwitch,Length=0.001,Units=km,switch=T !numEQ NUMEQ:81147  - Data de conexão anterior06/2011.
new line.CTR134056 bus1=BMT123083629.3,bus2=BMT160512534.3,Phases=1,LineCode=tieSwitch1,Length=0.001,Units=km,switch=T !numEQ NUMEQ:81172  - Data de conexão anterior06/2011.
new line.CTR135477 bus1=BMT123280210.2,bus2=BMT155339400.2,Phases=1,LineCode=tieSwitch1,Length=0.001,Units=km,switch=T !numEQ NUMEQ:80365  - Data de conexão anterior06/2011.
new line.CTR135491 bus1=BMT123276899.1.2.3,bus2=BMT123277039.1.2.3,Phases=3,LineCode=tieSwitch,Length=0.001,Units=km,switch=T !numEQ NUMEQ:80441  - Data de conexão anterior06/2011.
new line.CTR135498 bus1=BMT123280819.2,bus2=BMT123280903.2,Phases=1,LineCode=tieSwitch1,Length=0.001,Units=km,switch=T !numEQ NUMEQ:155907  - Data de conexão anterior06/2011.
new line.CTR135519 bus1=BMT123280392.2,bus2=BMT123280539.2,Phases=1,LineCode=tieSwitch1,Length=0.001,Units=km,switch=T !numEQ NUMEQ:80362  - Data de conexão anterior06/2011.
new line.CTR135526 bus1=BMT123280567.2,bus2=BMT123280686.2,Phases=1,LineCode=tieSwitch1,Length=0.001,Units=km,switch=T !numEQ NUMEQ:80363  - Data de conexão anterior06/2011.
new line.CTR135533 bus1=BMT123279342.1,bus2=BMT150502080.1,Phases=1,LineCode=tieSwitch1,Length=0.001,Units=km,switch=T !numEQ NUMEQ:80368  - Data de conexão anterior06/2011.
new line.CTR135554 bus1=BMT123279370.1,bus2=BMT150502075.1,Phases=1,LineCode=tieSwitch1,Length=0.001,Units=km,switch=T !numEQ NUMEQ:80371  - Data de conexão anterior06/2011.
new line.CTR135561 bus1=BMT123279377.1,bus2=BMT171190853.1,Phases=1,LineCode=tieSwitch1,Length=0.001,Units=km,switch=T !numEQ NUMEQ:80372  - Data de conexão anterior06/2011.
new line.CTR135575 bus1=BMT123276836.1.2.3,bus2=BMT178594432.1.2.3,Phases=3,LineCode=tieSwitch,Length=0.001,Units=km,switch=T !numEQ NUMEQ:80376  - Data de conexão anterior06/2011.
new line.CTR135596 bus1=BMT123276892.1.2.3,bus2=BMT135152749.1.2.3,Phases=3,LineCode=tieSwitch,Length=0.001,Units=km,switch=T !numEQ NUMEQ:156696  - Data de conexão anterior06/2011.
new line.CTR135645 bus1=BMT123280742.2,bus2=BMT123280770.2,Phases=1,LineCode=tieSwitch1,Length=0.001,Units=km,switch=T !numEQ NUMEQ:307556  - Data de conexão anterior06/2011.
new line.CTR135652 bus1=BMT123278866.2,bus2=BMT123279020.2,Phases=1,LineCode=tieSwitch1,Length=0.001,Units=km,switch=T !numEQ NUMEQ:80380  - Data de conexão anterior06/2011.
new line.CTR135659 bus1=BMT123278901.2,bus2=BMT170505608.2,Phases=1,LineCode=tieSwitch1,Length=0.001,Units=km,switch=T !numEQ NUMEQ:80381  - Data de conexão anterior06/2011.
new line.CTR135666 bus1=BMT123278908.2,bus2=BMT123278978.2,Phases=1,LineCode=tieSwitch1,Length=0.001,Units=km,switch=T !numEQ NUMEQ:80382  - Data de conexão anterior06/2011.
new line.CTR135673 bus1=BMT123279048.1,bus2=BMT173226615.1,Phases=1,LineCode=tieSwitch1,Length=0.001,Units=km,switch=T !numEQ NUMEQ:80383  - Data de conexão anterior06/2011.
new line.CTR1357 bus1=BMT123274652.2,bus2=BMT123274785.2,Phases=1,LineCode=tieSwitch1,Length=0.001,Units=km,switch=T !numEQ NUMEQ:38885  - Data de conexão anterior06/2011.
new line.CTR135708 bus1=BMT123276843.3,bus2=BMT123278803.3,Phases=1,LineCode=tieSwitch1,Length=0.001,Units=km,switch=T !numEQ NUMEQ:80388  - Data de conexão anterior06/2011.
new line.CTR135729 bus1=BMT123278733.1.2.3,bus2=BMT123278761.1.2.3,Phases=3,LineCode=tieSwitch,Length=0.001,Units=km,switch=T !numEQ NUMEQ:80393  - Data de conexão anterior06/2011.
new line.CTR135736 bus1=BMT123277235.1.2.3,bus2=BMT123278698.1.2.3,Phases=3,LineCode=tieSwitch,Length=0.001,Units=km,switch=T !numEQ NUMEQ:80395  - Data de conexão anterior06/2011.
new line.CTR135764 bus1=BMT123276864.1.2.3,bus2=BMT123278789.1.2.3,Phases=3,LineCode=tieSwitch,Length=0.001,Units=km,switch=T !numEQ NUMEQ:80390  - Data de conexão anterior06/2011.
new line.CTR1441 bus1=BMT123285075.3,bus2=BMT123285418.3,Phases=1,LineCode=tieSwitch1,Length=0.001,Units=km,switch=T !numEQ NUMEQ:146695  - Data de conexão anterior06/2011.