new loadshape.c3013673746 npts=24,interval=1.0,mult=(0 0 0 0 0 0.003 0.244 0.942 1.906 2.743 3.216 3.279 3.33 3.03 2.397 1.767 0.908 0.228 0.007 0 0 0 0 0)
new generator.3013673746 bus1=BMT174735726.1.2.3,Phases=3,kv=13.800000000,kW=217.338709677,pf=0.92,model=1,daily=c3013673746,status=Variable
new loadshape.c3013673747 npts=24,interval=1.0,mult=(0 0 0 0 0 0.003 0.244 0.942 1.906 2.743 3.216 3.279 3.33 3.03 2.397 1.767 0.908 0.228 0.007 0 0 0 0 0)
new generator.3013673747 bus1=BMT174735738.1.2.3,Phases=3,kv=13.800000000,kW=214.516129032,pf=0.92,model=1,daily=c3013673747,status=Variable
