new line.RML10034631 bus1=BBT680868.2.0,bus2=RML1010034631.2.0,Phases=1,Linecode=CABBTG01_4_1,Length=0.017000000,Units=km
new line.RML10035106 bus1=BBT5415857.1.2.0,bus2=RML1010035106.1.2.0,Phases=2,Linecode=CABBTG05_4_2,Length=0.017000000,Units=km
new line.RML10062977 bus1=BBT3470760.1.0,bus2=RML1010062977.1.0,Phases=1,Linecode=CABBTG02_4_1,Length=0.017000000,Units=km
new line.RML10063084 bus1=BBT72354433.1.2.0,bus2=RML1010063084.1.2.0,Phases=2,Linecode=CABBTG05_4_2,Length=0.017000000,Units=km
new line.RML10063514 bus1=BBT145983135.1.2.0,bus2=RML1010063514.1.2.0,Phases=2,Linecode=CABBTG05_4_2,Length=0.017000000,Units=km
new line.RML10063522 bus1=BBT148130212.1.2.0,bus2=RML1010063522.1.2.0,Phases=2,Linecode=CABBTG05_4_2,Length=0.017000000,Units=km
new line.RML10063696 bus1=BBT140410484.1.2.0,bus2=RML1010063696.1.2.0,Phases=2,Linecode=CABBTG05_4_2,Length=0.017000000,Units=km
new line.RML10063765 bus1=BBT1834720.1.0,bus2=RML1010063765.1.0,Phases=1,Linecode=CABBTG02_4_1,Length=0.026000000,Units=km
new line.RML10093073 bus1=BBT1763635.1.2.0,bus2=RML1010093073.1.2.0,Phases=2,Linecode=CABBTG05_4_2,Length=0.017000000,Units=km
new line.RML10124515 bus1=BBT2022495.1.0,bus2=RML1010124515.1.0,Phases=1,Linecode=CABBTG02_4_1,Length=0.017000000,Units=km
new line.RML10151241 bus1=BBT3469570.1.2.0,bus2=RML1010151241.1.2.0,Phases=2,Linecode=CABBTG05_4_2,Length=0.017000000,Units=km
new line.RML10152577 bus1=BBT1942254.1.0,bus2=RML1010152577.1.0,Phases=1,Linecode=CABBTG02_4_1,Length=0.017000000,Units=km
new line.RML10152916 bus1=BBT92200966.1.2.0,bus2=RML1010152916.1.2.0,Phases=2,Linecode=CABBTG05_4_2,Length=0.017000000,Units=km
new line.RML10152922 bus1=BBT1962092.1.2.0,bus2=RML1010152922.1.2.0,Phases=2,Linecode=CABBTG05_4_2,Length=0.017000000,Units=km
new line.RML10153241 bus1=BBT1948554.1.2.0,bus2=RML1010153241.1.2.0,Phases=2,Linecode=CABBTG05_4_2,Length=0.029000000,Units=km
new line.RML10153434 bus1=BBT149559855.1.2.0,bus2=RML1010153434.1.2.0,Phases=2,Linecode=CABBTG05_4_2,Length=0.017000000,Units=km
new line.RML10181037 bus1=BBT160197926.2.0,bus2=RML1010181037.2.0,Phases=1,Linecode=CABBTG02_4_1,Length=0.017000000,Units=km
new line.RML10183241 bus1=BBT2199000.1.0,bus2=RML1010183241.1.0,Phases=1,Linecode=CABBTG02_4_1,Length=0.017000000,Units=km
new line.RML10183778 bus1=BBT129659933.2.0,bus2=RML1010183778.2.0,Phases=1,Linecode=CABBTG02_4_1,Length=0.029000000,Units=km
new line.RML10211326 bus1=BBT86660676.2.0,bus2=RML1010211326.2.0,Phases=1,Linecode=CABBTG02_4_1,Length=0.017000000,Units=km
new line.RML10213875 bus1=BBT5342448.1.0,bus2=RML1010213875.1.0,Phases=1,Linecode=CABBTG02_4_1,Length=0.017000000,Units=km
new line.RML10241374 bus1=BBT4700184.1.0,bus2=RML1010241374.1.0,Phases=1,Linecode=CABBTG02_4_1,Length=0.029000000,Units=km
new line.RML10241576 bus1=BBT22801827.1.0,bus2=RML1010241576.1.0,Phases=1,Linecode=CABBTG02_4_1,Length=0.017000000,Units=km
new line.RML10242899 bus1=BBT1584722.1.0,bus2=RML1010242899.1.0,Phases=1,Linecode=CABBTG02_4_1,Length=0.017000000,Units=km
new line.RML10325808 bus1=BBT1949940.1.0,bus2=RML1010325808.1.0,Phases=1,Linecode=CABBTG01_4_1,Length=0.017000000,Units=km
new line.RML10355463 bus1=BBT31155011.1.2.0,bus2=RML1010355463.1.2.0,Phases=2,Linecode=CABBTG05_4_2,Length=0.017000000,Units=km
new line.RML10356221 bus1=BBT1774352.1.2.0,bus2=RML1010356221.1.2.0,Phases=2,Linecode=CABBTG05_4_2,Length=0.017000000,Units=km
new line.RML10357612 bus1=BBT31155011.1.0,bus2=RML1010357612.1.0,Phases=1,Linecode=CABBTG02_4_1,Length=0.017000000,Units=km
new line.RML10357615 bus1=BBT3259766.2.0,bus2=RML1010357615.2.0,Phases=1,Linecode=CABBTG02_4_1,Length=0.029000000,Units=km
new line.RML10384992 bus1=BBT3494497.1.2.0,bus2=RML1010384992.1.2.0,Phases=2,Linecode=CABBTG05_4_2,Length=0.017000000,Units=km
new line.RML10385012 bus1=BBT680238.2.0,bus2=RML1010385012.2.0,Phases=1,Linecode=CABBTG02_4_1,Length=0.017000000,Units=km
new line.RML10387511 bus1=BBT134680179.2.0,bus2=RML1010387511.2.0,Phases=1,Linecode=CABBTG02_4_1,Length=0.017000000,Units=km
new line.RML10407786 bus1=BBT1864778.1.2.0,bus2=RML1010407786.1.2.0,Phases=2,Linecode=CABBTG05_4_2,Length=0.022000000,Units=km
new line.RML10438012 bus1=BBT4718860.2.0,bus2=RML1010438012.2.0,Phases=1,Linecode=CABBTG02_4_1,Length=0.017000000,Units=km
new line.RML10462838 bus1=BBT154367990.1.2.0,bus2=RML1010462838.1.2.0,Phases=2,Linecode=CABBTG05_4_2,Length=0.017000000,Units=km
new line.RML10462929 bus1=BBT2164763.1.2.0,bus2=RML1010462929.1.2.0,Phases=2,Linecode=CABBTG05_4_2,Length=0.017000000,Units=km
new line.RML10463320 bus1=BBT2164749.1.2.0,bus2=RML1010463320.1.2.0,Phases=2,Linecode=CABBTG05_4_2,Length=0.017000000,Units=km
new line.RML10031625 bus1=BBT2022663.1.2.0,bus2=RML1010031625.1.2.0,Phases=2,Linecode=CABBTG04_4_2,Length=0.017000000,Units=km
new line.RML10077367 bus1=BBT1778993.1.2.0,bus2=RML1010077367.1.2.0,Phases=2,Linecode=CABBTG05_4_2,Length=0.017000000,Units=km
new line.RML10078534 bus1=BBT680994.1.2.0,bus2=RML1010078534.1.2.0,Phases=2,Linecode=CABBTG13_4_2,Length=0.017000000,Units=km
new line.RML10103707 bus1=BBT149017266.1.2.0,bus2=RML1010103707.1.2.0,Phases=2,Linecode=CABBTG05_4_2,Length=0.012000000,Units=km
new line.RML10104716 bus1=BBT1950038.2.0,bus2=RML1010104716.2.0,Phases=1,Linecode=CABBTG02_4_1,Length=0.029000000,Units=km
new line.RML1013830 bus1=BBT736406.2.0,bus2=RML1001013830.2.0,Phases=1,Linecode=CABBTG01_4_1,Length=0.017000000,Units=km
new line.RML10191047 bus1=BBT22806867.1.0,bus2=RML1010191047.1.0,Phases=1,Linecode=CABBTG02_4_1,Length=0.017000000,Units=km
new line.RML10217677 bus1=BBT149705734.1.2.0,bus2=RML1010217677.1.2.0,Phases=2,Linecode=CABBTG05_4_2,Length=0.017000000,Units=km
new line.RML10219438 bus1=BBT1950045.2.0,bus2=RML1010219438.2.0,Phases=1,Linecode=CABBTG02_4_1,Length=0.029000000,Units=km
new line.RML10219447 bus1=BBT3259787.1.0,bus2=RML1010219447.1.0,Phases=1,Linecode=CABBTG02_4_1,Length=0.029000000,Units=km
new line.RML10219459 bus1=BBT1950045.1.0,bus2=RML1010219459.1.0,Phases=1,Linecode=CABBTG02_4_1,Length=0.029000000,Units=km
new line.RML10219474 bus1=BBT142876206.1.0,bus2=RML1010219474.1.0,Phases=1,Linecode=CABBTG01_4_1,Length=0.017000000,Units=km
new line.RML10219512 bus1=BBT1946818.1.2.0,bus2=RML1010219512.1.2.0,Phases=2,Linecode=CABBTG05_4_2,Length=0.029000000,Units=km
new line.RML10219677 bus1=BBT624791.1.0,bus2=RML1010219677.1.0,Phases=1,Linecode=CABBTG02_4_1,Length=0.029000000,Units=km
new line.RML10220120 bus1=BBT1996287.2.0,bus2=RML1010220120.2.0,Phases=1,Linecode=CABBTG02_4_1,Length=0.017000000,Units=km
new line.RML10253800 bus1=BBT1946398.1.0,bus2=RML1010253800.1.0,Phases=1,Linecode=CABBTG02_4_1,Length=0.017000000,Units=km
new line.RML10254397 bus1=BBT1584295.2.0,bus2=RML1010254397.2.0,Phases=1,Linecode=CABBTG02_4_1,Length=0.029000000,Units=km
new line.RML10254493 bus1=BBT5326019.2.0,bus2=RML1010254493.2.0,Phases=1,Linecode=CABBTG02_4_1,Length=0.029000000,Units=km
new line.RML10284617 bus1=BBT2022026.1.2.0,bus2=RML1010284617.1.2.0,Phases=2,Linecode=CABBTG13_4_2,Length=0.017000000,Units=km
new line.RML10284740 bus1=BBT1761906.1.2.0,bus2=RML1010284740.1.2.0,Phases=2,Linecode=CABBTG05_4_2,Length=0.017000000,Units=km
new line.RML10284747 bus1=BBT4536881.1.2.0,bus2=RML1010284747.1.2.0,Phases=2,Linecode=CABBTG05_4_2,Length=0.017000000,Units=km
new line.RML1031204 bus1=BBT756328.1.2.3.0,bus2=RML1001031204.1.2.3.0,Phases=3,Linecode=CABBTG07_4_3,Length=0.017000000,Units=km
new line.RML10371420 bus1=BBT152619611.1.2.0,bus2=RML1010371420.1.2.0,Phases=2,Linecode=CABBTG05_4_2,Length=0.025000000,Units=km
new line.RML10371491 bus1=BBT152727667.1.2.0,bus2=RML1010371491.1.2.0,Phases=2,Linecode=CABBTG05_4_2,Length=0.017000000,Units=km
new line.RML10373264 bus1=BBT3258478.1.0,bus2=RML1010373264.1.0,Phases=1,Linecode=CABBTG02_4_1,Length=0.029000000,Units=km
new line.RML10373275 bus1=BBT3259766.1.0,bus2=RML1010373275.1.0,Phases=1,Linecode=CABBTG02_4_1,Length=0.029000000,Units=km
new line.RML10399780 bus1=BBT153500669.2.0,bus2=RML1010399780.2.0,Phases=1,Linecode=CABBTG02_4_1,Length=0.017000000,Units=km
new line.RML10399824 bus1=BBT1946860.1.0,bus2=RML1010399824.1.0,Phases=1,Linecode=CABBTG02_4_1,Length=0.029000000,Units=km
new line.RML10399828 bus1=BBT1946839.1.0,bus2=RML1010399828.1.0,Phases=1,Linecode=CABBTG02_4_1,Length=0.029000000,Units=km
new line.RML10400137 bus1=BBT2327142.1.2.0,bus2=RML1010400137.1.2.0,Phases=2,Linecode=CABBTG05_4_2,Length=0.017000000,Units=km
new line.RML10428064 bus1=BBT6486731.1.0,bus2=RML1010428064.1.0,Phases=1,Linecode=CABBTG02_4_1,Length=0.029000000,Units=km
new line.RML10473990 bus1=BBT5387990.1.0,bus2=RML1010473990.1.0,Phases=1,Linecode=CABBTG02_4_1,Length=0.029000000,Units=km
new line.RML10474047 bus1=BBT155192663.1.2.0,bus2=RML1010474047.1.2.0,Phases=2,Linecode=CABBTG05_4_2,Length=0.019000000,Units=km
new line.RML10474197 bus1=BBT3259745.2.0,bus2=RML1010474197.2.0,Phases=1,Linecode=CABBTG02_4_1,Length=0.017000000,Units=km
new line.RML10477320 bus1=BBT154571844.1.2.0,bus2=RML1010477320.1.2.0,Phases=2,Linecode=CABBTG05_4_2,Length=0.017000000,Units=km
new line.RML10505966 bus1=BBT163892224.1.2.0,bus2=RML1010505966.1.2.0,Phases=2,Linecode=CABBTG05_4_2,Length=0.015000000,Units=km
new line.RML10506448 bus1=BBT1771384.2.0,bus2=RML1010506448.2.0,Phases=1,Linecode=CABBT802_4_1,Length=0.030000000,Units=km
new line.RML10049718 bus1=BBT6486787.1.0,bus2=RML1010049718.1.0,Phases=1,Linecode=CABBTG01_4_1,Length=0.029000000,Units=km
new line.RML10050142 bus1=BBT3176718.2.0,bus2=RML1010050142.2.0,Phases=1,Linecode=CABBTG01_4_1,Length=0.017000000,Units=km
new line.RML10071774 bus1=BBT86660823.1.2.0,bus2=RML1010071774.1.2.0,Phases=2,Linecode=CABBTG05_4_2,Length=0.017000000,Units=km
new line.RML10071805 bus1=BBT27566314.1.2.0,bus2=RML1010071805.1.2.0,Phases=2,Linecode=CABBTG05_4_2,Length=0.017000000,Units=km
new line.RML10099731 bus1=BBT149693756.1.2.0,bus2=RML1010099731.1.2.0,Phases=2,Linecode=CABBTG05_4_2,Length=0.017000000,Units=km
new line.RML10101459 bus1=BBT2022873.1.2.0,bus2=RML1010101459.1.2.0,Phases=2,Linecode=CABBTG05_4_2,Length=0.017000000,Units=km
new line.RML10160748 bus1=BBT3889927.1.0,bus2=RML1010160748.1.0,Phases=1,Linecode=CABBTG02_4_1,Length=0.017000000,Units=km
new line.RML10160750 bus1=BBT149693659.1.2.0,bus2=RML1010160750.1.2.0,Phases=2,Linecode=CABBTG05_4_2,Length=0.017000000,Units=km
new line.RML10192958 bus1=BBT140046708.2.0,bus2=RML1010192958.2.0,Phases=1,Linecode=CABBTG02_4_1,Length=0.017000000,Units=km
new line.RML10193747 bus1=BBT22806867.1.0,bus2=RML1010193747.1.0,Phases=1,Linecode=CABBTG02_4_1,Length=0.017000000,Units=km
new line.RML10193748 bus1=BBT2008726.2.0,bus2=RML1010193748.2.0,Phases=1,Linecode=CABBTG02_4_1,Length=0.017000000,Units=km
new line.RML10194001 bus1=BBT1949863.2.0,bus2=RML1010194001.2.0,Phases=1,Linecode=CABBTG02_4_1,Length=0.029000000,Units=km
new line.RML10194073 bus1=BBT3259794.2.0,bus2=RML1010194073.2.0,Phases=1,Linecode=CABBTG02_4_1,Length=0.017000000,Units=km
new line.RML10255059 bus1=BBT151108393.2.0,bus2=RML1010255059.2.0,Phases=1,Linecode=CABBTG02_4_1,Length=0.017000000,Units=km
new line.RML10257482 bus1=BBT4843516.1.0,bus2=RML1010257482.1.0,Phases=1,Linecode=CABBTG02_4_1,Length=0.017000000,Units=km
new line.RML10257484 bus1=BBT4843516.2.0,bus2=RML1010257484.2.0,Phases=1,Linecode=CABBTG02_4_1,Length=0.017000000,Units=km
new line.RML10257506 bus1=BBT625015.1.2.0,bus2=RML1010257506.1.2.0,Phases=2,Linecode=CABBTG05_4_2,Length=0.029000000,Units=km
new line.RML10257539 bus1=BBT799840.1.2.0,bus2=RML1010257539.1.2.0,Phases=2,Linecode=CABBTG05_4_2,Length=0.017000000,Units=km
new line.RML10280617 bus1=BBT915515.2.0,bus2=RML1010280617.2.0,Phases=1,Linecode=CABBTG02_4_1,Length=0.017000000,Units=km
new line.RML10316383 bus1=BBT151108393.1.0,bus2=RML1010316383.1.0,Phases=1,Linecode=CABBTG02_4_1,Length=0.017000000,Units=km
new line.RML10348160 bus1=BBT86660676.2.0,bus2=RML1010348160.2.0,Phases=1,Linecode=CABBTG02_4_1,Length=0.017000000,Units=km
new line.RML10348175 bus1=BBT1946860.1.0,bus2=RML1010348175.1.0,Phases=1,Linecode=CABBTG02_4_1,Length=0.029000000,Units=km
new line.RML10348192 bus1=BBT3258254.1.0,bus2=RML1010348192.1.0,Phases=1,Linecode=CABBTG02_4_1,Length=0.029000000,Units=km
new line.RML10348401 bus1=BBT1860718.2.0,bus2=RML1010348401.2.0,Phases=1,Linecode=CABBTG02_4_1,Length=0.017000000,Units=km
new line.RML10377436 bus1=BBT31155011.2.0,bus2=RML1010377436.2.0,Phases=1,Linecode=CABBTG02_4_1,Length=0.017000000,Units=km
new line.RML10378537 bus1=BBT3258471.1.2.0,bus2=RML1010378537.1.2.0,Phases=2,Linecode=CABBTG05_4_2,Length=0.029000000,Units=km
new line.RML10378729 bus1=BBT1584015.1.2.0,bus2=RML1010378729.1.2.0,Phases=2,Linecode=CABBTG05_4_2,Length=0.029000000,Units=km
new line.RML10378900 bus1=BBT1584351.1.2.0,bus2=RML1010378900.1.2.0,Phases=2,Linecode=CABBTG05_4_2,Length=0.029000000,Units=km
new line.RML10447380 bus1=BBT92232109.1.0,bus2=RML1010447380.1.0,Phases=1,Linecode=CABBTG02_4_1,Length=0.017000000,Units=km
new line.RML10447415 bus1=BBT4594050.1.0,bus2=RML1010447415.1.0,Phases=1,Linecode=CABBTG02_4_1,Length=0.017000000,Units=km
new line.RML10447420 bus1=BBT680952.1.2.0,bus2=RML1010447420.1.2.0,Phases=2,Linecode=CABBTG05_4_2,Length=0.017000000,Units=km
new line.RML10485403 bus1=BBT155426834.1.2.0,bus2=RML1010485403.1.2.0,Phases=2,Linecode=CABBTG05_4_2,Length=0.029000000,Units=km
new line.RML10485683 bus1=BBT155479633.1.2.0,bus2=RML1010485683.1.2.0,Phases=2,Linecode=CABBTG05_4_2,Length=0.029000000,Units=km
new line.RML10487370 bus1=BBT681120.1.2.0,bus2=RML1010487370.1.2.0,Phases=2,Linecode=CABBTG05_4_2,Length=0.017000000,Units=km
new line.RML10522019 bus1=BBT154627024.1.2.0,bus2=RML1010522019.1.2.0,Phases=2,Linecode=CABBTG05_4_2,Length=0.017000000,Units=km
new line.RML10522368 bus1=BBT681379.1.2.0,bus2=RML1010522368.1.2.0,Phases=2,Linecode=CABBTG05_4_2,Length=0.015000000,Units=km
new line.RML10591242 bus1=BBT5360228.1.0,bus2=RML1010591242.1.0,Phases=1,Linecode=CABBTG02_4_1,Length=0.030000000,Units=km
new line.RML10056482 bus1=BBT2043670.1.2.0,bus2=RML1010056482.1.2.0,Phases=2,Linecode=CABBTG04_4_2,Length=0.017000000,Units=km
new line.RML10087992 bus1=BBT160197926.1.0,bus2=RML1010087992.1.0,Phases=1,Linecode=CABBTG02_4_1,Length=0.017000000,Units=km
new line.RML10120748 bus1=BBT83929458.1.2.0,bus2=RML1010120748.1.2.0,Phases=2,Linecode=CABBTG05_4_2,Length=0.017000000,Units=km
new line.RML10148246 bus1=BBT1975994.1.2.0,bus2=RML1010148246.1.2.0,Phases=2,Linecode=CABBTG05_4_2,Length=0.017000000,Units=km
new line.RML10177412 bus1=BBT149693659.1.2.0,bus2=RML1010177412.1.2.0,Phases=2,Linecode=CABBTG05_4_2,Length=0.017000000,Units=km
new line.RML10177536 bus1=BBT3377674.1.2.0,bus2=RML1010177536.1.2.0,Phases=2,Linecode=CABBTG05_4_2,Length=0.017000000,Units=km
new line.RML10179334 bus1=BBT2041129.1.2.0,bus2=RML1010179334.1.2.0,Phases=2,Linecode=CABBTG05_4_2,Length=0.017000000,Units=km
new line.RML10180181 bus1=BBT149693659.1.0,bus2=RML1010180181.1.0,Phases=1,Linecode=CABBTG02_4_1,Length=0.017000000,Units=km
new line.RML10180205 bus1=BBT2022873.1.2.0,bus2=RML1010180205.1.2.0,Phases=2,Linecode=CABBTG05_4_2,Length=0.017000000,Units=km
new line.RML1023714 bus1=BBT747312.1.2.0,bus2=RML1001023714.1.2.0,Phases=2,Linecode=CABBTG05_4_2,Length=0.017000000,Units=km
new line.RML10265726 bus1=BBT5415717.2.0,bus2=RML1010265726.2.0,Phases=1,Linecode=CABBTG02_4_1,Length=0.017000000,Units=km
new line.RML10265939 bus1=BBT2327114.2.0,bus2=RML1010265939.2.0,Phases=1,Linecode=CABBTG02_4_1,Length=0.017000000,Units=km
new line.RML10265942 bus1=BBT151108393.1.2.0,bus2=RML1010265942.1.2.0,Phases=2,Linecode=CABBTG05_4_2,Length=0.020000000,Units=km
new line.RML10265948 bus1=BBT2022873.1.2.0,bus2=RML1010265948.1.2.0,Phases=2,Linecode=CABBTG05_4_2,Length=0.017000000,Units=km
new line.RML10265958 bus1=BBT1772420.1.2.0,bus2=RML1010265958.1.2.0,Phases=2,Linecode=CABBTG05_4_2,Length=0.017000000,Units=km
new line.RML10268679 bus1=BBT5329827.1.2.0,bus2=RML1010268679.1.2.0,Phases=2,Linecode=CABBTG05_4_2,Length=0.017000000,Units=km
new line.RML10268808 bus1=BBT798818.1.2.0,bus2=RML1010268808.1.2.0,Phases=2,Linecode=CABBTG05_4_2,Length=0.017000000,Units=km
new line.RML10405740 bus1=BBT3220461.1.0,bus2=RML1010405740.1.0,Phases=1,Linecode=CABBTG02_4_1,Length=0.029000000,Units=km
new line.RML10406278 bus1=BBT680266.1.2.0,bus2=RML1010406278.1.2.0,Phases=2,Linecode=CABBTG05_4_2,Length=0.017000000,Units=km
new line.RML10406507 bus1=BBT4787467.2.0,bus2=RML1010406507.2.0,Phases=1,Linecode=CABBTG02_4_1,Length=0.017000000,Units=km
new line.RML10435236 bus1=BBT2316838.1.2.0,bus2=RML1010435236.1.2.0,Phases=2,Linecode=CABBTG05_4_2,Length=0.017000000,Units=km
new line.RML10436310 bus1=BBT1770285.1.2.0,bus2=RML1010436310.1.2.0,Phases=2,Linecode=CABBTG05_4_2,Length=0.017000000,Units=km
new line.RML10461269 bus1=BBT3377688.1.0,bus2=RML1010461269.1.0,Phases=1,Linecode=CABBTG02_4_1,Length=0.017000000,Units=km
new line.RML10462330 bus1=BBT1946741.2.0,bus2=RML1010462330.2.0,Phases=1,Linecode=CABBTG02_4_1,Length=0.017000000,Units=km
new line.RML10462444 bus1=BBT2008726.2.0,bus2=RML1010462444.2.0,Phases=1,Linecode=CABBTG02_4_1,Length=0.017000000,Units=km
new line.RML10462534 bus1=BBT176256968.1.2.0,bus2=RML1010462534.1.2.0,Phases=2,Linecode=CABBTG05_4_2,Length=0.017000000,Units=km
new line.RML10462708 bus1=BBT153180237.1.2.0,bus2=RML1010462708.1.2.0,Phases=2,Linecode=CABBTG05_4_2,Length=0.017000000,Units=km
new line.RML10462809 bus1=BBT4626348.1.2.0,bus2=RML1010462809.1.2.0,Phases=2,Linecode=CABBTG05_4_2,Length=0.017000000,Units=km
new line.RML10492019 bus1=BBT2038875.1.2.0,bus2=RML1010492019.1.2.0,Phases=2,Linecode=CABBTG05_4_2,Length=0.020000000,Units=km
new line.RML10492247 bus1=BBT681148.1.0,bus2=RML1010492247.1.0,Phases=1,Linecode=CABBTG02_4_1,Length=0.010000000,Units=km
new line.RML10512275 bus1=BBT4196989.2.0,bus2=RML1010512275.2.0,Phases=1,Linecode=CABBTG02_4_1,Length=0.029000000,Units=km
new line.RML10548563 bus1=BBT703121.1.0,bus2=RML1010548563.1.0,Phases=1,Linecode=CABBTG02_4_1,Length=0.010000000,Units=km
new line.RML10579244 bus1=BBT4197010.1.0,bus2=RML1010579244.1.0,Phases=1,Linecode=CABBTG02_4_1,Length=0.027000000,Units=km
new line.RML10579423 bus1=BBT157531989.1.2.0,bus2=RML1010579423.1.2.0,Phases=2,Linecode=CABBT811_4_2,Length=0.016000000,Units=km
new line.RML10609539 bus1=BBT1951116.1.0,bus2=RML1010609539.1.0,Phases=1,Linecode=CABBTG02_4_1,Length=0.030000000,Units=km
new line.RML10609805 bus1=BBT2459400.1.0,bus2=RML1010609805.1.0,Phases=1,Linecode=CABBTG02_4_1,Length=0.030000000,Units=km
new line.RML10610164 bus1=BBT154695914.1.0,bus2=RML1010610164.1.0,Phases=1,Linecode=CABBTG02_4_1,Length=0.007000000,Units=km
new line.RML10053572 bus1=BBT4943266.2.0,bus2=RML1010053572.2.0,Phases=1,Linecode=CABBTG01_4_1,Length=0.017000000,Units=km
new line.RML10053701 bus1=BBT1942247.1.0,bus2=RML1010053701.1.0,Phases=1,Linecode=CABBTG02_4_1,Length=0.017000000,Units=km
new line.RML10053832 bus1=BBT3616297.1.0,bus2=RML1010053832.1.0,Phases=1,Linecode=CABBTG01_4_1,Length=0.029000000,Units=km
new line.RML10053834 bus1=BBT6487536.1.2.3.0,bus2=RML1010053834.1.2.3.0,Phases=3,Linecode=CABBTG11_4_3,Length=0.017000000,Units=km
new line.RML10168303 bus1=BBT1860508.2.0,bus2=RML1010168303.2.0,Phases=1,Linecode=CABBTG02_4_1,Length=0.017000000,Units=km
new line.RML10196608 bus1=BBT3377674.1.2.0,bus2=RML1010196608.1.2.0,Phases=2,Linecode=CABBTG04_4_2,Length=0.017000000,Units=km
new line.RML10197374 bus1=BBT2022761.1.0,bus2=RML1010197374.1.0,Phases=1,Linecode=CABBTG02_4_1,Length=0.017000000,Units=km
new line.RML10198002 bus1=BBT1584351.2.0,bus2=RML1010198002.2.0,Phases=1,Linecode=CABBTG02_4_1,Length=0.029000000,Units=km
new line.RML10198050 bus1=BBT5334503.2.0,bus2=RML1010198050.2.0,Phases=1,Linecode=CABBTG02_4_1,Length=0.017000000,Units=km
new line.RML10227091 bus1=BBT3442263.2.0,bus2=RML1010227091.2.0,Phases=1,Linecode=CABBTG01_4_1,Length=0.017000000,Units=km
new line.RML10261093 bus1=BBT1768010.1.2.0,bus2=RML1010261093.1.2.0,Phases=2,Linecode=CABBTG05_4_2,Length=0.017000000,Units=km
new line.RML10261435 bus1=BBT150759647.1.2.0,bus2=RML1010261435.1.2.0,Phases=2,Linecode=CABBTG05_4_2,Length=0.017000000,Units=km
new line.RML10289582 bus1=BBT3891040.1.2.0,bus2=RML1010289582.1.2.0,Phases=2,Linecode=CABBTG05_4_2,Length=0.017000000,Units=km
new line.RML10318735 bus1=BBT5332102.1.0,bus2=RML1010318735.1.0,Phases=1,Linecode=CABBTG02_4_1,Length=0.017000000,Units=km
new line.RML10318768 bus1=BBT2316180.1.2.0,bus2=RML1010318768.1.2.0,Phases=2,Linecode=CABBTG05_4_2,Length=0.017000000,Units=km
new line.RML10366509 bus1=BBT790999.1.2.0,bus2=RML1010366509.1.2.0,Phases=2,Linecode=CABBTG05_4_2,Length=0.017000000,Units=km
new line.RML10368543 bus1=BBT790817.1.2.0,bus2=RML1010368543.1.2.0,Phases=2,Linecode=CABBTG05_4_2,Length=0.017000000,Units=km
new line.RML10393249 bus1=BBT3316991.1.2.0,bus2=RML1010393249.1.2.0,Phases=2,Linecode=CABBTG05_4_2,Length=0.017000000,Units=km
new line.RML10424609 bus1=BBT2035900.1.0,bus2=RML1010424609.1.0,Phases=1,Linecode=CABBTG02_4_1,Length=0.017000000,Units=km
new line.RML10424640 bus1=BBT1860711.2.0,bus2=RML1010424640.2.0,Phases=1,Linecode=CABBTG02_4_1,Length=0.017000000,Units=km
new line.RML10451758 bus1=BBT2451826.1.2.0,bus2=RML1010451758.1.2.0,Phases=2,Linecode=CABBTG05_4_2,Length=0.017000000,Units=km
new line.RML10451961 bus1=BBT4115068.1.2.0,bus2=RML1010451961.1.2.0,Phases=2,Linecode=CABBTG05_4_2,Length=0.017000000,Units=km
new line.RML10451968 bus1=BBT1976218.1.2.0,bus2=RML1010451968.1.2.0,Phases=2,Linecode=CABBTG05_4_2,Length=0.017000000,Units=km
new line.RML10452074 bus1=BBT1584694.1.0,bus2=RML1010452074.1.0,Phases=1,Linecode=CABBTG02_4_1,Length=0.029000000,Units=km
new line.RML10452183 bus1=BBT796459.1.2.0,bus2=RML1010452183.1.2.0,Phases=2,Linecode=CABBTG05_4_2,Length=0.017000000,Units=km
new line.RML10452206 bus1=BBT66005671.2.0,bus2=RML1010452206.2.0,Phases=1,Linecode=CABBTG02_4_1,Length=0.017000000,Units=km
new line.RML10453153 bus1=BBT154703871.1.2.0,bus2=RML1010453153.1.2.0,Phases=2,Linecode=CABBTG05_4_2,Length=0.015000000,Units=km
new line.RML10453233 bus1=BBT154704882.1.0,bus2=RML1010453233.1.0,Phases=1,Linecode=CABBTG02_4_1,Length=0.028000000,Units=km
new line.RML10482658 bus1=BBT2316278.1.2.0,bus2=RML1010482658.1.2.0,Phases=2,Linecode=CABBTG05_4_2,Length=0.030000000,Units=km
new line.RML10482815 bus1=BBT5326026.1.2.0,bus2=RML1010482815.1.2.0,Phases=2,Linecode=CABBTG05_4_2,Length=0.008000000,Units=km
new line.RML10482967 bus1=BBT3258520.1.0,bus2=RML1010482967.1.0,Phases=1,Linecode=CABBTG02_4_1,Length=0.008000000,Units=km
new line.RML10484930 bus1=BBT5335448.1.2.0,bus2=RML1010484930.1.2.0,Phases=2,Linecode=CABBTG05_4_2,Length=0.018000000,Units=km
new line.RML10484936 bus1=BBT1760639.1.0,bus2=RML1010484936.1.0,Phases=1,Linecode=CABBTG02_4_1,Length=0.028000000,Units=km
new line.RML10542070 bus1=BBT66005671.2.0,bus2=RML1010542070.2.0,Phases=1,Linecode=CABBTG02_4_1,Length=0.026000000,Units=km
new line.RML10574352 bus1=BBT903223.1.2.0,bus2=RML1010574352.1.2.0,Phases=2,Linecode=CABBTG05_4_2,Length=0.027000000,Units=km
new line.RML10635921 bus1=BBT1946748.1.2.0,bus2=RML1010635921.1.2.0,Phases=2,Linecode=CABBTG05_4_2,Length=0.025000000,Units=km
new line.RML10636721 bus1=BBT83929458.1.2.0,bus2=RML1010636721.1.2.0,Phases=2,Linecode=CABBTG05_4_2,Length=0.009000000,Units=km
new line.RML10074214 bus1=BBT3220468.1.0,bus2=RML1010074214.1.0,Phases=1,Linecode=CABBTG02_4_1,Length=0.029000000,Units=km
new line.RML10074555 bus1=BBT2460009.1.0,bus2=RML1010074555.1.0,Phases=1,Linecode=CABBTG02_4_1,Length=0.017000000,Units=km
new line.RML10074624 bus1=BBT624798.2.0,bus2=RML1010074624.2.0,Phases=1,Linecode=CABBTG02_4_1,Length=0.029000000,Units=km
new line.RML10097483 bus1=BBT149393730.1.2.0,bus2=RML1010097483.1.2.0,Phases=2,Linecode=CABBTG05_4_2,Length=0.017000000,Units=km
new line.RML10097487 bus1=BBT149393625.1.0,bus2=RML1010097487.1.0,Phases=1,Linecode=CABBTG02_4_1,Length=0.017000000,Units=km
new line.RML10127679 bus1=BBT22801827.1.2.0,bus2=RML1010127679.1.2.0,Phases=2,Linecode=CABBTG05_4_2,Length=0.017000000,Units=km
new line.RML10154979 bus1=BBT1946391.1.0,bus2=RML1010154979.1.0,Phases=1,Linecode=CABBTG02_4_1,Length=0.017000000,Units=km
new line.RML10157869 bus1=BBT5360354.1.2.0,bus2=RML1010157869.1.2.0,Phases=2,Linecode=CABBTG05_4_2,Length=0.017000000,Units=km
new line.RML10214755 bus1=BBT22806867.1.0,bus2=RML1010214755.1.0,Phases=1,Linecode=CABBTG02_4_1,Length=0.017000000,Units=km
new line.RML10246784 bus1=BBT151108393.1.2.0,bus2=RML1010246784.1.2.0,Phases=2,Linecode=CABBTG05_4_2,Length=0.019000000,Units=km
new line.RML10246995 bus1=BBT3377653.1.2.0,bus2=RML1010246995.1.2.0,Phases=2,Linecode=CABBTG05_4_2,Length=0.017000000,Units=km
new line.RML10307101 bus1=BBT3470753.1.2.0,bus2=RML1010307101.1.2.0,Phases=2,Linecode=CABBTG05_4_2,Length=0.017000000,Units=km
new line.RML10308765 bus1=BBT2442215.1.2.0,bus2=RML1010308765.1.2.0,Phases=2,Linecode=CABBTG05_4_2,Length=0.017000000,Units=km
new line.RML10375740 bus1=BBT2027003.1.0,bus2=RML1010375740.1.0,Phases=1,Linecode=CABBTG02_4_1,Length=0.017000000,Units=km
new line.RML10418902 bus1=BBT150492086.1.2.0,bus2=RML1010418902.1.2.0,Phases=2,Linecode=CABBTG05_4_2,Length=0.020000000,Units=km
new line.RML10419956 bus1=BBT2162040.1.2.0,bus2=RML1010419956.1.2.0,Phases=2,Linecode=CABBTG05_4_2,Length=0.017000000,Units=km
new line.RML10420941 bus1=BBT3178461.2.0,bus2=RML1010420941.2.0,Phases=1,Linecode=CABBTG02_4_1,Length=0.017000000,Units=km
new line.RML10449114 bus1=BBT797621.1.2.0,bus2=RML1010449114.1.2.0,Phases=2,Linecode=CABBTG05_4_2,Length=0.017000000,Units=km
new line.RML10479225 bus1=BBT2022873.1.0,bus2=RML1010479225.1.0,Phases=1,Linecode=CABBTG02_4_1,Length=0.015000000,Units=km
new line.RML10479557 bus1=BBT155331005.1.2.0,bus2=RML1010479557.1.2.0,Phases=2,Linecode=CABBTG05_4_2,Length=0.014000000,Units=km
new line.RML10480161 bus1=BBT155339407.1.0,bus2=RML1010480161.1.0,Phases=1,Linecode=CABBTG02_4_1,Length=0.017000000,Units=km
new line.RML10480256 bus1=BBT155342529.1.0,bus2=RML1010480256.1.0,Phases=1,Linecode=CABBTG02_4_1,Length=0.018000000,Units=km
new line.RML10480294 bus1=BBT155342437.1.2.0,bus2=RML1010480294.1.2.0,Phases=2,Linecode=CABBTG05_4_2,Length=0.024000000,Units=km
new line.RML10517595 bus1=BBT156259689.1.2.0,bus2=RML1010517595.1.2.0,Phases=2,Linecode=CABBT808_4_2,Length=0.030000000,Units=km
new line.RML10517624 bus1=BBT4633075.1.2.0,bus2=RML1010517624.1.2.0,Phases=2,Linecode=CABBTG05_4_2,Length=0.030000000,Units=km
new line.RML10518837 bus1=BBT156279647.1.2.0,bus2=RML1010518837.1.2.0,Phases=2,Linecode=CABBTG05_4_2,Length=0.017000000,Units=km
new line.RML10520274 bus1=BBT793582.1.2.0,bus2=RML1010520274.1.2.0,Phases=2,Linecode=CABBTG05_4_2,Length=0.015000000,Units=km
new line.RML10558217 bus1=BBT3494266.1.0,bus2=RML1010558217.1.0,Phases=1,Linecode=CABBTG02_4_1,Length=0.018000000,Units=km
new line.RML10558522 bus1=BBT1948540.1.0,bus2=RML1010558522.1.0,Phases=1,Linecode=CABBTG02_4_1,Length=0.007000000,Units=km
new line.RML10558564 bus1=BBT156952993.1.2.0,bus2=RML1010558564.1.2.0,Phases=2,Linecode=CABBTG05_4_2,Length=0.017000000,Units=km
new line.RML10596459 bus1=BBT1950038.1.0,bus2=RML1010596459.1.0,Phases=1,Linecode=CABBTG02_4_1,Length=0.029000000,Units=km
new line.RML10596585 bus1=BBT5415717.1.0,bus2=RML1010596585.1.0,Phases=1,Linecode=CABBTG02_4_1,Length=0.017000000,Units=km
new line.RML10597646 bus1=BBT2038749.1.0,bus2=RML1010597646.1.0,Phases=1,Linecode=CABBTG02_4_1,Length=0.030000000,Units=km
new line.RML10597671 bus1=BBT5374550.1.0,bus2=RML1010597671.1.0,Phases=1,Linecode=CABBTG02_4_1,Length=0.030000000,Units=km
new line.RML10599346 bus1=BBT156452777.1.2.0,bus2=RML1010599346.1.2.0,Phases=2,Linecode=CABBT811_4_2,Length=0.025000000,Units=km
new line.RML10623453 bus1=BBT176256968.1.2.0,bus2=RML1010623453.1.2.0,Phases=2,Linecode=CABBTG05_4_2,Length=0.028000000,Units=km
new line.RML10626124 bus1=BBT129659919.1.0,bus2=RML1010626124.1.0,Phases=1,Linecode=CABBT802_4_1,Length=0.030000000,Units=km
new line.RML10116426 bus1=BBT1860522.1.2.0,bus2=RML1010116426.1.2.0,Phases=2,Linecode=CABBTG05_4_2,Length=0.017000000,Units=km
new line.RML10145081 bus1=BBT2022873.1.2.0,bus2=RML1010145081.1.2.0,Phases=2,Linecode=CABBTG04_4_2,Length=0.017000000,Units=km
new line.RML10146911 bus1=BBT1760639.1.2.0,bus2=RML1010146911.1.2.0,Phases=2,Linecode=CABBTG05_4_2,Length=0.017000000,Units=km
new line.RML10146981 bus1=BBT149677341.1.2.0,bus2=RML1010146981.1.2.0,Phases=2,Linecode=CABBTG05_4_2,Length=0.017000000,Units=km
new line.RML10172873 bus1=BBT4155780.1.2.0,bus2=RML1010172873.1.2.0,Phases=2,Linecode=CABBTG05_4_2,Length=0.029000000,Units=km
new line.RML10199748 bus1=BBT22792601.1.2.0,bus2=RML1010199748.1.2.0,Phases=2,Linecode=CABBTG05_4_2,Length=0.017000000,Units=km
new line.RML10222047 bus1=BBT5334461.2.0,bus2=RML1010222047.2.0,Phases=1,Linecode=CABBTG02_4_1,Length=0.017000000,Units=km
new line.RML10222550 bus1=BBT4738131.1.2.0,bus2=RML1010222550.1.2.0,Phases=2,Linecode=CABBTG05_4_2,Length=0.017000000,Units=km
new line.RML10222716 bus1=BBT1771286.1.2.0,bus2=RML1010222716.1.2.0,Phases=2,Linecode=CABBTG05_4_2,Length=0.017000000,Units=km
new line.RML10247663 bus1=BBT3469801.2.0,bus2=RML1010247663.2.0,Phases=1,Linecode=CABBTG02_4_1,Length=0.017000000,Units=km
new line.RML10247672 bus1=BBT799420.1.2.0,bus2=RML1010247672.1.2.0,Phases=2,Linecode=CABBTG05_4_2,Length=0.017000000,Units=km
new line.RML10249540 bus1=BBT1584015.1.0,bus2=RML1010249540.1.0,Phases=1,Linecode=CABBTG01_4_1,Length=0.029000000,Units=km
new line.RML10249543 bus1=BBT681897.2.0,bus2=RML1010249543.2.0,Phases=1,Linecode=CABBTG02_4_1,Length=0.017000000,Units=km
new line.RML10273902 bus1=BBT2022873.1.2.0,bus2=RML1010273902.1.2.0,Phases=2,Linecode=CABBTG05_4_2,Length=0.017000000,Units=km
new line.RML10276698 bus1=BBT151224883.1.2.0,bus2=RML1010276698.1.2.0,Phases=2,Linecode=CABBTG05_4_2,Length=0.017000000,Units=km
new line.RML10304874 bus1=BBT3176746.2.0,bus2=RML1010304874.2.0,Phases=1,Linecode=CABBTG02_4_1,Length=0.017000000,Units=km
new line.RML10305999 bus1=BBT2022663.1.2.0,bus2=RML1010305999.1.2.0,Phases=2,Linecode=CABBTG05_4_2,Length=0.017000000,Units=km