! manter este comentario para compatibilidade do C#
new circuit.alimMIB15 bus1=BMT123269325.1.2.3,basekv=13.800000000,pu=1.040000000

