new load.3000054146M1 bus1=RML1002745455.1.0,Phases=1,kv=0.127,kW=0.39256,pf=0.92,Vminpu=0.92,Vmaxpu=1.5,model=1,daily=RES1_1,status=variable
new load.3000054147M1 bus1=RML1002745476.1.0,Phases=1,kv=0.127,kW=0.01154,pf=0.92,Vminpu=0.92,Vmaxpu=1.5,model=1,daily=RES1_1,status=variable
new load.3000054148M1 bus1=RML1002745483.1.0,Phases=1,kv=0.127,kW=0.00074,pf=0.92,Vminpu=0.92,Vmaxpu=1.5,model=1,daily=RES1_1,status=variable
new load.3000054149M1 bus1=RML1002745490.2.0,Phases=1,kv=0.127,kW=0.0105,pf=0.92,Vminpu=0.92,Vmaxpu=1.5,model=1,daily=RES1_1,status=variable
new load.3000054150M1 bus1=RML1002745427.2.0,Phases=1,kv=0.127,kW=1.54464,pf=0.92,Vminpu=0.92,Vmaxpu=1.5,model=1,daily=RES1_1,status=variable
new load.3000054151M1 bus1=RML1002745399.1.0,Phases=1,kv=0.127,kW=0.07858,pf=0.92,Vminpu=0.92,Vmaxpu=1.5,model=1,daily=RES1_1,status=variable
new load.3000054152M1 bus1=RML1002746498.1.0,Phases=1,kv=0.127,kW=0.83168,pf=0.92,Vminpu=0.92,Vmaxpu=1.5,model=1,daily=RES1_1,status=variable
new load.3000054153M1 bus1=RML1002745462.1.0,Phases=1,kv=0.127,kW=1.2505,pf=0.92,Vminpu=0.92,Vmaxpu=1.5,model=1,daily=RES1_1,status=variable
new load.3000054154M1 bus1=RML1002746491.1.0,Phases=1,kv=0.127,kW=0.91256,pf=0.92,Vminpu=0.92,Vmaxpu=1.5,model=1,daily=RES1_1,status=variable
new load.3000054155M1 bus1=RML1002746505.1.0,Phases=1,kv=0.127,kW=0.45806,pf=0.92,Vminpu=0.92,Vmaxpu=1.5,model=1,daily=RES1_1,status=variable
new load.3000054157M1 bus1=RML1003148746.2.0,Phases=1,kv=0.127,kW=0.3922,pf=0.92,Vminpu=0.92,Vmaxpu=1.5,model=1,daily=RES1_1,status=variable
new load.3000054158M1 bus1=RML1002746456.2.0,Phases=1,kv=0.127,kW=0.15282,pf=0.92,Vminpu=0.92,Vmaxpu=1.5,model=1,daily=RUR1_3,status=variable
new load.3000054159M1 bus1=RML1002746470.1.0,Phases=1,kv=0.127,kW=0.78888,pf=0.92,Vminpu=0.92,Vmaxpu=1.5,model=1,daily=RES1_1,status=variable
new load.3000054160M1 bus1=RML1002746477.1.0,Phases=1,kv=0.127,kW=0.41614,pf=0.92,Vminpu=0.92,Vmaxpu=1.5,model=1,daily=RES1_1,status=variable
new load.3000054161M1 bus1=RML1002745392.1.0,Phases=1,kv=0.127,kW=0.0105,pf=0.92,Vminpu=0.92,Vmaxpu=1.5,model=1,daily=RES1_1,status=variable
new load.3000054162M1 bus1=RML1002745434.2.0,Phases=1,kv=0.127,kW=0.0105,pf=0.92,Vminpu=0.92,Vmaxpu=1.5,model=1,daily=RES1_1,status=variable
new load.3000054163M1 bus1=RML1003148907.1.2.0,Phases=2,kv=0.22,kW=0.75334,pf=0.92,Vminpu=0.92,Vmaxpu=1.5,model=1,daily=RES1_1,status=variable
new load.3000054164M1 bus1=RML1002745441.1.0,Phases=1,kv=0.127,kW=0.0105,pf=0.92,Vminpu=0.92,Vmaxpu=1.5,model=1,daily=RES1_1,status=variable
new load.3000054165M1 bus1=RML1002745448.1.0,Phases=1,kv=0.127,kW=0.47378,pf=0.92,Vminpu=0.92,Vmaxpu=1.5,model=1,daily=RES1_1,status=variable
new load.3000054166M1 bus1=RML1002745420.2.0,Phases=1,kv=0.127,kW=0.34522,pf=0.92,Vminpu=0.92,Vmaxpu=1.5,model=1,daily=RES1_1,status=variable
new load.3000054211M1 bus1=RML1003148914.1.2.0,Phases=2,kv=0.22,kW=1.13114,pf=0.92,Vminpu=0.92,Vmaxpu=1.5,model=1,daily=RES1_1,status=variable
new load.3000054212M1 bus1=RML1002807587.1.0,Phases=1,kv=0.127,kW=0.9196,pf=0.92,Vminpu=0.92,Vmaxpu=1.5,model=1,daily=RES1_1,status=variable
new load.3000054213M1 bus1=RML1002800671.1.0,Phases=1,kv=0.127,kW=0.68242,pf=0.92,Vminpu=0.92,Vmaxpu=1.5,model=1,daily=RES1_1,status=variable
new load.3000054215M1 bus1=RML1002800664.1.0,Phases=1,kv=0.127,kW=0.38678,pf=0.92,Vminpu=0.92,Vmaxpu=1.5,model=1,daily=RES1_1,status=variable
new load.3000054216M1 bus1=RML1002800384.1.0,Phases=1,kv=0.127,kW=2.56628,pf=0.92,Vminpu=0.92,Vmaxpu=1.5,model=1,daily=RES1_1,status=variable
new load.3000054217M1 bus1=RML1002800377.1.2.0,Phases=2,kv=0.22,kW=0.95642,pf=0.92,Vminpu=0.92,Vmaxpu=1.5,model=1,daily=RUR1_3,status=variable
new load.3000054218M1 bus1=RML1002801105.1.2.0,Phases=2,kv=0.22,kW=0.71726,pf=0.92,Vminpu=0.92,Vmaxpu=1.5,model=1,daily=RUR1_3,status=variable
new load.3000054219M1 bus1=RML1003148753.1.0,Phases=1,kv=0.127,kW=0.20322,pf=0.92,Vminpu=0.92,Vmaxpu=1.5,model=1,daily=RES1_1,status=variable
new load.3000054220M1 bus1=RML1002801091.1.0,Phases=1,kv=0.127,kW=0.62534,pf=0.92,Vminpu=0.92,Vmaxpu=1.5,model=1,daily=RES1_1,status=variable
new load.3000583737M1 bus1=RML1002997273.2.0,Phases=1,kv=0.127,kW=0.5644,pf=0.92,Vminpu=0.92,Vmaxpu=1.5,model=1,daily=RES1_20,status=variable
new load.3000583738M1 bus1=RML1002997266.2.0,Phases=1,kv=0.127,kW=0.2785,pf=0.92,Vminpu=0.92,Vmaxpu=1.5,model=1,daily=COM1_23,status=variable
new load.3000583739M1 bus1=RML1002997217.2.0,Phases=1,kv=0.127,kW=0.00558,pf=0.92,Vminpu=0.92,Vmaxpu=1.5,model=1,daily=RES1_20,status=variable
new load.3000583740M1 bus1=RML1002997196.1.0,Phases=1,kv=0.127,kW=0.00558,pf=0.92,Vminpu=0.92,Vmaxpu=1.5,model=1,daily=RES1_20,status=variable
new load.3000583741M1 bus1=RML1002997189.2.0,Phases=1,kv=0.127,kW=0.00558,pf=0.92,Vminpu=0.92,Vmaxpu=1.5,model=1,daily=RES1_20,status=variable
new load.3000583742M1 bus1=RML1002997203.1.0,Phases=1,kv=0.127,kW=0.91614,pf=0.92,Vminpu=0.92,Vmaxpu=1.5,model=1,daily=RES1_20,status=variable
new load.3000583743M1 bus1=RML1002997329.1.0,Phases=1,kv=0.127,kW=0.00558,pf=0.92,Vminpu=0.92,Vmaxpu=1.5,model=1,daily=RES1_20,status=variable
new load.3000583744M1 bus1=RML1002997322.2.0,Phases=1,kv=0.127,kW=0.71002,pf=0.92,Vminpu=0.92,Vmaxpu=1.5,model=1,daily=RES1_20,status=variable
new load.3000583745M1 bus1=RML1002997315.1.0,Phases=1,kv=0.127,kW=0.39728,pf=0.92,Vminpu=0.92,Vmaxpu=1.5,model=1,daily=RES1_20,status=variable
new load.3000583746M1 bus1=RML1002997350.1.0,Phases=1,kv=0.127,kW=0.07506,pf=0.92,Vminpu=0.92,Vmaxpu=1.5,model=1,daily=RES1_20,status=variable
new load.3000583747M1 bus1=RML1002997357.2.0,Phases=1,kv=0.127,kW=0.1971,pf=0.92,Vminpu=0.92,Vmaxpu=1.5,model=1,daily=RES1_20,status=variable
new load.3000583750M1 bus1=RML1002997343.1.0,Phases=1,kv=0.127,kW=0.24224,pf=0.92,Vminpu=0.92,Vmaxpu=1.5,model=1,daily=RES1_20,status=variable
new load.3000583779M1 bus1=RML1002993990.1.2.0,Phases=2,kv=0.22,kW=0.08896,pf=0.92,Vminpu=0.92,Vmaxpu=1.5,model=1,daily=COM1_23,status=variable
new load.3000583780M1 bus1=RML1002994081.1.2.0,Phases=2,kv=0.22,kW=0.88404,pf=0.92,Vminpu=0.92,Vmaxpu=1.5,model=1,daily=RES1_20,status=variable
new load.3000583781M1 bus1=RML1002994109.2.0,Phases=1,kv=0.127,kW=0.00558,pf=0.92,Vminpu=0.92,Vmaxpu=1.5,model=1,daily=RES1_20,status=variable
new load.3000583782M1 bus1=RML1002994102.2.0,Phases=1,kv=0.127,kW=0.0195,pf=0.92,Vminpu=0.92,Vmaxpu=1.5,model=1,daily=RES1_20,status=variable
new load.3000583783M1 bus1=RML1002994144.2.0,Phases=1,kv=0.127,kW=0.05998,pf=0.92,Vminpu=0.92,Vmaxpu=1.5,model=1,daily=RES1_20,status=variable
new load.3000583784M1 bus1=RML1002994137.1.0,Phases=1,kv=0.127,kW=0.55858,pf=0.92,Vminpu=0.92,Vmaxpu=1.5,model=1,daily=RES1_20,status=variable
new load.3000583785M1 bus1=RML1002993899.2.0,Phases=1,kv=0.127,kW=0.37784,pf=0.92,Vminpu=0.92,Vmaxpu=1.5,model=1,daily=RES1_20,status=variable
new load.3000583786M1 bus1=RML1002993892.2.0,Phases=1,kv=0.127,kW=0.36458,pf=0.92,Vminpu=0.92,Vmaxpu=1.5,model=1,daily=RES1_20,status=variable
new load.3000583787M1 bus1=RML1002993955.2.0,Phases=1,kv=0.127,kW=0.00558,pf=0.92,Vminpu=0.92,Vmaxpu=1.5,model=1,daily=RES1_20,status=variable
new load.3000583788M1 bus1=RML1002993948.1.0,Phases=1,kv=0.127,kW=0.3287,pf=0.92,Vminpu=0.92,Vmaxpu=1.5,model=1,daily=RES1_20,status=variable
new load.3000583789M1 bus1=RML1002993976.1.0,Phases=1,kv=0.127,kW=0.00558,pf=0.92,Vminpu=0.92,Vmaxpu=1.5,model=1,daily=RES1_20,status=variable
new load.3000583790M1 bus1=RML1002993969.2.0,Phases=1,kv=0.127,kW=0.00558,pf=0.92,Vminpu=0.92,Vmaxpu=1.5,model=1,daily=RES1_20,status=variable
new load.3000583791M1 bus1=RML1002993934.2.0,Phases=1,kv=0.127,kW=0.00578,pf=0.92,Vminpu=0.92,Vmaxpu=1.5,model=1,daily=COM1_23,status=variable
new load.3000583792M1 bus1=RML1002993934.2.0,Phases=1,kv=0.127,kW=0.26692,pf=0.92,Vminpu=0.92,Vmaxpu=1.5,model=1,daily=RES1_20,status=variable
new load.3000583793M1 bus1=RML1002993941.1.0,Phases=1,kv=0.127,kW=0.00558,pf=0.92,Vminpu=0.92,Vmaxpu=1.5,model=1,daily=RES1_20,status=variable
new load.3000583794M1 bus1=RML1002993941.1.0,Phases=1,kv=0.127,kW=0.00578,pf=0.92,Vminpu=0.92,Vmaxpu=1.5,model=1,daily=COM1_23,status=variable
new load.3000583795M1 bus1=RML1002993857.2.0,Phases=1,kv=0.127,kW=0.00558,pf=0.92,Vminpu=0.92,Vmaxpu=1.5,model=1,daily=RES1_20,status=variable
new load.3000583797M1 bus1=RML1002993745.1.2.0,Phases=2,kv=0.22,kW=0.0014,pf=0.92,Vminpu=0.92,Vmaxpu=1.5,model=1,daily=RES1_20,status=variable
new load.3000583798M1 bus1=RML1002993724.2.0,Phases=1,kv=0.127,kW=0.25258,pf=0.92,Vminpu=0.92,Vmaxpu=1.5,model=1,daily=RES1_20,status=variable
new load.3000583801M1 bus1=RML1002992037.2.0,Phases=1,kv=0.127,kW=0.00558,pf=0.92,Vminpu=0.92,Vmaxpu=1.5,model=1,daily=RES1_20,status=variable
new load.3000583802M1 bus1=RML1002993633.1.2.0,Phases=2,kv=0.22,kW=0.3592,pf=0.92,Vminpu=0.92,Vmaxpu=1.5,model=1,daily=RES1_20,status=variable
new load.3000583804M1 bus1=RML1002992163.2.0,Phases=1,kv=0.127,kW=0.29684,pf=0.92,Vminpu=0.92,Vmaxpu=1.5,model=1,daily=RES1_20,status=variable
new load.3000583805M1 bus1=RML1002992170.2.0,Phases=1,kv=0.127,kW=0.1528,pf=0.92,Vminpu=0.92,Vmaxpu=1.5,model=1,daily=RES1_20,status=variable
new load.3000583806M1 bus1=RML1002993395.2.0,Phases=1,kv=0.127,kW=0.32384,pf=0.92,Vminpu=0.92,Vmaxpu=1.5,model=1,daily=RES1_20,status=variable
new load.3000583807M1 bus1=RML1002993479.1.0,Phases=1,kv=0.127,kW=0.05162,pf=0.92,Vminpu=0.92,Vmaxpu=1.5,model=1,daily=RES1_20,status=variable
new load.3000583808M1 bus1=RML1002993542.2.0,Phases=1,kv=0.127,kW=0.0327,pf=0.92,Vminpu=0.92,Vmaxpu=1.5,model=1,daily=RES1_20,status=variable
new load.3000583809M1 bus1=RML1002993465.1.2.0,Phases=2,kv=0.22,kW=0.19998,pf=0.92,Vminpu=0.92,Vmaxpu=1.5,model=1,daily=RES1_20,status=variable
new load.3000583811M1 bus1=RML1002993451.2.0,Phases=1,kv=0.127,kW=0.00558,pf=0.92,Vminpu=0.92,Vmaxpu=1.5,model=1,daily=RES1_20,status=variable
new load.3000583812M1 bus1=RML1002993521.1.2.0,Phases=2,kv=0.22,kW=0.00578,pf=0.92,Vminpu=0.92,Vmaxpu=1.5,model=1,daily=COM1_23,status=variable
new load.3000583813M1 bus1=RML1002993451.2.0,Phases=1,kv=0.127,kW=0.00558,pf=0.92,Vminpu=0.92,Vmaxpu=1.5,model=1,daily=RES1_20,status=variable
new load.3000583814M1 bus1=RML1002993535.1.0,Phases=1,kv=0.127,kW=0.65838,pf=0.92,Vminpu=0.92,Vmaxpu=1.5,model=1,daily=RES1_20,status=variable
new load.3000583815M1 bus1=RML1002993528.1.0,Phases=1,kv=0.127,kW=0.00558,pf=0.92,Vminpu=0.92,Vmaxpu=1.5,model=1,daily=RES1_20,status=variable
new load.3000583816M1 bus1=RML1002993556.2.0,Phases=1,kv=0.127,kW=0.00558,pf=0.92,Vminpu=0.92,Vmaxpu=1.5,model=1,daily=RES1_20,status=variable
new load.3000583817M1 bus1=RML1002993710.1.0,Phases=1,kv=0.127,kW=0.57252,pf=0.92,Vminpu=0.92,Vmaxpu=1.5,model=1,daily=RES1_20,status=variable
new load.3000583818M1 bus1=RML1002993675.2.0,Phases=1,kv=0.127,kW=0.2512,pf=0.92,Vminpu=0.92,Vmaxpu=1.5,model=1,daily=RES1_20,status=variable
new load.3000583820M1 bus1=RML1002993689.2.0,Phases=1,kv=0.127,kW=0.53496,pf=0.92,Vminpu=0.92,Vmaxpu=1.5,model=1,daily=RES1_20,status=variable
new load.3000583821M1 bus1=RML1002993682.1.0,Phases=1,kv=0.127,kW=0.9761,pf=0.92,Vminpu=0.92,Vmaxpu=1.5,model=1,daily=RES1_20,status=variable
new load.3000583822M1 bus1=RML1002993661.2.0,Phases=1,kv=0.127,kW=0.1613,pf=0.92,Vminpu=0.92,Vmaxpu=1.5,model=1,daily=RES1_20,status=variable
new load.3000583823M1 bus1=RML1002993640.1.2.0,Phases=2,kv=0.22,kW=0.72324,pf=0.92,Vminpu=0.92,Vmaxpu=1.5,model=1,daily=RES1_20,status=variable
new load.3000583824M1 bus1=RML1002993591.2.0,Phases=1,kv=0.127,kW=0.40134,pf=0.92,Vminpu=0.92,Vmaxpu=1.5,model=1,daily=RES1_20,status=variable
new load.3000583825M1 bus1=RML1002993731.1.0,Phases=1,kv=0.127,kW=0.00558,pf=0.92,Vminpu=0.92,Vmaxpu=1.5,model=1,daily=RES1_20,status=variable
new load.3000583826M1 bus1=RML1003152456.2.0,Phases=1,kv=0.127,kW=0.6962,pf=0.92,Vminpu=0.92,Vmaxpu=1.5,model=1,daily=COM1_23,status=variable
new load.3000583827M1 bus1=RML1002286073.2.0,Phases=1,kv=0.127,kW=0.2871,pf=0.92,Vminpu=0.92,Vmaxpu=1.5,model=1,daily=RES1_20,status=variable
new load.3000583828M1 bus1=RML1003152463.2.0,Phases=1,kv=0.127,kW=0.13168,pf=0.92,Vminpu=0.92,Vmaxpu=1.5,model=1,daily=RES1_20,status=variable
new load.3000583829M1 bus1=RML1003152351.1.0,Phases=1,kv=0.127,kW=0.38492,pf=0.92,Vminpu=0.92,Vmaxpu=1.5,model=1,daily=RES1_20,status=variable
new load.3000583830M1 bus1=RML1002285870.1.0,Phases=1,kv=0.127,kW=0.6592,pf=0.92,Vminpu=0.92,Vmaxpu=1.5,model=1,daily=RES1_20,status=variable
new load.3000583831M1 bus1=RML1002285877.2.0,Phases=1,kv=0.127,kW=0.00558,pf=0.92,Vminpu=0.92,Vmaxpu=1.5,model=1,daily=RES1_20,status=variable
new load.3000583832M1 bus1=RML1002285884.1.0,Phases=1,kv=0.127,kW=0.56864,pf=0.92,Vminpu=0.92,Vmaxpu=1.5,model=1,daily=RES1_20,status=variable
new load.3000583833M1 bus1=RML1002285940.1.0,Phases=1,kv=0.127,kW=0.41842,pf=0.92,Vminpu=0.92,Vmaxpu=1.5,model=1,daily=RES1_20,status=variable
new load.3000583834M1 bus1=RML1002285912.1.0,Phases=1,kv=0.127,kW=0.70036,pf=0.92,Vminpu=0.92,Vmaxpu=1.5,model=1,daily=COM1_23,status=variable
new load.3000583835M1 bus1=RML1002285933.2.0,Phases=1,kv=0.127,kW=0.00558,pf=0.92,Vminpu=0.92,Vmaxpu=1.5,model=1,daily=RES1_20,status=variable
new load.3000583836M1 bus1=RML1002285961.1.0,Phases=1,kv=0.127,kW=0.00558,pf=0.92,Vminpu=0.92,Vmaxpu=1.5,model=1,daily=RES1_20,status=variable
new load.3000583838M1 bus1=RML1002285779.2.0,Phases=1,kv=0.127,kW=1.75864,pf=0.92,Vminpu=0.92,Vmaxpu=1.5,model=1,daily=RES1_20,status=variable
new load.3000583839M1 bus1=RML1002285758.1.0,Phases=1,kv=0.127,kW=0.52922,pf=0.92,Vminpu=0.92,Vmaxpu=1.5,model=1,daily=RES1_20,status=variable
new load.3000583840M1 bus1=RML1002285751.2.0,Phases=1,kv=0.127,kW=0.38124,pf=0.92,Vminpu=0.92,Vmaxpu=1.5,model=1,daily=RES1_20,status=variable
new load.3000583841M1 bus1=RML1002285737.1.0,Phases=1,kv=0.127,kW=0.35936,pf=0.92,Vminpu=0.92,Vmaxpu=1.5,model=1,daily=RES1_20,status=variable
new load.3000583842M1 bus1=RML1002285702.1.0,Phases=1,kv=0.127,kW=0.80174,pf=0.92,Vminpu=0.92,Vmaxpu=1.5,model=1,daily=RES1_20,status=variable
new load.3000583843M1 bus1=RML1002285562.1.0,Phases=1,kv=0.127,kW=0.96172,pf=0.92,Vminpu=0.92,Vmaxpu=1.5,model=1,daily=RES1_20,status=variable
new load.3000583844M1 bus1=RML1002285569.2.0,Phases=1,kv=0.127,kW=0.00558,pf=0.92,Vminpu=0.92,Vmaxpu=1.5,model=1,daily=RES1_20,status=variable
new load.3000583845M1 bus1=RML1002285394.2.0,Phases=1,kv=0.127,kW=0.29874,pf=0.92,Vminpu=0.92,Vmaxpu=1.5,model=1,daily=RES1_20,status=variable
new load.3000583846M1 bus1=RML1002285408.2.0,Phases=1,kv=0.127,kW=0.49538,pf=0.92,Vminpu=0.92,Vmaxpu=1.5,model=1,daily=RES1_20,status=variable
new load.3000583847M1 bus1=RML1002285450.2.0,Phases=1,kv=0.127,kW=0.38852,pf=0.92,Vminpu=0.92,Vmaxpu=1.5,model=1,daily=RES1_20,status=variable
new load.3000583848M1 bus1=RML1010249540.1.0,Phases=1,kv=0.127,kW=0.0725,pf=0.92,Vminpu=0.92,Vmaxpu=1.5,model=1,daily=RES1_20,status=variable
new load.3000583850M1 bus1=RML1002285632.1.0,Phases=1,kv=0.127,kW=0.22904,pf=0.92,Vminpu=0.92,Vmaxpu=1.5,model=1,daily=RES1_20,status=variable
new load.3000583851M1 bus1=RML1002285625.2.0,Phases=1,kv=0.127,kW=0.00558,pf=0.92,Vminpu=0.92,Vmaxpu=1.5,model=1,daily=RES1_20,status=variable
new load.3000583852M1 bus1=RML1002285618.2.0,Phases=1,kv=0.127,kW=0.26856,pf=0.92,Vminpu=0.92,Vmaxpu=1.5,model=1,daily=RES1_20,status=variable
new load.3000583853M1 bus1=RML1002285674.2.0,Phases=1,kv=0.127,kW=0.42744,pf=0.92,Vminpu=0.92,Vmaxpu=1.5,model=1,daily=RES1_20,status=variable
new load.3000583854M1 bus1=RML1002285828.2.0,Phases=1,kv=0.127,kW=0.16542,pf=0.92,Vminpu=0.92,Vmaxpu=1.5,model=1,daily=RES1_20,status=variable
new load.3000583855M1 bus1=RML1002285814.2.0,Phases=1,kv=0.127,kW=0.46658,pf=0.92,Vminpu=0.92,Vmaxpu=1.5,model=1,daily=RES1_20,status=variable
new load.3000583856M1 bus1=RML1002285688.1.0,Phases=1,kv=0.127,kW=0.35862,pf=0.92,Vminpu=0.92,Vmaxpu=1.5,model=1,daily=RES1_20,status=variable
new load.3000583857M1 bus1=RML1002285660.1.2.0,Phases=2,kv=0.22,kW=0.15652,pf=0.92,Vminpu=0.92,Vmaxpu=1.5,model=1,daily=COM1_23,status=variable
new load.3000583858M1 bus1=RML1002285646.2.0,Phases=1,kv=0.127,kW=0.44116,pf=0.92,Vminpu=0.92,Vmaxpu=1.5,model=1,daily=RES1_20,status=variable
new load.3000583859M1 bus1=RML1002285590.1.0,Phases=1,kv=0.127,kW=0.4834,pf=0.92,Vminpu=0.92,Vmaxpu=1.5,model=1,daily=RES1_20,status=variable
new load.3000583860M1 bus1=RML1002285576.2.0,Phases=1,kv=0.127,kW=0.78656,pf=0.92,Vminpu=0.92,Vmaxpu=1.5,model=1,daily=RES1_20,status=variable
new load.3000583861M1 bus1=RML1002285716.2.0,Phases=1,kv=0.127,kW=0.56296,pf=0.92,Vminpu=0.92,Vmaxpu=1.5,model=1,daily=RES1_20,status=variable
new load.3000583863M1 bus1=RML1002285772.2.0,Phases=1,kv=0.127,kW=0.43052,pf=0.92,Vminpu=0.92,Vmaxpu=1.5,model=1,daily=RES1_20,status=variable
new load.3000583864M1 bus1=RML1002286829.2.0,Phases=1,kv=0.127,kW=0.23768,pf=0.92,Vminpu=0.92,Vmaxpu=1.5,model=1,daily=RES1_20,status=variable
new load.3000583865M1 bus1=RML1002286801.1.0,Phases=1,kv=0.127,kW=0.00558,pf=0.92,Vminpu=0.92,Vmaxpu=1.5,model=1,daily=RES1_20,status=variable
new load.3000583866M1 bus1=RML1002286773.1.0,Phases=1,kv=0.127,kW=0.60102,pf=0.92,Vminpu=0.92,Vmaxpu=1.5,model=1,daily=RES1_20,status=variable
new load.3000583867M1 bus1=RML1002286766.1.0,Phases=1,kv=0.127,kW=0.00558,pf=0.92,Vminpu=0.92,Vmaxpu=1.5,model=1,daily=RES1_20,status=variable
new load.3000583868M1 bus1=RML1002286696.2.0,Phases=1,kv=0.127,kW=0.01858,pf=0.92,Vminpu=0.92,Vmaxpu=1.5,model=1,daily=RES1_20,status=variable
new load.3000583869M1 bus1=RML1002286710.1.2.0,Phases=2,kv=0.22,kW=0.00558,pf=0.92,Vminpu=0.92,Vmaxpu=1.5,model=1,daily=RES1_20,status=variable
new load.3000583870M1 bus1=RML1002286717.1.0,Phases=1,kv=0.127,kW=0.55356,pf=0.92,Vminpu=0.92,Vmaxpu=1.5,model=1,daily=RES1_20,status=variable
new load.3000583871M1 bus1=RML1002286787.1.0,Phases=1,kv=0.127,kW=0.33984,pf=0.92,Vminpu=0.92,Vmaxpu=1.5,model=1,daily=RES1_20,status=variable
new load.3000583872M1 bus1=RML1002286759.2.0,Phases=1,kv=0.127,kW=0.00186,pf=0.92,Vminpu=0.92,Vmaxpu=1.5,model=1,daily=RES1_20,status=variable
new load.3000583873M1 bus1=RML1002286780.2.0,Phases=1,kv=0.127,kW=0.67548,pf=0.92,Vminpu=0.92,Vmaxpu=1.5,model=1,daily=RES1_20,status=variable
new load.3000583874M1 bus1=RML1002286794.2.0,Phases=1,kv=0.127,kW=0.26856,pf=0.92,Vminpu=0.92,Vmaxpu=1.5,model=1,daily=RES1_20,status=variable
new load.3000583875M1 bus1=RML1002285975.2.0,Phases=1,kv=0.127,kW=0.00558,pf=0.92,Vminpu=0.92,Vmaxpu=1.5,model=1,daily=RES1_20,status=variable
new load.3000583876M1 bus1=RML1002286507.1.0,Phases=1,kv=0.127,kW=0.55356,pf=0.92,Vminpu=0.92,Vmaxpu=1.5,model=1,daily=RES1_20,status=variable
new load.3000583877M1 bus1=RML1002286612.2.0,Phases=1,kv=0.127,kW=0.04256,pf=0.92,Vminpu=0.92,Vmaxpu=1.5,model=1,daily=COM1_23,status=variable
new load.3000583878M1 bus1=RML1002286591.1.0,Phases=1,kv=0.127,kW=0.2828,pf=0.92,Vminpu=0.92,Vmaxpu=1.5,model=1,daily=COM1_23,status=variable
new load.3000583879M1 bus1=RML1002285982.2.0,Phases=1,kv=0.127,kW=0.52034,pf=0.92,Vminpu=0.92,Vmaxpu=1.5,model=1,daily=COM1_23,status=variable
new load.3000583880M1 bus1=RML1002285996.1.0,Phases=1,kv=0.127,kW=0.24534,pf=0.92,Vminpu=0.92,Vmaxpu=1.5,model=1,daily=RES1_20,status=variable
new load.3000583881M1 bus1=RML1002286563.2.0,Phases=1,kv=0.127,kW=0.54244,pf=0.92,Vminpu=0.92,Vmaxpu=1.5,model=1,daily=RES1_20,status=variable
new load.3000583882M1 bus1=RML1002286451.1.0,Phases=1,kv=0.127,kW=0.00558,pf=0.92,Vminpu=0.92,Vmaxpu=1.5,model=1,daily=RES1_20,status=variable
new load.3000583883M1 bus1=RML1002286549.2.0,Phases=1,kv=0.127,kW=0.32304,pf=0.92,Vminpu=0.92,Vmaxpu=1.5,model=1,daily=COM1_23,status=variable
new load.3000583884M1 bus1=RML1002286472.1.0,Phases=1,kv=0.127,kW=0.12576,pf=0.92,Vminpu=0.92,Vmaxpu=1.5,model=1,daily=RES1_20,status=variable
new load.3000583885M1 bus1=RML1002286465.1.0,Phases=1,kv=0.127,kW=0.6467,pf=0.92,Vminpu=0.92,Vmaxpu=1.5,model=1,daily=RES1_20,status=variable
new load.3000583887M1 bus1=RML1002286059.2.0,Phases=1,kv=0.127,kW=0.49712,pf=0.92,Vminpu=0.92,Vmaxpu=1.5,model=1,daily=RES1_20,status=variable
new load.3000583888M1 bus1=RML1002286556.1.0,Phases=1,kv=0.127,kW=0.32256,pf=0.92,Vminpu=0.92,Vmaxpu=1.5,model=1,daily=RES1_20,status=variable
new load.3000583889M1 bus1=RML1002286458.2.0,Phases=1,kv=0.127,kW=0.1323,pf=0.92,Vminpu=0.92,Vmaxpu=1.5,model=1,daily=RES1_20,status=variable
new load.3000583890M1 bus1=RML1002286535.1.0,Phases=1,kv=0.127,kW=0.39408,pf=0.92,Vminpu=0.92,Vmaxpu=1.5,model=1,daily=RES1_20,status=variable
new load.3000583891M1 bus1=RML1002286437.1.2.0,Phases=2,kv=0.22,kW=0.40446,pf=0.92,Vminpu=0.92,Vmaxpu=1.5,model=1,daily=RES1_20,status=variable
new load.3000583892M1 bus1=RML1002286423.1.0,Phases=1,kv=0.127,kW=0.4068,pf=0.92,Vminpu=0.92,Vmaxpu=1.5,model=1,daily=RES1_20,status=variable
new load.3000583893M1 bus1=RML1002286416.2.0,Phases=1,kv=0.127,kW=0.43336,pf=0.92,Vminpu=0.92,Vmaxpu=1.5,model=1,daily=RES1_20,status=variable
new load.3000583894M1 bus1=RML1002286402.2.0,Phases=1,kv=0.127,kW=0.12268,pf=0.92,Vminpu=0.92,Vmaxpu=1.5,model=1,daily=RES1_20,status=variable
new load.3000583895M1 bus1=RML1002286409.2.0,Phases=1,kv=0.127,kW=0.71554,pf=0.92,Vminpu=0.92,Vmaxpu=1.5,model=1,daily=RES1_20,status=variable
new load.3000583896M1 bus1=RML1002286395.1.0,Phases=1,kv=0.127,kW=0.22792,pf=0.92,Vminpu=0.92,Vmaxpu=1.5,model=1,daily=RES1_20,status=variable
new load.3000583897M1 bus1=RML1002286514.1.0,Phases=1,kv=0.127,kW=0.23386,pf=0.92,Vminpu=0.92,Vmaxpu=1.5,model=1,daily=RES1_20,status=variable
new load.3000583898M1 bus1=RML1002286521.2.0,Phases=1,kv=0.127,kW=0.90884,pf=0.92,Vminpu=0.92,Vmaxpu=1.5,model=1,daily=RES1_20,status=variable
new load.3000583899M1 bus1=RML1002286577.1.0,Phases=1,kv=0.127,kW=0.63562,pf=0.92,Vminpu=0.92,Vmaxpu=1.5,model=1,daily=RES1_20,status=variable
new load.3000583900M1 bus1=RML1002286661.1.2.0,Phases=2,kv=0.22,kW=0.3454,pf=0.92,Vminpu=0.92,Vmaxpu=1.5,model=1,daily=RES1_20,status=variable
new load.3000583901M1 bus1=RML1002286668.2.0,Phases=1,kv=0.127,kW=0.11426,pf=0.92,Vminpu=0.92,Vmaxpu=1.5,model=1,daily=RES1_20,status=variable
new load.3000583902M1 bus1=RML1002286647.2.0,Phases=1,kv=0.127,kW=0.27486,pf=0.92,Vminpu=0.92,Vmaxpu=1.5,model=1,daily=RES1_20,status=variable
new load.3000583903M1 bus1=RML1002286640.2.0,Phases=1,kv=0.127,kW=0.85326,pf=0.92,Vminpu=0.92,Vmaxpu=1.5,model=1,daily=RES1_20,status=variable
new load.3000583906M1 bus1=RML1002286570.1.0,Phases=1,kv=0.127,kW=0.00578,pf=0.92,Vminpu=0.92,Vmaxpu=1.5,model=1,daily=COM1_23,status=variable
new load.3000583908M1 bus1=RML1002286605.1.0,Phases=1,kv=0.127,kW=0.25164,pf=0.92,Vminpu=0.92,Vmaxpu=1.5,model=1,daily=RES1_20,status=variable
new load.3000583909M1 bus1=RML1002286598.1.2.0,Phases=2,kv=0.22,kW=0.00558,pf=0.92,Vminpu=0.92,Vmaxpu=1.5,model=1,daily=RES1_20,status=variable
new load.3000583911M1 bus1=RML1002286584.1.2.0,Phases=2,kv=0.22,kW=0.46406,pf=0.92,Vminpu=0.92,Vmaxpu=1.5,model=1,daily=COM1_23,status=variable
new load.3000583912M1 bus1=RML1010736390.1.0,Phases=1,kv=0.127,kW=0.47994,pf=0.92,Vminpu=0.92,Vmaxpu=1.5,model=1,daily=RES1_20,status=variable
new load.3000583913M1 bus1=RML1002286038.2.0,Phases=1,kv=0.127,kW=0.43696,pf=0.92,Vminpu=0.92,Vmaxpu=1.5,model=1,daily=RES1_20,status=variable
new load.3000583914M1 bus1=RML1002286024.1.0,Phases=1,kv=0.127,kW=0.00558,pf=0.92,Vminpu=0.92,Vmaxpu=1.5,model=1,daily=RES1_20,status=variable
new load.3000583915M1 bus1=RML1002286150.2.0,Phases=1,kv=0.127,kW=0.20432,pf=0.92,Vminpu=0.92,Vmaxpu=1.5,model=1,daily=RES1_20,status=variable
new load.3000583916M1 bus1=RML1002285919.2.0,Phases=1,kv=0.127,kW=0.52252,pf=0.92,Vminpu=0.92,Vmaxpu=1.5,model=1,daily=COM1_23,status=variable
new load.3000583918M1 bus1=RML1002285926.1.0,Phases=1,kv=0.127,kW=0.39692,pf=0.92,Vminpu=0.92,Vmaxpu=1.5,model=1,daily=RES1_20,status=variable
new load.3000583919M1 bus1=RML1002285905.1.0,Phases=1,kv=0.127,kW=0.37122,pf=0.92,Vminpu=0.92,Vmaxpu=1.5,model=1,daily=RES1_20,status=variable
new load.3000583920M1 bus1=RML1002285898.2.0,Phases=1,kv=0.127,kW=0.39446,pf=0.92,Vminpu=0.92,Vmaxpu=1.5,model=1,daily=RES1_20,status=variable
new load.3000583922M1 bus1=RML1002286052.1.0,Phases=1,kv=0.127,kW=0.43126,pf=0.92,Vminpu=0.92,Vmaxpu=1.5,model=1,daily=RES1_20,status=variable
new load.3000583923M1 bus1=RML1002286080.2.0,Phases=1,kv=0.127,kW=0.54974,pf=0.92,Vminpu=0.92,Vmaxpu=1.5,model=1,daily=RES1_20,status=variable
new load.3000583924M1 bus1=RML1002286087.1.0,Phases=1,kv=0.127,kW=0.48166,pf=0.92,Vminpu=0.92,Vmaxpu=1.5,model=1,daily=RES1_20,status=variable
new load.3000583925M1 bus1=RML1002286066.1.0,Phases=1,kv=0.127,kW=0.15812,pf=0.92,Vminpu=0.92,Vmaxpu=1.5,model=1,daily=RES1_20,status=variable
new load.3000583926M1 bus1=RML1002286101.2.0,Phases=1,kv=0.127,kW=0.40652,pf=0.92,Vminpu=0.92,Vmaxpu=1.5,model=1,daily=RES1_20,status=variable
new load.3000583927M1 bus1=RML1002286129.2.0,Phases=1,kv=0.127,kW=0.00558,pf=0.92,Vminpu=0.92,Vmaxpu=1.5,model=1,daily=RES1_20,status=variable
new load.3000583928M1 bus1=RML1002286122.1.0,Phases=1,kv=0.127,kW=0.4535,pf=0.92,Vminpu=0.92,Vmaxpu=1.5,model=1,daily=RES1_20,status=variable
new load.3000583929M1 bus1=RML1002286115.1.0,Phases=1,kv=0.127,kW=0.45388,pf=0.92,Vminpu=0.92,Vmaxpu=1.5,model=1,daily=RES1_20,status=variable
new load.3000583930M1 bus1=RML1002989699.2.0,Phases=1,kv=0.127,kW=0.34182,pf=0.92,Vminpu=0.92,Vmaxpu=1.5,model=1,daily=RES1_20,status=variable
new load.3000583931M1 bus1=RML1002989664.2.0,Phases=1,kv=0.127,kW=0.65998,pf=0.92,Vminpu=0.92,Vmaxpu=1.5,model=1,daily=RES1_20,status=variable
new load.3000583932M1 bus1=RML1002989650.1.0,Phases=1,kv=0.127,kW=0.00558,pf=0.92,Vminpu=0.92,Vmaxpu=1.5,model=1,daily=RES1_20,status=variable
new load.3000583933M1 bus1=RML1002989804.2.0,Phases=1,kv=0.127,kW=0.0045,pf=0.92,Vminpu=0.92,Vmaxpu=1.5,model=1,daily=RES1_20,status=variable
new load.3000583934M1 bus1=RML1002989797.2.0,Phases=1,kv=0.127,kW=0.00558,pf=0.92,Vminpu=0.92,Vmaxpu=1.5,model=1,daily=RES1_20,status=variable
new load.3000583935M1 bus1=RML1002989811.1.0,Phases=1,kv=0.127,kW=0.10812,pf=0.92,Vminpu=0.92,Vmaxpu=1.5,model=1,daily=COM1_23,status=variable
new load.3000583936M1 bus1=RML1002990077.2.0,Phases=1,kv=0.127,kW=0.217,pf=0.92,Vminpu=0.92,Vmaxpu=1.5,model=1,daily=RES1_20,status=variable
new load.3000583937M1 bus1=RML1002990126.1.0,Phases=1,kv=0.127,kW=0.1741,pf=0.92,Vminpu=0.92,Vmaxpu=1.5,model=1,daily=RES1_20,status=variable
new load.3000583938M1 bus1=RML1002990084.1.2.0,Phases=2,kv=0.22,kW=0.64086,pf=0.92,Vminpu=0.92,Vmaxpu=1.5,model=1,daily=RES1_20,status=variable
new load.3000583939M1 bus1=RML1002989608.1.0,Phases=1,kv=0.127,kW=0.00578,pf=0.92,Vminpu=0.92,Vmaxpu=1.5,model=1,daily=COM1_23,status=variable
new load.3000583940M1 bus1=RML1002989720.1.0,Phases=1,kv=0.127,kW=0.55216,pf=0.92,Vminpu=0.92,Vmaxpu=1.5,model=1,daily=RES1_20,status=variable
new load.3000583941M1 bus1=RML1002989706.2.0,Phases=1,kv=0.127,kW=0.61436,pf=0.92,Vminpu=0.92,Vmaxpu=1.5,model=1,daily=COM1_23,status=variable
new load.3000583943M1 bus1=RML1002984288.2.0,Phases=1,kv=0.127,kW=0.00558,pf=0.92,Vminpu=0.92,Vmaxpu=1.5,model=1,daily=RES1_20,status=variable
new load.3000583946M1 bus1=RML1002984260.1.0,Phases=1,kv=0.127,kW=0.00558,pf=0.92,Vminpu=0.92,Vmaxpu=1.5,model=1,daily=RES1_20,status=variable
new load.3000583947M1 bus1=RML1002984267.2.0,Phases=1,kv=0.127,kW=0.00578,pf=0.92,Vminpu=0.92,Vmaxpu=1.5,model=1,daily=COM1_23,status=variable
new load.3000583948M1 bus1=RML1002984274.1.0,Phases=1,kv=0.127,kW=0.60562,pf=0.92,Vminpu=0.92,Vmaxpu=1.5,model=1,daily=RES1_20,status=variable
new load.3000583991M1 bus1=RML1003071459.1.2.0,Phases=2,kv=0.22,kW=0.59356,pf=0.92,Vminpu=0.92,Vmaxpu=1.5,model=1,daily=RUR1_24,status=variable
new load.3000583992M1 bus1=RML1003071515.1.2.0,Phases=2,kv=0.22,kW=0.73442,pf=0.92,Vminpu=0.92,Vmaxpu=1.5,model=1,daily=RUR1_24,status=variable
new load.3000583993M1 bus1=RML1003071536.1.2.0,Phases=2,kv=0.22,kW=2.12334,pf=0.92,Vminpu=0.92,Vmaxpu=1.5,model=1,daily=RES1_20,status=variable
new load.3000583994M1 bus1=RML1002598126.1.2.0,Phases=2,kv=0.22,kW=0.96892,pf=0.92,Vminpu=0.92,Vmaxpu=1.5,model=1,daily=RUR1_24,status=variable
new load.3000583995M1 bus1=RML1003071543.1.2.0,Phases=2,kv=0.22,kW=3.29006,pf=0.92,Vminpu=0.92,Vmaxpu=1.5,model=1,daily=RUR1_24,status=variable
new load.3000583997M1 bus1=RML1002619861.1.2.0,Phases=2,kv=0.22,kW=0.86242,pf=0.92,Vminpu=0.92,Vmaxpu=1.5,model=1,daily=RUR1_24,status=variable
new load.3000583999M1 bus1=RML1002613400.1.0,Phases=1,kv=0.127,kW=0.65346,pf=0.92,Vminpu=0.92,Vmaxpu=1.5,model=1,daily=COM1_23,status=variable
new load.3000584000M1 bus1=RML1003008291.1.2.0,Phases=2,kv=0.22,kW=7.88782,pf=0.92,Vminpu=0.92,Vmaxpu=1.5,model=1,daily=RUR1_24,status=variable
new load.3000584001M1 bus1=RML1002621898.2.0,Phases=1,kv=0.127,kW=0.53286,pf=0.92,Vminpu=0.92,Vmaxpu=1.5,model=1,daily=COM1_23,status=variable
new load.3000584002M1 bus1=RML1002630676.1.0,Phases=1,kv=0.127,kW=0.48186,pf=0.92,Vminpu=0.92,Vmaxpu=1.5,model=1,daily=RUR1_24,status=variable
new load.3000945181M1 bus1=RML1004595744.1.2.0,Phases=2,kv=0.22,kW=0.00682,pf=0.92,Vminpu=0.92,Vmaxpu=1.5,model=1,daily=RUR1_11,status=variable
new load.3000945201M1 bus1=RML1003059405.1.2.0,Phases=2,kv=0.22,kW=0.47344,pf=0.92,Vminpu=0.92,Vmaxpu=1.5,model=1,daily=COM1_12,status=variable
new load.3000945202M1 bus1=RML1004534186.1.2.0,Phases=2,kv=0.22,kW=0.03728,pf=0.92,Vminpu=0.92,Vmaxpu=1.5,model=1,daily=COM1_12,status=variable
new load.3000945203M1 bus1=RML1003060910.1.2.0,Phases=2,kv=0.22,kW=0.59656,pf=0.92,Vminpu=0.92,Vmaxpu=1.5,model=1,daily=RUR1_11,status=variable
new load.3000945204M1 bus1=RML1003060574.1.2.0,Phases=2,kv=0.22,kW=0.58844,pf=0.92,Vminpu=0.92,Vmaxpu=1.5,model=1,daily=COM1_12,status=variable
new load.3000945205M1 bus1=RML1003059559.1.2.0,Phases=2,kv=0.22,kW=0.00682,pf=0.92,Vminpu=0.92,Vmaxpu=1.5,model=1,daily=RUR1_11,status=variable
new load.3000945206M1 bus1=RML1004540052.1.0,Phases=1,kv=0.127,kW=0.37214,pf=0.92,Vminpu=0.92,Vmaxpu=1.5,model=1,daily=RUR1_11,status=variable
new load.3000945207M1 bus1=RML1004540038.2.0,Phases=1,kv=0.127,kW=0.22152,pf=0.92,Vminpu=0.92,Vmaxpu=1.5,model=1,daily=RUR1_11,status=variable