new line.RML10032620 bus1=BBT1887352.1.2.3.0,bus2=RML1060032620.1.2.3.0,Phases=3,Linecode=CABBTG10_4_3,Length=0.017000000,Units=km
new line.RML10032915 bus1=BBT1880933.1.3.0,bus2=RML1060032915.1.3.0,Phases=2,Linecode=CABBTG05_4_2,Length=0.017000000,Units=km
new line.RML10033356 bus1=BBT3217695.1.2.3.0,bus2=RML1060033356.1.2.3.0,Phases=3,Linecode=CABBTG07_4_3,Length=0.017000000,Units=km
new line.RML10037921 bus1=BBT2197599.2.3.0,bus2=RML1060037921.2.3.0,Phases=2,Linecode=CABBTG05_4_2,Length=0.017000000,Units=km
new line.RML10038754 bus1=BBT1886876.1.2.3.0,bus2=RML1060038754.1.2.3.0,Phases=3,Linecode=CABBTG06_4_3,Length=0.017000000,Units=km
new line.RML10039325 bus1=BBT3643855.2.3.0,bus2=RML1060039325.2.3.0,Phases=2,Linecode=CABBTG05_4_2,Length=0.017000000,Units=km
new line.RML10039392 bus1=BBT2343724.1.2.3.0,bus2=RML1060039392.1.2.3.0,Phases=3,Linecode=CABBTG06_4_3,Length=0.017000000,Units=km
new line.RML10039530 bus1=BBT1878343.2.3.0,bus2=RML1060039530.2.3.0,Phases=2,Linecode=CABBTG05_4_2,Length=0.017000000,Units=km
new line.RML10040437 bus1=BBT1886967.1.2.3.0,bus2=RML1060040437.1.2.3.0,Phases=3,Linecode=CABBTG06_4_3,Length=0.017000000,Units=km
new line.RML10043026 bus1=BBT144091049.1.0,bus2=RML1060043026.1.0,Phases=1,Linecode=CABBTG03_4_1,Length=0.017000000,Units=km
new line.RML10050263 bus1=BBT1887695.1.2.0,bus2=RML1060050263.1.2.0,Phases=2,Linecode=CABBTG05_4_2,Length=0.017000000,Units=km
new line.RML10050756 bus1=BBT1882116.1.2.0,bus2=RML1060050756.1.2.0,Phases=2,Linecode=CABBTG05_4_2,Length=0.012000000,Units=km
new line.RML10056865 bus1=BBT163403219.1.2.3.0,bus2=RML1060056865.1.2.3.0,Phases=3,Linecode=CABBTG06_4_3,Length=0.017000000,Units=km
new line.RML10056868 bus1=BBT2473420.1.2.0,bus2=RML1060056868.1.2.0,Phases=2,Linecode=CABBTG05_4_2,Length=0.017000000,Units=km
new line.RML10057316 bus1=BBT2123742.1.2.0,bus2=RML1060057316.1.2.0,Phases=2,Linecode=CABBTG05_4_2,Length=0.017000000,Units=km
new line.RML10058200 bus1=BBT2442095.1.2.0,bus2=RML1060058200.1.2.0,Phases=2,Linecode=CABBTG05_4_2,Length=0.017000000,Units=km
new line.RML10059558 bus1=BBT2828537.1.2.3.0,bus2=RML1060059558.1.2.3.0,Phases=3,Linecode=CABBTG06_4_3,Length=0.017000000,Units=km
new line.RML10060411 bus1=BBT163403193.1.2.0,bus2=RML1060060411.1.2.0,Phases=2,Linecode=CABBTG05_4_2,Length=0.017000000,Units=km
new line.RML10060412 bus1=BBT1883971.1.2.3.0,bus2=RML1060060412.1.2.3.0,Phases=3,Linecode=CABBTG06_4_3,Length=0.017000000,Units=km
new line.RML10060416 bus1=BBT1883586.1.2.0,bus2=RML1060060416.1.2.0,Phases=2,Linecode=CABBTG05_4_2,Length=0.017000000,Units=km
new line.RML10062017 bus1=BBT1871756.1.2.3.0,bus2=RML1060062017.1.2.3.0,Phases=3,Linecode=CABBTG06_4_3,Length=0.017000000,Units=km
new line.RML10062032 bus1=BBT1871756.1.2.0,bus2=RML1060062032.1.2.0,Phases=2,Linecode=CABBTG05_4_2,Length=0.017000000,Units=km
new line.RML10062053 bus1=BBT1873457.1.2.0,bus2=RML1060062053.1.2.0,Phases=2,Linecode=CABBTG05_4_2,Length=0.029000000,Units=km
new line.RML10062240 bus1=BBT3217695.1.2.0,bus2=RML1060062240.1.2.0,Phases=2,Linecode=CABBTG05_4_2,Length=0.017000000,Units=km
new line.RML10063379 bus1=BBT1879904.1.2.3.0,bus2=RML1060063379.1.2.3.0,Phases=3,Linecode=CABBTG06_4_3,Length=0.017000000,Units=km
new line.RML10063412 bus1=BBT1880443.1.2.3.0,bus2=RML1060063412.1.2.3.0,Phases=3,Linecode=CABBTG06_4_3,Length=0.017000000,Units=km
new line.RML10063945 bus1=BBT2343766.1.2.3.0,bus2=RML1060063945.1.2.3.0,Phases=3,Linecode=CABBTG06_4_3,Length=0.010000000,Units=km
new line.RML10068073 bus1=BBT1874003.1.2.0,bus2=RML1060068073.1.2.0,Phases=2,Linecode=CABBTG05_4_2,Length=0.012000000,Units=km
new line.RML10068138 bus1=BBT148514365.1.2.3.0,bus2=RML1060068138.1.2.3.0,Phases=3,Linecode=CABBTG07_4_3,Length=0.012000000,Units=km
new line.RML10083294 bus1=BBT3620874.1.2.0,bus2=RML1060083294.1.2.0,Phases=2,Linecode=CABBTG05_4_2,Length=0.017000000,Units=km
new line.RML10083407 bus1=BBT2343640.1.0,bus2=RML1060083407.1.0,Phases=1,Linecode=CABBTG02_4_1,Length=0.020000000,Units=km
new line.RML10087301 bus1=BBT3217765.1.3.0,bus2=RML1060087301.1.3.0,Phases=2,Linecode=CABBTG04_4_2,Length=0.017000000,Units=km
new line.RML10092664 bus1=BBT1881031.1.2.3.0,bus2=RML1060092664.1.2.3.0,Phases=3,Linecode=CABBTG06_4_3,Length=0.017000000,Units=km
new line.RML10092988 bus1=BBT3650197.1.2.0,bus2=RML1060092988.1.2.0,Phases=2,Linecode=CABBTG05_4_2,Length=0.017000000,Units=km
new line.RML10093531 bus1=BBT2197543.3.0,bus2=RML1060093531.3.0,Phases=1,Linecode=CABBTG02_4_1,Length=0.012000000,Units=km
new line.RML10097124 bus1=BBT1879435.1.2.0,bus2=RML1060097124.1.2.0,Phases=2,Linecode=CABBTG05_4_2,Length=0.017000000,Units=km
new line.RML10107950 bus1=BBT1886309.3.0,bus2=RML1060107950.3.0,Phases=1,Linecode=CABBTG02_4_1,Length=0.010000000,Units=km
new line.RML10113926 bus1=BBT1887289.1.2.0,bus2=RML1060113926.1.2.0,Phases=2,Linecode=CABBTG05_4_2,Length=0.017000000,Units=km
new line.RML10113939 bus1=BBT2197599.1.2.0,bus2=RML1060113939.1.2.0,Phases=2,Linecode=CABBTG05_4_2,Length=0.017000000,Units=km
new line.RML10113947 bus1=BBT2473420.1.0,bus2=RML1060113947.1.0,Phases=1,Linecode=CABBTG02_4_1,Length=0.017000000,Units=km
new line.RML10113983 bus1=BBT1883992.1.2.3.0,bus2=RML1060113983.1.2.3.0,Phases=3,Linecode=CABBTG06_4_3,Length=0.017000000,Units=km
new line.RML10114014 bus1=BBT1883999.1.2.3.0,bus2=RML1060114014.1.2.3.0,Phases=3,Linecode=CABBTG06_4_3,Length=0.017000000,Units=km
new line.RML10115524 bus1=BBT1881654.1.2.3.0,bus2=RML1060115524.1.2.3.0,Phases=3,Linecode=CABBTG06_4_3,Length=0.017000000,Units=km
new line.RML10115541 bus1=BBT2137294.1.2.3.0,bus2=RML1060115541.1.2.3.0,Phases=3,Linecode=CABBTG06_4_3,Length=0.017000000,Units=km
new line.RML10115549 bus1=BBT2123756.1.2.3.0,bus2=RML1060115549.1.2.3.0,Phases=3,Linecode=CABBTG06_4_3,Length=0.017000000,Units=km
new line.RML10117300 bus1=BBT2828579.1.2.0,bus2=RML1060117300.1.2.0,Phases=2,Linecode=CABBTG05_4_2,Length=0.010000000,Units=km
new line.RML10117315 bus1=BBT1885259.1.2.0,bus2=RML1060117315.1.2.0,Phases=2,Linecode=CABBTG05_4_2,Length=0.008000000,Units=km
new line.RML10121918 bus1=BBT1880044.1.3.0,bus2=RML1060121918.1.3.0,Phases=2,Linecode=CABBTG05_4_2,Length=0.029000000,Units=km
new line.RML10123704 bus1=BBT1884874.2.3.0,bus2=RML1060123704.2.3.0,Phases=2,Linecode=CABBTG05_4_2,Length=0.017000000,Units=km
new line.RML10127845 bus1=BBT2473427.1.2.0,bus2=RML1060127845.1.2.0,Phases=2,Linecode=CABBTG05_4_2,Length=0.017000000,Units=km
new line.RML10133052 bus1=BBT1869418.1.2.0,bus2=RML1060133052.1.2.0,Phases=2,Linecode=CABBTG05_4_2,Length=0.017000000,Units=km
new line.RML10145318 bus1=BBT1882361.1.2.0,bus2=RML1060145318.1.2.0,Phases=2,Linecode=CABBTG05_4_2,Length=0.017000000,Units=km
new line.RML10145322 bus1=BBT2134326.1.0,bus2=RML1060145322.1.0,Phases=1,Linecode=CABBTG02_4_1,Length=0.017000000,Units=km
new line.RML10148626 bus1=BBT1886666.1.2.0,bus2=RML1060148626.1.2.0,Phases=2,Linecode=CABBTG05_4_2,Length=0.017000000,Units=km
new line.RML10148631 bus1=BBT3876661.1.2.0,bus2=RML1060148631.1.2.0,Phases=2,Linecode=CABBTG04_4_2,Length=0.017000000,Units=km
new line.RML10148645 bus1=BBT1882312.1.0,bus2=RML1060148645.1.0,Phases=1,Linecode=CABBTG02_4_1,Length=0.017000000,Units=km
new line.RML10151837 bus1=BBT1883740.1.2.0,bus2=RML1060151837.1.2.0,Phases=2,Linecode=CABBTG05_4_2,Length=0.010000000,Units=km
new line.RML10158014 bus1=BBT3932423.1.0,bus2=RML1060158014.1.0,Phases=1,Linecode=CABBTG02_4_1,Length=0.017000000,Units=km
new line.RML10161965 bus1=BBT1873513.2.3.0,bus2=RML1060161965.2.3.0,Phases=2,Linecode=CABBTG05_4_2,Length=0.009000000,Units=km
new line.RML10162664 bus1=BBT130692426.1.2.3.0,bus2=RML1060162664.1.2.3.0,Phases=3,Linecode=CABBTG06_4_3,Length=0.029000000,Units=km
new line.RML10163685 bus1=BBT3454631.1.2.3.0,bus2=RML1060163685.1.2.3.0,Phases=3,Linecode=CABBTG06_4_3,Length=0.017000000,Units=km
new line.RML10163687 bus1=BBT1880639.1.0,bus2=RML1060163687.1.0,Phases=1,Linecode=CABBTG02_4_1,Length=0.017000000,Units=km
new line.RML10163688 bus1=BBT1881346.1.0,bus2=RML1060163688.1.0,Phases=1,Linecode=CABBTG02_4_1,Length=0.017000000,Units=km
new line.RML10164392 bus1=BBT2343738.1.0,bus2=RML1060164392.1.0,Phases=1,Linecode=CABBTG02_4_1,Length=0.017000000,Units=km
new line.RML10166204 bus1=BBT2227230.1.2.3.0,bus2=RML1060166204.1.2.3.0,Phases=3,Linecode=CABBTG06_4_3,Length=0.017000000,Units=km
new line.RML10166206 bus1=BBT1870594.1.0,bus2=RML1060166206.1.0,Phases=1,Linecode=CABBTG01_4_1,Length=0.017000000,Units=km
new line.RML10173772 bus1=BBT149003348.1.2.3.0,bus2=RML1060173772.1.2.3.0,Phases=3,Linecode=CABBTG06_4_3,Length=0.026000000,Units=km
new line.RML10174084 bus1=BBT1886981.1.0,bus2=RML1060174084.1.0,Phases=1,Linecode=CABBTG02_4_1,Length=0.017000000,Units=km
new line.RML10174197 bus1=BBT1870664.1.0,bus2=RML1060174197.1.0,Phases=1,Linecode=CABBTG02_4_1,Length=0.017000000,Units=km
new line.RML10177785 bus1=BBT1883250.1.2.3.0,bus2=RML1060177785.1.2.3.0,Phases=3,Linecode=CABBTG06_4_3,Length=0.017000000,Units=km
new line.RML10177877 bus1=BBT1877384.1.2.0,bus2=RML1060177877.1.2.0,Phases=2,Linecode=CABBTG05_4_2,Length=0.017000000,Units=km
new line.RML10178195 bus1=BBT1879001.1.2.0,bus2=RML1060178195.1.2.0,Phases=2,Linecode=CABBTG05_4_2,Length=0.017000000,Units=km
new line.RML10178199 bus1=BBT1879001.1.2.0,bus2=RML1060178199.1.2.0,Phases=2,Linecode=CABBTG05_4_2,Length=0.017000000,Units=km
new line.RML10179769 bus1=BBT3096364.1.2.0,bus2=RML1060179769.1.2.0,Phases=2,Linecode=CABBTG05_4_2,Length=0.017000000,Units=km
new line.RML10180419 bus1=BBT2828747.1.2.3.0,bus2=RML1060180419.1.2.3.0,Phases=3,Linecode=CABBTG06_4_3,Length=0.017000000,Units=km
new line.RML10180552 bus1=BBT5384307.1.2.3.0,bus2=RML1060180552.1.2.3.0,Phases=3,Linecode=CABBTG06_4_3,Length=0.017000000,Units=km
new line.RML10185283 bus1=BBT1874066.1.2.3.0,bus2=RML1060185283.1.2.3.0,Phases=3,Linecode=CABBTG06_4_3,Length=0.017000000,Units=km
new line.RML10185909 bus1=BBT1881892.1.0,bus2=RML1060185909.1.0,Phases=1,Linecode=CABBTG02_4_1,Length=0.017000000,Units=km
new line.RML10191799 bus1=BBT1917620.1.2.0,bus2=RML1060191799.1.2.0,Phases=2,Linecode=CABBTG05_4_2,Length=0.017000000,Units=km
new line.RML10192010 bus1=BBT1877461.1.2.3.0,bus2=RML1060192010.1.2.3.0,Phases=3,Linecode=CABBTG06_4_3,Length=0.017000000,Units=km
new line.RML10210166 bus1=BBT169005394.1.2.0,bus2=RML1060210166.1.2.0,Phases=2,Linecode=CABBTG05_4_2,Length=0.017000000,Units=km
new line.RML10210245 bus1=BBT1885945.1.2.3.0,bus2=RML1060210245.1.2.3.0,Phases=3,Linecode=CABBTG07_4_3,Length=0.017000000,Units=km
new line.RML10210396 bus1=BBT1873520.1.2.3.0,bus2=RML1060210396.1.2.3.0,Phases=3,Linecode=CABBTG06_4_3,Length=0.017000000,Units=km
new line.RML10210606 bus1=BBT3650211.1.0,bus2=RML1060210606.1.0,Phases=1,Linecode=CABBTG02_4_1,Length=0.017000000,Units=km
new line.RML10219528 bus1=BBT163403219.1.0,bus2=RML1060219528.1.0,Phases=1,Linecode=CABBTG02_4_1,Length=0.017000000,Units=km
new line.RML10226982 bus1=BBT1884503.1.2.3.0,bus2=RML1060226982.1.2.3.0,Phases=3,Linecode=CABBTG12_4_3,Length=0.017000000,Units=km
new line.RML10236033 bus1=BBT163403219.1.2.3.0,bus2=RML1060236033.1.2.3.0,Phases=3,Linecode=CABBTG06_4_3,Length=0.017000000,Units=km
new line.RML10240626 bus1=BBT1868907.1.2.0,bus2=RML1060240626.1.2.0,Phases=2,Linecode=CABBTG05_4_2,Length=0.017000000,Units=km
new line.RML10245243 bus1=BBT2029515.1.2.3.0,bus2=RML1060245243.1.2.3.0,Phases=3,Linecode=CABBTG12_4_3,Length=0.017000000,Units=km
new line.RML10250404 bus1=BBT1887002.1.2.0,bus2=RML1060250404.1.2.0,Phases=2,Linecode=CABBTG05_4_2,Length=0.017000000,Units=km
new line.RML10265512 bus1=BBT1880331.1.2.3.0,bus2=RML1060265512.1.2.3.0,Phases=3,Linecode=CABBTG12_4_3,Length=0.017000000,Units=km
new line.RML10274097 bus1=BBT1878504.1.2.3.0,bus2=RML1060274097.1.2.3.0,Phases=3,Linecode=CABBTG07_4_3,Length=0.017000000,Units=km
new line.RML10285565 bus1=BBT1879778.1.2.0,bus2=RML1060285565.1.2.0,Phases=2,Linecode=CABBTG05_4_2,Length=0.017000000,Units=km
new line.RML10285599 bus1=BBT1879778.1.2.0,bus2=RML1060285599.1.2.0,Phases=2,Linecode=CABBTG05_4_2,Length=0.017000000,Units=km
new line.RML10285748 bus1=BBT1883229.2.0,bus2=RML1060285748.2.0,Phases=1,Linecode=CABBTG02_4_1,Length=0.017000000,Units=km
new line.RML10285878 bus1=BBT1880233.1.0,bus2=RML1060285878.1.0,Phases=1,Linecode=CABBTG02_4_1,Length=0.017000000,Units=km
new line.RML10285892 bus1=BBT1869397.1.2.3.0,bus2=RML1060285892.1.2.3.0,Phases=3,Linecode=CABBTG06_4_3,Length=0.017000000,Units=km
new line.RML10285921 bus1=BBT2134256.1.2.0,bus2=RML1060285921.1.2.0,Phases=2,Linecode=CABBTG05_4_2,Length=0.017000000,Units=km
new line.RML10285984 bus1=BBT2197543.1.2.0,bus2=RML1060285984.1.2.0,Phases=2,Linecode=CABBTG05_4_2,Length=0.017000000,Units=km
new line.RML10285992 bus1=BBT1886106.1.2.0,bus2=RML1060285992.1.2.0,Phases=2,Linecode=CABBTG05_4_2,Length=0.017000000,Units=km
new line.RML10286022 bus1=BBT3619523.1.0,bus2=RML1060286022.1.0,Phases=1,Linecode=CABBTG02_4_1,Length=0.017000000,Units=km
new line.RML10286026 bus1=BBT1885168.1.0,bus2=RML1060286026.1.0,Phases=1,Linecode=CABBTG02_4_1,Length=0.017000000,Units=km
new line.RML10286433 bus1=BBT3619523.1.2.0,bus2=RML1060286433.1.2.0,Phases=2,Linecode=CABBTG05_4_2,Length=0.017000000,Units=km
new line.RML10286602 bus1=BBT1882382.1.2.0,bus2=RML1060286602.1.2.0,Phases=2,Linecode=CABBTG05_4_2,Length=0.017000000,Units=km
new line.RML10286622 bus1=BBT3619488.1.2.0,bus2=RML1060286622.1.2.0,Phases=2,Linecode=CABBTG05_4_2,Length=0.017000000,Units=km
new line.RML10286665 bus1=BBT2197536.1.2.0,bus2=RML1060286665.1.2.0,Phases=2,Linecode=CABBTG05_4_2,Length=0.017000000,Units=km
new line.RML10286675 bus1=BBT171068279.1.2.0,bus2=RML1060286675.1.2.0,Phases=2,Linecode=CABBTG05_4_2,Length=0.017000000,Units=km
new line.RML10287014 bus1=BBT3933095.1.2.0,bus2=RML1060287014.1.2.0,Phases=2,Linecode=CABBTG05_4_2,Length=0.017000000,Units=km
new line.RML10287033 bus1=BBT2911123.1.2.0,bus2=RML1060287033.1.2.0,Phases=2,Linecode=CABBTG05_4_2,Length=0.017000000,Units=km
new line.RML10287090 bus1=BBT2197543.1.2.0,bus2=RML1060287090.1.2.0,Phases=2,Linecode=CABBTG05_4_2,Length=0.017000000,Units=km
new line.RML10287163 bus1=BBT3619523.1.2.0,bus2=RML1060287163.1.2.0,Phases=2,Linecode=CABBTG05_4_2,Length=0.017000000,Units=km
new line.RML10287289 bus1=BBT2227230.1.2.3.0,bus2=RML1060287289.1.2.3.0,Phases=3,Linecode=CABBTG07_4_3,Length=0.017000000,Units=km
new line.RML10287784 bus1=BBT3452384.1.2.3.0,bus2=RML1060287784.1.2.3.0,Phases=3,Linecode=CABBTG06_4_3,Length=0.017000000,Units=km
new line.RML10287819 bus1=BBT1885931.1.0,bus2=RML1060287819.1.0,Phases=1,Linecode=CABBTG02_4_1,Length=0.017000000,Units=km
new line.RML10288582 bus1=BBT130692426.1.2.0,bus2=RML1060288582.1.2.0,Phases=2,Linecode=CABBTG05_4_2,Length=0.029000000,Units=km
new line.RML10288942 bus1=BBT1887457.1.2.0,bus2=RML1060288942.1.2.0,Phases=2,Linecode=CABBTG05_4_2,Length=0.017000000,Units=km
new line.RML10289060 bus1=BBT3619502.1.2.0,bus2=RML1060289060.1.2.0,Phases=2,Linecode=CABBTG05_4_2,Length=0.017000000,Units=km
new line.RML10289786 bus1=BBT130692426.1.2.0,bus2=RML1060289786.1.2.0,Phases=2,Linecode=CABBTG05_4_2,Length=0.029000000,Units=km
new line.RML10290062 bus1=BBT1877986.1.2.0,bus2=RML1060290062.1.2.0,Phases=2,Linecode=CABBTG05_4_2,Length=0.017000000,Units=km
new line.RML10290175 bus1=BBT1880226.1.2.0,bus2=RML1060290175.1.2.0,Phases=2,Linecode=CABBTG05_4_2,Length=0.017000000,Units=km
new line.RML10290199 bus1=BBT3167680.1.2.0,bus2=RML1060290199.1.2.0,Phases=2,Linecode=CABBTG05_4_2,Length=0.017000000,Units=km
new line.RML10290273 bus1=BBT1878966.1.2.0,bus2=RML1060290273.1.2.0,Phases=2,Linecode=CABBTG05_4_2,Length=0.017000000,Units=km
new line.RML10290279 bus1=BBT2343724.1.2.0,bus2=RML1060290279.1.2.0,Phases=2,Linecode=CABBTG05_4_2,Length=0.017000000,Units=km
new line.RML10290492 bus1=BBT1884475.1.2.0,bus2=RML1060290492.1.2.0,Phases=2,Linecode=CABBTG05_4_2,Length=0.017000000,Units=km
new line.RML10290629 bus1=BBT1870594.1.2.0,bus2=RML1060290629.1.2.0,Phases=2,Linecode=CABBTG05_4_2,Length=0.017000000,Units=km
new line.RML10290634 bus1=BBT1886428.1.0,bus2=RML1060290634.1.0,Phases=1,Linecode=CABBTG02_4_1,Length=0.017000000,Units=km
new line.RML10290734 bus1=BBT1886050.1.0,bus2=RML1060290734.1.0,Phases=1,Linecode=CABBTG02_4_1,Length=0.017000000,Units=km
new line.RML10290735 bus1=BBT139928625.1.0,bus2=RML1060290735.1.0,Phases=1,Linecode=CABBTG02_4_1,Length=0.017000000,Units=km
new line.RML10290883 bus1=BBT2828551.1.0,bus2=RML1060290883.1.0,Phases=1,Linecode=CABBTG02_4_1,Length=0.017000000,Units=km
new line.RML10290893 bus1=BBT1871910.1.0,bus2=RML1060290893.1.0,Phases=1,Linecode=CABBTG02_4_1,Length=0.017000000,Units=km
new line.RML10290914 bus1=BBT1887849.1.2.0,bus2=RML1060290914.1.2.0,Phases=2,Linecode=CABBTG05_4_2,Length=0.017000000,Units=km
new line.RML10291070 bus1=BBT1880240.1.2.0,bus2=RML1060291070.1.2.0,Phases=2,Linecode=CABBTG05_4_2,Length=0.017000000,Units=km
new line.RML10291268 bus1=BBT1886981.1.0,bus2=RML1060291268.1.0,Phases=1,Linecode=CABBTG02_4_1,Length=0.017000000,Units=km
new line.RML10291412 bus1=BBT1876390.1.2.0,bus2=RML1060291412.1.2.0,Phases=2,Linecode=CABBTG05_4_2,Length=0.017000000,Units=km
new line.RML10291574 bus1=BBT130692426.1.2.0,bus2=RML1060291574.1.2.0,Phases=2,Linecode=CABBTG05_4_2,Length=0.029000000,Units=km
new line.RML10291660 bus1=BBT1881689.1.2.0,bus2=RML1060291660.1.2.0,Phases=2,Linecode=CABBTG05_4_2,Length=0.017000000,Units=km
new line.RML10291729 bus1=BBT3619523.1.2.0,bus2=RML1060291729.1.2.0,Phases=2,Linecode=CABBTG05_4_2,Length=0.017000000,Units=km
new line.RML10291864 bus1=BBT1873457.1.0,bus2=RML1060291864.1.0,Phases=1,Linecode=CABBTG02_4_1,Length=0.029000000,Units=km
new line.RML10291892 bus1=BBT2197536.1.2.0,bus2=RML1060291892.1.2.0,Phases=2,Linecode=CABBTG05_4_2,Length=0.017000000,Units=km
new line.RML10291909 bus1=BBT2343661.1.2.0,bus2=RML1060291909.1.2.0,Phases=2,Linecode=CABBTG05_4_2,Length=0.017000000,Units=km
new line.RML10291922 bus1=BBT1883404.1.2.0,bus2=RML1060291922.1.2.0,Phases=2,Linecode=CABBTG05_4_2,Length=0.017000000,Units=km
new line.RML10291930 bus1=BBT1879967.1.2.0,bus2=RML1060291930.1.2.0,Phases=2,Linecode=CABBTG05_4_2,Length=0.017000000,Units=km
new line.RML10291978 bus1=BBT1880170.1.2.0,bus2=RML1060291978.1.2.0,Phases=2,Linecode=CABBTG05_4_2,Length=0.017000000,Units=km
new line.RML10292029 bus1=BBT1883705.1.2.0,bus2=RML1060292029.1.2.0,Phases=2,Linecode=CABBTG05_4_2,Length=0.017000000,Units=km
new line.RML10292101 bus1=BBT1883285.1.2.0,bus2=RML1060292101.1.2.0,Phases=2,Linecode=CABBTG05_4_2,Length=0.017000000,Units=km
new line.RML10292244 bus1=BBT86227040.1.0,bus2=RML1060292244.1.0,Phases=1,Linecode=CABBTG02_4_1,Length=0.017000000,Units=km
new line.RML10292269 bus1=BBT1886015.1.0,bus2=RML1060292269.1.0,Phases=1,Linecode=CABBTG02_4_1,Length=0.017000000,Units=km
new line.RML10292347 bus1=BBT1886848.1.2.0,bus2=RML1060292347.1.2.0,Phases=2,Linecode=CABBTG05_4_2,Length=0.017000000,Units=km
new line.RML10292363 bus1=BBT1885196.1.0,bus2=RML1060292363.1.0,Phases=1,Linecode=CABBTG02_4_1,Length=0.017000000,Units=km
new line.RML10292581 bus1=BBT1883852.1.2.0,bus2=RML1060292581.1.2.0,Phases=2,Linecode=CABBTG05_4_2,Length=0.017000000,Units=km
new line.RML10292685 bus1=BBT2343682.1.2.0,bus2=RML1060292685.1.2.0,Phases=2,Linecode=CABBTG05_4_2,Length=0.017000000,Units=km
new line.RML10292843 bus1=BBT1871518.1.2.0,bus2=RML1060292843.1.2.0,Phases=2,Linecode=CABBTG05_4_2,Length=0.017000000,Units=km
new line.RML10292873 bus1=BBT2197536.1.2.0,bus2=RML1060292873.1.2.0,Phases=2,Linecode=CABBTG05_4_2,Length=0.017000000,Units=km
new line.RML10293161 bus1=BBT1880863.1.2.0,bus2=RML1060293161.1.2.0,Phases=2,Linecode=CABBTG05_4_2,Length=0.017000000,Units=km
new line.RML10293171 bus1=BBT1879953.1.2.0,bus2=RML1060293171.1.2.0,Phases=2,Linecode=CABBTG05_4_2,Length=0.017000000,Units=km
new line.RML10293238 bus1=BBT148514365.1.0,bus2=RML1060293238.1.0,Phases=1,Linecode=CABBTG02_4_1,Length=0.017000000,Units=km
new line.RML10293280 bus1=BBT2028493.1.2.0,bus2=RML1060293280.1.2.0,Phases=2,Linecode=CABBTG05_4_2,Length=0.017000000,Units=km
new line.RML10293309 bus1=BBT2199720.1.2.0,bus2=RML1060293309.1.2.0,Phases=2,Linecode=CABBTG05_4_2,Length=0.017000000,Units=km
new line.RML10293619 bus1=BBT1871805.1.2.0,bus2=RML1060293619.1.2.0,Phases=2,Linecode=CABBTG05_4_2,Length=0.017000000,Units=km
new line.RML10293631 bus1=BBT5384307.1.2.0,bus2=RML1060293631.1.2.0,Phases=2,Linecode=CABBTG05_4_2,Length=0.017000000,Units=km
new line.RML10293849 bus1=BBT2828579.1.2.0,bus2=RML1060293849.1.2.0,Phases=2,Linecode=CABBTG05_4_2,Length=0.017000000,Units=km
new line.RML10294131 bus1=BBT110884008.1.2.0,bus2=RML1060294131.1.2.0,Phases=2,Linecode=CABBTG05_4_2,Length=0.017000000,Units=km
new line.RML10294168 bus1=BBT2197536.1.2.0,bus2=RML1060294168.1.2.0,Phases=2,Linecode=CABBTG05_4_2,Length=0.017000000,Units=km
new line.RML10294311 bus1=BBT1885917.1.2.0,bus2=RML1060294311.1.2.0,Phases=2,Linecode=CABBTG05_4_2,Length=0.017000000,Units=km
new line.RML10294433 bus1=BBT1885476.1.2.3.0,bus2=RML1060294433.1.2.3.0,Phases=3,Linecode=CABBTG06_4_3,Length=0.017000000,Units=km
new line.RML10294461 bus1=BBT3452356.1.2.0,bus2=RML1060294461.1.2.0,Phases=2,Linecode=CABBTG05_4_2,Length=0.017000000,Units=km
new line.RML10295267 bus1=BBT2343654.1.2.3.0,bus2=RML1060295267.1.2.3.0,Phases=3,Linecode=CABBTG06_4_3,Length=0.017000000,Units=km
new line.RML10295272 bus1=BBT1871553.1.2.3.0,bus2=RML1060295272.1.2.3.0,Phases=3,Linecode=CABBTG10_4_3,Length=0.017000000,Units=km
new line.RML10295435 bus1=BBT1882977.1.2.0,bus2=RML1060295435.1.2.0,Phases=2,Linecode=CABBTG05_4_2,Length=0.017000000,Units=km
new line.RML10295719 bus1=BBT2828467.1.0,bus2=RML1060295719.1.0,Phases=1,Linecode=CABBTG02_4_1,Length=0.017000000,Units=km
new line.RML10295806 bus1=BBT1882361.1.2.0,bus2=RML1060295806.1.2.0,Phases=2,Linecode=CABBTG05_4_2,Length=0.017000000,Units=km
new line.RML10295828 bus1=BBT2343703.1.2.3.0,bus2=RML1060295828.1.2.3.0,Phases=3,Linecode=CABBTG06_4_3,Length=0.017000000,Units=km
new line.RML10295910 bus1=BBT2197536.1.2.0,bus2=RML1060295910.1.2.0,Phases=2,Linecode=CABBTG05_4_2,Length=0.017000000,Units=km
new line.RML10296147 bus1=BBT3453581.1.2.3.0,bus2=RML1060296147.1.2.3.0,Phases=3,Linecode=CABBTG06_4_3,Length=0.017000000,Units=km
new line.RML10296360 bus1=BBT3217772.1.2.0,bus2=RML1060296360.1.2.0,Phases=2,Linecode=CABBTG05_4_2,Length=0.017000000,Units=km
new line.RML10317954 bus1=BBT1883642.1.2.3.0,bus2=RML1060317954.1.2.3.0,Phases=3,Linecode=CABBTG06_4_3,Length=0.017000000,Units=km
new line.RML10317955 bus1=BBT3217709.1.0,bus2=RML1060317955.1.0,Phases=1,Linecode=CABBTG02_4_1,Length=0.017000000,Units=km
new line.RML10317987 bus1=BBT1873478.1.2.0,bus2=RML1060317987.1.2.0,Phases=2,Linecode=CABBTG05_4_2,Length=0.017000000,Units=km
new line.RML10318091 bus1=BBT1886127.1.2.0,bus2=RML1060318091.1.2.0,Phases=2,Linecode=CABBTG05_4_2,Length=0.017000000,Units=km
new line.RML10318563 bus1=BBT1879785.1.2.0,bus2=RML1060318563.1.2.0,Phases=2,Linecode=CABBTG05_4_2,Length=0.017000000,Units=km
new line.RML10320114 bus1=BBT149003344.1.2.3.0,bus2=RML1060320114.1.2.3.0,Phases=3,Linecode=CABBTG08_4_3,Length=0.017000000,Units=km
new line.RML10320759 bus1=BBT1877986.1.2.3.0,bus2=RML1060320759.1.2.3.0,Phases=3,Linecode=CABBTG06_4_3,Length=0.017000000,Units=km
new line.RML10320761 bus1=BBT2134249.1.2.3.0,bus2=RML1060320761.1.2.3.0,Phases=3,Linecode=CABBTG06_4_3,Length=0.017000000,Units=km
new line.RML10320762 bus1=BBT2124743.1.2.0,bus2=RML1060320762.1.2.0,Phases=2,Linecode=CABBTG05_4_2,Length=0.017000000,Units=km
new line.RML10320808 bus1=BBT2123777.1.2.3.0,bus2=RML1060320808.1.2.3.0,Phases=3,Linecode=CABBTG06_4_3,Length=0.017000000,Units=km
new line.RML10320815 bus1=BBT2134396.1.2.3.0,bus2=RML1060320815.1.2.3.0,Phases=3,Linecode=CABBTG06_4_3,Length=0.017000000,Units=km
new line.RML10320817 bus1=BBT1879960.1.0,bus2=RML1060320817.1.0,Phases=1,Linecode=CABBTG02_4_1,Length=0.017000000,Units=km
new line.RML10320832 bus1=BBT1885287.1.2.3.0,bus2=RML1060320832.1.2.3.0,Phases=3,Linecode=CABBTG06_4_3,Length=0.017000000,Units=km
new line.RML10320835 bus1=BBT171068279.1.2.3.0,bus2=RML1060320835.1.2.3.0,Phases=3,Linecode=CABBTG06_4_3,Length=0.017000000,Units=km
new line.RML10320842 bus1=BBT2134123.1.2.3.0,bus2=RML1060320842.1.2.3.0,Phases=3,Linecode=CABBTG06_4_3,Length=0.017000000,Units=km
new line.RML10320846 bus1=BBT1879547.1.2.3.0,bus2=RML1060320846.1.2.3.0,Phases=3,Linecode=CABBTG06_4_3,Length=0.017000000,Units=km
new line.RML10320852 bus1=BBT1880205.1.2.3.0,bus2=RML1060320852.1.2.3.0,Phases=3,Linecode=CABBTG06_4_3,Length=0.017000000,Units=km
new line.RML10320897 bus1=BBT1877454.1.2.0,bus2=RML1060320897.1.2.0,Phases=2,Linecode=CABBTG05_4_2,Length=0.030000000,Units=km
new line.RML10320954 bus1=BBT2308717.1.2.0,bus2=RML1060320954.1.2.0,Phases=2,Linecode=CABBTG05_4_2,Length=0.017000000,Units=km
new line.RML10324060 bus1=BBT5384314.1.2.0,bus2=RML1060324060.1.2.0,Phases=2,Linecode=CABBTG05_4_2,Length=0.017000000,Units=km
new line.RML10335133 bus1=BBT6092728.1.3.0,bus2=RML1060335133.1.3.0,Phases=2,Linecode=CABBTG05_4_2,Length=0.017000000,Units=km
new line.RML10335910 bus1=BBT2343682.1.2.0,bus2=RML1060335910.1.2.0,Phases=2,Linecode=CABBTG04_4_2,Length=0.017000000,Units=km
new line.RML10339267 bus1=BBT1878973.1.2.0,bus2=RML1060339267.1.2.0,Phases=2,Linecode=CABBTG05_4_2,Length=0.017000000,Units=km
new line.RML10339282 bus1=BBT3167680.1.2.0,bus2=RML1060339282.1.2.0,Phases=2,Linecode=CABBTG05_4_2,Length=0.017000000,Units=km
new line.RML10339623 bus1=BBT1881794.1.2.3.0,bus2=RML1060339623.1.2.3.0,Phases=3,Linecode=CABBTG06_4_3,Length=0.017000000,Units=km
new line.RML10345675 bus1=BBT1871763.3.0,bus2=RML1060345675.3.0,Phases=1,Linecode=CABBTG02_4_1,Length=0.017000000,Units=km
new line.RML10345686 bus1=BBT2197606.1.2.0,bus2=RML1060345686.1.2.0,Phases=2,Linecode=CABBTG05_4_2,Length=0.017000000,Units=km
new line.RML10345740 bus1=BBT3046517.1.2.0,bus2=RML1060345740.1.2.0,Phases=2,Linecode=CABBTG05_4_2,Length=0.017000000,Units=km
new line.RML10346006 bus1=BBT1885532.1.2.0,bus2=RML1060346006.1.2.0,Phases=2,Linecode=CABBTG05_4_2,Length=0.017000000,Units=km
new line.RML10347225 bus1=BBT130692426.1.2.0,bus2=RML1060347225.1.2.0,Phases=2,Linecode=CABBTG05_4_2,Length=0.029000000,Units=km
new line.RML10349215 bus1=BBT1886064.2.0,bus2=RML1060349215.2.0,Phases=1,Linecode=CABBTG02_4_1,Length=0.017000000,Units=km
new line.RML10354566 bus1=BBT2828551.1.2.3.0,bus2=RML1060354566.1.2.3.0,Phases=3,Linecode=CABBTG12_4_3,Length=0.017000000,Units=km
new line.RML10354610 bus1=BBT139928625.1.2.0,bus2=RML1060354610.1.2.0,Phases=2,Linecode=CABBTG05_4_2,Length=0.017000000,Units=km
new line.RML10354614 bus1=BBT3217737.1.2.0,bus2=RML1060354614.1.2.0,Phases=2,Linecode=CABBTG05_4_2,Length=0.017000000,Units=km
new line.RML10355203 bus1=BBT1883306.1.2.0,bus2=RML1060355203.1.2.0,Phases=2,Linecode=CABBTG05_4_2,Length=0.017000000,Units=km
new line.RML10363883 bus1=BBT1873471.1.2.3.0,bus2=RML1060363883.1.2.3.0,Phases=3,Linecode=CABBTG06_4_3,Length=0.017000000,Units=km
new line.RML10364432 bus1=BBT3638360.1.0,bus2=RML1060364432.1.0,Phases=1,Linecode=CABBTG02_4_1,Length=0.017000000,Units=km
new line.RML10364612 bus1=BBT1885896.1.0,bus2=RML1060364612.1.0,Phases=1,Linecode=CABBTG02_4_1,Length=0.017000000,Units=km
new line.RML10365053 bus1=BBT4067180.1.2.0,bus2=RML1060365053.1.2.0,Phases=2,Linecode=CABBTG13_4_2,Length=0.017000000,Units=km
new line.RML10365077 bus1=BBT3643862.1.2.0,bus2=RML1060365077.1.2.0,Phases=2,Linecode=CABBTG05_4_2,Length=0.017000000,Units=km
new line.RML10370511 bus1=BBT1883719.1.0,bus2=RML1060370511.1.0,Phases=1,Linecode=CABBTG02_4_1,Length=0.017000000,Units=km
new line.RML10370672 bus1=BBT2828495.1.2.0,bus2=RML1060370672.1.2.0,Phases=2,Linecode=CABBTG05_4_2,Length=0.017000000,Units=km
new line.RML10370678 bus1=BBT3619502.1.2.0,bus2=RML1060370678.1.2.0,Phases=2,Linecode=CABBTG05_4_2,Length=0.017000000,Units=km
new line.RML10371531 bus1=BBT1883894.1.2.0,bus2=RML1060371531.1.2.0,Phases=2,Linecode=CABBTG05_4_2,Length=0.017000000,Units=km
new line.RML10372078 bus1=BBT1884482.2.3.0,bus2=RML1060372078.2.3.0,Phases=2,Linecode=CABBTG05_4_2,Length=0.017000000,Units=km
new line.RML10372089 bus1=BBT1887632.1.2.3.0,bus2=RML1060372089.1.2.3.0,Phases=3,Linecode=CABBTG06_4_3,Length=0.017000000,Units=km
new line.RML10372318 bus1=BBT1881962.1.0,bus2=RML1060372318.1.0,Phases=1,Linecode=CABBTG02_4_1,Length=0.017000000,Units=km
new line.RML10375443 bus1=BBT2029536.1.2.0,bus2=RML1060375443.1.2.0,Phases=2,Linecode=CABBTG05_4_2,Length=0.017000000,Units=km
new line.RML10375456 bus1=BBT163403193.1.2.0,bus2=RML1060375456.1.2.0,Phases=2,Linecode=CABBTG05_4_2,Length=0.017000000,Units=km
new line.RML10376672 bus1=BBT2828495.1.2.0,bus2=RML1060376672.1.2.0,Phases=2,Linecode=CABBTG05_4_2,Length=0.017000000,Units=km
new line.RML10378745 bus1=BBT1885623.1.0,bus2=RML1060378745.1.0,Phases=1,Linecode=CABBTG02_4_1,Length=0.017000000,Units=km
new line.RML10378788 bus1=BBT2197599.1.2.0,bus2=RML1060378788.1.2.0,Phases=2,Linecode=CABBTG05_4_2,Length=0.017000000,Units=km
new line.RML10378795 bus1=BBT1881661.1.2.0,bus2=RML1060378795.1.2.0,Phases=2,Linecode=CABBTG05_4_2,Length=0.017000000,Units=km
new line.RML10379169 bus1=BBT2197599.2.0,bus2=RML1060379169.2.0,Phases=1,Linecode=CABBTG02_4_1,Length=0.017000000,Units=km
new line.RML10379277 bus1=BBT3638367.2.0,bus2=RML1060379277.2.0,Phases=1,Linecode=CABBTG02_4_1,Length=0.017000000,Units=km
new line.RML10380204 bus1=BBT1871574.1.3.0,bus2=RML1060380204.1.3.0,Phases=2,Linecode=CABBTG05_4_2,Length=0.017000000,Units=km
new line.RML10394072 bus1=BBT2197543.1.0,bus2=RML1060394072.1.0,Phases=1,Linecode=CABBTG02_4_1,Length=0.017000000,Units=km
new line.RML10394086 bus1=BBT1885973.1.0,bus2=RML1060394086.1.0,Phases=1,Linecode=CABBTG02_4_1,Length=0.017000000,Units=km
new line.RML10394320 bus1=BBT1873506.1.2.0,bus2=RML1060394320.1.2.0,Phases=2,Linecode=CABBTG05_4_2,Length=0.017000000,Units=km
new line.RML10394406 bus1=BBT149003344.1.0,bus2=RML1060394406.1.0,Phases=1,Linecode=CABBTG02_4_1,Length=0.017000000,Units=km