! manter este comentario para compatibilidade do C#
new circuit.alimMRND218 bus1=BMT123382970.1.2.3,basekv=13.800000000,pu=1.040000000