new loadshape.c3009900022 npts=24,interval=1.0,mult=(1.018 1.02 1.018 1.028 1.025 1.013 1.004 1 1.012 0.994 0.968 0.932 0.921 0.967 0.995 1.038 1.045 1.035 0.998 0.961 1 1.001 1.005 1.001)
new generator.3009900022 bus1=BMT122767810.1.2.3,Phases=3,kv=13.800000000,kW=630.704704301,pf=0.92,model=1,daily=c3009900022,status=Variable
new loadshape.c3009900231 npts=24,interval=1.0,mult=(1.008 1.014 1.014 1.008 0.974 0.975 0.963 0.947 0.921 0.964 0.968 1.006 1.021 1.013 1.01 1.035 1.041 1.047 1.038 1.013 1.038 0.977 0.994 1.011)
new generator.3009900231 bus1=BMT179252427.1.2.3,Phases=3,kv=13.800000000,kW=1401.556451613,pf=0.92,model=1,daily=c3009900231,status=Variable
new loadshape.c3011623758 npts=24,interval=1.0,mult=(1.025 1.043 0.971 0.963 0.934 0.992 1.097 1.044 1.046 1.037 0.94 1.049 0.886 0.974 0.769 0.809 0.946 0.986 1.099 1.1 1.122 1.034 1.045 1.086)
new generator.3011623758 bus1=BMT150314230.1.2.3,Phases=3,kv=13.800000000,kW=157.110887097,pf=0.92,model=1,daily=c3011623758,status=Variable
new loadshape.c3012344228 npts=24,interval=1.0,mult=(1.1 1.077 1.12 1.144 1.123 1.071 1.032 0.989 0.928 0.94 0.954 0.948 0.915 0.881 0.859 0.902 0.865 0.891 0.971 1.001 1.043 1.074 1.094 1.08)
new generator.3012344228 bus1=BMT151460700.1.2.3,Phases=3,kv=13.800000000,kW=310.815188172,pf=0.92,model=1,daily=c3012344228,status=Variable
new loadshape.c3012344482 npts=24,interval=1.0,mult=(0.941 0.953 0.991 1.045 1.064 1.053 1.047 1.032 1.027 1.043 1.039 1.038 1.04 0.917 0.999 1.022 1.049 1.006 1.026 0.999 0.942 0.957 0.884 0.886)
new generator.3012344482 bus1=BMT150314673.1.2.3,Phases=3,kv=13.800000000,kW=217.048655914,pf=0.92,model=1,daily=c3012344482,status=Variable
new loadshape.c3013645021 npts=24,interval=1.0,mult=(0.001 0.001 0.001 0.001 0.001 0.001 0.001 0.244 0.942 1.906 2.743 3.216 3.279 3.33 3.03 2.397 1.767 0.908 0.228 0.001 0.001 0.001 0.001 0.001 0.001)
new generator.3013645021 bus1=BMT174431906.1.2.3,Phases=3,kv=13.800000000,kW=481.720430108,pf=0.92,model=1,daily=c3013645021,status=Variable
new loadshape.c3014064219 npts=24,interval=1.0,mult=(0.001 0.001 0.001 0.001 0.001 0.001 0.001 0.244 0.942 1.906 2.743 3.216 3.279 3.33 3.03 2.397 1.767 0.908 0.228 0.001 0.001 0.001 0.001 0.001 0.001)
new generator.3014064219 bus1=BMT177436266.1.2.3,Phases=3,kv=13.800000000,kW=194.287634409,pf=0.92,model=1,daily=c3014064219,status=Variable
