new line.RBT_10063375 bus1=BBT470225.1.2.0,bus2=RML1010063375.1.2.0,Phases=2,Linecode=CABBTG05_4_2_2,Length=0.017000000,Units=km
new line.RBT_10063376 bus1=BBT2806251.1.2.0,bus2=RML1010063376.1.2.0,Phases=2,Linecode=CABBTG05_4_2_2,Length=0.017000000,Units=km
new line.RBT_10063377 bus1=BBT3532179.2.0,bus2=RML1010063377.2.0,Phases=1,Linecode=CABBTG01_4_1_1,Length=0.017000000,Units=km
new line.RBT_10063378 bus1=BBT479696.1.2.0,bus2=RML1010063378.1.2.0,Phases=2,Linecode=CABBTG05_4_2_2,Length=0.017000000,Units=km
new line.RBT_10063381 bus1=BBT3861991.1.2.0,bus2=RML1010063381.1.2.0,Phases=2,Linecode=CABBTG05_4_2_2,Length=0.017000000,Units=km
new line.RBT_10063382 bus1=BBT3546732.1.2.0,bus2=RML1010063382.1.2.0,Phases=2,Linecode=CABBTG05_4_2_2,Length=0.017000000,Units=km
new line.RBT_10063386 bus1=BBT4258331.1.0,bus2=RML1010063386.1.0,Phases=1,Linecode=CABBTG01_4_1_1,Length=0.017000000,Units=km
new line.RBT_10063387 bus1=BBT2725093.1.0,bus2=RML1010063387.1.0,Phases=1,Linecode=CABBTG01_4_1_1,Length=0.029000000,Units=km
new line.RBT_10063390 bus1=BBT4268502.1.2.0,bus2=RML1010063390.1.2.0,Phases=2,Linecode=CABBTG05_4_2_2,Length=0.017000000,Units=km
new line.RBT_10063392 bus1=BBT4709971.2.0,bus2=RML1010063392.2.0,Phases=1,Linecode=CABBTG01_4_1_1,Length=0.017000000,Units=km
new line.RBT_10063396 bus1=BBT477470.1.2.0,bus2=RML1010063396.1.2.0,Phases=2,Linecode=CABBTG05_4_2_2,Length=0.017000000,Units=km
new line.RBT_10063398 bus1=BBT477470.1.2.0,bus2=RML1010063398.1.2.0,Phases=2,Linecode=CABBTG05_4_2_2,Length=0.017000000,Units=km
new line.RBT_10063400 bus1=BBT149999528.1.2.0,bus2=RML1010063400.1.2.0,Phases=2,Linecode=CABBTG05_4_2_2,Length=0.029000000,Units=km
new line.RBT_10063401 bus1=BBT5284076.1.2.0,bus2=RML1010063401.1.2.0,Phases=2,Linecode=CABBTG05_4_2_2,Length=0.017000000,Units=km
new line.RBT_10063403 bus1=BBT2751497.1.2.0,bus2=RML1010063403.1.2.0,Phases=2,Linecode=CABBTG05_4_2_2,Length=0.029000000,Units=km
new line.RBT_10063405 bus1=BBT477470.1.2.0,bus2=RML1010063405.1.2.0,Phases=2,Linecode=CABBTG05_4_2_2,Length=0.017000000,Units=km
new line.RBT_10063407 bus1=BBT11135124.1.2.0,bus2=RML1010063407.1.2.0,Phases=2,Linecode=CABBTG05_4_2_2,Length=0.017000000,Units=km
new line.RBT_10063408 bus1=BBT431396.1.2.0,bus2=RML1010063408.1.2.0,Phases=2,Linecode=CABBTG05_4_2_2,Length=0.017000000,Units=km
new line.RBT_10063409 bus1=BBT4789456.1.0,bus2=RML1010063409.1.0,Phases=1,Linecode=CABBTG02_4_1_1,Length=0.017000000,Units=km
new line.RBT_10063410 bus1=BBT431326.2.0,bus2=RML1010063410.2.0,Phases=1,Linecode=CABBTG01_4_1_1,Length=0.029000000,Units=km
new line.RBT_10063411 bus1=BBT2619743.1.0,bus2=RML1010063411.1.0,Phases=1,Linecode=CABBTG01_4_1_1,Length=0.017000000,Units=km
new line.RBT_10063413 bus1=BBT2701412.2.0,bus2=RML1010063413.2.0,Phases=1,Linecode=CABBTG02_4_1_1,Length=0.017000000,Units=km
new line.RBT_10063415 bus1=BBT430521.1.2.0,bus2=RML1010063415.1.2.0,Phases=2,Linecode=CABBTG05_4_2_2,Length=0.029000000,Units=km
new line.RBT_10063416 bus1=BBT4411043.2.0,bus2=RML1010063416.2.0,Phases=1,Linecode=CABBTG02_4_1_1,Length=0.029000000,Units=km
new line.RBT_10063420 bus1=BBT429002.3.1.0,bus2=RML1010063420.3.1.0,Phases=2,Linecode=CABBTG05_4_2_2,Length=0.029000000,Units=km
new line.RBT_10063424 bus1=BBT2743307.2.0,bus2=RML1010063424.2.0,Phases=1,Linecode=CABBTG02_4_1_1,Length=0.029000000,Units=km
new line.RBT_10063427 bus1=BBT3101616.2.0,bus2=RML1010063427.2.0,Phases=1,Linecode=CABBTG02_4_1_1,Length=0.029000000,Units=km
new line.RBT_10063430 bus1=BBT137807961.1.2.0,bus2=RML1010063430.1.2.0,Phases=2,Linecode=CABBTG05_4_2_2,Length=0.017000000,Units=km
new line.RBT_10063442 bus1=BBT138016680.1.0,bus2=RML1010063442.1.0,Phases=1,Linecode=CABBTG02_4_1_1,Length=0.017000000,Units=km
new line.RBT_10063443 bus1=BBT12118407.1.0,bus2=RML1010063443.1.0,Phases=1,Linecode=CABBTG02_4_1_1,Length=0.017000000,Units=km
new line.RBT_10063445 bus1=BBT129634425.1.2.0,bus2=RML1010063445.1.2.0,Phases=2,Linecode=CABBTG05_4_2_2,Length=0.017000000,Units=km
new line.RBT_10063457 bus1=BBT430962.1.2.3.0,bus2=RML1010063457.1.2.3.0,Phases=3,Linecode=CABBTG06_4_3_3,Length=0.029000000,Units=km
new line.RBT_10063465 bus1=BBT3023755.3.1.0,bus2=RML1010063465.3.1.0,Phases=2,Linecode=CABBTG05_4_2_2,Length=0.029000000,Units=km
new line.RBT_10063468 bus1=BBT140920861.1.2.0,bus2=RML1010063468.1.2.0,Phases=2,Linecode=CABBTG05_4_2_2,Length=0.017000000,Units=km
new line.RBT_10063469 bus1=BBT138354206.1.2.0,bus2=RML1010063469.1.2.0,Phases=2,Linecode=CABBTG05_4_2_2,Length=0.029000000,Units=km
new line.RBT_10063473 bus1=BBT138028706.2.0,bus2=RML1010063473.2.0,Phases=1,Linecode=CABBTG02_4_1_1,Length=0.017000000,Units=km
new line.RBT_10063480 bus1=BBT138354199.1.2.0,bus2=RML1010063480.1.2.0,Phases=2,Linecode=CABBTG05_4_2_2,Length=0.029000000,Units=km
new line.RBT_10034264 bus1=BBT2666678.1.2.0,bus2=RML1010034264.1.2.0,Phases=2,Linecode=CABBTG05_4_2_2,Length=0.017000000,Units=km
new line.RBT_10034769 bus1=BBT149999528.1.0,bus2=RML1010034769.1.0,Phases=1,Linecode=CABBTG02_4_1_1,Length=0.029000000,Units=km
new line.RBT_10034855 bus1=BBT145475152.1.0,bus2=RML1010034855.1.0,Phases=1,Linecode=CABBTG02_4_1_1,Length=0.017000000,Units=km
new line.RBT_10034858 bus1=BBT2947364.1.2.0,bus2=RML1010034858.1.2.0,Phases=2,Linecode=CABBTG05_4_2_2,Length=0.029000000,Units=km
new line.RBT_10034866 bus1=BBT141337249.2.0,bus2=RML1010034866.2.0,Phases=1,Linecode=CABBTG02_4_1_1,Length=0.029000000,Units=km
new line.RBT_10034912 bus1=BBT101822669.1.0,bus2=RML1010034912.1.0,Phases=1,Linecode=CABBTG02_4_1_1,Length=0.017000000,Units=km
new line.RBT_10034917 bus1=BBT393974.2.0,bus2=RML1010034917.2.0,Phases=1,Linecode=CABBTG02_4_1_1,Length=0.029000000,Units=km
new line.RBT_10035149 bus1=BBT445403.1.2.3.0,bus2=RML1010035149.1.2.3.0,Phases=3,Linecode=CABBTG06_4_3_3,Length=0.029000000,Units=km
new line.RBT_10035150 bus1=BBT429996.1.0,bus2=RML1010035150.1.0,Phases=1,Linecode=CABBTG02_4_1_1,Length=0.029000000,Units=km
new line.RBT_10035152 bus1=BBT2701734.2.0,bus2=RML1010035152.2.0,Phases=1,Linecode=CABBTG02_4_1_1,Length=0.017000000,Units=km
new line.RBT_10035154 bus1=BBT3648071.1.2.0,bus2=RML1010035154.1.2.0,Phases=2,Linecode=CABBTG05_4_2_2,Length=0.017000000,Units=km
new line.RBT_10035191 bus1=BBT4253480.2.0,bus2=RML1010035191.2.0,Phases=1,Linecode=CABBTG02_4_1_1,Length=0.029000000,Units=km
new line.RBT_10035193 bus1=BBT426517.2.0,bus2=RML1010035193.2.0,Phases=1,Linecode=CABBTG01_4_1_1,Length=0.029000000,Units=km
new line.RBT_10035197 bus1=BBT2863924.2.3.0,bus2=RML1010035197.2.3.0,Phases=2,Linecode=CABBTG05_4_2_2,Length=0.029000000,Units=km
new line.RBT_10035201 bus1=BBT3023741.1.2.0,bus2=RML1010035201.1.2.0,Phases=2,Linecode=CABBTG05_4_2_2,Length=0.029000000,Units=km
new line.RBT_10054436 bus1=BBT439754.1.2.0,bus2=RML1010054436.1.2.0,Phases=2,Linecode=CABBTG05_4_2_2,Length=0.029000000,Units=km
new line.RBT_10054492 bus1=BBT484974.1.0,bus2=RML1010054492.1.0,Phases=1,Linecode=CABBTG02_4_1_1,Length=0.017000000,Units=km
new line.RBT_10054500 bus1=BBT3346595.2.0,bus2=RML1010054500.2.0,Phases=1,Linecode=CABBTG02_4_1_1,Length=0.029000000,Units=km
new line.RBT_10054504 bus1=BBT457016.2.3.0,bus2=RML1010054504.2.3.0,Phases=2,Linecode=CABBTG05_4_2_2,Length=0.029000000,Units=km
new line.RBT_10054509 bus1=BBT4329542.1.0,bus2=RML1010054509.1.0,Phases=1,Linecode=CABBTG02_4_1_1,Length=0.029000000,Units=km
new line.RBT_10054800 bus1=BBT6584074.2.0,bus2=RML1010054800.2.0,Phases=1,Linecode=CABBTG02_4_1_1,Length=0.029000000,Units=km
new line.RBT_10054847 bus1=BBT396739.1.2.0,bus2=RML1010054847.1.2.0,Phases=2,Linecode=CABBTG05_4_2_2,Length=0.029000000,Units=km
new line.RBT_10055109 bus1=BBT435575.1.0,bus2=RML1010055109.1.0,Phases=1,Linecode=CABBTG02_4_1_1,Length=0.029000000,Units=km
new line.RBT_10055114 bus1=BBT3532200.2.0,bus2=RML1010055114.2.0,Phases=1,Linecode=CABBTG02_4_1_1,Length=0.017000000,Units=km
new line.RBT_10055120 bus1=BBT2681791.1.2.0,bus2=RML1010055120.1.2.0,Phases=2,Linecode=CABBTG05_4_2_2,Length=0.017000000,Units=km
new line.RBT_10055122 bus1=BBT2732191.3.1.0,bus2=RML1010055122.3.1.0,Phases=2,Linecode=CABBTG05_4_2_2,Length=0.029000000,Units=km
new line.RBT_10055139 bus1=BBT2863924.3.0,bus2=RML1010055139.3.0,Phases=1,Linecode=CABBTG01_4_1_1,Length=0.029000000,Units=km
new line.RBT_10056424 bus1=BBT4188625.1.0,bus2=RML1010056424.1.0,Phases=1,Linecode=CABBTG02_4_1_1,Length=0.017000000,Units=km
new line.RBT_10056428 bus1=BBT4049241.1.0,bus2=RML1010056428.1.0,Phases=1,Linecode=CABBTG02_4_1_1,Length=0.017000000,Units=km
new line.RBT_10056429 bus1=BBT397544.1.2.0,bus2=RML1010056429.1.2.0,Phases=2,Linecode=CABBTG05_4_2_2,Length=0.017000000,Units=km
new line.RBT_10056431 bus1=BBT4208260.1.0,bus2=RML1010056431.1.0,Phases=1,Linecode=CABBTG02_4_1_1,Length=0.029000000,Units=km
new line.RBT_10056433 bus1=BBT2877672.2.0,bus2=RML1010056433.2.0,Phases=1,Linecode=CABBTG02_4_1_1,Length=0.017000000,Units=km
new line.RBT_10056453 bus1=BBT5183773.1.2.0,bus2=RML1010056453.1.2.0,Phases=2,Linecode=CABBTG05_4_2_2,Length=0.017000000,Units=km
new line.RBT_10056454 bus1=BBT4208260.2.0,bus2=RML1010056454.2.0,Phases=1,Linecode=CABBTG02_4_1_1,Length=0.029000000,Units=km
new line.RBT_10056455 bus1=BBT396494.3.0,bus2=RML1010056455.3.0,Phases=1,Linecode=CABBTG01_4_1_1,Length=0.029000000,Units=km
new line.RBT_10056456 bus1=BBT394457.1.2.3.0,bus2=RML1010056456.1.2.3.0,Phases=3,Linecode=CABBTG07_4_3_3,Length=0.029000000,Units=km
new line.RBT_10056457 bus1=BBT5292273.1.2.0,bus2=RML1010056457.1.2.0,Phases=2,Linecode=CABBTG05_4_2_2,Length=0.017000000,Units=km
new line.RBT_10056461 bus1=BBT7237615.2.0,bus2=RML1010056461.2.0,Phases=1,Linecode=CABBTG02_4_1_1,Length=0.029000000,Units=km
new line.RBT_10056463 bus1=BBT101013490.1.0,bus2=RML1010056463.1.0,Phases=1,Linecode=CABBTG02_4_1_1,Length=0.029000000,Units=km
new line.RBT_10056464 bus1=BBT4484613.1.2.0,bus2=RML1010056464.1.2.0,Phases=2,Linecode=CABBTG05_4_2_2,Length=0.017000000,Units=km
new line.RBT_10056465 bus1=BBT457261.3.0,bus2=RML1010056465.3.0,Phases=1,Linecode=CABBTG02_4_1_1,Length=0.029000000,Units=km
new line.RBT_10056466 bus1=BBT393876.1.2.3.0,bus2=RML1010056466.1.2.3.0,Phases=3,Linecode=CABBTG06_4_3_3,Length=0.029000000,Units=km
new line.RBT_10056467 bus1=BBT3452666.2.0,bus2=RML1010056467.2.0,Phases=1,Linecode=CABBTG01_4_1_1,Length=0.029000000,Units=km
new line.RBT_10056469 bus1=BBT456827.1.2.0,bus2=RML1010056469.1.2.0,Phases=2,Linecode=CABBTG05_4_2_2,Length=0.029000000,Units=km
new line.RBT_10056472 bus1=BBT3191426.1.0,bus2=RML1010056472.1.0,Phases=1,Linecode=CABBTG02_4_1_1,Length=0.029000000,Units=km
new line.RBT_10056473 bus1=BBT3191720.1.2.0,bus2=RML1010056473.1.2.0,Phases=2,Linecode=CABBTG04_4_2_2,Length=0.017000000,Units=km
new line.RBT_10056475 bus1=BBT3346595.2.0,bus2=RML1010056475.2.0,Phases=1,Linecode=CABBTG02_4_1_1,Length=0.029000000,Units=km
new line.RBT_10056476 bus1=BBT115900460.1.0,bus2=RML1010056476.1.0,Phases=1,Linecode=CABBTG02_4_1_1,Length=0.029000000,Units=km
new line.RBT_10056477 bus1=BBT101013490.2.0,bus2=RML1010056477.2.0,Phases=1,Linecode=CABBTG02_4_1_1,Length=0.029000000,Units=km
new line.RBT_10056478 bus1=BBT396025.1.2.0,bus2=RML1010056478.1.2.0,Phases=2,Linecode=CABBTG05_4_2_2,Length=0.029000000,Units=km
new line.RBT_10056479 bus1=BBT82407616.2.3.0,bus2=RML1010056479.2.3.0,Phases=2,Linecode=CABBTG05_4_2_2,Length=0.029000000,Units=km
new line.RBT_10056480 bus1=BBT104008916.1.2.0,bus2=RML1010056480.1.2.0,Phases=2,Linecode=CABBTG05_4_2_2,Length=0.029000000,Units=km
new line.RBT_10056483 bus1=BBT143911114.1.0,bus2=RML1010056483.1.0,Phases=1,Linecode=CABBTG02_4_1_1,Length=0.017000000,Units=km
new line.RBT_10056486 bus1=BBT395374.3.0,bus2=RML1010056486.3.0,Phases=1,Linecode=CABBTG02_4_1_1,Length=0.029000000,Units=km
new line.RBT_10056488 bus1=BBT395528.1.2.3.0,bus2=RML1010056488.1.2.3.0,Phases=3,Linecode=CABBTG06_4_3_3,Length=0.029000000,Units=km
new line.RBT_10056497 bus1=BBT141997097.2.0,bus2=RML1010056497.2.0,Phases=1,Linecode=CABBTG02_4_1_1,Length=0.017000000,Units=km
new line.RBT_10056499 bus1=BBT141337193.2.0,bus2=RML1010056499.2.0,Phases=1,Linecode=CABBTG01_4_1_1,Length=0.029000000,Units=km
new line.RBT_10056526 bus1=BBT418180.3.0,bus2=RML1010056526.3.0,Phases=1,Linecode=CABBTG02_4_1_1,Length=0.029000000,Units=km
new line.RBT_10056529 bus1=BBT3146010.1.2.0,bus2=RML1010056529.1.2.0,Phases=2,Linecode=CABBTG05_4_2_2,Length=0.017000000,Units=km
new line.RBT_10056533 bus1=BBT3146150.1.2.0,bus2=RML1010056533.1.2.0,Phases=2,Linecode=CABBTG05_4_2_2,Length=0.017000000,Units=km
new line.RBT_10056535 bus1=BBT3989496.1.2.0,bus2=RML1010056535.1.2.0,Phases=2,Linecode=CABBTG05_4_2_2,Length=0.017000000,Units=km
new line.RBT_10056537 bus1=BBT3146129.1.2.0,bus2=RML1010056537.1.2.0,Phases=2,Linecode=CABBTG05_4_2_2,Length=0.017000000,Units=km
new line.RBT_10056539 bus1=BBT3146045.1.2.0,bus2=RML1010056539.1.2.0,Phases=2,Linecode=CABBTG05_4_2_2,Length=0.017000000,Units=km
new line.RBT_10056540 bus1=BBT3146087.1.2.0,bus2=RML1010056540.1.2.0,Phases=2,Linecode=CABBTG05_4_2_2,Length=0.017000000,Units=km
new line.RBT_10056541 bus1=BBT3184405.1.2.0,bus2=RML1010056541.1.2.0,Phases=2,Linecode=CABBTG05_4_2_2,Length=0.017000000,Units=km
new line.RBT_10056544 bus1=BBT3146192.1.2.0,bus2=RML1010056544.1.2.0,Phases=2,Linecode=CABBTG05_4_2_2,Length=0.017000000,Units=km
new line.RBT_10056545 bus1=BBT4300513.1.0,bus2=RML1010056545.1.0,Phases=1,Linecode=CABBTG02_4_1_1,Length=0.029000000,Units=km
new line.RBT_10056546 bus1=BBT3146164.1.2.0,bus2=RML1010056546.1.2.0,Phases=2,Linecode=CABBTG05_4_2_2,Length=0.017000000,Units=km
new line.RBT_10056548 bus1=BBT3145996.1.2.0,bus2=RML1010056548.1.2.0,Phases=2,Linecode=CABBTG05_4_2_2,Length=0.017000000,Units=km
new line.RBT_10056550 bus1=BBT417053.1.0,bus2=RML1010056550.1.0,Phases=1,Linecode=CABBTG02_4_1_1,Length=0.029000000,Units=km
new line.RBT_10056553 bus1=BBT416703.2.0,bus2=RML1010056553.2.0,Phases=1,Linecode=CABBTG02_4_1_1,Length=0.029000000,Units=km
new line.RBT_10056555 bus1=BBT415919.1.0,bus2=RML1010056555.1.0,Phases=1,Linecode=CABBTG02_4_1_1,Length=0.029000000,Units=km
new line.RBT_10056557 bus1=BBT415506.2.0,bus2=RML1010056557.2.0,Phases=1,Linecode=CABBTG02_4_1_1,Length=0.017000000,Units=km
new line.RBT_10056560 bus1=BBT457646.2.3.0,bus2=RML1010056560.2.3.0,Phases=2,Linecode=CABBTG05_4_2_2,Length=0.029000000,Units=km
new line.RBT_10063485 bus1=BBT138028713.1.0,bus2=RML1010063485.1.0,Phases=1,Linecode=CABBTG02_4_1_1,Length=0.017000000,Units=km
new line.RBT_10063492 bus1=BBT430822.1.2.3.0,bus2=RML1010063492.1.2.3.0,Phases=3,Linecode=CABBTG06_4_3_3,Length=0.029000000,Units=km
new line.RBT_10063506 bus1=BBT430829.1.2.3.0,bus2=RML1010063506.1.2.3.0,Phases=3,Linecode=CABBTG06_4_3_3,Length=0.029000000,Units=km
new line.RBT_10063509 bus1=BBT2812376.2.3.0,bus2=RML1010063509.2.3.0,Phases=2,Linecode=CABBTG05_4_2_2,Length=0.029000000,Units=km
new line.RBT_10063577 bus1=BBT3485580.2.0,bus2=RML1010063577.2.0,Phases=1,Linecode=CABBTG02_4_1_1,Length=0.017000000,Units=km
new line.RBT_10063578 bus1=BBT460236.1.2.0,bus2=RML1010063578.1.2.0,Phases=2,Linecode=CABBTG05_4_2_2,Length=0.017000000,Units=km
new line.RBT_10063584 bus1=BBT424956.1.2.3.0,bus2=RML1010063584.1.2.3.0,Phases=3,Linecode=CABBTG06_4_3_3,Length=0.017000000,Units=km
new line.RBT_10063587 bus1=BBT4086383.1.0,bus2=RML1010063587.1.0,Phases=1,Linecode=CABBTG01_4_1_1,Length=0.017000000,Units=km
new line.RBT_10063597 bus1=BBT2949282.2.0,bus2=RML1010063597.2.0,Phases=1,Linecode=CABBTG01_4_1_1,Length=0.017000000,Units=km
new line.RBT_10063600 bus1=BBT489230.2.0,bus2=RML1010063600.2.0,Phases=1,Linecode=CABBTG02_4_1_1,Length=0.017000000,Units=km
new line.RBT_10063601 bus1=BBT424956.1.2.3.0,bus2=RML1010063601.1.2.3.0,Phases=3,Linecode=CABBTG06_4_3_3,Length=0.017000000,Units=km
new line.RBT_10063603 bus1=BBT423367.1.0,bus2=RML1010063603.1.0,Phases=1,Linecode=CABBTG02_4_1_1,Length=0.017000000,Units=km
new line.RBT_10063608 bus1=BBT424942.2.0,bus2=RML1010063608.2.0,Phases=1,Linecode=CABBTG02_4_1_1,Length=0.017000000,Units=km
new line.RBT_10063613 bus1=BBT5309507.1.2.0,bus2=RML1010063613.1.2.0,Phases=2,Linecode=CABBTG05_4_2_2,Length=0.017000000,Units=km
new line.RBT_10063615 bus1=BBT7915194.1.0,bus2=RML1010063615.1.0,Phases=1,Linecode=CABBTG02_4_1_1,Length=0.017000000,Units=km
new line.RBT_10063620 bus1=BBT2863952.3.0,bus2=RML1010063620.3.0,Phases=1,Linecode=CABBTG02_4_1_1,Length=0.029000000,Units=km
new line.RBT_10063651 bus1=BBT3557764.2.0,bus2=RML1010063651.2.0,Phases=1,Linecode=CABBTG02_4_1_1,Length=0.017000000,Units=km
new line.RBT_10063655 bus1=BBT8713915.1.2.0,bus2=RML1010063655.1.2.0,Phases=2,Linecode=CABBTG05_4_2_2,Length=0.017000000,Units=km
new line.RBT_10063661 bus1=BBT2949282.2.0,bus2=RML1010063661.2.0,Phases=1,Linecode=CABBTG02_4_1_1,Length=0.017000000,Units=km
new line.RBT_10063666 bus1=BBT426286.2.0,bus2=RML1010063666.2.0,Phases=1,Linecode=CABBTG02_4_1_1,Length=0.017000000,Units=km
new line.RBT_10063678 bus1=BBT470393.1.2.0,bus2=RML1010063678.1.2.0,Phases=2,Linecode=CABBTG05_4_2_2,Length=0.029000000,Units=km
new line.RBT_10063681 bus1=BBT2593941.3.0,bus2=RML1010063681.3.0,Phases=1,Linecode=CABBTG02_4_1_1,Length=0.029000000,Units=km
new line.RBT_10063689 bus1=BBT426643.1.2.0,bus2=RML1010063689.1.2.0,Phases=2,Linecode=CABBTG05_4_2_2,Length=0.029000000,Units=km
new line.RBT_10063691 bus1=BBT425677.1.2.3.0,bus2=RML1010063691.1.2.3.0,Phases=3,Linecode=CABBTG06_4_3_3,Length=0.017000000,Units=km
new line.RBT_10063716 bus1=BBT2695392.1.0,bus2=RML1010063716.1.0,Phases=1,Linecode=CABBTG02_4_1_1,Length=0.029000000,Units=km
new line.RBT_10063720 bus1=BBT423969.3.0,bus2=RML1010063720.3.0,Phases=1,Linecode=CABBTG02_4_1_1,Length=0.029000000,Units=km
new line.RBT_10063724 bus1=BBT426650.1.2.0,bus2=RML1010063724.1.2.0,Phases=2,Linecode=CABBTG05_4_2_2,Length=0.029000000,Units=km
new line.RBT_10063733 bus1=BBT141671289.1.2.0,bus2=RML1010063733.1.2.0,Phases=2,Linecode=CABBTG05_4_2_2,Length=0.017000000,Units=km
new line.RBT_10063734 bus1=BBT424669.1.2.3.0,bus2=RML1010063734.1.2.3.0,Phases=3,Linecode=CABBTG06_4_3_3,Length=0.029000000,Units=km
new line.RBT_10063739 bus1=BBT424781.1.2.3.0,bus2=RML1010063739.1.2.3.0,Phases=3,Linecode=CABBTG06_4_3_3,Length=0.029000000,Units=km
new line.RBT_10063763 bus1=BBT2918888.3.0,bus2=RML1010063763.3.0,Phases=1,Linecode=CABBTG02_4_1_1,Length=0.029000000,Units=km
new line.RBT_10063783 bus1=BBT425936.1.2.3.0,bus2=RML1010063783.1.2.3.0,Phases=3,Linecode=CABBTG06_4_3_3,Length=0.029000000,Units=km
new line.RBT_10063799 bus1=BBT426622.2.0,bus2=RML1010063799.2.0,Phases=1,Linecode=CABBTG02_4_1_1,Length=0.029000000,Units=km
new line.RBT_10063805 bus1=BBT2695490.3.0,bus2=RML1010063805.3.0,Phases=1,Linecode=CABBTG02_4_1_1,Length=0.029000000,Units=km
new line.RBT_10063808 bus1=BBT2863959.2.3.0,bus2=RML1010063808.2.3.0,Phases=2,Linecode=CABBTG05_4_2_2,Length=0.029000000,Units=km
new line.RBT_10063811 bus1=BBT426314.1.2.0,bus2=RML1010063811.1.2.0,Phases=2,Linecode=CABBTG05_4_2_2,Length=0.017000000,Units=km
new line.RBT_10063850 bus1=BBT426328.2.3.0,bus2=RML1010063850.2.3.0,Phases=2,Linecode=CABBTG05_4_2_2,Length=0.017000000,Units=km
new line.RBT_10036202 bus1=BBT459578.1.2.0,bus2=RML1010036202.1.2.0,Phases=2,Linecode=CABBTG05_4_2_2,Length=0.017000000,Units=km
new line.RBT_10036279 bus1=BBT2700131.1.2.0,bus2=RML1010036279.1.2.0,Phases=2,Linecode=CABBTG05_4_2_2,Length=0.017000000,Units=km
new line.RBT_10036292 bus1=BBT485002.1.0,bus2=RML1010036292.1.0,Phases=1,Linecode=CABBTG02_4_1_1,Length=0.017000000,Units=km
new line.RBT_10036404 bus1=BBT146006333.1.2.0,bus2=RML1010036404.1.2.0,Phases=2,Linecode=CABBTG05_4_2_2,Length=0.017000000,Units=km
new line.RBT_10036583 bus1=BBT140281523.2.0,bus2=RML1010036583.2.0,Phases=1,Linecode=CABBTG02_4_1_1,Length=0.029000000,Units=km
new line.RBT_10036587 bus1=BBT415590.2.0,bus2=RML1010036587.2.0,Phases=1,Linecode=CABBTG02_4_1_1,Length=0.017000000,Units=km
new line.RBT_10036594 bus1=BBT3051426.3.0,bus2=RML1010036594.3.0,Phases=1,Linecode=CABBTG01_4_1_1,Length=0.029000000,Units=km
new line.RBT_10036602 bus1=BBT439530.3.1.0,bus2=RML1010036602.3.1.0,Phases=2,Linecode=CABBTG04_4_2_2,Length=0.029000000,Units=km
new line.RBT_10036614 bus1=BBT5151188.1.0,bus2=RML1010036614.1.0,Phases=1,Linecode=CABBTG02_4_1_1,Length=0.029000000,Units=km
new line.RBT_10036638 bus1=BBT145230516.1.2.0,bus2=RML1010036638.1.2.0,Phases=2,Linecode=CABBTG05_4_2_2,Length=0.029000000,Units=km
new line.RBT_10036643 bus1=BBT2942086.2.0,bus2=RML1010036643.2.0,Phases=1,Linecode=CABBTG01_4_1_1,Length=0.029000000,Units=km
new line.RBT_10036663 bus1=BBT146607087.1.2.0,bus2=RML1010036663.1.2.0,Phases=2,Linecode=CABBTG05_4_2_2,Length=0.017000000,Units=km
new line.RBT_10036675 bus1=BBT493381.1.0,bus2=RML1010036675.1.0,Phases=1,Linecode=CABBTG02_4_1_1,Length=0.017000000,Units=km
new line.RBT_10036831 bus1=BBT3146101.1.2.0,bus2=RML1010036831.1.2.0,Phases=2,Linecode=CABBTG05_4_2_2,Length=0.017000000,Units=km
new line.RBT_10036908 bus1=BBT115547940.2.0,bus2=RML1010036908.2.0,Phases=1,Linecode=CABBTG02_4_1_1,Length=0.029000000,Units=km
new line.RBT_10036919 bus1=BBT397166.1.2.0,bus2=RML1010036919.1.2.0,Phases=2,Linecode=CABBTG05_4_2_2,Length=0.029000000,Units=km
new line.RBT_10036932 bus1=BBT424487.2.3.0,bus2=RML1010036932.2.3.0,Phases=2,Linecode=CABBTG05_4_2_2,Length=0.029000000,Units=km
new line.RBT_10036974 bus1=BBT448651.3.0,bus2=RML1010036974.3.0,Phases=1,Linecode=CABBTG02_4_1_1,Length=0.029000000,Units=km
new line.RBT_10037083 bus1=BBT452025.1.0,bus2=RML1010037083.1.0,Phases=1,Linecode=CABBTG01_4_1_1,Length=0.029000000,Units=km
new line.RBT_10037488 bus1=BBT396641.2.0,bus2=RML1010037488.2.0,Phases=1,Linecode=CABBTG02_4_1_1,Length=0.029000000,Units=km
new line.RBT_10037647 bus1=BBT4113802.2.0,bus2=RML1010037647.2.0,Phases=1,Linecode=CABBTG02_4_1_1,Length=0.029000000,Units=km
new line.RBT_10037652 bus1=BBT6273155.1.2.0,bus2=RML1010037652.1.2.0,Phases=2,Linecode=CABBTG05_4_2_2,Length=0.017000000,Units=km
new line.RBT_10037711 bus1=BBT10274516.2.0,bus2=RML1010037711.2.0,Phases=1,Linecode=CABBTG02_4_1_1,Length=0.017000000,Units=km
new line.RBT_10038005 bus1=BBT5323563.1.2.0,bus2=RML1010038005.1.2.0,Phases=2,Linecode=CABBTG05_4_2_2,Length=0.017000000,Units=km
new line.RBT_10074670 bus1=BBT1037174.1.2.0,bus2=RML1010074670.1.2.0,Phases=2,Linecode=CABBTG05_4_2_2,Length=0.029000000,Units=km
new line.RBT_10075686 bus1=BBT148861777.1.2.0,bus2=RML1010075686.1.2.0,Phases=2,Linecode=CABBTG05_4_2_2,Length=0.017000000,Units=km
new line.RBT_10076540 bus1=BBT149154858.2.0,bus2=RML1010076540.2.0,Phases=1,Linecode=CABBTG02_4_1_1,Length=0.017000000,Units=km
new line.RBT_10099645 bus1=BBT454825.2.0,bus2=RML1010099645.2.0,Phases=1,Linecode=CABBTG02_4_1_1,Length=0.029000000,Units=km
new line.RBT_10099647 bus1=BBT394856.2.0,bus2=RML1010099647.2.0,Phases=1,Linecode=CABBTG02_4_1_1,Length=0.029000000,Units=km
new line.RBT_10099649 bus1=BBT3454486.2.0,bus2=RML1010099649.2.0,Phases=1,Linecode=CABBTG02_4_1_1,Length=0.029000000,Units=km
new line.RBT_10099653 bus1=BBT115900439.1.0,bus2=RML1010099653.1.0,Phases=1,Linecode=CABBTG02_4_1_1,Length=0.029000000,Units=km
new line.RBT_10099665 bus1=BBT452431.1.2.0,bus2=RML1010099665.1.2.0,Phases=2,Linecode=CABBTG05_4_2_2,Length=0.029000000,Units=km
new line.RBT_10099676 bus1=BBT393680.3.0,bus2=RML1010099676.3.0,Phases=1,Linecode=CABBTG02_4_1_1,Length=0.029000000,Units=km
new line.RBT_10100180 bus1=BBT454755.3.0,bus2=RML1010100180.3.0,Phases=1,Linecode=CABBTG02_4_1_1,Length=0.029000000,Units=km
new line.RBT_10100381 bus1=BBT446054.1.0,bus2=RML1010100381.1.0,Phases=1,Linecode=CABBTG02_4_1_1,Length=0.029000000,Units=km
new line.RBT_10100382 bus1=BBT444815.1.0,bus2=RML1010100382.1.0,Phases=1,Linecode=CABBTG02_4_1_1,Length=0.029000000,Units=km
new line.RBT_10100387 bus1=BBT444682.1.0,bus2=RML1010100387.1.0,Phases=1,Linecode=CABBTG02_4_1_1,Length=0.029000000,Units=km
new line.RBT_10071946 bus1=BBT425747.1.2.3.0,bus2=RML1010071946.1.2.3.0,Phases=3,Linecode=CABBTG06_4_3_3,Length=0.029000000,Units=km
new line.RBT_10071949 bus1=BBT424690.1.2.0,bus2=RML1010071949.1.2.0,Phases=2,Linecode=CABBTG05_4_2_2,Length=0.029000000,Units=km
new line.RBT_10071952 bus1=BBT440069.1.2.3.0,bus2=RML1010071952.1.2.3.0,Phases=3,Linecode=CABBTG06_4_3_3,Length=0.029000000,Units=km
new line.RBT_10072692 bus1=BBT2976421.1.2.0,bus2=RML1010072692.1.2.0,Phases=2,Linecode=CABBTG05_4_2_2,Length=0.029000000,Units=km
new line.RBT_10072695 bus1=BBT433594.1.2.0,bus2=RML1010072695.1.2.0,Phases=2,Linecode=CABBTG05_4_2_2,Length=0.029000000,Units=km
new line.RBT_10072702 bus1=BBT433377.1.2.3.0,bus2=RML1010072702.1.2.3.0,Phases=3,Linecode=CABBTG06_4_3_3,Length=0.029000000,Units=km
new line.RBT_10072703 bus1=BBT433377.1.2.3.0,bus2=RML1010072703.1.2.3.0,Phases=3,Linecode=CABBTG06_4_3_3,Length=0.029000000,Units=km
new line.RBT_10072725 bus1=BBT432334.1.2.0,bus2=RML1010072725.1.2.0,Phases=2,Linecode=CABBTG04_4_2_2,Length=0.029000000,Units=km
new line.RBT_10072727 bus1=BBT3147585.1.2.0,bus2=RML1010072727.1.2.0,Phases=2,Linecode=CABBTG04_4_2_2,Length=0.029000000,Units=km
new line.RBT_10072729 bus1=BBT438382.1.2.0,bus2=RML1010072729.1.2.0,Phases=2,Linecode=CABBTG04_4_2_2,Length=0.029000000,Units=km
new line.RBT_10072795 bus1=BBT445956.1.2.3.0,bus2=RML1010072795.1.2.3.0,Phases=3,Linecode=CABBTG11_4_3_3,Length=0.029000000,Units=km
new line.RBT_10072801 bus1=BBT457037.1.2.0,bus2=RML1010072801.1.2.0,Phases=2,Linecode=CABBTG05_4_2_2,Length=0.029000000,Units=km
new line.RBT_10072806 bus1=BBT457044.1.2.0,bus2=RML1010072806.1.2.0,Phases=2,Linecode=CABBTG05_4_2_2,Length=0.029000000,Units=km
new line.RBT_10096275 bus1=BBT438452.1.0,bus2=RML1010096275.1.0,Phases=1,Linecode=CABBTG02_4_1_1,Length=0.017000000,Units=km
new line.RBT_10096277 bus1=BBT114738446.1.2.0,bus2=RML1010096277.1.2.0,Phases=2,Linecode=CABBTG05_4_2_2,Length=0.017000000,Units=km
new line.RBT_10096282 bus1=BBT493808.1.2.0,bus2=RML1010096282.1.2.0,Phases=2,Linecode=CABBTG05_4_2_2,Length=0.017000000,Units=km
new line.RBT_10096289 bus1=BBT2652286.1.2.3.0,bus2=RML1010096289.1.2.3.0,Phases=3,Linecode=CABBTG06_4_3_3,Length=0.017000000,Units=km
new line.RBT_10096290 bus1=BBT119162922.1.0,bus2=RML1010096290.1.0,Phases=1,Linecode=CABBTG02_4_1_1,Length=0.017000000,Units=km
new line.RBT_10096295 bus1=BBT81914109.1.0,bus2=RML1010096295.1.0,Phases=1,Linecode=CABBTG02_4_1_1,Length=0.017000000,Units=km
new line.RBT_10096310 bus1=BBT132885393.1.2.0,bus2=RML1010096310.1.2.0,Phases=2,Linecode=CABBTG05_4_2_2,Length=0.017000000,Units=km
new line.RBT_10096320 bus1=BBT2974678.1.0,bus2=RML1010096320.1.0,Phases=1,Linecode=CABBTG02_4_1_1,Length=0.017000000,Units=km
new line.RBT_10096350 bus1=BBT2651397.1.2.0,bus2=RML1010096350.1.2.0,Phases=2,Linecode=CABBTG05_4_2_2,Length=0.017000000,Units=km
new line.RBT_10096351 bus1=BBT132751483.1.2.0,bus2=RML1010096351.1.2.0,Phases=2,Linecode=CABBTG05_4_2_2,Length=0.017000000,Units=km
new line.RBT_10096420 bus1=BBT9347618.1.0,bus2=RML1010096420.1.0,Phases=1,Linecode=CABBTG02_4_1_1,Length=0.017000000,Units=km
new line.RBT_10096456 bus1=BBT134935126.1.0,bus2=RML1010096456.1.0,Phases=1,Linecode=CABBTG02_4_1_1,Length=0.017000000,Units=km
new line.RBT_10096512 bus1=BBT438410.1.0,bus2=RML1010096512.1.0,Phases=1,Linecode=CABBTG02_4_1_1,Length=0.017000000,Units=km
new line.RBT_10096514 bus1=BBT3003651.1.0,bus2=RML1010096514.1.0,Phases=1,Linecode=CABBTG02_4_1_1,Length=0.029000000,Units=km
new line.RBT_10096515 bus1=BBT3524136.1.0,bus2=RML1010096515.1.0,Phases=1,Linecode=CABBTG02_4_1_1,Length=0.017000000,Units=km
new line.RBT_10096533 bus1=BBT10356892.1.0,bus2=RML1010096533.1.0,Phases=1,Linecode=CABBTG02_4_1_1,Length=0.017000000,Units=km
new line.RBT_10096536 bus1=BBT142620370.1.0,bus2=RML1010096536.1.0,Phases=1,Linecode=CABBTG02_4_1_1,Length=0.017000000,Units=km
new line.RBT_10096589 bus1=BBT2824416.1.0,bus2=RML1010096589.1.0,Phases=1,Linecode=CABBTG02_4_1_1,Length=0.017000000,Units=km
new line.RBT_10096650 bus1=BBT3503913.1.0,bus2=RML1010096650.1.0,Phases=1,Linecode=CABBTG02_4_1_1,Length=0.017000000,Units=km
new line.RBT_10096654 bus1=BBT2681175.1.0,bus2=RML1010096654.1.0,Phases=1,Linecode=CABBTG02_4_1_1,Length=0.017000000,Units=km
new line.RBT_10096659 bus1=BBT142512311.1.0,bus2=RML1010096659.1.0,Phases=1,Linecode=CABBTG02_4_1_1,Length=0.017000000,Units=km
new line.RBT_10096686 bus1=BBT464191.1.0,bus2=RML1010096686.1.0,Phases=1,Linecode=CABBTG02_4_1_1,Length=0.017000000,Units=km
new line.RBT_10096710 bus1=BBT2869755.1.2.0,bus2=RML1010096710.1.2.0,Phases=2,Linecode=CABBTG05_4_2_2,Length=0.017000000,Units=km
new line.RBT_10098224 bus1=BBT435911.1.0,bus2=RML1010098224.1.0,Phases=1,Linecode=CABBTG02_4_1_1,Length=0.029000000,Units=km
new line.RBT_10056562 bus1=BBT416878.2.3.0,bus2=RML1010056562.2.3.0,Phases=2,Linecode=CABBTG05_4_2_2,Length=0.029000000,Units=km
new line.RBT_10056569 bus1=BBT133912384.1.2.0,bus2=RML1010056569.1.2.0,Phases=2,Linecode=CABBTG05_4_2_2,Length=0.017000000,Units=km
new line.RBT_10056579 bus1=BBT417760.2.0,bus2=RML1010056579.2.0,Phases=1,Linecode=CABBTG02_4_1_1,Length=0.029000000,Units=km
new line.RBT_10091758 bus1=BBT5309465.1.0,bus2=RML1010091758.1.0,Phases=1,Linecode=CABBTG02_4_1_1,Length=0.017000000,Units=km
new line.RBT_10091764 bus1=BBT5293120.1.0,bus2=RML1010091764.1.0,Phases=1,Linecode=CABBTG02_4_1_1,Length=0.017000000,Units=km
new line.RBT_10091785 bus1=BBT2658215.1.0,bus2=RML1010091785.1.0,Phases=1,Linecode=CABBTG02_4_1_1,Length=0.017000000,Units=km
new line.RBT_10091788 bus1=BBT2658215.1.0,bus2=RML1010091788.1.0,Phases=1,Linecode=CABBTG02_4_1_1,Length=0.017000000,Units=km
new line.RBT_10091838 bus1=BBT5292000.1.0,bus2=RML1010091838.1.0,Phases=1,Linecode=CABBTG02_4_1_1,Length=0.017000000,Units=km
new line.RBT_10091917 bus1=BBT5219781.1.0,bus2=RML1010091917.1.0,Phases=1,Linecode=CABBTG02_4_1_1,Length=0.017000000,Units=km
new line.RBT_10091921 bus1=BBT5226718.1.0,bus2=RML1010091921.1.0,Phases=1,Linecode=CABBTG02_4_1_1,Length=0.017000000,Units=km
new line.RBT_10091965 bus1=BBT99600043.1.0,bus2=RML1010091965.1.0,Phases=1,Linecode=CABBTG02_4_1_1,Length=0.017000000,Units=km
new line.RBT_10091970 bus1=BBT5238212.1.0,bus2=RML1010091970.1.0,Phases=1,Linecode=CABBTG02_4_1_1,Length=0.017000000,Units=km