new load.3009000612M1 bus1=BMT122798267.1.2.3.0,Phases=3,kv=13.800000000,kW=0.00152,pf=0.92,Vminpu=0.93,Vmaxpu=1.5,model=1,daily=MT1_1,status=variable
new load.3009010947M1 bus1=BMT122816467.1.2.3.0,Phases=3,kv=13.800000000,kW=0.00152,pf=0.92,Vminpu=0.93,Vmaxpu=1.5,model=1,daily=MT1_1,status=variable
new load.3009014910M1 bus1=BMT150312242.1.2.3.0,Phases=3,kv=13.800000000,kW=6.62262,pf=0.92,Vminpu=0.93,Vmaxpu=1.5,model=1,daily=MT2_1,status=variable
new load.3009014911M1 bus1=BMT122785296.1.2.3.0,Phases=3,kv=13.800000000,kW=8.25784,pf=0.92,Vminpu=0.93,Vmaxpu=1.5,model=1,daily=MT1_1,status=variable
new load.3009014924M1 bus1=BMT122798267.1.2.3.0,Phases=3,kv=13.800000000,kW=27.52612,pf=0.92,Vminpu=0.93,Vmaxpu=1.5,model=1,daily=MT1_1,status=variable
new load.3009016296M1 bus1=BMT122812582.1.2.3.0,Phases=3,kv=13.800000000,kW=0.00152,pf=0.92,Vminpu=0.93,Vmaxpu=1.5,model=1,daily=MT1_1,status=variable
new load.3009017496M1 bus1=BMT157854279.1.2.3.0,Phases=3,kv=13.800000000,kW=96.0906,pf=0.92,Vminpu=0.93,Vmaxpu=1.5,model=1,daily=MT3_1,status=variable
new load.3009900022M1 bus1=BMT166964274.1.2.3.0,Phases=3,kv=13.800000000,kW=0.00152,pf=0.92,Vminpu=0.93,Vmaxpu=1.5,model=1,daily=MT1_1,status=variable
new load.3009900231M1 bus1=BMT166963989.1.2.3.0,Phases=3,kv=13.800000000,kW=0.00152,pf=0.92,Vminpu=0.93,Vmaxpu=1.5,model=1,daily=MT1_1,status=variable
new load.3011438517M1 bus1=BMT150312764.1.2.3.0,Phases=3,kv=13.800000000,kW=20.17828,pf=0.92,Vminpu=0.93,Vmaxpu=1.5,model=1,daily=MT2_1,status=variable
new load.3011623758M1 bus1=BMT166990386.1.2.3.0,Phases=3,kv=13.800000000,kW=0.00152,pf=0.92,Vminpu=0.93,Vmaxpu=1.5,model=1,daily=MT1_1,status=variable
new load.3012344228M1 bus1=BMT167093547.1.2.3.0,Phases=3,kv=13.800000000,kW=0.00152,pf=0.92,Vminpu=0.93,Vmaxpu=1.5,model=1,daily=MT1_1,status=variable
new load.3012344482M1 bus1=BMT167096358.1.2.3.0,Phases=3,kv=13.800000000,kW=0.00152,pf=0.92,Vminpu=0.93,Vmaxpu=1.5,model=1,daily=MT1_1,status=variable
new load.3012400097M1 bus1=BMT175812107.1.2.3.0,Phases=3,kv=13.800000000,kW=11.01046,pf=0.92,Vminpu=0.93,Vmaxpu=1.5,model=1,daily=MT1_1,status=variable
new load.3012612616M1 bus1=BMT153784302.1.2.3.0,Phases=3,kv=13.800000000,kW=7.44112,pf=0.92,Vminpu=0.93,Vmaxpu=1.5,model=1,daily=MT1_1,status=variable
new load.3012906243M1 bus1=BMT167196493.1.2.3.0,Phases=3,kv=13.800000000,kW=0.00152,pf=0.92,Vminpu=0.93,Vmaxpu=1.5,model=1,daily=MT1_1,status=variable
new load.3013467783M1 bus1=BMT168298809.1.2.3.0,Phases=3,kv=13.800000000,kW=63.28324,pf=0.92,Vminpu=0.93,Vmaxpu=1.5,model=1,daily=MT3_1,status=variable
new load.3013645021M1 bus1=BMT174443496.1.2.3.0,Phases=3,kv=13.800000000,kW=0.00152,pf=0.92,Vminpu=0.93,Vmaxpu=1.5,model=1,daily=MT1_1,status=variable
new load.3014064219M1 bus1=BMT177439200.1.2.3.0,Phases=3,kv=13.800000000,kW=0.52934,pf=0.92,Vminpu=0.93,Vmaxpu=1.5,model=1,daily=MT1_1,status=variable
