new line.SBT_100828IP bus1=BBT395549.2.3.0,bus2=BBT5000100828.2.3.0,Phases=2,Linecode=IP_2,Length=0.005530000,Units=km
new line.SBT_100835IP bus1=BBT395556.1.2.0,bus2=BBT5000100835.1.2.0,Phases=2,Linecode=IP_2,Length=0.005530000,Units=km
new line.SBT_100842IP bus1=BBT395563.3.1.0,bus2=BBT5000100842.3.1.0,Phases=2,Linecode=IP_2,Length=0.001600000,Units=km
new line.SBT_100849IP bus1=BBT395570.3.1.0,bus2=BBT5000100849.3.1.0,Phases=2,Linecode=IP_2,Length=0.005530000,Units=km
new line.SBT_100856IP bus1=BBT395577.3.1.0,bus2=BBT5000100856.3.1.0,Phases=2,Linecode=IP_2,Length=0.001600000,Units=km
new line.SBT_100863IP bus1=BBT396172.2.3.0,bus2=BBT5000100863.2.3.0,Phases=2,Linecode=IP_2,Length=0.005530000,Units=km
new line.SBT_100870IP bus1=BBT395591.1.2.0,bus2=BBT5000100870.1.2.0,Phases=2,Linecode=IP_2,Length=0.001600000,Units=km
new line.SBT_100877IP bus1=BBT395598.3.1.0,bus2=BBT5000100877.3.1.0,Phases=2,Linecode=IP_2,Length=0.001600000,Units=km
new line.SBT_10087923 bus1=BBT147548727.1.2.0,bus2=BBT140283322.1.2.0,Phases=2,Linecode=BT808_BT808_4_2_3_2,Length=0.032028000,Units=km
new line.SBT_10088462 bus1=BBT149154857.1.2.0,bus2=BBT149154858.1.2.0,Phases=2,Linecode=BT518_BT518_7_2_1_2,Length=0.000501000,Units=km
new line.SBT_100884IP bus1=BBT395626.1.2.0,bus2=BBT5000100884.1.2.0,Phases=2,Linecode=IP_2,Length=0.001600000,Units=km
new line.SBT_100891IP bus1=BBT395633.3.1.0,bus2=BBT5000100891.3.1.0,Phases=2,Linecode=IP_2,Length=0.001600000,Units=km
new line.SBT_100898IP bus1=BBT395640.3.1.0,bus2=BBT5000100898.3.1.0,Phases=2,Linecode=IP_2,Length=0.001600000,Units=km
new line.SBT_100905IP bus1=BBT395647.1.2.0,bus2=BBT5000100905.1.2.0,Phases=2,Linecode=IP_2,Length=0.001600000,Units=km
new line.SBT_100912IP bus1=BBT395661.3.1.0,bus2=BBT5000100912.3.1.0,Phases=2,Linecode=IP_2,Length=0.001600000,Units=km
new line.SBT_100919IP bus1=BBT395668.1.2.0,bus2=BBT5000100919.1.2.0,Phases=2,Linecode=IP_2,Length=0.001600000,Units=km
new line.SBT_100926IP bus1=BBT395675.1.2.0,bus2=BBT5000100926.1.2.0,Phases=2,Linecode=IP_2,Length=0.001600000,Units=km
new line.SBT_10093264 bus1=BBT147713003.1.2.0,bus2=BBT147713010.1.2.0,Phases=2,Linecode=BT513_BT513_7_2_1_2,Length=0.000501000,Units=km
new line.SBT_100933IP bus1=BBT395682.3.1.0,bus2=BBT5000100933.3.1.0,Phases=2,Linecode=IP_2,Length=0.001600000,Units=km
new line.SBT_100940IP bus1=BBT395696.2.3.0,bus2=BBT5000100940.2.3.0,Phases=2,Linecode=IP_2,Length=0.001600000,Units=km
new line.SBT_100947IP bus1=BBT395703.1.2.0,bus2=BBT5000100947.1.2.0,Phases=2,Linecode=IP_2,Length=0.001600000,Units=km
new line.SBT_100954IP bus1=BBT395724.1.2.0,bus2=BBT5000100954.1.2.0,Phases=2,Linecode=IP_2,Length=0.002840000,Units=km
new line.SBT_100961IP bus1=BBT395731.1.2.0,bus2=BBT5000100961.1.2.0,Phases=2,Linecode=IP_2,Length=0.002840000,Units=km
new line.SBT_100968IP bus1=BBT395745.3.1.0,bus2=BBT5000100968.3.1.0,Phases=2,Linecode=IP_2,Length=0.002840000,Units=km
new line.SBT_100975IP bus1=BBT395752.2.3.0,bus2=BBT5000100975.2.3.0,Phases=2,Linecode=IP_2,Length=0.002840000,Units=km
new line.SBT_100982IP bus1=BBT3074393.1.2.0,bus2=BBT5000100982.1.2.0,Phases=2,Linecode=IP_2,Length=0.002840000,Units=km
new line.SBT_101843IP bus1=BBT396809.2.3.0,bus2=BBT5000101843.2.3.0,Phases=2,Linecode=IP_2,Length=0.001600000,Units=km
new line.SBT_101850IP bus1=BBT396816.2.3.0,bus2=BBT5000101850.2.3.0,Phases=2,Linecode=IP_2,Length=0.001600000,Units=km
new line.SBT_101857IP bus1=BBT396823.2.3.0,bus2=BBT5000101857.2.3.0,Phases=2,Linecode=IP_2,Length=0.001600000,Units=km
new line.SBT_101864IP bus1=BBT396830.2.3.0,bus2=BBT5000101864.2.3.0,Phases=2,Linecode=IP_2,Length=0.001600000,Units=km
new line.SBT_101871IP bus1=BBT396837.1.2.0,bus2=BBT5000101871.1.2.0,Phases=2,Linecode=IP_2,Length=0.001600000,Units=km
new line.SBT_101878IP bus1=BBT396844.1.2.0,bus2=BBT5000101878.1.2.0,Phases=2,Linecode=IP_2,Length=0.001600000,Units=km
new line.SBT_101885IP bus1=BBT396851.1.2.0,bus2=BBT5000101885.1.2.0,Phases=2,Linecode=IP_2,Length=0.001600000,Units=km
new line.SBT_101892IP bus1=BBT396879.2.3.0,bus2=BBT5000101892.2.3.0,Phases=2,Linecode=IP_2,Length=0.002960000,Units=km
new line.SBT_101899IP bus1=BBT396886.2.3.0,bus2=BBT5000101899.2.3.0,Phases=2,Linecode=IP_2,Length=0.002960000,Units=km
new line.SBT_101906IP bus1=BBT396893.2.3.0,bus2=BBT5000101906.2.3.0,Phases=2,Linecode=IP_2,Length=0.002960000,Units=km
new line.SBT_101913IP bus1=BBT396900.1.2.0,bus2=BBT5000101913.1.2.0,Phases=2,Linecode=IP_2,Length=0.001600000,Units=km
new line.SBT_101920IP bus1=BBT396907.1.2.0,bus2=BBT5000101920.1.2.0,Phases=2,Linecode=IP_2,Length=0.001600000,Units=km
new line.SBT_101927IP bus1=BBT396914.1.2.0,bus2=BBT5000101927.1.2.0,Phases=2,Linecode=IP_2,Length=0.002960000,Units=km
new line.SBT_101934IP bus1=BBT396921.1.2.0,bus2=BBT5000101934.1.2.0,Phases=2,Linecode=IP_2,Length=0.002960000,Units=km
new line.SBT_101941IP bus1=BBT396928.3.1.0,bus2=BBT5000101941.3.1.0,Phases=2,Linecode=IP_2,Length=0.001600000,Units=km
new line.SBT_101948IP bus1=BBT396935.1.2.0,bus2=BBT5000101948.1.2.0,Phases=2,Linecode=IP_2,Length=0.002960000,Units=km
new line.SBT_101955IP bus1=BBT396949.1.2.0,bus2=BBT5000101955.1.2.0,Phases=2,Linecode=IP_2,Length=0.001600000,Units=km
new line.SBT_101962IP bus1=BBT396956.2.3.0,bus2=BBT5000101962.2.3.0,Phases=2,Linecode=IP_2,Length=0.002840000,Units=km
new line.SBT_101969IP bus1=BBT396970.1.2.0,bus2=BBT5000101969.1.2.0,Phases=2,Linecode=IP_2,Length=0.002840000,Units=km
new line.SBT_101976IP bus1=BBT396977.1.2.0,bus2=BBT5000101976.1.2.0,Phases=2,Linecode=IP_2,Length=0.002840000,Units=km
new line.SBT_101983IP bus1=BBT396984.1.2.0,bus2=BBT5000101983.1.2.0,Phases=2,Linecode=IP_2,Length=0.002840000,Units=km
new line.SBT_101990IP bus1=BBT396991.1.2.0,bus2=BBT5000101990.1.2.0,Phases=2,Linecode=IP_2,Length=0.002960000,Units=km
new line.SBT_101997IP bus1=BBT397005.1.2.0,bus2=BBT5000101997.1.2.0,Phases=2,Linecode=IP_2,Length=0.002960000,Units=km
new line.SBT_102004IP bus1=BBT397012.1.2.0,bus2=BBT5000102004.1.2.0,Phases=2,Linecode=IP_2,Length=0.002960000,Units=km
new line.SBT_102011IP bus1=BBT397019.1.2.0,bus2=BBT5000102011.1.2.0,Phases=2,Linecode=IP_2,Length=0.002960000,Units=km
new line.SBT_102018IP bus1=BBT397047.1.2.0,bus2=BBT5000102018.1.2.0,Phases=2,Linecode=IP_2,Length=0.002960000,Units=km
new line.SBT_102025IP bus1=BBT397061.1.2.0,bus2=BBT5000102025.1.2.0,Phases=2,Linecode=IP_2,Length=0.002960000,Units=km
new line.SBT_102032IP bus1=BBT397068.3.1.0,bus2=BBT5000102032.3.1.0,Phases=2,Linecode=IP_2,Length=0.001600000,Units=km
new line.SBT_102039IP bus1=BBT397082.2.3.0,bus2=BBT5000102039.2.3.0,Phases=2,Linecode=IP_2,Length=0.002960000,Units=km
new line.SBT_102046IP bus1=BBT397089.1.2.0,bus2=BBT5000102046.1.2.0,Phases=2,Linecode=IP_2,Length=0.002960000,Units=km
new line.SBT_102053IP bus1=BBT397103.1.2.0,bus2=BBT5000102053.1.2.0,Phases=2,Linecode=IP_2,Length=0.002960000,Units=km
new line.SBT_1065050IP bus1=BBT430787.2.3.0,bus2=BBT5001065050.2.3.0,Phases=2,Linecode=IP_2,Length=0.002960000,Units=km
new line.SBT_111090IP bus1=BBT417200.3.1.0,bus2=BBT5000111090.3.1.0,Phases=2,Linecode=IP_2,Length=0.002960000,Units=km
new line.SBT_111097IP bus1=BBT417207.1.2.0,bus2=BBT5000111097.1.2.0,Phases=2,Linecode=IP_2,Length=0.002840000,Units=km
new line.SBT_111104IP bus1=BBT417214.1.2.0,bus2=BBT5000111104.1.2.0,Phases=2,Linecode=IP_2,Length=0.002960000,Units=km
new line.SBT_111111IP bus1=BBT417221.1.2.0,bus2=BBT5000111111.1.2.0,Phases=2,Linecode=IP_2,Length=0.002960000,Units=km
new line.SBT_111118IP bus1=BBT417228.2.3.0,bus2=BBT5000111118.2.3.0,Phases=2,Linecode=IP_2,Length=0.001600000,Units=km
new line.SBT_111125IP bus1=BBT417235.1.2.0,bus2=BBT5000111125.1.2.0,Phases=2,Linecode=IP_2,Length=0.001600000,Units=km
new line.SBT_111132IP bus1=BBT417242.1.2.0,bus2=BBT5000111132.1.2.0,Phases=2,Linecode=IP_2,Length=0.002960000,Units=km
new line.SBT_111139IP bus1=BBT417249.1.2.0,bus2=BBT5000111139.1.2.0,Phases=2,Linecode=IP_2,Length=0.001600000,Units=km
new line.SBT_111146IP bus1=BBT417256.1.2.0,bus2=BBT5000111146.1.2.0,Phases=2,Linecode=IP_2,Length=0.001600000,Units=km
new line.SBT_111153IP bus1=BBT417263.1.2.0,bus2=BBT5000111153.1.2.0,Phases=2,Linecode=IP_2,Length=0.001600000,Units=km
new line.SBT_111160IP bus1=BBT417277.1.2.0,bus2=BBT5000111160.1.2.0,Phases=2,Linecode=IP_2,Length=0.001600000,Units=km
new line.SBT_111167IP bus1=BBT417284.1.2.0,bus2=BBT5000111167.1.2.0,Phases=2,Linecode=IP_2,Length=0.002960000,Units=km
new line.SBT_111174IP bus1=BBT417291.1.2.0,bus2=BBT5000111174.1.2.0,Phases=2,Linecode=IP_2,Length=0.002960000,Units=km
new line.SBT_111181IP bus1=BBT417319.1.2.0,bus2=BBT5000111181.1.2.0,Phases=2,Linecode=IP_2,Length=0.002840000,Units=km
new line.SBT_100149IP bus1=BBT394772.1.2.0,bus2=BBT5000100149.1.2.0,Phases=2,Linecode=IP_2,Length=0.002840000,Units=km
new line.SBT_10015298 bus1=BBT145514695.1.2.0,bus2=BBT145514702.1.2.0,Phases=2,Linecode=BT513_BT513_7_2_1_2,Length=0.000501000,Units=km
new line.SBT_10015361 bus1=BBT145517831.1.2.0,bus2=BBT145517838.1.2.0,Phases=2,Linecode=BT513_BT513_7_2_1_2,Length=0.000501000,Units=km
new line.SBT_100156IP bus1=BBT394779.1.2.0,bus2=BBT5000100156.1.2.0,Phases=2,Linecode=IP_2,Length=0.002840000,Units=km
new line.SBT_100163IP bus1=BBT394786.1.2.0,bus2=BBT5000100163.1.2.0,Phases=2,Linecode=IP_2,Length=0.002840000,Units=km
new line.SBT_100170IP bus1=BBT394793.1.2.0,bus2=BBT5000100170.1.2.0,Phases=2,Linecode=IP_2,Length=0.002840000,Units=km
new line.SBT_100177IP bus1=BBT394800.1.2.0,bus2=BBT5000100177.1.2.0,Phases=2,Linecode=IP_2,Length=0.003300000,Units=km
new line.SBT_100184IP bus1=BBT394807.1.2.0,bus2=BBT5000100184.1.2.0,Phases=2,Linecode=IP_2,Length=0.002840000,Units=km
new line.SBT_100191IP bus1=BBT394814.3.1.0,bus2=BBT5000100191.3.1.0,Phases=2,Linecode=IP_2,Length=0.002840000,Units=km
new line.SBT_10020366 bus1=BBT145690423.1.2.0,bus2=BBT145690430.1.2.0,Phases=2,Linecode=BT518_BT518_7_2_1_2,Length=0.000501000,Units=km
new line.SBT_10020450 bus1=BBT145690430.1.2.0,bus2=BBT145691676.1.2.0,Phases=2,Linecode=BT808_BT808_4_2_3_2,Length=0.026029000,Units=km
new line.SBT_10020464 bus1=BBT145691676.1.2.0,bus2=BBT145691690.1.2.0,Phases=2,Linecode=BT808_BT808_4_2_3_2,Length=0.042560000,Units=km
new line.SBT_10020478 bus1=BBT145691690.1.2.0,bus2=BBT145691704.1.2.0,Phases=2,Linecode=BT808_BT808_4_2_3_2,Length=0.038290000,Units=km
new line.SBT_100205IP bus1=BBT394828.1.2.0,bus2=BBT5000100205.1.2.0,Phases=2,Linecode=IP_2,Length=0.002840000,Units=km
new line.SBT_100212IP bus1=BBT394835.1.2.0,bus2=BBT5000100212.1.2.0,Phases=2,Linecode=IP_2,Length=0.002840000,Units=km
new line.SBT_100226IP bus1=BBT394849.1.2.0,bus2=BBT5000100226.1.2.0,Phases=2,Linecode=IP_2,Length=0.002840000,Units=km
new line.SBT_100233IP bus1=BBT394856.1.2.0,bus2=BBT5000100233.1.2.0,Phases=2,Linecode=IP_2,Length=0.002840000,Units=km
new line.SBT_100240IP bus1=BBT394863.1.2.0,bus2=BBT5000100240.1.2.0,Phases=2,Linecode=IP_2,Length=0.002840000,Units=km
new line.SBT_100247IP bus1=BBT394870.1.2.0,bus2=BBT5000100247.1.2.0,Phases=2,Linecode=IP_2,Length=0.002840000,Units=km
new line.SBT_100254IP bus1=BBT394877.1.2.0,bus2=BBT5000100254.1.2.0,Phases=2,Linecode=IP_2,Length=0.002840000,Units=km
new line.SBT_100261IP bus1=BBT394884.1.2.0,bus2=BBT5000100261.1.2.0,Phases=2,Linecode=IP_2,Length=0.002840000,Units=km
new line.SBT_100268IP bus1=BBT394905.1.2.0,bus2=BBT5000100268.1.2.0,Phases=2,Linecode=IP_2,Length=0.002960000,Units=km
new line.SBT_101402IP bus1=BBT396270.1.2.0,bus2=BBT5000101402.1.2.0,Phases=2,Linecode=IP_2,Length=0.001600000,Units=km
new line.SBT_101409IP bus1=BBT396277.3.1.0,bus2=BBT5000101409.3.1.0,Phases=2,Linecode=IP_2,Length=0.001600000,Units=km
new line.SBT_101416IP bus1=BBT396284.1.2.0,bus2=BBT5000101416.1.2.0,Phases=2,Linecode=IP_2,Length=0.003300000,Units=km
new line.SBT_101423IP bus1=BBT396298.3.1.0,bus2=BBT5000101423.3.1.0,Phases=2,Linecode=IP_2,Length=0.001600000,Units=km
new line.SBT_101430IP bus1=BBT396312.1.2.0,bus2=BBT5000101430.1.2.0,Phases=2,Linecode=IP_2,Length=0.001600000,Units=km
new line.SBT_101437IP bus1=BBT396319.1.2.0,bus2=BBT5000101437.1.2.0,Phases=2,Linecode=IP_2,Length=0.001600000,Units=km
new line.SBT_101444IP bus1=BBT396326.3.1.0,bus2=BBT5000101444.3.1.0,Phases=2,Linecode=IP_2,Length=0.001600000,Units=km
new line.SBT_101451IP bus1=BBT396340.1.2.0,bus2=BBT5000101451.1.2.0,Phases=2,Linecode=IP_2,Length=0.001600000,Units=km
new line.SBT_101458IP bus1=BBT396347.1.2.0,bus2=BBT5000101458.1.2.0,Phases=2,Linecode=IP_2,Length=0.001600000,Units=km
new line.SBT_101465IP bus1=BBT396354.1.2.0,bus2=BBT5000101465.1.2.0,Phases=2,Linecode=IP_2,Length=0.001600000,Units=km
new line.SBT_101472IP bus1=BBT396361.1.2.0,bus2=BBT5000101472.1.2.0,Phases=2,Linecode=IP_2,Length=0.001600000,Units=km
new line.SBT_101479IP bus1=BBT396368.3.1.0,bus2=BBT5000101479.3.1.0,Phases=2,Linecode=IP_2,Length=0.001600000,Units=km
new line.SBT_101486IP bus1=BBT396375.3.1.0,bus2=BBT5000101486.3.1.0,Phases=2,Linecode=IP_2,Length=0.001600000,Units=km
new line.SBT_101493IP bus1=BBT396382.2.3.0,bus2=BBT5000101493.2.3.0,Phases=2,Linecode=IP_2,Length=0.003300000,Units=km
new line.SBT_101500IP bus1=BBT396389.1.2.0,bus2=BBT5000101500.1.2.0,Phases=2,Linecode=IP_2,Length=0.002960000,Units=km
new line.SBT_101507IP bus1=BBT396396.1.2.0,bus2=BBT5000101507.1.2.0,Phases=2,Linecode=IP_2,Length=0.002960000,Units=km
new line.SBT_101514IP bus1=BBT396403.1.2.0,bus2=BBT5000101514.1.2.0,Phases=2,Linecode=IP_2,Length=0.002840000,Units=km
new line.SBT_101521IP bus1=BBT396410.1.2.0,bus2=BBT5000101521.1.2.0,Phases=2,Linecode=IP_2,Length=0.002840000,Units=km
new line.SBT_101528IP bus1=BBT396417.1.2.0,bus2=BBT5000101528.1.2.0,Phases=2,Linecode=IP_2,Length=0.001600000,Units=km
new line.SBT_101535IP bus1=BBT396445.1.2.0,bus2=BBT5000101535.1.2.0,Phases=2,Linecode=IP_2,Length=0.001600000,Units=km
new line.SBT_101542IP bus1=BBT396452.1.2.0,bus2=BBT5000101542.1.2.0,Phases=2,Linecode=IP_2,Length=0.001600000,Units=km
new line.SBT_101549IP bus1=BBT396459.1.2.0,bus2=BBT5000101549.1.2.0,Phases=2,Linecode=IP_2,Length=0.001600000,Units=km
new line.SBT_101556IP bus1=BBT396466.3.1.0,bus2=BBT5000101556.3.1.0,Phases=2,Linecode=IP_2,Length=0.001600000,Units=km
new line.SBT_101563IP bus1=BBT396473.1.2.0,bus2=BBT5000101563.1.2.0,Phases=2,Linecode=IP_2,Length=0.001600000,Units=km
new line.SBT_101570IP bus1=BBT396480.3.1.0,bus2=BBT5000101570.3.1.0,Phases=2,Linecode=IP_2,Length=0.001600000,Units=km
new line.SBT_101577IP bus1=BBT396494.1.2.0,bus2=BBT5000101577.1.2.0,Phases=2,Linecode=IP_2,Length=0.001600000,Units=km
new line.SBT_101584IP bus1=BBT396501.1.2.0,bus2=BBT5000101584.1.2.0,Phases=2,Linecode=IP_2,Length=0.002960000,Units=km
new line.SBT_101591IP bus1=BBT396508.1.2.0,bus2=BBT5000101591.1.2.0,Phases=2,Linecode=IP_2,Length=0.001600000,Units=km
new line.SBT_101598IP bus1=BBT396515.1.2.0,bus2=BBT5000101598.1.2.0,Phases=2,Linecode=IP_2,Length=0.002960000,Units=km
new line.SBT_101605IP bus1=BBT396522.3.1.0,bus2=BBT5000101605.3.1.0,Phases=2,Linecode=IP_2,Length=0.002960000,Units=km
new line.SBT_110488IP bus1=BBT415835.1.2.0,bus2=BBT5000110488.1.2.0,Phases=2,Linecode=IP_2,Length=0.002960000,Units=km
new line.SBT_110495IP bus1=BBT415842.1.2.0,bus2=BBT5000110495.1.2.0,Phases=2,Linecode=IP_2,Length=0.002960000,Units=km
new line.SBT_110502IP bus1=BBT415849.1.2.0,bus2=BBT5000110502.1.2.0,Phases=2,Linecode=IP_2,Length=0.002960000,Units=km
new line.SBT_110509IP bus1=BBT415863.1.2.0,bus2=BBT5000110509.1.2.0,Phases=2,Linecode=IP_2,Length=0.002960000,Units=km
new line.SBT_110516IP bus1=BBT415870.1.2.0,bus2=BBT5000110516.1.2.0,Phases=2,Linecode=IP_2,Length=0.002960000,Units=km
new line.SBT_110523IP bus1=BBT415877.1.2.0,bus2=BBT5000110523.1.2.0,Phases=2,Linecode=IP_2,Length=0.002960000,Units=km
new line.SBT_111846IP bus1=BBT429954.1.2.0,bus2=BBT5000111846.1.2.0,Phases=2,Linecode=IP_2,Length=0.002960000,Units=km
new line.SBT_111853IP bus1=BBT429961.1.2.0,bus2=BBT5000111853.1.2.0,Phases=2,Linecode=IP_2,Length=0.002960000,Units=km
new line.SBT_111860IP bus1=BBT429968.1.2.0,bus2=BBT5000111860.1.2.0,Phases=2,Linecode=IP_2,Length=0.002960000,Units=km
new line.SBT_111874IP bus1=BBT429982.1.2.0,bus2=BBT5000111874.1.2.0,Phases=2,Linecode=IP_2,Length=0.002960000,Units=km
new line.SBT_111881IP bus1=BBT429989.1.2.0,bus2=BBT5000111881.1.2.0,Phases=2,Linecode=IP_2,Length=0.002960000,Units=km
new line.SBT_111888IP bus1=BBT429996.1.2.0,bus2=BBT5000111888.1.2.0,Phases=2,Linecode=IP_2,Length=0.002960000,Units=km
new line.SBT_111895IP bus1=BBT430003.1.2.0,bus2=BBT5000111895.1.2.0,Phases=2,Linecode=IP_2,Length=0.002960000,Units=km
new line.SBT_111902IP bus1=BBT430010.1.2.0,bus2=BBT5000111902.1.2.0,Phases=2,Linecode=IP_2,Length=0.002960000,Units=km
new line.SBT_111909IP bus1=BBT430031.3.1.0,bus2=BBT5000111909.3.1.0,Phases=2,Linecode=IP_2,Length=0.002960000,Units=km
new line.SBT_111916IP bus1=BBT430045.1.2.0,bus2=BBT5000111916.1.2.0,Phases=2,Linecode=IP_2,Length=0.002180000,Units=km
new line.SBT_111923IP bus1=BBT430052.3.1.0,bus2=BBT5000111923.3.1.0,Phases=2,Linecode=IP_2,Length=0.002960000,Units=km
new line.SBT_111930IP bus1=BBT430066.1.2.0,bus2=BBT5000111930.1.2.0,Phases=2,Linecode=IP_2,Length=0.002180000,Units=km
new line.SBT_111937IP bus1=BBT430080.3.1.0,bus2=BBT5000111937.3.1.0,Phases=2,Linecode=IP_2,Length=0.002960000,Units=km
new line.SBT_100275IP bus1=BBT394912.1.2.0,bus2=BBT5000100275.1.2.0,Phases=2,Linecode=IP_2,Length=0.002960000,Units=km
new line.SBT_100282IP bus1=BBT394919.1.2.0,bus2=BBT5000100282.1.2.0,Phases=2,Linecode=IP_2,Length=0.002960000,Units=km
new line.SBT_100289IP bus1=BBT394926.2.3.0,bus2=BBT5000100289.2.3.0,Phases=2,Linecode=IP_2,Length=0.002960000,Units=km
new line.SBT_100296IP bus1=BBT394933.1.2.0,bus2=BBT5000100296.1.2.0,Phases=2,Linecode=IP_2,Length=0.002960000,Units=km
new line.SBT_100303IP bus1=BBT394940.2.3.0,bus2=BBT5000100303.2.3.0,Phases=2,Linecode=IP_2,Length=0.002960000,Units=km
new line.SBT_100310IP bus1=BBT394947.1.2.0,bus2=BBT5000100310.1.2.0,Phases=2,Linecode=IP_2,Length=0.002960000,Units=km
new line.SBT_100317IP bus1=BBT394954.3.1.0,bus2=BBT5000100317.3.1.0,Phases=2,Linecode=IP_2,Length=0.002960000,Units=km
new line.SBT_100324IP bus1=BBT394961.1.2.0,bus2=BBT5000100324.1.2.0,Phases=2,Linecode=IP_2,Length=0.002960000,Units=km
new line.SBT_100331IP bus1=BBT394975.1.2.0,bus2=BBT5000100331.1.2.0,Phases=2,Linecode=IP_2,Length=0.002960000,Units=km
new line.SBT_100338IP bus1=BBT394982.3.1.0,bus2=BBT5000100338.3.1.0,Phases=2,Linecode=IP_2,Length=0.002960000,Units=km
new line.SBT_10034534 bus1=BBT145981133.1.2.0,bus2=BBT145981140.1.2.0,Phases=2,Linecode=BT518_BT518_7_2_1_2,Length=0.000501000,Units=km
new line.SBT_10034590 bus1=BBT145981140.1.2.0,bus2=BBT145981476.1.2.0,Phases=2,Linecode=BT808_BT808_4_2_3_2,Length=0.010821000,Units=km
new line.SBT_100345IP bus1=BBT394989.1.2.0,bus2=BBT5000100345.1.2.0,Phases=2,Linecode=IP_2,Length=0.002840000,Units=km
new line.SBT_100352IP bus1=BBT394996.1.2.0,bus2=BBT5000100352.1.2.0,Phases=2,Linecode=IP_2,Length=0.002840000,Units=km
new line.SBT_10035836 bus1=BBT146006326.1.2.0,bus2=BBT146006333.1.2.0,Phases=2,Linecode=BT513_BT513_7_2_1_2,Length=0.000501000,Units=km
new line.SBT_10037362 bus1=BBT146040605.1.2.0,bus2=BBT146040612.1.2.0,Phases=2,Linecode=BT518_BT518_7_2_1_2,Length=0.000501000,Units=km
new line.SBT_100373IP bus1=BBT395017.2.3.0,bus2=BBT5000100373.2.3.0,Phases=2,Linecode=IP_2,Length=0.005530000,Units=km
new line.SBT_100380IP bus1=BBT395024.3.1.0,bus2=BBT5000100380.3.1.0,Phases=2,Linecode=IP_2,Length=0.005530000,Units=km
new line.SBT_100387IP bus1=BBT395031.1.2.0,bus2=BBT5000100387.1.2.0,Phases=2,Linecode=IP_2,Length=0.001600000,Units=km
new line.SBT_100394IP bus1=BBT395038.3.1.0,bus2=BBT5000100394.3.1.0,Phases=2,Linecode=IP_2,Length=0.005530000,Units=km
new line.SBT_100401IP bus1=BBT395045.1.2.0,bus2=BBT5000100401.1.2.0,Phases=2,Linecode=IP_2,Length=0.001600000,Units=km
new line.SBT_101178IP bus1=BBT395997.2.3.0,bus2=BBT5000101178.2.3.0,Phases=2,Linecode=IP_2,Length=0.002960000,Units=km
new line.SBT_101185IP bus1=BBT396004.3.1.0,bus2=BBT5000101185.3.1.0,Phases=2,Linecode=IP_2,Length=0.002180000,Units=km
new line.SBT_101213IP bus1=BBT396053.1.2.0,bus2=BBT5000101213.1.2.0,Phases=2,Linecode=IP_2,Length=0.002840000,Units=km
new line.SBT_101220IP bus1=BBT396060.1.2.0,bus2=BBT5000101220.1.2.0,Phases=2,Linecode=IP_2,Length=0.002840000,Units=km
new line.SBT_101227IP bus1=BBT396067.3.1.0,bus2=BBT5000101227.3.1.0,Phases=2,Linecode=IP_2,Length=0.002840000,Units=km
new line.SBT_101241IP bus1=BBT396088.2.3.0,bus2=BBT5000101241.2.3.0,Phases=2,Linecode=IP_2,Length=0.002840000,Units=km
new line.SBT_101248IP bus1=BBT396095.2.3.0,bus2=BBT5000101248.2.3.0,Phases=2,Linecode=IP_2,Length=0.002840000,Units=km
new line.SBT_101255IP bus1=BBT396102.3.1.0,bus2=BBT5000101255.3.1.0,Phases=2,Linecode=IP_2,Length=0.002840000,Units=km
new line.SBT_101262IP bus1=BBT396109.3.1.0,bus2=BBT5000101262.3.1.0,Phases=2,Linecode=IP_2,Length=0.002840000,Units=km
new line.SBT_101269IP bus1=BBT396116.1.2.0,bus2=BBT5000101269.1.2.0,Phases=2,Linecode=IP_2,Length=0.002840000,Units=km
new line.SBT_101276IP bus1=BBT396123.1.2.0,bus2=BBT5000101276.1.2.0,Phases=2,Linecode=IP_2,Length=0.002840000,Units=km
new line.SBT_101283IP bus1=BBT396130.2.3.0,bus2=BBT5000101283.2.3.0,Phases=2,Linecode=IP_2,Length=0.002840000,Units=km
new line.SBT_101290IP bus1=BBT396137.3.1.0,bus2=BBT5000101290.3.1.0,Phases=2,Linecode=IP_2,Length=0.002840000,Units=km
new line.SBT_101297IP bus1=BBT396144.3.1.0,bus2=BBT5000101297.3.1.0,Phases=2,Linecode=IP_2,Length=0.002840000,Units=km
new line.SBT_101304IP bus1=BBT396151.1.2.0,bus2=BBT5000101304.1.2.0,Phases=2,Linecode=IP_2,Length=0.002840000,Units=km
new line.SBT_101311IP bus1=BBT396179.1.2.0,bus2=BBT5000101311.1.2.0,Phases=2,Linecode=IP_2,Length=0.002840000,Units=km
new line.SBT_101318IP bus1=BBT396186.1.2.0,bus2=BBT5000101318.1.2.0,Phases=2,Linecode=IP_2,Length=0.001600000,Units=km
new line.SBT_101325IP bus1=BBT396193.2.3.0,bus2=BBT5000101325.2.3.0,Phases=2,Linecode=IP_2,Length=0.002840000,Units=km
new line.SBT_101332IP bus1=BBT396200.1.2.0,bus2=BBT5000101332.1.2.0,Phases=2,Linecode=IP_2,Length=0.001600000,Units=km
new line.SBT_101339IP bus1=BBT396207.1.2.0,bus2=BBT5000101339.1.2.0,Phases=2,Linecode=IP_2,Length=0.001600000,Units=km
new line.SBT_101346IP bus1=BBT396214.1.2.0,bus2=BBT5000101346.1.2.0,Phases=2,Linecode=IP_2,Length=0.001600000,Units=km
new line.SBT_101353IP bus1=BBT396221.1.2.0,bus2=BBT5000101353.1.2.0,Phases=2,Linecode=IP_2,Length=0.001600000,Units=km
new line.SBT_101360IP bus1=BBT396228.1.2.0,bus2=BBT5000101360.1.2.0,Phases=2,Linecode=IP_2,Length=0.001600000,Units=km
new line.SBT_101367IP bus1=BBT396235.1.2.0,bus2=BBT5000101367.1.2.0,Phases=2,Linecode=IP_2,Length=0.001600000,Units=km
new line.SBT_101374IP bus1=BBT396242.3.1.0,bus2=BBT5000101374.3.1.0,Phases=2,Linecode=IP_2,Length=0.002840000,Units=km
new line.SBT_101381IP bus1=BBT396249.1.2.0,bus2=BBT5000101381.1.2.0,Phases=2,Linecode=IP_2,Length=0.001600000,Units=km
new line.SBT_101388IP bus1=BBT396256.1.2.0,bus2=BBT5000101388.1.2.0,Phases=2,Linecode=IP_2,Length=0.002840000,Units=km
new line.SBT_101395IP bus1=BBT396263.1.2.0,bus2=BBT5000101395.1.2.0,Phases=2,Linecode=IP_2,Length=0.001600000,Units=km
new line.SBT_1099014IP bus1=BBT434140.1.2.0,bus2=BBT5001099014.1.2.0,Phases=2,Linecode=IP_2,Length=0.002960000,Units=km
new line.SBT_1099028IP bus1=BBT434161.1.2.0,bus2=BBT5001099028.1.2.0,Phases=2,Linecode=IP_2,Length=0.002960000,Units=km
new line.SBT_111265IP bus1=BBT417459.3.1.0,bus2=BBT5000111265.3.1.0,Phases=2,Linecode=IP_2,Length=0.001600000,Units=km
new line.SBT_111272IP bus1=BBT417466.3.1.0,bus2=BBT5000111272.3.1.0,Phases=2,Linecode=IP_2,Length=0.001600000,Units=km
new line.SBT_111279IP bus1=BBT417473.1.2.0,bus2=BBT5000111279.1.2.0,Phases=2,Linecode=IP_2,Length=0.001600000,Units=km
new line.SBT_111286IP bus1=BBT417480.1.2.0,bus2=BBT5000111286.1.2.0,Phases=2,Linecode=IP_2,Length=0.002840000,Units=km
new line.SBT_111293IP bus1=BBT417487.1.2.0,bus2=BBT5000111293.1.2.0,Phases=2,Linecode=IP_2,Length=0.002840000,Units=km
new line.SBT_111300IP bus1=BBT417494.1.2.0,bus2=BBT5000111300.1.2.0,Phases=2,Linecode=IP_2,Length=0.001600000,Units=km
new line.SBT_111307IP bus1=BBT417501.3.1.0,bus2=BBT5000111307.3.1.0,Phases=2,Linecode=IP_2,Length=0.001600000,Units=km
new line.SBT_111314IP bus1=BBT417508.3.1.0,bus2=BBT5000111314.3.1.0,Phases=2,Linecode=IP_2,Length=0.002960000,Units=km
new line.SBT_111321IP bus1=BBT417515.3.1.0,bus2=BBT5000111321.3.1.0,Phases=2,Linecode=IP_2,Length=0.001600000,Units=km
new line.SBT_111328IP bus1=BBT417522.3.1.0,bus2=BBT5000111328.3.1.0,Phases=2,Linecode=IP_2,Length=0.001600000,Units=km
new line.SBT_111335IP bus1=BBT417529.3.1.0,bus2=BBT5000111335.3.1.0,Phases=2,Linecode=IP_2,Length=0.001600000,Units=km
new line.SBT_111342IP bus1=BBT417536.3.1.0,bus2=BBT5000111342.3.1.0,Phases=2,Linecode=IP_2,Length=0.001600000,Units=km
new line.SBT_111349IP bus1=BBT417543.2.3.0,bus2=BBT5000111349.2.3.0,Phases=2,Linecode=IP_2,Length=0.002960000,Units=km
new line.SBT_111356IP bus1=BBT417550.2.3.0,bus2=BBT5000111356.2.3.0,Phases=2,Linecode=IP_2,Length=0.002960000,Units=km
new line.SBT_111363IP bus1=BBT417557.1.2.0,bus2=BBT5000111363.1.2.0,Phases=2,Linecode=IP_2,Length=0.002960000,Units=km
new line.SBT_111370IP bus1=BBT417564.1.2.0,bus2=BBT5000111370.1.2.0,Phases=2,Linecode=IP_2,Length=0.002960000,Units=km
new line.SBT_111377IP bus1=BBT417571.1.2.0,bus2=BBT5000111377.1.2.0,Phases=2,Linecode=IP_2,Length=0.002960000,Units=km
new line.SBT_111384IP bus1=BBT417599.1.2.0,bus2=BBT5000111384.1.2.0,Phases=2,Linecode=IP_2,Length=0.001600000,Units=km
new line.SBT_111391IP bus1=BBT417606.1.2.0,bus2=BBT5000111391.1.2.0,Phases=2,Linecode=IP_2,Length=0.001600000,Units=km
new line.SBT_111398IP bus1=BBT417613.1.2.0,bus2=BBT5000111398.1.2.0,Phases=2,Linecode=IP_2,Length=0.001600000,Units=km
new line.SBT_111405IP bus1=BBT417620.1.2.0,bus2=BBT5000111405.1.2.0,Phases=2,Linecode=IP_2,Length=0.002960000,Units=km
new line.SBT_100555IP bus1=BBT395213.1.2.0,bus2=BBT5000100555.1.2.0,Phases=2,Linecode=IP_2,Length=0.002960000,Units=km
new line.SBT_100569IP bus1=BBT395269.2.3.0,bus2=BBT5000100569.2.3.0,Phases=2,Linecode=IP_2,Length=0.001600000,Units=km
new line.SBT_100576IP bus1=BBT395276.2.3.0,bus2=BBT5000100576.2.3.0,Phases=2,Linecode=IP_2,Length=0.001600000,Units=km
new line.SBT_100583IP bus1=BBT395283.2.3.0,bus2=BBT5000100583.2.3.0,Phases=2,Linecode=IP_2,Length=0.001600000,Units=km
new line.SBT_100590IP bus1=BBT395290.2.3.0,bus2=BBT5000100590.2.3.0,Phases=2,Linecode=IP_2,Length=0.001600000,Units=km
new line.SBT_1005912 bus1=BBT1037167.1.2.0,bus2=BBT1037174.1.2.0,Phases=2,Linecode=BT513_BT513_7_2_1_2,Length=0.000501000,Units=km
new line.SBT_1005919 bus1=BBT1037174.1.2.0,bus2=BBT1037181.1.2.0,Phases=2,Linecode=BT807_BT807_4_2_3_2,Length=0.045894000,Units=km
new line.SBT_1005926 bus1=BBT1037174.1.2.0,bus2=BBT152423118.1.2.0,Phases=2,Linecode=BT807_BT807_4_2_3_2,Length=0.023353000,Units=km
new line.SBT_1005933 bus1=BBT1037181.1.2.0,bus2=BBT1037188.1.2.0,Phases=2,Linecode=BT801_BT801_4_2_3_2,Length=0.045621000,Units=km
new line.SBT_1005940 bus1=BBT1037181.1.2.0,bus2=BBT152423164.1.2.0,Phases=2,Linecode=BT807_BT807_4_2_3_2,Length=0.032583000,Units=km
new line.SBT_1005947 bus1=BBT1037202.1.2.0,bus2=BBT1037209.1.2.0,Phases=2,Linecode=BT307_BT307_7_2_1_2,Length=0.000501000,Units=km
new line.SBT_1005954 bus1=BBT1037209.1.2.0,bus2=BBT1037216.1.2.0,Phases=2,Linecode=BT801_BT801_4_2_3_2,Length=0.060846000,Units=km
new line.SBT_1005961 bus1=BBT1037209.1.2.0,bus2=BBT2190452.1.2.0,Phases=2,Linecode=BT801_BT801_4_2_3_2,Length=0.063343000,Units=km
new line.SBT_1005968 bus1=BBT1037216.1.2.0,bus2=BBT1037223.1.2.0,Phases=2,Linecode=BT801_BT801_4_2_3_2,Length=0.070732000,Units=km
new line.SBT_100597IP bus1=BBT395297.2.3.0,bus2=BBT5000100597.2.3.0,Phases=2,Linecode=IP_2,Length=0.001600000,Units=km
new line.SBT_100604IP bus1=BBT395304.2.3.0,bus2=BBT5000100604.2.3.0,Phases=2,Linecode=IP_2,Length=0.001600000,Units=km
new line.SBT_100611IP bus1=BBT395311.2.3.0,bus2=BBT5000100611.2.3.0,Phases=2,Linecode=IP_2,Length=0.001600000,Units=km
new line.SBT_100618IP bus1=BBT395318.2.3.0,bus2=BBT5000100618.2.3.0,Phases=2,Linecode=IP_2,Length=0.002960000,Units=km
new line.SBT_100625IP bus1=BBT395332.1.2.0,bus2=BBT5000100625.1.2.0,Phases=2,Linecode=IP_2,Length=0.001600000,Units=km
new line.SBT_100646IP bus1=BBT395360.1.2.0,bus2=BBT5000100646.1.2.0,Phases=2,Linecode=IP_2,Length=0.002960000,Units=km
new line.SBT_100653IP bus1=BBT395367.1.2.0,bus2=BBT5000100653.1.2.0,Phases=2,Linecode=IP_2,Length=0.002960000,Units=km
new line.SBT_100660IP bus1=BBT395374.1.2.0,bus2=BBT5000100660.1.2.0,Phases=2,Linecode=IP_2,Length=0.002960000,Units=km
new line.SBT_100667IP bus1=BBT395381.2.3.0,bus2=BBT5000100667.2.3.0,Phases=2,Linecode=IP_2,Length=0.002960000,Units=km
new line.SBT_100674IP bus1=BBT395388.3.1.0,bus2=BBT5000100674.3.1.0,Phases=2,Linecode=IP_2,Length=0.002960000,Units=km
new line.SBT_100681IP bus1=BBT395395.1.2.0,bus2=BBT5000100681.1.2.0,Phases=2,Linecode=IP_2,Length=0.002960000,Units=km
new line.SBT_100688IP bus1=BBT395402.1.2.0,bus2=BBT5000100688.1.2.0,Phases=2,Linecode=IP_2,Length=0.002960000,Units=km
new line.SBT_100695IP bus1=BBT395409.1.2.0,bus2=BBT5000100695.1.2.0,Phases=2,Linecode=IP_2,Length=0.002960000,Units=km
new line.SBT_102074IP bus1=BBT397628.1.2.0,bus2=BBT5000102074.1.2.0,Phases=2,Linecode=IP_2,Length=0.003300000,Units=km
new line.SBT_102081IP bus1=BBT397698.1.2.0,bus2=BBT5000102081.1.2.0,Phases=2,Linecode=IP_2,Length=0.003300000,Units=km
new line.SBT_110530IP bus1=BBT415884.1.2.0,bus2=BBT5000110530.1.2.0,Phases=2,Linecode=IP_2,Length=0.002960000,Units=km
new line.SBT_110537IP bus1=BBT415891.1.2.0,bus2=BBT5000110537.1.2.0,Phases=2,Linecode=IP_2,Length=0.002960000,Units=km
new line.SBT_110544IP bus1=BBT415898.1.2.0,bus2=BBT5000110544.1.2.0,Phases=2,Linecode=IP_2,Length=0.002960000,Units=km
new line.SBT_110551IP bus1=BBT415905.1.2.0,bus2=BBT5000110551.1.2.0,Phases=2,Linecode=IP_2,Length=0.002840000,Units=km
new line.SBT_110558IP bus1=BBT415912.1.2.0,bus2=BBT5000110558.1.2.0,Phases=2,Linecode=IP_2,Length=0.002960000,Units=km