new line.SMT_1000006 bus1=BMT177339288.1,bus2=BMT177339292.1,Phases=1,Linecode=CAB202_3_1_1,Length=0.347743000,Units=km
new line.SMT_1000013 bus1=BMT177339292.1,bus2=BMT177339294.1,Phases=1,Linecode=CAB202_3_1_1,Length=0.194623000,Units=km
new line.SMT_1000020 bus1=BMT177339292.1,bus2=BMT177339295.1,Phases=1,Linecode=CAB202_3_1_1,Length=0.181762000,Units=km
new line.SMT_1000027 bus1=BMT176769561.1,bus2=BMT176769563.1,Phases=1,Linecode=CAB103_3_1_1,Length=0.078132000,Units=km
new line.SMT_1000034 bus1=BMT176769561.1,bus2=BMT176769564.1,Phases=1,Linecode=CAB202_3_1_1,Length=0.246363000,Units=km
new line.SMT_1000041 bus1=BMT176769564.1,bus2=BMT3695363B.1,Phases=1,Linecode=CAB202_3_1_1,Length=0.139583000,Units=km
new line.SMT_1000048 bus1=BMT2001034B.1,bus2=BMT3400432B.1,Phases=1,Linecode=CAB202_3_1_1,Length=0.193858000,Units=km
new line.SMT_1000055 bus1=BMT176769565.1,bus2=BMT176769567.1,Phases=1,Linecode=CAB202_3_1_1,Length=0.090172000,Units=km
new line.SMT_1000062 bus1=BMT176769565.1,bus2=BMT3400488B.1,Phases=1,Linecode=CAB202_3_1_1,Length=0.083464000,Units=km
new line.SMT_1000069 bus1=BMT176769568.1,bus2=BMT176769569.1,Phases=1,Linecode=CAB202_3_1_1,Length=0.128208000,Units=km
new line.SMT_1000076 bus1=BMT176769568.1,bus2=BMT122796440.1,Phases=1,Linecode=CAB202_3_1_1,Length=0.093443000,Units=km
new line.SMT_1000083 bus1=BMT176769568.1,bus2=BMT2001062B.1,Phases=1,Linecode=CAB202_3_1_1,Length=0.120045000,Units=km
new line.SMT_1000097 bus1=BMT2001062B.1,bus2=BMT2001069B.1,Phases=1,Linecode=CAB202_3_1_1,Length=0.125046000,Units=km
new line.SMT_1000104 bus1=BMT2001069B.1,bus2=BMT2001076B.1,Phases=1,Linecode=CAB202_3_1_1,Length=0.580213000,Units=km
new line.SMT_1000111 bus1=BMT2001076B.1,bus2=BMT2001083B.1,Phases=1,Linecode=CAB202_3_1_1,Length=0.304497000,Units=km
new line.SMT_1000118 bus1=BMT2001083B.1,bus2=BMT176769570.1,Phases=1,Linecode=CAB202_3_1_1,Length=0.207079000,Units=km
new line.SMT_1000125 bus1=BMT180055851.1,bus2=BMT180055853.1,Phases=1,Linecode=CAB103_3_1_1,Length=0.040015000,Units=km
new line.SMT_1000132 bus1=BMT180055851.1,bus2=BMT3400600B.1,Phases=1,Linecode=CAB202_3_1_1,Length=0.150708000,Units=km
new line.SMT_1000139 bus1=BMT180055855.1,bus2=BMT180055857.1,Phases=1,Linecode=CAB202_3_1_1,Length=0.175393000,Units=km
new line.SMT_1000146 bus1=BMT180055861.1,bus2=BMT180055865.1,Phases=1,Linecode=CAB202_3_1_1,Length=0.110721000,Units=km
new line.SMT_1000153 bus1=BMT180055861.1,bus2=BMT180055866.1,Phases=1,Linecode=CAB202_3_1_1,Length=0.260864000,Units=km
new line.SMT_1000160 bus1=BMT180055866.1,bus2=BMT2001118B.1,Phases=1,Linecode=CAB202_3_1_1,Length=0.305277000,Units=km
new line.SMT_1000167 bus1=BMT180055866.1,bus2=BMT3672158B.1,Phases=1,Linecode=CAB202_3_1_1,Length=0.059931000,Units=km
new line.SMT_1000174 bus1=BMT2001118B.1,bus2=BMT180055867.1,Phases=1,Linecode=CAB202_3_1_1,Length=0.130911000,Units=km
new line.SMT_1000181 bus1=BMT180055868.1,bus2=BMT2001132B.1,Phases=1,Linecode=CAB202_3_1_1,Length=0.115151000,Units=km
new line.SMT_1000188 bus1=BMT180055868.1,bus2=BMT180055870.1,Phases=1,Linecode=CAB202_3_1_1,Length=0.154411000,Units=km
new line.SMT_1000195 bus1=BMT2001132B.1,bus2=BMT180055869.1,Phases=1,Linecode=CAB202_3_1_1,Length=0.148584000,Units=km
new line.SMT_1000202 bus1=BMT180055870.1,bus2=BMT180055872.1,Phases=1,Linecode=CAB202_3_1_1,Length=0.038093000,Units=km
new line.SMT_1000209 bus1=BMT180055870.1,bus2=BMT180055873.1,Phases=1,Linecode=CAB202_3_1_1,Length=0.089056000,Units=km
new line.SMT_1000216 bus1=BMT180055873.1,bus2=BMT180055874.1,Phases=1,Linecode=CAB202_3_1_1,Length=0.186080000,Units=km
new line.SMT_1000223 bus1=BMT180055874.1,bus2=BMT180055876.1,Phases=1,Linecode=CAB202_3_1_1,Length=0.145398000,Units=km
new line.SMT_1000230 bus1=BMT180055874.1,bus2=BMT3400040B.1,Phases=1,Linecode=CAB202_3_1_1,Length=0.154514000,Units=km
new line.SMT_1000237 bus1=BMT180055874.1,bus2=BMT180055878.1,Phases=1,Linecode=CAB103_3_1_1,Length=0.061878000,Units=km
new line.SMT_1000244 bus1=BMT176454389.3,bus2=BMT176454392.3,Phases=1,Linecode=CAB202_3_1_1,Length=0.145140000,Units=km
new line.SMT_1000251 bus1=BMT176454389.1.2.3,bus2=BMT3997378B.1.2.3,Phases=3,Linecode=CAB202_3_3_3,Length=0.070375000,Units=km
new line.SMT_1000258 bus1=BMT167098694.1.2.3,bus2=BMT122791785.1.2.3,Phases=3,Linecode=CAB202_3_3_3,Length=0.158961000,Units=km
new line.SMT_1000265 bus1=BMT170524905.1.2.3,bus2=BMT122795390.1.2.3,Phases=3,Linecode=CAB103_3_3_3,Length=0.086177000,Units=km
new line.SMT_1000272 bus1=BMT122791785.1.2.3,bus2=BMT2574754B.1.2.3,Phases=3,Linecode=CAB202_3_3_3,Length=0.161506000,Units=km
new line.SMT_1000279 bus1=BMT122795390.1.2.3,bus2=BMT2794722B.1.2.3,Phases=3,Linecode=CAB102_3_3_3,Length=0.037962000,Units=km
new line.SMT_1000286 bus1=BMT145230691.3,bus2=BMT4041205B.3,Phases=1,Linecode=CAB103_3_1_1,Length=0.010775000,Units=km
new line.SMT_1000293 bus1=BMT175860583.1.2.3,bus2=BMT2001195B.1.2.3,Phases=3,Linecode=CAB202_3_3_3,Length=0.147194000,Units=km
new line.SMT_1000300 bus1=BMT122791841.1,bus2=BMT4042255B.1,Phases=1,Linecode=CAB103_3_1_1,Length=0.030622000,Units=km
new line.SMT_1000307 bus1=BMT2001195B.1.2.3,bus2=BMT3695531B.1.2.3,Phases=3,Linecode=CAB202_3_3_3,Length=0.139138000,Units=km
new line.SMT_1000314 bus1=BMT175860584.1,bus2=BMT175860585.1,Phases=1,Linecode=CAB103_3_1_1,Length=0.047452000,Units=km
new line.SMT_1001805 bus1=BMT179337345.3,bus2=BMT2002119B.3,Phases=1,Linecode=CAB202_3_1_1,Length=0.449222000,Units=km
new line.SMT_1001812 bus1=BMT179337345.3,bus2=BMT179337347.3,Phases=1,Linecode=CAB202_3_1_1,Length=0.391330000,Units=km
new line.SMT_1001819 bus1=BMT2002119B.3,bus2=BMT2002245B.3,Phases=1,Linecode=CAB202_3_1_1,Length=0.132432000,Units=km
new line.SMT_1001826 bus1=BMT179337347.3,bus2=BMT179337348.3,Phases=1,Linecode=CAB202_3_1_1,Length=0.151219000,Units=km
new line.SMT_1001833 bus1=BMT179337347.3,bus2=BMT3735452B.3,Phases=1,Linecode=CAB202_3_1_1,Length=0.385685000,Units=km
new line.SMT_1001840 bus1=BMT2002133B.3,bus2=BMT179337349.3,Phases=1,Linecode=CAB202_3_1_1,Length=0.176205000,Units=km
new line.SMT_1001847 bus1=BMT179337349.3,bus2=BMT179337350.3,Phases=1,Linecode=CAB103_3_1_1,Length=0.064056000,Units=km
new line.SMT_1001854 bus1=BMT179337349.3,bus2=BMT179337351.3,Phases=1,Linecode=CAB202_3_1_1,Length=0.211562000,Units=km
new line.SMT_1001861 bus1=BMT179337349.3,bus2=BMT3736089B.3,Phases=1,Linecode=CAB202_3_1_1,Length=0.008948000,Units=km
new line.SMT_1001868 bus1=BMT179337351.3,bus2=BMT179337353.3,Phases=1,Linecode=CAB202_3_1_1,Length=0.101280000,Units=km
new line.SMT_1001875 bus1=BMT179337351.3,bus2=BMT3736299B.3,Phases=1,Linecode=CAB202_3_1_1,Length=0.442165000,Units=km
new line.SMT_1001882 bus1=BMT179337353.3,bus2=BMT179337356.3,Phases=1,Linecode=CAB103_3_1_1,Length=0.053872000,Units=km
new line.SMT_1001889 bus1=BMT179337353.3,bus2=BMT179337357.3,Phases=1,Linecode=CAB202_3_1_1,Length=0.485180000,Units=km
new line.SMT_1001896 bus1=BMT179337354.3,bus2=BMT179337355.3,Phases=1,Linecode=CAB202_3_1_1,Length=0.105158000,Units=km
new line.SMT_1001903 bus1=BMT179337357.3,bus2=BMT2002175B.3,Phases=1,Linecode=CAB202_3_1_1,Length=0.080186000,Units=km
new line.SMT_1001910 bus1=BMT179337357.3,bus2=BMT2002182B.3,Phases=1,Linecode=CAB202_3_1_1,Length=0.060438000,Units=km
new line.SMT_1001917 bus1=BMT179337357.3,bus2=BMT2002189B.3,Phases=1,Linecode=CAB202_3_1_1,Length=0.506770000,Units=km
new line.SMT_1001924 bus1=BMT2002175B.3,bus2=BMT179337358.3,Phases=1,Linecode=CAB202_3_1_1,Length=0.428090000,Units=km
new line.SMT_1001931 bus1=BMT2002182B.3,bus2=BMT179337359.3,Phases=1,Linecode=CAB202_3_1_1,Length=0.291012000,Units=km
new line.SMT_1001938 bus1=BMT2002189B.3,bus2=BMT2002196B.3,Phases=1,Linecode=CAB202_3_1_1,Length=0.356117000,Units=km
new line.SMT_1001945 bus1=BMT2002196B.3,bus2=BMT3736712B.3,Phases=1,Linecode=CAB202_3_1_1,Length=0.478354000,Units=km
new line.SMT_1001952 bus1=BMT179337360.3,bus2=BMT179337361.3,Phases=1,Linecode=CAB103_3_1_1,Length=0.050019000,Units=km
new line.SMT_1001959 bus1=BMT179337360.3,bus2=BMT179337362.3,Phases=1,Linecode=CAB202_3_1_1,Length=0.184459000,Units=km
new line.SMT_1001966 bus1=BMT179337363.3,bus2=BMT179337366.3,Phases=1,Linecode=CAB103_3_1_1,Length=0.025505000,Units=km
new line.SMT_1001973 bus1=BMT179337363.3,bus2=BMT2002217B.3,Phases=1,Linecode=CAB202_3_1_1,Length=0.103116000,Units=km
new line.SMT_1001980 bus1=BMT2002217B.3,bus2=BMT179337367.3,Phases=1,Linecode=CAB202_3_1_1,Length=0.465199000,Units=km
new line.SMT_1001987 bus1=BMT179337367.3,bus2=BMT179337368.3,Phases=1,Linecode=CAB202_3_1_1,Length=0.140141000,Units=km
new line.SMT_1001994 bus1=BMT179337367.3,bus2=BMT2002238B.3,Phases=1,Linecode=CAB202_3_1_1,Length=0.271255000,Units=km
new line.SMT_1002001 bus1=BMT2002238B.3,bus2=BMT179337369.3,Phases=1,Linecode=CAB202_3_1_1,Length=0.055923000,Units=km
new line.SMT_1002008 bus1=BMT2002245B.3,bus2=BMT179337346.3,Phases=1,Linecode=CAB202_3_1_1,Length=0.122111000,Units=km
new line.SMT_1002015 bus1=BMT122792835.1.2.3,bus2=BMT172757419.1.2.3,Phases=3,Linecode=CAB202_3_3_3,Length=0.038094000,Units=km
new line.SMT_1002022 bus1=BMT164878202.2,bus2=BMT164878203.2,Phases=1,Linecode=CAB202_3_1_1,Length=0.104083000,Units=km
new line.SMT_1002029 bus1=BMT172757419.3,bus2=BMT172757420.3,Phases=1,Linecode=CAB202_3_1_1,Length=0.075924000,Units=km
new line.SMT_1002036 bus1=BMT172757419.1.2.3,bus2=BMT172757421.1.2.3,Phases=3,Linecode=CAB202_3_3_3,Length=0.280507000,Units=km
new line.SMT_1002043 bus1=BMT164878203.2,bus2=BMT164878204.2,Phases=1,Linecode=CAB202_3_1_1,Length=0.107395000,Units=km
new line.SMT_1002050 bus1=BMT164878203.2,bus2=BMT164878205.2,Phases=1,Linecode=CAB202_3_1_1,Length=0.025505000,Units=km
new line.SMT_1002057 bus1=BMT164878203.2,bus2=BMT3737972B.2,Phases=1,Linecode=CAB202_3_1_1,Length=0.234477000,Units=km
new line.SMT_1002064 bus1=BMT164878205.2,bus2=BMT164878210.2,Phases=1,Linecode=CAB103_3_1_1,Length=0.097119000,Units=km
new line.SMT_1002071 bus1=BMT164878205.2,bus2=BMT164878211.2,Phases=1,Linecode=CAB202_3_1_1,Length=0.141563000,Units=km
new line.SMT_1002078 bus1=BMT2002280B.2,bus2=BMT164878206.2,Phases=1,Linecode=CAB202_3_1_1,Length=0.136617000,Units=km
new line.SMT_1002085 bus1=BMT164878206.2,bus2=BMT164878207.2,Phases=1,Linecode=CAB103_3_1_1,Length=0.051010000,Units=km
new line.SMT_1002092 bus1=BMT164878206.2,bus2=BMT164878208.2,Phases=1,Linecode=CAB202_3_1_1,Length=0.099662000,Units=km
new line.SMT_1002099 bus1=BMT172757421.1,bus2=BMT172757422.1,Phases=1,Linecode=CAB103_3_1_1,Length=0.032028000,Units=km
new line.SMT_1002106 bus1=BMT172757421.1.2.3,bus2=BMT122792877.1.2.3,Phases=3,Linecode=CAB202_3_3_3,Length=0.271414000,Units=km
new line.SMT_1003660 bus1=BMT177727403.2,bus2=BMT177727405.2,Phases=1,Linecode=CAB202_3_1_1,Length=0.470273000,Units=km
new line.SMT_1003667 bus1=BMT177727405.2,bus2=BMT177727406.2,Phases=1,Linecode=CAB202_3_1_1,Length=0.154901000,Units=km
new line.SMT_1003674 bus1=BMT177727409.2,bus2=BMT177727414.2,Phases=1,Linecode=CAB202_3_1_1,Length=0.232731000,Units=km
new line.SMT_1003681 bus1=BMT177727409.2,bus2=BMT177727415.2,Phases=1,Linecode=CAB202_3_1_1,Length=0.230571000,Units=km
new line.SMT_1003688 bus1=BMT177727415.2,bus2=BMT2003386B.2,Phases=1,Linecode=CAB202_3_1_1,Length=0.379774000,Units=km
new line.SMT_1003695 bus1=BMT177727415.2,bus2=BMT177727417.2,Phases=1,Linecode=CAB202_3_1_1,Length=0.241186000,Units=km
new line.SMT_1003702 bus1=BMT2003386B.2,bus2=BMT177727416.2,Phases=1,Linecode=CAB202_3_1_1,Length=0.302308000,Units=km
new line.SMT_1003709 bus1=BMT177727416.2,bus2=BMT177727418.2,Phases=1,Linecode=CAB202_3_1_1,Length=0.215484000,Units=km
new line.SMT_1003716 bus1=BMT177727416.2,bus2=BMT177727419.2,Phases=1,Linecode=CAB202_3_1_1,Length=0.090587000,Units=km
new line.SMT_1003723 bus1=BMT177727419.2,bus2=BMT177727420.2,Phases=1,Linecode=CAB202_3_1_1,Length=0.250140000,Units=km
new line.SMT_1003730 bus1=BMT177727419.2,bus2=BMT2003407B.2,Phases=1,Linecode=CAB202_3_1_1,Length=0.102017000,Units=km
new line.SMT_1003737 bus1=BMT2003407B.2,bus2=BMT177727421.2,Phases=1,Linecode=CAB202_3_1_1,Length=0.081424000,Units=km
new line.SMT_1003744 bus1=BMT177727421.2,bus2=BMT177727423.2,Phases=1,Linecode=CAB202_3_1_1,Length=0.257483000,Units=km
new line.SMT_1003751 bus1=BMT177727421.2,bus2=BMT122787445.2,Phases=1,Linecode=CAB202_3_1_1,Length=0.340893000,Units=km
new line.SMT_1003758 bus1=BMT122787445.2,bus2=BMT2003428B.2,Phases=1,Linecode=CAB202_3_1_1,Length=0.275281000,Units=km
new line.SMT_1003765 bus1=BMT122788117.2,bus2=BMT2972942B.2,Phases=1,Linecode=CAB202_3_1_1,Length=0.089927000,Units=km
new line.SMT_1003772 bus1=BMT2003428B.2,bus2=BMT177727424.2,Phases=1,Linecode=CAB202_3_1_1,Length=0.206230000,Units=km
new line.SMT_1003779 bus1=BMT177727424.2,bus2=BMT177727425.2,Phases=1,Linecode=CAB202_3_1_1,Length=0.123028000,Units=km
new line.SMT_1003786 bus1=BMT177727424.2,bus2=BMT177727426.2,Phases=1,Linecode=CAB202_3_1_1,Length=0.051009000,Units=km
new line.SMT_1003793 bus1=BMT177727427.2,bus2=BMT177727429.2,Phases=1,Linecode=CAB202_3_1_1,Length=0.158171000,Units=km
new line.SMT_1003800 bus1=BMT177727427.2,bus2=BMT177727430.2,Phases=1,Linecode=CAB202_3_1_1,Length=0.190741000,Units=km
new line.SMT_1003807 bus1=BMT177727427.2,bus2=BMT177727431.2,Phases=1,Linecode=CAB202_3_1_1,Length=0.018981000,Units=km
new line.SMT_1003814 bus1=BMT177727430.2,bus2=BMT177727434.2,Phases=1,Linecode=CAB202_3_1_1,Length=0.079086000,Units=km
new line.SMT_1003821 bus1=BMT177727430.2,bus2=BMT177727435.2,Phases=1,Linecode=CAB202_3_1_1,Length=0.289457000,Units=km
new line.SMT_1003828 bus1=BMT177727435.2,bus2=BMT177727436.2,Phases=1,Linecode=CAB202_3_1_1,Length=0.166268000,Units=km
new line.SMT_1003835 bus1=BMT177727435.2,bus2=BMT177727437.2,Phases=1,Linecode=CAB202_3_1_1,Length=0.199321000,Units=km
new line.SMT_1003842 bus1=BMT177727435.2,bus2=BMT177727438.2,Phases=1,Linecode=CAB202_3_1_1,Length=0.178740000,Units=km
new line.SMT_1003849 bus1=BMT177727436.2,bus2=BMT177727454.2,Phases=1,Linecode=CAB103_3_1_1,Length=0.047187000,Units=km
new line.SMT_1003856 bus1=BMT177727436.2,bus2=BMT2650802B.2,Phases=1,Linecode=CAB202_3_1_1,Length=0.177084000,Units=km
new line.SMT_1003863 bus1=BMT177727437.2,bus2=BMT177727439.2,Phases=1,Linecode=CAB202_3_1_1,Length=0.208702000,Units=km
new line.SMT_1003870 bus1=BMT177727437.2,bus2=BMT4092620B.2,Phases=1,Linecode=CAB202_3_1_1,Length=0.030425000,Units=km
new line.SMT_1003877 bus1=BMT177727439.2,bus2=BMT2003505B.2,Phases=1,Linecode=CAB202_3_1_1,Length=0.438793000,Units=km
new line.SMT_1003884 bus1=BMT177727439.2,bus2=BMT3308788B.2,Phases=1,Linecode=CAB202_3_1_1,Length=0.028330000,Units=km
new line.SMT_1003891 bus1=BMT2003498B.2,bus2=BMT177727442.2,Phases=1,Linecode=CAB202_3_1_1,Length=0.215413000,Units=km
new line.SMT_1003898 bus1=BMT2003505B.2,bus2=BMT177727441.2,Phases=1,Linecode=CAB202_3_1_1,Length=0.235034000,Units=km
new line.SMT_1003905 bus1=BMT177727441.2,bus2=BMT177727446.2,Phases=1,Linecode=CAB202_3_1_1,Length=0.491350000,Units=km
new line.SMT_1003912 bus1=BMT177727441.2,bus2=BMT3063424B.2,Phases=1,Linecode=CAB202_3_1_1,Length=0.605513000,Units=km
new line.SMT_1003919 bus1=BMT177727446.2,bus2=BMT177727452.2,Phases=1,Linecode=CAB202_3_1_1,Length=0.315432000,Units=km
new line.SMT_1003926 bus1=BMT177727446.2,bus2=BMT2648254B.2,Phases=1,Linecode=CAB202_3_1_1,Length=0.127330000,Units=km
new line.SMT_1003933 bus1=BMT2003533B.2,bus2=BMT177727444.2,Phases=1,Linecode=CAB202_3_1_1,Length=0.020033000,Units=km
new line.SMT_1003940 bus1=BMT177727444.2,bus2=BMT2678228B.2,Phases=1,Linecode=CAB202_3_1_1,Length=0.038485000,Units=km
new line.SMT_1003954 bus1=BMT2003547B.2,bus2=BMT177727389.2,Phases=1,Linecode=CAB202_3_1_1,Length=0.070353000,Units=km
new line.SMT_1003961 bus1=BMT2003554B.1.2.3,bus2=BMT2988853B.1.2.3,Phases=3,Linecode=CABA06_3_3_3,Length=0.059963000,Units=km
new line.SMT_1003968 bus1=BMT2003561B.1.2.3,bus2=BMT176622470.1.2.3,Phases=3,Linecode=CABA06_3_3_3,Length=0.058621000,Units=km
new line.SMT_1005522 bus1=BMT169989883.3,bus2=BMT169989886.3,Phases=1,Linecode=CAB202_3_1_1,Length=0.238464000,Units=km
new line.SMT_1005529 bus1=BMT169989886.3,bus2=BMT169989887.3,Phases=1,Linecode=CAB202_3_1_1,Length=0.221550000,Units=km
new line.SMT_1005536 bus1=BMT169989886.3,bus2=BMT2004492B.3,Phases=1,Linecode=CAB202_3_1_1,Length=0.212351000,Units=km
new line.SMT_1005543 bus1=BMT2004492B.3,bus2=BMT169989888.3,Phases=1,Linecode=CAB202_3_1_1,Length=0.186616000,Units=km
new line.SMT_1005550 bus1=BMT169989888.3,bus2=BMT169989889.3,Phases=1,Linecode=CAB202_3_1_1,Length=0.109697000,Units=km
new line.SMT_1005557 bus1=BMT169989888.3,bus2=BMT169989890.3,Phases=1,Linecode=CAB202_3_1_1,Length=0.334670000,Units=km
new line.SMT_1005564 bus1=BMT169989888.3,bus2=BMT169989891.3,Phases=1,Linecode=CAB202_3_1_1,Length=0.210419000,Units=km
new line.SMT_1005571 bus1=BMT169989890.3,bus2=BMT169989892.3,Phases=1,Linecode=CAB202_3_1_1,Length=0.118575000,Units=km
new line.SMT_1005585 bus1=BMT2004513B.3,bus2=BMT3706017B.3,Phases=1,Linecode=CAB202_3_1_1,Length=0.040623000,Units=km
new line.SMT_1005592 bus1=BMT122788376.3,bus2=BMT2004527B.3,Phases=1,Linecode=CAB202_3_1_1,Length=0.030011000,Units=km
new line.SMT_1005599 bus1=BMT176391782.3,bus2=BMT176391783.3,Phases=1,Linecode=CAB202_3_1_1,Length=0.250088000,Units=km
new line.SMT_1005606 bus1=BMT122788376.3,bus2=BMT3706024B.3,Phases=1,Linecode=CAB202_3_1_1,Length=0.030011000,Units=km
new line.SMT_1005613 bus1=BMT2004534B.3,bus2=BMT169989897.3,Phases=1,Linecode=CAB202_3_1_1,Length=0.122109000,Units=km
new line.SMT_1005620 bus1=BMT176391783.3,bus2=BMT176391784.3,Phases=1,Linecode=CAB202_3_1_1,Length=0.160135000,Units=km
new line.SMT_1005627 bus1=BMT176391783.3,bus2=BMT3706136B.3,Phases=1,Linecode=CAB202_3_1_1,Length=0.078876000,Units=km
new line.SMT_1005634 bus1=BMT2004548B.3,bus2=BMT176391785.3,Phases=1,Linecode=CAB202_3_1_1,Length=0.172052000,Units=km
new line.SMT_1005641 bus1=BMT176391786.3,bus2=BMT176391789.3,Phases=1,Linecode=CAB202_3_1_1,Length=0.121698000,Units=km
new line.SMT_1005648 bus1=BMT176391786.3,bus2=BMT3708264B.3,Phases=1,Linecode=CAB202_3_1_1,Length=0.165134000,Units=km
new line.SMT_1005655 bus1=BMT176391786.3,bus2=BMT176391790.3,Phases=1,Linecode=CAB202_3_1_1,Length=0.098772000,Units=km
new line.SMT_1005662 bus1=BMT122788810.3,bus2=BMT3708320B.3,Phases=1,Linecode=CAB202_3_1_1,Length=0.100877000,Units=km
new line.SMT_1005669 bus1=BMT159811850.3,bus2=BMT159811851.3,Phases=1,Linecode=CAB202_3_1_1,Length=0.178425000,Units=km
new line.SMT_1005676 bus1=BMT176391791.3,bus2=BMT176391793.3,Phases=1,Linecode=CAB103_3_1_1,Length=0.066732000,Units=km
new line.SMT_1005683 bus1=BMT176391791.3,bus2=BMT176391795.3,Phases=1,Linecode=CAB202_3_1_1,Length=0.164526000,Units=km
new line.SMT_1005690 bus1=BMT176391791.3,bus2=BMT3708369B.3,Phases=1,Linecode=CAB202_3_1_1,Length=0.098513000,Units=km
new line.SMT_1005697 bus1=BMT176391796.3,bus2=BMT176391798.3,Phases=1,Linecode=CAB103_3_1_1,Length=0.028646000,Units=km
new line.SMT_1005704 bus1=BMT176391796.3,bus2=BMT2004583B.3,Phases=1,Linecode=CAB202_3_1_1,Length=0.104583000,Units=km
new line.SMT_1005711 bus1=BMT176391796.3,bus2=BMT3710021B.3,Phases=1,Linecode=CAB202_3_1_1,Length=0.089726000,Units=km
new line.SMT_1005718 bus1=BMT2004583B.3,bus2=BMT3708495B.3,Phases=1,Linecode=CAB202_3_1_1,Length=0.157868000,Units=km
new line.SMT_1005725 bus1=BMT2004590B.3,bus2=BMT3710049B.3,Phases=1,Linecode=CAB202_3_1_1,Length=0.074276000,Units=km
new line.SMT_1005732 bus1=BMT176391802.3,bus2=BMT3710084B.3,Phases=1,Linecode=CAB202_3_1_1,Length=0.140477000,Units=km
new line.SMT_1005739 bus1=BMT176391802.3,bus2=BMT176391804.3,Phases=1,Linecode=CAB103_3_1_1,Length=0.025189000,Units=km
new line.SMT_1005746 bus1=BMT176391800.3,bus2=BMT176391805.3,Phases=1,Linecode=CAB202_3_1_1,Length=0.094373000,Units=km
new line.SMT_1005753 bus1=BMT176391800.3,bus2=BMT176391806.3,Phases=1,Linecode=CAB202_3_1_1,Length=0.069796000,Units=km
new line.SMT_1005760 bus1=BMT176391807.3,bus2=BMT176391809.3,Phases=1,Linecode=CAB202_3_1_1,Length=0.174989000,Units=km
new line.SMT_1005767 bus1=BMT176391807.3,bus2=BMT4100782B.3,Phases=1,Linecode=CAB202_3_1_1,Length=0.448362000,Units=km
new line.SMT_1005774 bus1=BMT2004618B.3,bus2=BMT176391813.3,Phases=1,Linecode=CAB202_3_1_1,Length=0.112400000,Units=km
new line.SMT_1005781 bus1=BMT176391813.3,bus2=BMT159811731.3,Phases=1,Linecode=CAB202_3_1_1,Length=0.392086000,Units=km
new line.SMT_1005788 bus1=BMT176391813.3,bus2=BMT176391815.3,Phases=1,Linecode=CAB202_3_1_1,Length=0.044737000,Units=km
new line.SMT_1005795 bus1=BMT159811731.3,bus2=BMT176391824.3,Phases=1,Linecode=CAB103_3_1_1,Length=0.095558000,Units=km
new line.SMT_1005802 bus1=BMT161067317.3,bus2=BMT161067318.3,Phases=1,Linecode=CAB202_3_1_1,Length=0.208939000,Units=km
new line.SMT_1005809 bus1=BMT172838235.3,bus2=BMT2004646B.3,Phases=1,Linecode=CAB202_3_1_1,Length=0.185335000,Units=km
new line.SMT_1005816 bus1=BMT2004646B.3,bus2=BMT172838236.3,Phases=1,Linecode=CAB202_3_1_1,Length=0.174488000,Units=km
new line.SMT_1005823 bus1=BMT172838236.3,bus2=BMT2004660B.3,Phases=1,Linecode=CAB202_3_1_1,Length=0.277315000,Units=km
new line.SMT_1005830 bus1=BMT172838236.3,bus2=BMT172838238.3,Phases=1,Linecode=CAB103_3_1_1,Length=0.067825000,Units=km
new line.SMT_1009204 bus1=BMT175086475.1,bus2=BMT3898167B.1,Phases=1,Linecode=CAB202_3_1_1,Length=0.311740000,Units=km
new line.SMT_1009211 bus1=BMT175086477.1,bus2=BMT3898174B.1,Phases=1,Linecode=CAB202_3_1_1,Length=0.192258000,Units=km
new line.SMT_1009218 bus1=BMT175086481.1,bus2=BMT175086483.1,Phases=1,Linecode=CAB202_3_1_1,Length=0.068028000,Units=km
new line.SMT_1009225 bus1=BMT175086481.1,bus2=BMT3397303B.1,Phases=1,Linecode=CAB202_3_1_1,Length=0.218700000,Units=km
new line.SMT_1009232 bus1=BMT175086484.1,bus2=BMT175086485.1,Phases=1,Linecode=CAB202_3_1_1,Length=0.150046000,Units=km
new line.SMT_1009239 bus1=BMT175086484.1,bus2=BMT3397268B.1,Phases=1,Linecode=CAB202_3_1_1,Length=0.123897000,Units=km
new line.SMT_1009246 bus1=BMT122767901.1,bus2=BMT2006830B.1,Phases=1,Linecode=CAB202_3_1_1,Length=0.229525000,Units=km
new line.SMT_1009253 bus1=BMT2006830B.1,bus2=BMT2006837B.1,Phases=1,Linecode=CAB202_3_1_1,Length=0.120867000,Units=km
new line.SMT_1009260 bus1=BMT2006837B.1,bus2=BMT122767908.1,Phases=1,Linecode=CAB202_3_1_1,Length=0.128102000,Units=km
new line.SMT_1009267 bus1=BMT122767908.1,bus2=BMT122767915.1,Phases=1,Linecode=CAB202_3_1_1,Length=0.253553000,Units=km
new line.SMT_1009274 bus1=BMT122767908.1,bus2=BMT122767922.1,Phases=1,Linecode=CAB202_3_1_1,Length=0.445247000,Units=km
new line.SMT_1009281 bus1=BMT122767922.1,bus2=BMT3397247B.1,Phases=1,Linecode=CAB202_3_1_1,Length=0.098438000,Units=km
new line.SMT_1009288 bus1=BMT122767922.1,bus2=BMT3397338B.1,Phases=1,Linecode=CAB202_3_1_1,Length=0.491613000,Units=km
new line.SMT_1009295 bus1=BMT122767929.1,bus2=BMT122767978.1,Phases=1,Linecode=CAB202_3_1_1,Length=0.340250000,Units=km
new line.SMT_1009302 bus1=BMT122767929.1,bus2=BMT122767985.1,Phases=1,Linecode=CAB202_3_1_1,Length=0.344525000,Units=km
new line.SMT_1009309 bus1=BMT2006865B.1,bus2=BMT122767936.1,Phases=1,Linecode=CAB202_3_1_1,Length=0.028293000,Units=km
new line.SMT_1009316 bus1=BMT122767985.1,bus2=BMT122767992.1,Phases=1,Linecode=CAB202_3_1_1,Length=0.105981000,Units=km
new line.SMT_1009323 bus1=BMT122767985.1,bus2=BMT2006886B.1,Phases=1,Linecode=CAB202_3_1_1,Length=0.484296000,Units=km
new line.SMT_1009330 bus1=BMT122767985.1,bus2=BMT3379530B.1,Phases=1,Linecode=CAB202_3_1_1,Length=0.058018000,Units=km
new line.SMT_1009337 bus1=BMT2006886B.1,bus2=BMT122767999.1,Phases=1,Linecode=CAB202_3_1_1,Length=0.163298000,Units=km
new line.SMT_1009351 bus1=BMT122767999.1,bus2=BMT3379523B.1,Phases=1,Linecode=CAB202_3_1_1,Length=0.378090000,Units=km
new line.SMT_1009358 bus1=BMT122768027.1,bus2=BMT122768034.1,Phases=1,Linecode=CAB202_3_1_1,Length=0.255029000,Units=km
new line.SMT_1009365 bus1=BMT122768027.1,bus2=BMT3397394B.1,Phases=1,Linecode=CAB202_3_1_1,Length=0.285930000,Units=km
new line.SMT_1009372 bus1=BMT122768013.1,bus2=BMT122768062.1,Phases=1,Linecode=CAB202_3_1_1,Length=0.253554000,Units=km
new line.SMT_1009379 bus1=BMT122768013.1,bus2=BMT122768069.1,Phases=1,Linecode=CAB202_3_1_1,Length=0.041244000,Units=km
new line.SMT_1009386 bus1=BMT122768013.1,bus2=BMT3379516B.1,Phases=1,Linecode=CAB202_3_1_1,Length=0.502112000,Units=km
new line.SMT_1009393 bus1=BMT122768139.1,bus2=BMT122768153.1,Phases=1,Linecode=CAB202_3_1_1,Length=0.250527000,Units=km
new line.SMT_1009400 bus1=BMT122768139.1,bus2=BMT2007082B.1,Phases=1,Linecode=CAB202_3_1_1,Length=0.256057000,Units=km
new line.SMT_1009407 bus1=BMT122768076.1,bus2=BMT122768083.1,Phases=1,Linecode=CAB202_3_1_1,Length=0.250077000,Units=km
new line.SMT_1009414 bus1=BMT122768076.1,bus2=BMT3379509B.1,Phases=1,Linecode=CAB202_3_1_1,Length=0.190322000,Units=km
new line.SMT_1009421 bus1=BMT122768083.1,bus2=BMT122768118.1,Phases=1,Linecode=CAB202_3_1_1,Length=0.036412000,Units=km
new line.SMT_1009428 bus1=BMT172724549.1,bus2=BMT3397569B.1,Phases=1,Linecode=CAB202_3_1_1,Length=0.340118000,Units=km
new line.SMT_1009435 bus1=BMT2006935B.1,bus2=BMT3379453B.1,Phases=1,Linecode=CAB202_3_1_1,Length=0.080480000,Units=km
new line.SMT_1009442 bus1=BMT122768090.1,bus2=BMT122768097.1,Phases=1,Linecode=CAB101_3_1_1,Length=0.031775000,Units=km
new line.SMT_1009449 bus1=BMT122768090.1,bus2=BMT2581964B.1,Phases=1,Linecode=CAB102_3_1_1,Length=0.039459000,Units=km
new line.SMT_1009456 bus1=BMT122768104.1,bus2=BMT122768111.1,Phases=1,Linecode=CAB102_3_1_1,Length=0.033071000,Units=km
new line.SMT_1009463 bus1=BMT172540210.1,bus2=BMT2582209B.1,Phases=1,Linecode=CAB202_3_1_1,Length=0.228514000,Units=km
new line.SMT_1009470 bus1=BMT172540212.1,bus2=BMT172540214.1,Phases=1,Linecode=CAB202_3_1_1,Length=0.042061000,Units=km
new line.SMT_1009477 bus1=BMT172540212.1,bus2=BMT172540215.1,Phases=1,Linecode=CAB103_3_1_1,Length=0.055335000,Units=km
new line.SMT_1009484 bus1=BMT172540219.1,bus2=BMT172540221.1,Phases=1,Linecode=CAB202_3_1_1,Length=0.220126000,Units=km
new line.SMT_1009491 bus1=BMT172540219.1,bus2=BMT2006977B.1,Phases=1,Linecode=CAB202_3_1_1,Length=0.389030000,Units=km
new line.SMT_1009498 bus1=BMT172540219.1,bus2=BMT2006984B.1,Phases=1,Linecode=CAB202_3_1_1,Length=0.098265000,Units=km
new line.SMT_1009505 bus1=BMT2006977B.1,bus2=BMT172540222.1,Phases=1,Linecode=CAB202_3_1_1,Length=0.028294000,Units=km
new line.SMT_1009512 bus1=BMT2006984B.1,bus2=BMT2006991B.1,Phases=1,Linecode=CAB202_3_1_1,Length=0.032026000,Units=km
new line.SMT_1000321 bus1=BMT175860584.1.2.3,bus2=BMT175860586.1.2.3,Phases=3,Linecode=CAB202_3_3_3,Length=0.132431000,Units=km
new line.SMT_1000328 bus1=BMT175860766.3,bus2=BMT175860767.3,Phases=1,Linecode=CAB202_3_1_1,Length=0.323229000,Units=km
new line.SMT_1000335 bus1=BMT175860586.1.2.3,bus2=BMT122791883.1.2.3,Phases=3,Linecode=CAB202_3_3_3,Length=0.101156000,Units=km
new line.SMT_1000342 bus1=BMT175860767.3,bus2=BMT122795320.3,Phases=1,Linecode=CAB202_3_1_1,Length=0.290150000,Units=km
new line.SMT_1000349 bus1=BMT175860771.3,bus2=BMT175860772.3,Phases=1,Linecode=CAB202_3_1_1,Length=0.243272000,Units=km
new line.SMT_1000356 bus1=BMT175860587.2,bus2=BMT175860588.2,Phases=1,Linecode=CAB202_3_1_1,Length=0.162848000,Units=km
new line.SMT_1000363 bus1=BMT175860587.1.2.3,bus2=BMT122791883.1.2.3,Phases=3,Linecode=CAB202_3_3_3,Length=0.379909000,Units=km
new line.SMT_1000370 bus1=BMT175860587.1.2.3,bus2=BMT3699689B.1.2.3,Phases=3,Linecode=CAB202_3_3_3,Length=0.113814000,Units=km
new line.SMT_1000377 bus1=BMT175860590.3,bus2=BMT175860592.3,Phases=1,Linecode=CAB202_3_1_1,Length=0.145828000,Units=km
new line.SMT_1000384 bus1=BMT175860590.1.2.3,bus2=BMT175860589.1.2.3,Phases=3,Linecode=CAB202_3_3_3,Length=0.273175000,Units=km
new line.SMT_1000391 bus1=BMT175860590.1.2.3,bus2=BMT3700053B.1.2.3,Phases=3,Linecode=CAB202_3_3_3,Length=0.080653000,Units=km
new line.SMT_1000398 bus1=BMT173099968.2,bus2=BMT2001244B.2,Phases=1,Linecode=CAB202_3_1_1,Length=0.181795000,Units=km
new line.SMT_1000405 bus1=BMT122791932.1.2.3,bus2=BMT3700914B.1.2.3,Phases=3,Linecode=CAB202_3_3_3,Length=0.324838000,Units=km
new line.SMT_1000412 bus1=BMT2001244B.2,bus2=BMT173099969.2,Phases=1,Linecode=CAB202_3_1_1,Length=0.191512000,Units=km
new line.SMT_1000419 bus1=BMT175860593.1,bus2=BMT175860594.1,Phases=1,Linecode=CAB202_3_1_1,Length=0.293451000,Units=km
new line.SMT_1000426 bus1=BMT175860593.1.2.3,bus2=BMT3700991B.1.2.3,Phases=3,Linecode=CAB202_3_3_3,Length=0.345706000,Units=km
new line.SMT_1000433 bus1=BMT173071824.3,bus2=BMT2001265B.3,Phases=1,Linecode=CAB202_3_1_1,Length=0.099284000,Units=km
new line.SMT_1000440 bus1=BMT122791953.1.2.3,bus2=BMT3705359B.1.2.3,Phases=3,Linecode=CAB202_3_3_3,Length=0.350879000,Units=km
new line.SMT_1000447 bus1=BMT2001265B.3,bus2=BMT2002959B.3,Phases=1,Linecode=CAB202_3_1_1,Length=0.116769000,Units=km
new line.SMT_1000461 bus1=BMT175860595.3,bus2=BMT175860596.3,Phases=1,Linecode=CAB202_3_1_1,Length=0.095461000,Units=km
new line.SMT_1000468 bus1=BMT172543430.3,bus2=BMT172543431.3,Phases=1,Linecode=CAB202_3_1_1,Length=0.285806000,Units=km
new line.SMT_1000475 bus1=BMT122791967.1.2.3,bus2=BMT2001293B.1.2.3,Phases=3,Linecode=CAB202_3_3_3,Length=0.469880000,Units=km
new line.SMT_1000482 bus1=BMT172543431.3,bus2=BMT172543432.3,Phases=1,Linecode=CAB103_3_1_1,Length=0.038093000,Units=km
new line.SMT_1000489 bus1=BMT172543431.3,bus2=BMT3705569B.3,Phases=1,Linecode=CAB202_3_1_1,Length=0.094909000,Units=km
new line.SMT_1000496 bus1=BMT2001293B.1.2.3,bus2=BMT3705744B.1.2.3,Phases=3,Linecode=CAB202_3_3_3,Length=0.269664000,Units=km
new line.SMT_1000503 bus1=BMT168668999.1.2.3,bus2=BMT2001307B.1.2.3,Phases=3,Linecode=CAB202_3_3_3,Length=0.345272000,Units=km
new line.SMT_1000510 bus1=BMT122791988.1.2.3,bus2=BMT170933615.1.2.3,Phases=3,Linecode=CAB202_3_3_3,Length=0.139066000,Units=km
new line.SMT_1000517 bus1=BMT2001307B.1.2.3,bus2=BMT122792429.1.2.3,Phases=3,Linecode=CAB202_3_3_3,Length=0.502429000,Units=km
new line.SMT_1000524 bus1=BMT170933615.1.2.3,bus2=BMT122792016.1.2.3,Phases=3,Linecode=CABA06_3_3_3,Length=0.071090000,Units=km