new transformer.TRF_100380A Phases=1,Windings=3,Buses=[BMT179337348.3 BBT428029.1.0 BBT428029.0.2],Conns=[wye wye wye],kvs=[7.967 0.12 0.12],kvas=[5.000000000 5.000000000 5.000000000],Taps=[1,1.000000000,1.000000000],XHL=1.360000000,XHT=1.360000000,XLT=1.088000000,%loadloss=2.100000000,%noloadloss=0.700000000
new transformer.TRF_1003806A Phases=1,Windings=3,Buses=[BMT161262814.2 BBT100974248.1.0 BBT100974248.0.2],Conns=[wye wye wye],kvs=[7.967 0.12 0.12],kvas=[5.000000000 5.000000000 5.000000000],Taps=[1,1.000000000,1.000000000],XHL=1.360000000,XHT=1.360000000,XLT=1.088000000,%loadloss=2.100000000,%noloadloss=0.700000000
new transformer.TRF_1003820A Phases=1,Windings=3,Buses=[BMT169091422.1 BBT82942451.1.0 BBT82942451.0.2],Conns=[wye wye wye],kvs=[7.967 0.12 0.12],kvas=[15.000000000 15.000000000 15.000000000],Taps=[1,1.000000000,1.000000000],XHL=1.770000000,XHT=1.770000000,XLT=1.416000000,%loadloss=1.770000000,%noloadloss=0.433000000
new transformer.TRF_1003869A Phases=1,Windings=3,Buses=[BMT155312807.3 BBT101469477.1.0 BBT101469477.0.2],Conns=[wye wye wye],kvs=[7.967 0.12 0.12],kvas=[5.000000000 5.000000000 5.000000000],Taps=[1,1.000000000,1.000000000],XHL=1.360000000,XHT=1.360000000,XLT=1.088000000,%loadloss=2.100000000,%noloadloss=0.700000000
new transformer.TRF_100387A Phases=1,Windings=3,Buses=[BMT179269721.1 BBT428043.1.0 BBT428043.0.2],Conns=[wye wye wye],kvs=[7.967 0.12 0.12],kvas=[25.000000000 25.000000000 25.000000000],Taps=[1,1.000000000,1.000000000],XHL=1.950000000,XHT=1.950000000,XLT=1.560000000,%loadloss=1.560000000,%noloadloss=0.360000000
new transformer.TRF_1003876A Phases=1,Windings=3,Buses=[BMT150313172.2 BBT100858482.1.0 BBT100858482.0.2],Conns=[wye wye wye],kvs=[7.967 0.12 0.12],kvas=[5.000000000 5.000000000 5.000000000],Taps=[1,1.000000000,1.000000000],XHL=1.360000000,XHT=1.360000000,XLT=1.088000000,%loadloss=2.100000000,%noloadloss=0.700000000
new transformer.TRF_1003897A Phases=1,Windings=3,Buses=[BMT150313171.2 BBT100859777.1.0 BBT100859777.0.2],Conns=[wye wye wye],kvs=[7.967 0.12 0.12],kvas=[5.000000000 5.000000000 5.000000000],Taps=[1,1.000000000,1.000000000],XHL=1.360000000,XHT=1.360000000,XLT=1.088000000,%loadloss=2.100000000,%noloadloss=0.700000000
new transformer.TRF_1003925A Phases=1,Windings=3,Buses=[BMT150313173.2 BBT100860519.1.0 BBT100860519.0.2],Conns=[wye wye wye],kvs=[7.967 0.12 0.12],kvas=[5.000000000 5.000000000 5.000000000],Taps=[1,1.000000000,1.000000000],XHL=1.360000000,XHT=1.360000000,XLT=1.088000000,%loadloss=2.100000000,%noloadloss=0.700000000
new transformer.TRF_100394A Phases=1,Windings=3,Buses=[BMT175424935.1 BBT428057.1.0 BBT428057.0.2],Conns=[wye wye wye],kvs=[7.967 0.12 0.12],kvas=[10.000000000 10.000000000 10.000000000],Taps=[1,1.000000000,1.000000000],XHL=1.560000000,XHT=1.560000000,XLT=1.248000000,%loadloss=1.950000000,%noloadloss=0.500000000
new transformer.TRF_1003960A Phases=1,Windings=3,Buses=[BMT122771135.1 BBT105617803.1.0 BBT105617803.0.2],Conns=[wye wye wye],kvs=[7.967 0.12 0.12],kvas=[5.000000000 5.000000000 5.000000000],Taps=[1,1.000000000,1.000000000],XHL=1.360000000,XHT=1.360000000,XLT=1.088000000,%loadloss=2.100000000,%noloadloss=0.700000000
new transformer.TRF_1003974A Phases=1,Windings=3,Buses=[BMT122771142.1 BBT105617859.1.0 BBT105617859.0.2],Conns=[wye wye wye],kvs=[7.967 0.12 0.12],kvas=[5.000000000 5.000000000 5.000000000],Taps=[1,1.000000000,1.000000000],XHL=1.360000000,XHT=1.360000000,XLT=1.088000000,%loadloss=2.100000000,%noloadloss=0.700000000
new transformer.TRF_1004009A Phases=1,Windings=3,Buses=[BMT172348938.3 BBT103386812.1.0 BBT103386812.0.2],Conns=[wye wye wye],kvs=[7.967 0.12 0.12],kvas=[5.000000000 5.000000000 5.000000000],Taps=[1,1.000000000,1.000000000],XHL=1.360000000,XHT=1.360000000,XLT=1.088000000,%loadloss=2.100000000,%noloadloss=0.700000000
new transformer.TRF_100401A Phases=1,Windings=3,Buses=[BMT175424932.1 BBT428071.1.0 BBT428071.0.2],Conns=[wye wye wye],kvs=[7.967 0.12 0.12],kvas=[10.000000000 10.000000000 10.000000000],Taps=[1,1.000000000,1.000000000],XHL=1.560000000,XHT=1.560000000,XLT=1.248000000,%loadloss=1.950000000,%noloadloss=0.500000000
new transformer.TRF_1004037A Phases=1,Windings=3,Buses=[BMT172348941.3 BBT103387456.1.0 BBT103387456.0.2],Conns=[wye wye wye],kvs=[7.967 0.12 0.12],kvas=[5.000000000 5.000000000 5.000000000],Taps=[1,1.000000000,1.000000000],XHL=1.360000000,XHT=1.360000000,XLT=1.088000000,%loadloss=2.100000000,%noloadloss=0.700000000
new transformer.TRF_1004051A Phases=1,Windings=3,Buses=[BMT172348939.3 BBT103387869.1.0 BBT103387869.0.2],Conns=[wye wye wye],kvs=[7.967 0.12 0.12],kvas=[5.000000000 5.000000000 5.000000000],Taps=[1,1.000000000,1.000000000],XHL=1.360000000,XHT=1.360000000,XLT=1.088000000,%loadloss=2.100000000,%noloadloss=0.700000000
new transformer.TRF_1004065A Phases=1,Windings=3,Buses=[BMT122790385.1 BBT103264585.1.0 BBT103264585.0.2],Conns=[wye wye wye],kvs=[7.967 0.12 0.12],kvas=[10.000000000 10.000000000 10.000000000],Taps=[1,1.000000000,1.000000000],XHL=1.560000000,XHT=1.560000000,XLT=1.248000000,%loadloss=1.950000000,%noloadloss=0.500000000
new transformer.TRF_1004072A Phases=1,Windings=3,Buses=[BMT122790392.1 BBT103264690.1.0 BBT103264690.0.2],Conns=[wye wye wye],kvs=[7.967 0.12 0.12],kvas=[5.000000000 5.000000000 5.000000000],Taps=[1,1.000000000,1.000000000],XHL=1.360000000,XHT=1.360000000,XLT=1.088000000,%loadloss=2.100000000,%noloadloss=0.700000000
new transformer.TRF_1004079A Phases=1,Windings=3,Buses=[BMT122790371.1 BBT103264865.1.0 BBT103264865.0.2],Conns=[wye wye wye],kvs=[7.967 0.12 0.12],kvas=[10.000000000 10.000000000 10.000000000],Taps=[1,1.000000000,1.000000000],XHL=1.560000000,XHT=1.560000000,XLT=1.248000000,%loadloss=1.950000000,%noloadloss=0.500000000
new transformer.TRF_100408A Phases=1,Windings=3,Buses=[BMT174853788.1 BBT428085.1.0 BBT428085.0.2],Conns=[wye wye wye],kvs=[7.967 0.12 0.12],kvas=[35.000000000 35.000000000 35.000000000],Taps=[1,1.000000000,1.000000000],XHL=2.060000000,XHT=2.060000000,XLT=1.648000000,%loadloss=1.410000000,%noloadloss=0.385000000
new transformer.TRF_1004107A Phases=1,Windings=3,Buses=[BMT150313240.2 BBT100481112.1.0 BBT100481112.0.2],Conns=[wye wye wye],kvs=[7.967 0.12 0.12],kvas=[5.000000000 5.000000000 5.000000000],Taps=[1,1.000000000,1.000000000],XHL=1.360000000,XHT=1.360000000,XLT=1.088000000,%loadloss=2.100000000,%noloadloss=0.700000000
new transformer.TRF_1004121A Phases=1,Windings=3,Buses=[BMT150313186.2 BBT100396468.1.0 BBT100396468.0.2],Conns=[wye wye wye],kvs=[7.967 0.12 0.12],kvas=[5.000000000 5.000000000 5.000000000],Taps=[1,1.000000000,1.000000000],XHL=1.360000000,XHT=1.360000000,XLT=1.088000000,%loadloss=2.100000000,%noloadloss=0.700000000
new transformer.TRF_100415A Phases=1,Windings=3,Buses=[BMT174853762.1 BBT428099.1.0 BBT428099.0.2],Conns=[wye wye wye],kvs=[7.967 0.12 0.12],kvas=[5.000000000 5.000000000 5.000000000],Taps=[1,1.000000000,1.000000000],XHL=1.360000000,XHT=1.360000000,XLT=1.088000000,%loadloss=2.100000000,%noloadloss=0.700000000
new transformer.TRF_1004156A Phases=1,Windings=3,Buses=[BMT150313253.2 BBT100483044.1.0 BBT100483044.0.2],Conns=[wye wye wye],kvs=[7.967 0.12 0.12],kvas=[5.000000000 5.000000000 5.000000000],Taps=[1,1.000000000,1.000000000],XHL=1.360000000,XHT=1.360000000,XLT=1.088000000,%loadloss=2.100000000,%noloadloss=0.700000000
new transformer.TRF_1004163A Phases=1,Windings=3,Buses=[BMT150313252.2 BBT100483296.1.0 BBT100483296.0.2],Conns=[wye wye wye],kvs=[7.967 0.12 0.12],kvas=[5.000000000 5.000000000 5.000000000],Taps=[1,1.000000000,1.000000000],XHL=1.360000000,XHT=1.360000000,XLT=1.088000000,%loadloss=2.100000000,%noloadloss=0.700000000
new transformer.TRF_100191A Phases=1,Windings=3,Buses=[BMT168470211.2 BBT427651.1.0 BBT427651.0.2],Conns=[wye wye wye],kvs=[7.967 0.12 0.12],kvas=[25.000000000 25.000000000 25.000000000],Taps=[1,1.000000000,1.000000000],XHL=1.950000000,XHT=1.950000000,XLT=1.560000000,%loadloss=1.560000000,%noloadloss=0.360000000
new transformer.TRF_100198A Phases=1,Windings=3,Buses=[BMT175424964.1 BBT427665.1.0 BBT427665.0.2],Conns=[wye wye wye],kvs=[7.967 0.12 0.12],kvas=[15.000000000 15.000000000 15.000000000],Taps=[1,1.000000000,1.000000000],XHL=1.770000000,XHT=1.770000000,XLT=1.416000000,%loadloss=1.770000000,%noloadloss=0.433000000
new transformer.TRF_100205A Phases=1,Windings=3,Buses=[BMT177798383.2 BBT427679.1.0 BBT427679.0.2],Conns=[wye wye wye],kvs=[7.967 0.12 0.12],kvas=[5.000000000 5.000000000 5.000000000],Taps=[1,1.000000000,1.000000000],XHL=1.360000000,XHT=1.360000000,XLT=1.088000000,%loadloss=2.100000000,%noloadloss=0.700000000
new transformer.TRF_100212A Phases=1,Windings=3,Buses=[BMT164878210.2 BBT427693.1.0 BBT427693.0.2],Conns=[wye wye wye],kvs=[7.967 0.12 0.12],kvas=[15.000000000 15.000000000 15.000000000],Taps=[1,1.000000000,1.000000000],XHL=1.770000000,XHT=1.770000000,XLT=1.416000000,%loadloss=1.770000000,%noloadloss=0.433000000
new transformer.TRF_100219A Phases=1,Windings=3,Buses=[BMT172757422.1 BBT427707.1.0 BBT427707.0.2],Conns=[wye wye wye],kvs=[7.967 0.12 0.12],kvas=[15.000000000 15.000000000 15.000000000],Taps=[1,1.000000000,1.000000000],XHL=1.770000000,XHT=1.770000000,XLT=1.416000000,%loadloss=1.770000000,%noloadloss=0.433000000
new transformer.TRF_100226A Phases=1,Windings=3,Buses=[BMT164878204.2 BBT427721.1.0 BBT427721.0.2],Conns=[wye wye wye],kvs=[7.967 0.12 0.12],kvas=[35.000000000 35.000000000 35.000000000],Taps=[1,1.000000000,1.000000000],XHL=2.060000000,XHT=2.060000000,XLT=1.648000000,%loadloss=1.410000000,%noloadloss=0.385000000
new transformer.TRF_100233A Phases=1,Windings=3,Buses=[BMT172757420.3 BBT427735.1.0 BBT427735.0.2],Conns=[wye wye wye],kvs=[7.967 0.12 0.12],kvas=[10.000000000 10.000000000 10.000000000],Taps=[1,1.000000000,1.000000000],XHL=1.560000000,XHT=1.560000000,XLT=1.248000000,%loadloss=1.950000000,%noloadloss=0.500000000
new transformer.TRF_100240A Phases=1,Windings=3,Buses=[BMT172757418.2 BBT427749.1.0 BBT427749.0.2],Conns=[wye wye wye],kvs=[7.967 0.12 0.12],kvas=[15.000000000 15.000000000 15.000000000],Taps=[1,1.000000000,1.000000000],XHL=1.770000000,XHT=1.770000000,XLT=1.416000000,%loadloss=1.770000000,%noloadloss=0.433000000
new transformer.TRF_100247A Phases=1,Windings=3,Buses=[BMT122794046.3 BBT427763.1.0 BBT427763.0.2],Conns=[wye wye wye],kvs=[7.967 0.12 0.12],kvas=[25.000000000 25.000000000 25.000000000],Taps=[1,1.000000000,1.000000000],XHL=1.950000000,XHT=1.950000000,XLT=1.560000000,%loadloss=1.560000000,%noloadloss=0.360000000
new transformer.TRF_1002497A Phases=1,Windings=3,Buses=[BMT122772423.3 BBT86985112.1.0 BBT86985112.0.2],Conns=[wye wye wye],kvs=[7.967 0.12 0.12],kvas=[5.000000000 5.000000000 5.000000000],Taps=[1,1.000000000,1.000000000],XHL=1.360000000,XHT=1.360000000,XLT=1.088000000,%loadloss=2.100000000,%noloadloss=0.700000000
new transformer.TRF_1002532A Phases=1,Windings=3,Buses=[BMT176622538.1 BBT101801963.1.0 BBT101801963.0.2],Conns=[wye wye wye],kvs=[7.967 0.12 0.12],kvas=[5.000000000 5.000000000 5.000000000],Taps=[1,1.000000000,1.000000000],XHL=1.360000000,XHT=1.360000000,XLT=1.088000000,%loadloss=2.100000000,%noloadloss=0.700000000
new transformer.TRF_100254A Phases=1,Windings=3,Buses=[BMT172757417.1 BBT427777.1.0 BBT427777.0.2],Conns=[wye wye wye],kvs=[7.967 0.12 0.12],kvas=[10.000000000 10.000000000 10.000000000],Taps=[1,1.000000000,1.000000000],XHL=1.560000000,XHT=1.560000000,XLT=1.248000000,%loadloss=1.950000000,%noloadloss=0.500000000
new transformer.TRF_100261A Phases=1,Windings=3,Buses=[BMT122794074.3 BBT427791.1.0 BBT427791.0.2],Conns=[wye wye wye],kvs=[7.967 0.12 0.12],kvas=[5.000000000 5.000000000 5.000000000],Taps=[1,1.000000000,1.000000000],XHL=1.360000000,XHT=1.360000000,XLT=1.088000000,%loadloss=2.100000000,%noloadloss=0.700000000
new transformer.TRF_1002665A Phases=1,Windings=3,Buses=[BMT122796272.1 BBT103281924.1.0 BBT103281924.0.2],Conns=[wye wye wye],kvs=[7.967 0.12 0.12],kvas=[5.000000000 5.000000000 5.000000000],Taps=[1,1.000000000,1.000000000],XHL=1.360000000,XHT=1.360000000,XLT=1.088000000,%loadloss=2.100000000,%noloadloss=0.700000000
new transformer.TRF_1002672A Phases=1,Windings=3,Buses=[BMT122796265.1 BBT103282351.1.0 BBT103282351.0.2],Conns=[wye wye wye],kvs=[7.967 0.12 0.12],kvas=[5.000000000 5.000000000 5.000000000],Taps=[1,1.000000000,1.000000000],XHL=1.360000000,XHT=1.360000000,XLT=1.088000000,%loadloss=2.100000000,%noloadloss=0.700000000
new transformer.TRF_100268A Phases=1,Windings=3,Buses=[BMT122794081.3 BBT427805.1.0 BBT427805.0.2],Conns=[wye wye wye],kvs=[7.967 0.12 0.12],kvas=[10.000000000 10.000000000 10.000000000],Taps=[1,1.000000000,1.000000000],XHL=1.560000000,XHT=1.560000000,XLT=1.248000000,%loadloss=1.950000000,%noloadloss=0.500000000
new transformer.TRF_1002707A Phases=1,Windings=3,Buses=[BMT177727483.2 BBT101676446.1.0 BBT101676446.0.2],Conns=[wye wye wye],kvs=[7.967 0.12 0.12],kvas=[5.000000000 5.000000000 5.000000000],Taps=[1,1.000000000,1.000000000],XHL=1.360000000,XHT=1.360000000,XLT=1.088000000,%loadloss=2.100000000,%noloadloss=0.700000000
new transformer.TRF_100275A Phases=1,Windings=3,Buses=[BMT175424945.1 BBT427819.1.0 BBT427819.0.2],Conns=[wye wye wye],kvs=[7.967 0.12 0.12],kvas=[10.000000000 10.000000000 10.000000000],Taps=[1,1.000000000,1.000000000],XHL=1.560000000,XHT=1.560000000,XLT=1.248000000,%loadloss=1.950000000,%noloadloss=0.500000000
new transformer.TRF_100282A Phases=1,Windings=3,Buses=[BMT122794298.3 BBT427833.1.0 BBT427833.0.2],Conns=[wye wye wye],kvs=[7.967 0.12 0.12],kvas=[10.000000000 10.000000000 10.000000000],Taps=[1,1.000000000,1.000000000],XHL=1.560000000,XHT=1.560000000,XLT=1.248000000,%loadloss=1.950000000,%noloadloss=0.500000000
new transformer.TRF_100289A Phases=1,Windings=3,Buses=[BMT174853780.1 BBT427847.1.0 BBT427847.0.2],Conns=[wye wye wye],kvs=[7.967 0.12 0.12],kvas=[15.000000000 15.000000000 15.000000000],Taps=[1,1.000000000,1.000000000],XHL=1.770000000,XHT=1.770000000,XLT=1.416000000,%loadloss=1.770000000,%noloadloss=0.433000000
new transformer.TRF_100296A Phases=1,Windings=3,Buses=[BMT175424944.1 BBT427861.1.0 BBT427861.0.2],Conns=[wye wye wye],kvs=[7.967 0.12 0.12],kvas=[15.000000000 15.000000000 15.000000000],Taps=[1,1.000000000,1.000000000],XHL=1.770000000,XHT=1.770000000,XLT=1.416000000,%loadloss=1.770000000,%noloadloss=0.433000000
new transformer.TRF_100303A Phases=1,Windings=3,Buses=[BMT179337344.3 BBT427875.1.0 BBT427875.0.2],Conns=[wye wye wye],kvs=[7.967 0.12 0.12],kvas=[15.000000000 15.000000000 15.000000000],Taps=[1,1.000000000,1.000000000],XHL=1.770000000,XHT=1.770000000,XLT=1.416000000,%loadloss=1.770000000,%noloadloss=0.433000000
new transformer.TRF_100310A Phases=1,Windings=3,Buses=[BMT122796251.1 BBT427889.1.0 BBT427889.0.2],Conns=[wye wye wye],kvs=[7.967 0.12 0.12],kvas=[25.000000000 25.000000000 25.000000000],Taps=[1,1.000000000,1.000000000],XHL=1.950000000,XHT=1.950000000,XLT=1.560000000,%loadloss=1.560000000,%noloadloss=0.360000000
new transformer.TRF_100317A Phases=1,Windings=3,Buses=[BMT175424939.1 BBT427903.1.0 BBT427903.0.2],Conns=[wye wye wye],kvs=[7.967 0.12 0.12],kvas=[10.000000000 10.000000000 10.000000000],Taps=[1,1.000000000,1.000000000],XHL=1.560000000,XHT=1.560000000,XLT=1.248000000,%loadloss=1.950000000,%noloadloss=0.500000000
new transformer.TRF_100002A Phases=1,Windings=3,Buses=[BMT158922151.3 BBT427273.1.0 BBT427273.0.2],Conns=[wye wye wye],kvs=[7.967 0.12 0.12],kvas=[10.000000000 10.000000000 10.000000000],Taps=[1,1.000000000,1.000000000],XHL=1.560000000,XHT=1.560000000,XLT=1.248000000,%loadloss=1.950000000,%noloadloss=0.500000000
new transformer.TRF_100009A Phases=1,Windings=3,Buses=[BMT173130609.1 BBT427287.1.0 BBT427287.0.2],Conns=[wye wye wye],kvs=[7.967 0.12 0.12],kvas=[15.000000000 15.000000000 15.000000000],Taps=[1,1.000000000,1.000000000],XHL=1.770000000,XHT=1.770000000,XLT=1.416000000,%loadloss=1.770000000,%noloadloss=0.433000000
new transformer.TRF_100016A Phases=1,Windings=3,Buses=[BMT158922150.3 BBT427301.1.0 BBT427301.0.2],Conns=[wye wye wye],kvs=[7.967 0.12 0.12],kvas=[15.000000000 15.000000000 15.000000000],Taps=[1,1.000000000,1.000000000],XHL=1.770000000,XHT=1.770000000,XLT=1.416000000,%loadloss=1.770000000,%noloadloss=0.433000000
new transformer.TRF_100023A Phases=1,Windings=3,Buses=[BMT177028417.3 BBT427315.1.0 BBT427315.0.2],Conns=[wye wye wye],kvs=[7.967 0.12 0.12],kvas=[35.000000000 35.000000000 35.000000000],Taps=[1,1.000000000,1.000000000],XHL=2.060000000,XHT=2.060000000,XLT=1.648000000,%loadloss=1.410000000,%noloadloss=0.385000000
new transformer.TRF_100030A Phases=1,Windings=3,Buses=[BMT167807258.2 BBT427329.1.0 BBT427329.0.2],Conns=[wye wye wye],kvs=[7.967 0.12 0.12],kvas=[15.000000000 15.000000000 15.000000000],Taps=[1,1.000000000,1.000000000],XHL=1.770000000,XHT=1.770000000,XLT=1.416000000,%loadloss=1.770000000,%noloadloss=0.433000000
new transformer.TRF_100037A Phases=1,Windings=3,Buses=[BMT177028418.3 BBT427343.1.0 BBT427343.0.2],Conns=[wye wye wye],kvs=[7.967 0.12 0.12],kvas=[10.000000000 10.000000000 10.000000000],Taps=[1,1.000000000,1.000000000],XHL=1.560000000,XHT=1.560000000,XLT=1.248000000,%loadloss=1.950000000,%noloadloss=0.500000000
new transformer.TRF_100044A Phases=1,Windings=3,Buses=[BMT158922146.1 BBT427357.1.0 BBT427357.0.2],Conns=[wye wye wye],kvs=[7.967 0.12 0.12],kvas=[25.000000000 25.000000000 25.000000000],Taps=[1,1.000000000,1.000000000],XHL=1.950000000,XHT=1.950000000,XLT=1.560000000,%loadloss=1.560000000,%noloadloss=0.360000000
new transformer.TRF_100051A Phases=1,Windings=3,Buses=[BMT172855383.3 BBT427371.1.0 BBT427371.0.2],Conns=[wye wye wye],kvs=[7.967 0.12 0.12],kvas=[15.000000000 15.000000000 15.000000000],Taps=[1,1.000000000,1.000000000],XHL=1.770000000,XHT=1.770000000,XLT=1.416000000,%loadloss=1.770000000,%noloadloss=0.433000000
new transformer.TRF_100058A Phases=1,Windings=3,Buses=[BMT158922158.1 BBT427385.1.0 BBT427385.0.2],Conns=[wye wye wye],kvs=[7.967 0.12 0.12],kvas=[5.000000000 5.000000000 5.000000000],Taps=[1,1.000000000,1.000000000],XHL=1.360000000,XHT=1.360000000,XLT=1.088000000,%loadloss=2.100000000,%noloadloss=0.700000000
new transformer.TRF_1000600A Phases=1,Windings=3,Buses=[BMT179118677.1 BBT115625472.1.0 BBT115625472.0.2],Conns=[wye wye wye],kvs=[7.967 0.12 0.12],kvas=[15.000000000 15.000000000 15.000000000],Taps=[1,1.000000000,1.000000000],XHL=1.770000000,XHT=1.770000000,XLT=1.416000000,%loadloss=1.770000000,%noloadloss=0.433000000
new transformer.TRF_100065A Phases=1,Windings=3,Buses=[BMT178084680.2 BBT427399.1.0 BBT427399.0.2],Conns=[wye wye wye],kvs=[7.967 0.12 0.12],kvas=[10.000000000 10.000000000 10.000000000],Taps=[1,1.000000000,1.000000000],XHL=1.560000000,XHT=1.560000000,XLT=1.248000000,%loadloss=1.950000000,%noloadloss=0.500000000
new transformer.TRF_100072A Phases=1,Windings=3,Buses=[BMT178781214.2 BBT427413.1.0 BBT427413.0.2],Conns=[wye wye wye],kvs=[7.967 0.12 0.12],kvas=[15.000000000 15.000000000 15.000000000],Taps=[1,1.000000000,1.000000000],XHL=1.770000000,XHT=1.770000000,XLT=1.416000000,%loadloss=1.770000000,%noloadloss=0.433000000
new transformer.TRF_100079A Phases=1,Windings=3,Buses=[BMT178781212.2 BBT427427.1.0 BBT427427.0.2],Conns=[wye wye wye],kvs=[7.967 0.12 0.12],kvas=[15.000000000 15.000000000 15.000000000],Taps=[1,1.000000000,1.000000000],XHL=1.770000000,XHT=1.770000000,XLT=1.416000000,%loadloss=1.770000000,%noloadloss=0.433000000
new transformer.TRF_1000824A Phases=1,Windings=3,Buses=[BMT162346641.1 BBT103258964.1.0 BBT103258964.0.2],Conns=[wye wye wye],kvs=[7.967 0.12 0.12],kvas=[5.000000000 5.000000000 5.000000000],Taps=[1,1.000000000,1.000000000],XHL=1.360000000,XHT=1.360000000,XLT=1.088000000,%loadloss=2.100000000,%noloadloss=0.700000000
new transformer.TRF_100086A Phases=1,Windings=3,Buses=[BMT168470271.2 BBT427441.1.0 BBT427441.0.2],Conns=[wye wye wye],kvs=[7.967 0.12 0.12],kvas=[25.000000000 25.000000000 25.000000000],Taps=[1,1.000000000,1.000000000],XHL=1.950000000,XHT=1.950000000,XLT=1.560000000,%loadloss=1.560000000,%noloadloss=0.360000000
new transformer.TRF_1000880A Phases=1,Windings=3,Buses=[BMT150313105.2 BBT101256726.1.0 BBT101256726.0.2],Conns=[wye wye wye],kvs=[7.967 0.12 0.12],kvas=[10.000000000 10.000000000 10.000000000],Taps=[1,1.000000000,1.000000000],XHL=1.560000000,XHT=1.560000000,XLT=1.248000000,%loadloss=1.950000000,%noloadloss=0.500000000
new transformer.TRF_100100A Phases=1,Windings=3,Buses=[BMT169906713.2 BBT427469.1.0 BBT427469.0.2],Conns=[wye wye wye],kvs=[7.967 0.12 0.12],kvas=[35.000000000 35.000000000 35.000000000],Taps=[1,1.000000000,1.000000000],XHL=2.060000000,XHT=2.060000000,XLT=1.648000000,%loadloss=1.410000000,%noloadloss=0.385000000
new transformer.TRF_100107A Phases=1,Windings=3,Buses=[BMT168470265.2 BBT427483.1.0 BBT427483.0.2],Conns=[wye wye wye],kvs=[7.967 0.12 0.12],kvas=[10.000000000 10.000000000 10.000000000],Taps=[1,1.000000000,1.000000000],XHL=1.560000000,XHT=1.560000000,XLT=1.248000000,%loadloss=1.950000000,%noloadloss=0.500000000
new transformer.TRF_100114A Phases=1,Windings=3,Buses=[BMT169906710.2 BBT427497.1.0 BBT427497.0.2],Conns=[wye wye wye],kvs=[7.967 0.12 0.12],kvas=[15.000000000 15.000000000 15.000000000],Taps=[1,1.000000000,1.000000000],XHL=1.770000000,XHT=1.770000000,XLT=1.416000000,%loadloss=1.770000000,%noloadloss=0.433000000
new transformer.TRF_100121A Phases=1,Windings=3,Buses=[BMT177798388.2 BBT427511.1.0 BBT427511.0.2],Conns=[wye wye wye],kvs=[7.967 0.12 0.12],kvas=[35.000000000 35.000000000 35.000000000],Taps=[1,1.000000000,1.000000000],XHL=2.060000000,XHT=2.060000000,XLT=1.648000000,%loadloss=1.410000000,%noloadloss=0.385000000
new transformer.TRF_100128A Phases=1,Windings=3,Buses=[BMT177798389.2 BBT427525.1.0 BBT427525.0.2],Conns=[wye wye wye],kvs=[7.967 0.12 0.12],kvas=[35.000000000 35.000000000 35.000000000],Taps=[1,1.000000000,1.000000000],XHL=2.060000000,XHT=2.060000000,XLT=1.648000000,%loadloss=1.410000000,%noloadloss=0.385000000
new transformer.TRF_100135A Phases=1,Windings=3,Buses=[BMT177798805.3 BBT427539.1.0 BBT427539.0.2],Conns=[wye wye wye],kvs=[7.967 0.12 0.12],kvas=[25.000000000 25.000000000 25.000000000],Taps=[1,1.000000000,1.000000000],XHL=1.950000000,XHT=1.950000000,XLT=1.560000000,%loadloss=1.560000000,%noloadloss=0.360000000
new transformer.TRF_100142A Phases=1,Windings=3,Buses=[BMT175424957.1 BBT427553.1.0 BBT427553.0.2],Conns=[wye wye wye],kvs=[7.967 0.12 0.12],kvas=[15.000000000 15.000000000 15.000000000],Taps=[1,1.000000000,1.000000000],XHL=1.770000000,XHT=1.770000000,XLT=1.416000000,%loadloss=1.770000000,%noloadloss=0.433000000
new transformer.TRF_100149A Phases=1,Windings=3,Buses=[BMT177798803.3 BBT427567.1.0 BBT427567.0.2],Conns=[wye wye wye],kvs=[7.967 0.12 0.12],kvas=[10.000000000 10.000000000 10.000000000],Taps=[1,1.000000000,1.000000000],XHL=1.560000000,XHT=1.560000000,XLT=1.248000000,%loadloss=1.950000000,%noloadloss=0.500000000
new transformer.TRF_100779A Phases=1,Windings=3,Buses=[BMT177339294.1 BBT428827.1.0 BBT428827.0.2],Conns=[wye wye wye],kvs=[7.967 0.12 0.12],kvas=[15.000000000 15.000000000 15.000000000],Taps=[1,1.000000000,1.000000000],XHL=1.770000000,XHT=1.770000000,XLT=1.416000000,%loadloss=1.770000000,%noloadloss=0.433000000
new transformer.TRF_100786A Phases=1,Windings=3,Buses=[BMT180055869.1 BBT428841.1.0 BBT428841.0.2],Conns=[wye wye wye],kvs=[7.967 0.12 0.12],kvas=[10.000000000 10.000000000 10.000000000],Taps=[1,1.000000000,1.000000000],XHL=1.560000000,XHT=1.560000000,XLT=1.248000000,%loadloss=1.950000000,%noloadloss=0.500000000
new transformer.TRF_100793 Phases=3,Windings=2,Buses=[BMT175268861.1.2.3 BBT428855.1.2.3.0],Conns=[delta wye],kvs=[13.800000000 0.22],kvas=[45.000000000 45.000000000],Taps=[1,1.000000000],XHL=3.640000000,%loadloss=1.670000000,%noloadloss=0.433000000
new transformer.TRF_100800A Phases=1,Windings=3,Buses=[BMT167078381.3 BBT428869.1.0 BBT428869.0.2],Conns=[wye wye wye],kvs=[7.967 0.12 0.12],kvas=[10.000000000 10.000000000 10.000000000],Taps=[1,1.000000000,1.000000000],XHL=1.560000000,XHT=1.560000000,XLT=1.248000000,%loadloss=1.950000000,%noloadloss=0.500000000
new transformer.TRF_100807A Phases=1,Windings=3,Buses=[BMT175268865.1 BBT428883.1.0 BBT428883.0.2],Conns=[wye wye wye],kvs=[7.967 0.12 0.12],kvas=[15.000000000 15.000000000 15.000000000],Taps=[1,1.000000000,1.000000000],XHL=1.770000000,XHT=1.770000000,XLT=1.416000000,%loadloss=1.770000000,%noloadloss=0.433000000
new transformer.TRF_100814 Phases=3,Windings=2,Buses=[BMT175268869.1.2.3 BBT428897.1.2.3.0],Conns=[delta wye],kvs=[13.800000000 0.22],kvas=[30.000000000 30.000000000],Taps=[1,1.000000000],XHL=3.560000000,%loadloss=1.820000000,%noloadloss=0.500000000
new transformer.TRF_100821A Phases=1,Windings=3,Buses=[BMT168669006.3 BBT428911.1.0 BBT428911.0.2],Conns=[wye wye wye],kvs=[7.967 0.12 0.12],kvas=[15.000000000 15.000000000 15.000000000],Taps=[1,1.000000000,1.000000000],XHL=1.770000000,XHT=1.770000000,XLT=1.416000000,%loadloss=1.770000000,%noloadloss=0.433000000
new transformer.TRF_1008272A Phases=1,Windings=3,Buses=[BMT170493467.1 BBT103265537.1.0 BBT103265537.0.2],Conns=[wye wye wye],kvs=[7.967 0.12 0.12],kvas=[5.000000000 5.000000000 5.000000000],Taps=[1,1.000000000,1.000000000],XHL=1.360000000,XHT=1.360000000,XLT=1.088000000,%loadloss=2.100000000,%noloadloss=0.700000000
new transformer.TRF_1008279A Phases=1,Windings=3,Buses=[BMT170493469.1 BBT103265593.1.0 BBT103265593.0.2],Conns=[wye wye wye],kvs=[7.967 0.12 0.12],kvas=[5.000000000 5.000000000 5.000000000],Taps=[1,1.000000000,1.000000000],XHL=1.360000000,XHT=1.360000000,XLT=1.088000000,%loadloss=2.100000000,%noloadloss=0.700000000
new transformer.TRF_100828 Phases=3,Windings=2,Buses=[BMT175268870.1.2.3 BBT428925.1.2.3.0],Conns=[delta wye],kvs=[13.800000000 0.22],kvas=[45.000000000 45.000000000],Taps=[1,1.000000000],XHL=3.640000000,%loadloss=1.670000000,%noloadloss=0.433000000
new transformer.TRF_1008342A Phases=1,Windings=3,Buses=[BMT155286326.1 BBT85686409.1.0 BBT85686409.0.2],Conns=[wye wye wye],kvs=[7.967 0.12 0.12],kvas=[5.000000000 5.000000000 5.000000000],Taps=[1,1.000000000,1.000000000],XHL=1.360000000,XHT=1.360000000,XLT=1.088000000,%loadloss=2.100000000,%noloadloss=0.700000000
new transformer.TRF_1008349A Phases=1,Windings=3,Buses=[BMT170493470.1 BBT103266146.1.0 BBT103266146.0.2],Conns=[wye wye wye],kvs=[7.967 0.12 0.12],kvas=[5.000000000 5.000000000 5.000000000],Taps=[1,1.000000000,1.000000000],XHL=1.360000000,XHT=1.360000000,XLT=1.088000000,%loadloss=2.100000000,%noloadloss=0.700000000
new transformer.TRF_100835 Phases=3,Windings=2,Buses=[BMT170524908.1.2.3 BBT428939.1.2.3.0],Conns=[delta wye],kvs=[13.800000000 0.22],kvas=[45.000000000 45.000000000],Taps=[1,1.000000000],XHL=3.640000000,%loadloss=1.670000000,%noloadloss=0.433000000
new transformer.TRF_1008377A Phases=1,Windings=3,Buses=[BMT170493471.1 BBT103266412.1.0 BBT103266412.0.2],Conns=[wye wye wye],kvs=[7.967 0.12 0.12],kvas=[5.000000000 5.000000000 5.000000000],Taps=[1,1.000000000,1.000000000],XHL=1.360000000,XHT=1.360000000,XLT=1.088000000,%loadloss=2.100000000,%noloadloss=0.700000000
new transformer.TRF_100842 Phases=3,Windings=2,Buses=[BMT168669000.1.2.3 BBT428953.1.2.3.0],Conns=[delta wye],kvs=[13.800000000 0.22],kvas=[15.000000000 15.000000000],Taps=[1,1.000000000],XHL=3.360000000,%loadloss=2.170000000,%noloadloss=0.566000000
new transformer.TRF_100849 Phases=3,Windings=2,Buses=[BMT170524910.1.2.3 BBT428967.1.2.3.0],Conns=[delta wye],kvs=[13.800000000 0.22],kvas=[45.000000000 45.000000000],Taps=[1,1.000000000],XHL=3.640000000,%loadloss=1.670000000,%noloadloss=0.433000000
new transformer.TRF_100856A Phases=1,Windings=3,Buses=[BMT168669002.3 BBT428981.1.0 BBT428981.0.2],Conns=[wye wye wye],kvs=[7.967 0.12 0.12],kvas=[15.000000000 15.000000000 15.000000000],Taps=[1,1.000000000,1.000000000],XHL=1.770000000,XHT=1.770000000,XLT=1.416000000,%loadloss=1.770000000,%noloadloss=0.433000000
new transformer.TRF_100863 Phases=3,Windings=2,Buses=[BMT170524909.1.2.3 BBT428995.1.2.3.0],Conns=[delta wye],kvs=[13.800000000 0.22],kvas=[30.000000000 30.000000000],Taps=[1,1.000000000],XHL=3.560000000,%loadloss=1.820000000,%noloadloss=0.500000000
new transformer.TRF_100870A Phases=1,Windings=3,Buses=[BMT122795089.2 BBT429009.1.0 BBT429009.0.2],Conns=[wye wye wye],kvs=[7.967 0.12 0.12],kvas=[5.000000000 5.000000000 5.000000000],Taps=[1,1.000000000,1.000000000],XHL=1.360000000,XHT=1.360000000,XLT=1.088000000,%loadloss=2.100000000,%noloadloss=0.700000000
new transformer.TRF_1008713A Phases=1,Windings=3,Buses=[BMT170041362.1 BBT85875458.1.0 BBT85875458.0.2],Conns=[wye wye wye],kvs=[7.967 0.12 0.12],kvas=[5.000000000 5.000000000 5.000000000],Taps=[1,1.000000000,1.000000000],XHL=1.360000000,XHT=1.360000000,XLT=1.088000000,%loadloss=2.100000000,%noloadloss=0.700000000
new transformer.TRF_100877A Phases=1,Windings=3,Buses=[BMT175860585.1 BBT429023.1.0 BBT429023.0.2],Conns=[wye wye wye],kvs=[7.967 0.12 0.12],kvas=[10.000000000 10.000000000 10.000000000],Taps=[1,1.000000000,1.000000000],XHL=1.560000000,XHT=1.560000000,XLT=1.248000000,%loadloss=1.950000000,%noloadloss=0.500000000
new transformer.TRF_100884A Phases=1,Windings=3,Buses=[BMT176454392.3 BBT429037.1.0 BBT429037.0.2],Conns=[wye wye wye],kvs=[7.967 0.12 0.12],kvas=[10.000000000 10.000000000 10.000000000],Taps=[1,1.000000000,1.000000000],XHL=1.560000000,XHT=1.560000000,XLT=1.248000000,%loadloss=1.950000000,%noloadloss=0.500000000
new transformer.TRF_100891A Phases=1,Windings=3,Buses=[BMT175860588.2 BBT429051.1.0 BBT429051.0.2],Conns=[wye wye wye],kvs=[7.967 0.12 0.12],kvas=[15.000000000 15.000000000 15.000000000],Taps=[1,1.000000000,1.000000000],XHL=1.770000000,XHT=1.770000000,XLT=1.416000000,%loadloss=1.770000000,%noloadloss=0.433000000
new transformer.TRF_100898A Phases=1,Windings=3,Buses=[BMT175860592.3 BBT429065.1.0 BBT429065.0.2],Conns=[wye wye wye],kvs=[7.967 0.12 0.12],kvas=[10.000000000 10.000000000 10.000000000],Taps=[1,1.000000000,1.000000000],XHL=1.560000000,XHT=1.560000000,XLT=1.248000000,%loadloss=1.950000000,%noloadloss=0.500000000