new line.CTR107982 bus1=BMT122787018.1.2.3,bus2=BMT166206801.1.2.3,Phases=3,LineCode=tieSwitch,Length=0.001,Units=km,switch=T !numEQ NUMEQ:74419  - Data de conexão anterior06/2011.
new line.CTR108101 bus1=BMT168457388.1.2.3,bus2=BMT169302832.1.2.3,Phases=3,LineCode=tieSwitch,Length=0.001,Units=km,switch=T !numEQ NUMEQ:74416  - Data de conexão anterior06/2011.
new line.CTR108108 bus1=BMT122791449.2,bus2=BMT172354691.2,Phases=1,LineCode=tieSwitch1,Length=0.001,Units=km,switch=T !numEQ NUMEQ:15304  - Data de conexão anterior06/2011.
new line.CTR108115 bus1=BMT122791547.3,bus2=BMT122797084.3,Phases=1,LineCode=tieSwitch1,Length=0.001,Units=km,switch=T !numEQ NUMEQ:74425  - Data de conexão anterior06/2011.
new line.CTR108122 bus1=BMT122791561.1.2.3,bus2=BMT176454366.1.2.3,Phases=3,LineCode=tieSwitch,Length=0.001,Units=km,switch=T !numEQ NUMEQ:74426  - Data de conexão anterior06/2011.
new line.CTR108136 bus1=BMT122791659.3,bus2=BMT172833854.3,Phases=1,LineCode=tieSwitch1,Length=0.001,Units=km,switch=T !numEQ NUMEQ:72486  - Data de conexão anterior06/2011.
new line.CTR108143 bus1=BMT122795572.1,bus2=BMT177339281.1,Phases=1,LineCode=tieSwitch1,Length=0.001,Units=km,switch=T !numEQ NUMEQ:74430  - Data de conexão anterior06/2011.
new line.CTR108150 bus1=BMT122795789.1,bus2=BMT179269713.1,Phases=1,LineCode=tieSwitch1,Length=0.001,Units=km,switch=T !numEQ NUMEQ:74432  - Data de conexão anterior06/2011.
new line.CTR108157 bus1=BMT122791841.1.2.3,bus2=BMT175860583.1.2.3,Phases=3,LineCode=tieSwitch,Length=0.001,Units=km,switch=T !numEQ NUMEQ:74434  - Data de conexão anterior06/2011.
new line.CTR108164 bus1=BMT122791988.1.2.3,bus2=BMT168668999.1.2.3,Phases=3,LineCode=tieSwitch,Length=0.001,Units=km,switch=T !numEQ NUMEQ:74440  - Data de conexão anterior06/2011.
new line.CTR108171 bus1=BMT122792016.1.2.3,bus2=BMT176144700.1.2.3,Phases=3,LineCode=tieSwitch,Length=0.001,Units=km,switch=T !numEQ NUMEQ:74439  - Data de conexão anterior06/2011.
new line.CTR108178 bus1=BMT175268412.1.2.3,bus2=BMT175268858.1.2.3,Phases=3,LineCode=tieSwitch,Length=0.001,Units=km,switch=T !numEQ NUMEQ:74454  - Data de conexão anterior06/2011.
new line.CTR108185 bus1=BMT122792464.1,bus2=BMT122794907.1,Phases=1,LineCode=tieSwitch1,Length=0.001,Units=km,switch=T !numEQ NUMEQ:15322  - Data de conexão anterior06/2011.
new line.CTR108192 bus1=BMT122792562.1,bus2=BMT168163144.1,Phases=1,LineCode=tieSwitch1,Length=0.001,Units=km,switch=T !numEQ NUMEQ:74443  - Data de conexão anterior06/2011.
new line.CTR108199 bus1=BMT122792597.1,bus2=BMT122794466.1,Phases=1,LineCode=tieSwitch1,Length=0.001,Units=km,switch=T !numEQ NUMEQ:15327  - Data de conexão anterior06/2011.
new line.CTR108206 bus1=BMT122792786.1.2.3,bus2=BMT122794284.1.2.3,Phases=3,LineCode=tieSwitch,Length=0.001,Units=km,switch=T !numEQ NUMEQ:74448  - Data de conexão anterior06/2011.
new line.CTR108213 bus1=BMT122792828.3,bus2=BMT122794039.3,Phases=1,LineCode=tieSwitch1,Length=0.001,Units=km,switch=T !numEQ NUMEQ:74450  - Data de conexão anterior06/2011.
new line.CTR108220 bus1=BMT122792758.1,bus2=BMT133803240.1,Phases=1,LineCode=tieSwitch1,Length=0.001,Units=km,switch=T !numEQ NUMEQ:74447  - Data de conexão anterior06/2011.
new line.CTR108227 bus1=BMT159736673.1,bus2=BMT170052130.1,Phases=1,LineCode=tieSwitch1,Length=0.001,Units=km,switch=T !numEQ NUMEQ:72462  - Data de conexão anterior06/2011.
new line.CTR108234 bus1=BMT122787025.1.2.3,bus2=BMT177677390.1.2.3,Phases=3,LineCode=tieSwitch,Length=0.001,Units=km,switch=T !numEQ NUMEQ:15306  - Data de conexão anterior06/2011.
new line.CTR108241 bus1=BMT122787074.1,bus2=BMT122791330.1,Phases=1,LineCode=tieSwitch1,Length=0.001,Units=km,switch=T !numEQ NUMEQ:15307  - Data de conexão anterior06/2011.
new line.CTR108269 bus1=BMT122789370.1,bus2=BMT178460481.1,Phases=1,LineCode=tieSwitch1,Length=0.001,Units=km,switch=T !numEQ NUMEQ:91291  - Data de conexão anterior06/2011.
new line.CTR108311 bus1=BMT122779612.1.2.3,bus2=BMT173670328.1.2.3,Phases=3,LineCode=tieSwitch,Length=0.001,Units=km,switch=T !numEQ NUMEQ:288357  - Data de conexão anterior06/2011.
new line.CTR108318 bus1=BMT150313401.1.2.3,bus2=BMT150315004.1.2.3,Phases=3,LineCode=tieSwitch,Length=0.001,Units=km,switch=T !numEQ NUMEQ:73694  - Data de conexão anterior06/2011.
new line.CTR108325 bus1=BMT177736095.1.2.3,bus2=BMT179252404.1.2.3,Phases=3,LineCode=tieSwitch,Length=0.001,Units=km,switch=T !numEQ NUMEQ:85444  - Data de conexão anterior06/2011.
new line.CTR108332 bus1=BMT122780760.1.2.3,bus2=BMT174497031.1.2.3,Phases=3,LineCode=tieSwitch,Length=0.001,Units=km,switch=T !numEQ NUMEQ:73630  - Data de conexão anterior06/2011.
new line.CTR108339 bus1=BMT122782076.3,bus2=BMT135227019.3,Phases=1,LineCode=tieSwitch1,Length=0.001,Units=km,switch=T !numEQ NUMEQ:73731  - Data de conexão anterior06/2011.
new line.CTR108353 bus1=BMT179384253.1.2.3,bus2=BMT2543457.1.2.3,Phases=3,LineCode=tieSwitch,Length=0.001,Units=km,switch=T !numEQ NUMEQ:91456  - Data de conexão anterior06/2011.
new line.CTR108367 bus1=BMT122798323.1.2.3,bus2=BMT134911886.1.2.3,Phases=3,LineCode=tieSwitch,Length=0.001,Units=km,switch=T !numEQ NUMEQ:73553  - Data de conexão anterior06/2011.
new line.CTR108374 bus1=BMT122798351.1.2.3,bus2=BMT172083896.1.2.3,Phases=3,LineCode=tieSwitch,Length=0.001,Units=km,switch=T !numEQ NUMEQ:73647  - Data de conexão anterior06/2011.
new line.CTR108381 bus1=BMT122798414.1.2.3,bus2=BMT178423210.1.2.3,Phases=3,LineCode=tieSwitch,Length=0.001,Units=km,switch=T !numEQ NUMEQ:15318  - Data de conexão anterior06/2011.
new line.CTR108388 bus1=BMT159897875.1.2.3,bus2=BMT122798561.1.2.3,Phases=3,LineCode=tieSwitch,Length=0.001,Units=km,switch=T !numEQ NUMEQ:85434  - Data de conexão anterior06/2011.
open line.CTR108388 term=1
new line.CTR108395 bus1=BMT122798232.1.2.3,bus2=BMT122798260.1.2.3,Phases=3,LineCode=tieSwitch,Length=0.001,Units=km,switch=T !numEQ NUMEQ:74494  - Data de conexão anterior06/2011.
new line.CTR108416 bus1=BMT150315008.2,bus2=BMT158159484.2,Phases=1,LineCode=tieSwitch1,Length=0.001,Units=km,switch=T !numEQ NUMEQ:377754  - Data de conexão anterior06/2011.
new line.CTR108437 bus1=BMT160749025.3,bus2=BMT150314563.3,Phases=1,LineCode=tieSwitch1,Length=0.001,Units=km,switch=T !numEQ NUMEQ:74479  - Data de conexão anterior06/2011.
new line.CTR108444 bus1=BMT150313491.1.2.3,bus2=BMT176336692.1.2.3,Phases=3,LineCode=tieSwitch,Length=0.001,Units=km,switch=T !numEQ NUMEQ:288461  - Data de conexão anterior06/2011.
new line.CTR108458 bus1=BMT150313426.3,bus2=BMT150313432.3,Phases=1,LineCode=tieSwitch1,Length=0.001,Units=km,switch=T !numEQ NUMEQ:73634  - Data de conexão anterior06/2011.
new line.CTR108479 bus1=BMT150313517.1.2.3,bus2=BMT177407553.1.2.3,Phases=3,LineCode=tieSwitch,Length=0.001,Units=km,switch=T !numEQ NUMEQ:72360  - Data de conexão anterior06/2011.
new line.CTR108493 bus1=BMT150314523.1.2.3,bus2=BMT176670241.1.2.3,Phases=3,LineCode=tieSwitch,Length=0.001,Units=km,switch=T !numEQ NUMEQ:73469  - Data de conexão anterior06/2011.
new line.CTR108500 bus1=BMT176331135.1.2.3,bus2=BMT150314626.1.2.3,Phases=3,LineCode=tieSwitch,Length=0.001,Units=km,switch=T !numEQ NUMEQ:72525  - Data de conexão anterior06/2011.
open line.CTR108500 term=1
new line.CTR108521 bus1=BMT150313522.1.2.3,bus2=BMT174166209.1.2.3,Phases=3,LineCode=tieSwitch,Length=0.001,Units=km,switch=T !numEQ NUMEQ:325964  - Data de conexão anterior06/2011.
new line.CTR108528 bus1=BMT150314302.1.2.3,bus2=BMT166356323.1.2.3,Phases=3,LineCode=tieSwitch,Length=0.001,Units=km,switch=T !numEQ NUMEQ:74485  - Data de conexão anterior06/2011.
new line.CTR108535 bus1=BMT150314306.3,bus2=BMT150314387.3,Phases=1,LineCode=tieSwitch1,Length=0.001,Units=km,switch=T !numEQ NUMEQ:91371  - Data de conexão anterior06/2011.
new line.CTR108542 bus1=BMT150314310.1.2.3,bus2=BMT150314311.1.2.3,Phases=3,LineCode=tieSwitch,Length=0.001,Units=km,switch=T !numEQ NUMEQ:73853  - Data de conexão anterior06/2011.
new line.CTR108556 bus1=BMT179605043.1.2.3,bus2=BMT179007112.1.2.3,Phases=3,LineCode=tieSwitch,Length=0.001,Units=km,switch=T !numEQ NUMEQ:73477  - Data de conexão anterior06/2011.
new line.CTR108570 bus1=BMT174795940.1.2.3,bus2=BMT174796092.1.2.3,Phases=3,LineCode=tieSwitch,Length=0.001,Units=km,switch=T !numEQ NUMEQ:15287  - Data de conexão anterior06/2011.
new line.CTR108598 bus1=BMT122807710.2,bus2=BMT172746141.2,Phases=1,LineCode=tieSwitch1,Length=0.001,Units=km,switch=T !numEQ NUMEQ:73881  - Data de conexão anterior06/2011.
new line.CTR108612 bus1=BMT122807934.2,bus2=BMT122811231.2,Phases=1,LineCode=tieSwitch1,Length=0.001,Units=km,switch=T !numEQ NUMEQ:73894  - Data de conexão anterior06/2011.
new line.CTR108619 bus1=BMT122807976.1.2.3,bus2=BMT148973877.1.2.3,Phases=3,LineCode=tieSwitch,Length=0.001,Units=km,switch=T !numEQ NUMEQ:291213  - Data de conexão anterior06/2011.
new line.CTR108633 bus1=BMT122808116.1,bus2=BMT122810076.1,Phases=1,LineCode=tieSwitch1,Length=0.001,Units=km,switch=T !numEQ NUMEQ:73878  - Data de conexão anterior06/2011.
new line.CTR108640 bus1=BMT122808214.3,bus2=BMT154047980.3,Phases=1,LineCode=tieSwitch1,Length=0.001,Units=km,switch=T !numEQ NUMEQ:73876  - Data de conexão anterior06/2011.
new line.CTR108647 bus1=BMT122809481.3,bus2=BMT122809509.3,Phases=1,LineCode=tieSwitch1,Length=0.001,Units=km,switch=T !numEQ NUMEQ:74056  - Data de conexão anterior06/2011.
new line.CTR108654 bus1=BMT122808235.1,bus2=BMT122809404.1,Phases=1,LineCode=tieSwitch1,Length=0.001,Units=km,switch=T !numEQ NUMEQ:73944  - Data de conexão anterior06/2011.
new line.CTR108668 bus1=BMT122808571.2,bus2=BMT179631259.2,Phases=1,LineCode=tieSwitch1,Length=0.001,Units=km,switch=T !numEQ NUMEQ:73930  - Data de conexão anterior06/2011.
new line.CTR108675 bus1=BMT122808648.2,bus2=BMT170198158.2,Phases=1,LineCode=tieSwitch1,Length=0.001,Units=km,switch=T !numEQ NUMEQ:73946  - Data de conexão anterior06/2011.
new line.CTR108682 bus1=BMT122808319.1,bus2=BMT122808487.1,Phases=1,LineCode=tieSwitch1,Length=0.001,Units=km,switch=T !numEQ NUMEQ:73923  - Data de conexão anterior06/2011.
new line.CTR108689 bus1=BMT122807983.3,bus2=BMT122808088.3,Phases=1,LineCode=tieSwitch1,Length=0.001,Units=km,switch=T !numEQ NUMEQ:74489  - Data de conexão anterior06/2011.
new line.CTR108696 bus1=BMT122807780.1,bus2=BMT122811672.1,Phases=1,LineCode=tieSwitch1,Length=0.001,Units=km,switch=T !numEQ NUMEQ:73864  - Data de conexão anterior06/2011.
new line.CTR108710 bus1=BMT168914311.3,bus2=BMT168914487.3,Phases=1,LineCode=tieSwitch1,Length=0.001,Units=km,switch=T !numEQ NUMEQ:74488  - Data de conexão anterior06/2011.
new line.CTR108717 bus1=BMT122802642.1.2.3,bus2=BMT178343684.1.2.3,Phases=3,LineCode=tieSwitch,Length=0.001,Units=km,switch=T !numEQ NUMEQ:85235  - Data de conexão anterior06/2011.
new line.CTR108731 bus1=BMT122811889.3,bus2=BMT122811952.3,Phases=1,LineCode=tieSwitch1,Length=0.001,Units=km,switch=T !numEQ NUMEQ:74009  - Data de conexão anterior06/2011.
new line.CTR108745 bus1=BMT122812379.1.2.3,bus2=BMT157275278.1.2.3,Phases=3,LineCode=tieSwitch,Length=0.001,Units=km,switch=T !numEQ NUMEQ:73484  - Data de conexão anterior06/2011.
new line.CTR108759 bus1=BMT122800808.1,bus2=BMT122806625.1,Phases=1,LineCode=tieSwitch1,Length=0.001,Units=km,switch=T !numEQ NUMEQ:73931  - Data de conexão anterior06/2011.
new line.CTR108766 bus1=BMT122800864.2,bus2=BMT122806569.2,Phases=1,LineCode=tieSwitch1,Length=0.001,Units=km,switch=T !numEQ NUMEQ:74504  - Data de conexão anterior06/2011.
new line.CTR108787 bus1=BMT122801382.1.2.3,bus2=BMT175874709.1.2.3,Phases=3,LineCode=tieSwitch,Length=0.001,Units=km,switch=T !numEQ NUMEQ:73945  - Data de conexão anterior06/2011.
new line.CTR108794 bus1=BMT122804658.2,bus2=BMT149181720.2,Phases=1,LineCode=tieSwitch1,Length=0.001,Units=km,switch=T !numEQ NUMEQ:73451  - Data de conexão anterior06/2011.
new line.CTR108808 bus1=BMT122804812.2,bus2=BMT165348734.2,Phases=1,LineCode=tieSwitch1,Length=0.001,Units=km,switch=T !numEQ NUMEQ:73942  - Data de conexão anterior06/2011.
new line.CTR108815 bus1=BMT122802803.1.2.3,bus2=BMT173618660.1.2.3,Phases=3,LineCode=tieSwitch,Length=0.001,Units=km,switch=T !numEQ NUMEQ:324005  - Data de conexão anterior06/2011.
new line.CTR108822 bus1=BMT122802936.2,bus2=BMT178011874.2,Phases=1,LineCode=tieSwitch1,Length=0.001,Units=km,switch=T !numEQ NUMEQ:292459  - Data de conexão anterior06/2011.
new line.CTR108829 bus1=BMT122803475.1,bus2=BMT179386525.1,Phases=1,LineCode=tieSwitch1,Length=0.001,Units=km,switch=T !numEQ NUMEQ:77007  - Data de conexão anterior06/2011.
new line.CTR108836 bus1=BMT122803587.3,bus2=BMT173056982.3,Phases=1,LineCode=tieSwitch1,Length=0.001,Units=km,switch=T !numEQ NUMEQ:73917  - Data de conexão anterior06/2011.
new line.CTR108843 bus1=BMT122803622.3,bus2=BMT160242420.3,Phases=1,LineCode=tieSwitch1,Length=0.001,Units=km,switch=T !numEQ NUMEQ:73929  - Data de conexão anterior06/2011.
new line.CTR108850 bus1=BMT122803916.3,bus2=BMT173917911.3,Phases=1,LineCode=tieSwitch1,Length=0.001,Units=km,switch=T !numEQ NUMEQ:72354  - Data de conexão anterior06/2011.
new line.CTR108857 bus1=BMT122802551.2,bus2=BMT122802579.2,Phases=1,LineCode=tieSwitch1,Length=0.001,Units=km,switch=T !numEQ NUMEQ:73906  - Data de conexão anterior06/2011.
new line.CTR108885 bus1=BMT122801228.1.2.3,bus2=BMT147549210.1.2.3,Phases=3,LineCode=tieSwitch,Length=0.001,Units=km,switch=T !numEQ NUMEQ:74487  - Data de conexão anterior06/2011.
new line.CTR108899 bus1=BMT122801718.1,bus2=BMT175120232.1,Phases=1,LineCode=tieSwitch1,Length=0.001,Units=km,switch=T !numEQ NUMEQ:73928  - Data de conexão anterior06/2011.
new line.CTR108906 bus1=BMT122801459.3,bus2=BMT147549189.3,Phases=1,LineCode=tieSwitch1,Length=0.001,Units=km,switch=T !numEQ NUMEQ:73948  - Data de conexão anterior06/2011.
new line.CTR108913 bus1=BMT122801123.1,bus2=BMT122806555.1,Phases=1,LineCode=tieSwitch1,Length=0.001,Units=km,switch=T !numEQ NUMEQ:73903  - Data de conexão anterior06/2011.
new line.CTR108934 bus1=BMT122800185.1.2.3,bus2=BMT173620373.1.2.3,Phases=3,LineCode=tieSwitch,Length=0.001,Units=km,switch=T !numEQ NUMEQ:291355  - Data de conexão anterior06/2011.
new line.CTR108955 bus1=BMT122799744.3,bus2=BMT122799758.3,Phases=1,LineCode=tieSwitch1,Length=0.001,Units=km,switch=T !numEQ NUMEQ:72264  - Data de conexão anterior06/2011.
new line.CTR108962 bus1=BMT150314319.1,bus2=BMT176843795.1,Phases=1,LineCode=tieSwitch1,Length=0.001,Units=km,switch=T !numEQ NUMEQ:73874  - Data de conexão anterior06/2011.
new line.CTR108969 bus1=BMT122813100.1.2.3,bus2=BMT122813107.1.2.3,Phases=3,LineCode=tieSwitch,Length=0.001,Units=km,switch=T !numEQ NUMEQ:91384  - Data de conexão anterior06/2011.
new line.CTR108976 bus1=BMT150314309.3,bus2=BMT159218946.3,Phases=1,LineCode=tieSwitch1,Length=0.001,Units=km,switch=T !numEQ NUMEQ:72374  - Data de conexão anterior06/2011.
new line.CTR108983 bus1=BMT150314407.1,bus2=BMT175799801.1,Phases=1,LineCode=tieSwitch1,Length=0.001,Units=km,switch=T !numEQ NUMEQ:73863  - Data de conexão anterior06/2011.
new line.CTR108997 bus1=BMT122799429.3,bus2=BMT172568781.3,Phases=1,LineCode=tieSwitch1,Length=0.001,Units=km,switch=T !numEQ NUMEQ:73844  - Data de conexão anterior06/2011.
new line.CTR109004 bus1=BMT122799436.2,bus2=BMT164595492.2,Phases=1,LineCode=tieSwitch1,Length=0.001,Units=km,switch=T !numEQ NUMEQ:73501  - Data de conexão anterior06/2011.
new line.CTR109011 bus1=BMT122799401.1.2.3,bus2=BMT175777205.1.2.3,Phases=3,LineCode=tieSwitch,Length=0.001,Units=km,switch=T !numEQ NUMEQ:73852  - Data de conexão anterior06/2011.
new line.CTR109018 bus1=BMT133175256.3,bus2=BMT133175970.3,Phases=1,LineCode=tieSwitch1,Length=0.001,Units=km,switch=T !numEQ NUMEQ:73865  - Data de conexão anterior06/2011.
new line.CTR109025 bus1=BMT122799478.3,bus2=BMT160001307.3,Phases=1,LineCode=tieSwitch1,Length=0.001,Units=km,switch=T !numEQ NUMEQ:73959  - Data de conexão anterior06/2011.
new line.CTR109032 bus1=BMT122813177.1.2.3,bus2=BMT178265385.1.2.3,Phases=3,LineCode=tieSwitch,Length=0.001,Units=km,switch=T !numEQ NUMEQ:73870  - Data de conexão anterior06/2011.
new line.CTR109039 bus1=BMT122813261.1,bus2=BMT172588849.1,Phases=1,LineCode=tieSwitch1,Length=0.001,Units=km,switch=T !numEQ NUMEQ:72231  - Data de conexão anterior06/2011.
new line.CTR109046 bus1=BMT122813520.3,bus2=BMT173466622.3,Phases=1,LineCode=tieSwitch1,Length=0.001,Units=km,switch=T !numEQ NUMEQ:74484  - Data de conexão anterior06/2011.
new line.CTR109053 bus1=BMT150313532.1.2.3,bus2=BMT150313533.1.2.3,Phases=3,LineCode=tieSwitch,Length=0.001,Units=km,switch=T !numEQ NUMEQ:288460  - Data de conexão anterior06/2011.
new line.CTR109067 bus1=BMT150313547.3,bus2=BMT150314263.3,Phases=1,LineCode=tieSwitch1,Length=0.001,Units=km,switch=T !numEQ NUMEQ:73522  - Data de conexão anterior06/2011.
new line.CTR109074 bus1=BMT150313558.1.2.3,bus2=BMT169763063.1.2.3,Phases=3,LineCode=tieSwitch,Length=0.001,Units=km,switch=T !numEQ NUMEQ:288457  - Data de conexão anterior06/2011.
new line.CTR109081 bus1=BMT150313570.1.2.3,bus2=BMT165218344.1.2.3,Phases=3,LineCode=tieSwitch,Length=0.001,Units=km,switch=T !numEQ NUMEQ:288458  - Data de conexão anterior06/2011.
new line.CTR109088 bus1=BMT150313575.1,bus2=BMT150314180.1,Phases=1,LineCode=tieSwitch1,Length=0.001,Units=km,switch=T !numEQ NUMEQ:85009  - Data de conexão anterior06/2011.
new line.CTR109095 bus1=BMT150313576.1,bus2=BMT169785079.1,Phases=1,LineCode=tieSwitch1,Length=0.001,Units=km,switch=T !numEQ NUMEQ:73965  - Data de conexão anterior06/2011.
new line.CTR109102 bus1=BMT150313887.3,bus2=BMT150313889.3,Phases=1,LineCode=tieSwitch1,Length=0.001,Units=km,switch=T !numEQ NUMEQ:73784  - Data de conexão anterior06/2011.
new line.CTR109116 bus1=BMT150313606.1.2.3,bus2=BMT150313852.1.2.3,Phases=3,LineCode=tieSwitch,Length=0.001,Units=km,switch=T !numEQ NUMEQ:72212  - Data de conexão anterior06/2011.
new line.CTR109123 bus1=BMT150313627.1,bus2=BMT150313830.1,Phases=1,LineCode=tieSwitch1,Length=0.001,Units=km,switch=T !numEQ NUMEQ:73825  - Data de conexão anterior06/2011.
new line.CTR109130 bus1=BMT150313638.3,bus2=BMT150313784.3,Phases=1,LineCode=tieSwitch1,Length=0.001,Units=km,switch=T !numEQ NUMEQ:73602  - Data de conexão anterior06/2011.
new line.CTR109137 bus1=BMT150313646.3,bus2=BMT174147243.3,Phases=1,LineCode=tieSwitch1,Length=0.001,Units=km,switch=T !numEQ NUMEQ:73523  - Data de conexão anterior06/2011.
new line.CTR109144 bus1=BMT150313757.3,bus2=BMT174083689.3,Phases=1,LineCode=tieSwitch1,Length=0.001,Units=km,switch=T !numEQ NUMEQ:73590  - Data de conexão anterior06/2011.
new line.CTR109151 bus1=BMT150313647.3,bus2=BMT150313753.3,Phases=1,LineCode=tieSwitch1,Length=0.001,Units=km,switch=T !numEQ NUMEQ:73514  - Data de conexão anterior06/2011.
new line.CTR109158 bus1=BMT150313651.1,bus2=BMT150313738.1,Phases=1,LineCode=tieSwitch1,Length=0.001,Units=km,switch=T !numEQ NUMEQ:73781  - Data de conexão anterior06/2011.
new line.CTR109165 bus1=BMT150313653.1,bus2=BMT150313701.1,Phases=1,LineCode=tieSwitch1,Length=0.001,Units=km,switch=T !numEQ NUMEQ:73789  - Data de conexão anterior06/2011.
new line.CTR109172 bus1=BMT150313659.3,bus2=BMT150313687.3,Phases=1,LineCode=tieSwitch1,Length=0.001,Units=km,switch=T !numEQ NUMEQ:73646  - Data de conexão anterior06/2011.
new line.CTR109179 bus1=BMT150313663.2,bus2=BMT150313677.2,Phases=1,LineCode=tieSwitch1,Length=0.001,Units=km,switch=T !numEQ NUMEQ:15308  - Data de conexão anterior06/2011.
new line.CTR109186 bus1=BMT150313741.1,bus2=BMT150313751.1,Phases=1,LineCode=tieSwitch1,Length=0.001,Units=km,switch=T !numEQ NUMEQ:73629  - Data de conexão anterior06/2011.
new line.CTR109200 bus1=BMT179762730.3,bus2=BMT150314744.3,Phases=1,LineCode=tieSwitch1,Length=0.001,Units=km,switch=T !numEQ NUMEQ:84679  - Data de conexão anterior06/2011.
new line.CTR109207 bus1=BMT179775069.1.2.3,bus2=BMT179762715.1.2.3,Phases=3,LineCode=tieSwitch,Length=0.001,Units=km,switch=T !numEQ NUMEQ:73654  - Data de conexão anterior06/2011.
new line.CTR109221 bus1=BMT155339931.2,bus2=BMT3737391.2,Phases=1,LineCode=tieSwitch1,Length=0.001,Units=km,switch=T !numEQ NUMEQ:91381  - Data de conexão anterior06/2011.
open line.CTR109221 term=1
new line.CTR109228 bus1=BMT150313880.1,bus2=BMT152069260.1,Phases=1,LineCode=tieSwitch1,Length=0.001,Units=km,switch=T !numEQ NUMEQ:73577  - Data de conexão anterior06/2011.
new line.CTR109249 bus1=BMT150313965.2,bus2=BMT150313988.2,Phases=1,LineCode=tieSwitch1,Length=0.001,Units=km,switch=T !numEQ NUMEQ:91465  - Data de conexão anterior06/2011.
new line.CTR109263 bus1=BMT150313964.2,bus2=BMT176834960.2,Phases=1,LineCode=tieSwitch1,Length=0.001,Units=km,switch=T !numEQ NUMEQ:15299  - Data de conexão anterior06/2011.
new line.CTR109284 bus1=BMT150313865.1.2.3,bus2=BMT150313866.1.2.3,Phases=3,LineCode=tieSwitch,Length=0.001,Units=km,switch=T !numEQ NUMEQ:299428  - Data de conexão anterior06/2011.
new line.CTR109291 bus1=BMT178911902.1.2.3,bus2=BMT150314053.1.2.3,Phases=3,LineCode=tieSwitch,Length=0.001,Units=km,switch=T !numEQ NUMEQ:223443  - Data de conexão anterior06/2011.
new line.CTR109305 bus1=BMT150314128.3,bus2=BMT150314135.3,Phases=1,LineCode=tieSwitch1,Length=0.001,Units=km,switch=T !numEQ NUMEQ:73658  - Data de conexão anterior06/2011.
new line.CTR109312 bus1=BMT150313573.2,bus2=BMT173690509.2,Phases=1,LineCode=tieSwitch1,Length=0.001,Units=km,switch=T !numEQ NUMEQ:73607  - Data de conexão anterior06/2011.
new line.CTR109319 bus1=BMT150314206.1,bus2=BMT150314213.1,Phases=1,LineCode=tieSwitch1,Length=0.001,Units=km,switch=T !numEQ NUMEQ:73595  - Data de conexão anterior06/2011.
new line.CTR109326 bus1=BMT122814045.1.2.3,bus2=BMT172025916.1.2.3,Phases=3,LineCode=tieSwitch,Length=0.001,Units=km,switch=T !numEQ NUMEQ:73508  - Data de conexão anterior06/2011.
new line.CTR109333 bus1=BMT122814318.1,bus2=BMT122814710.1,Phases=1,LineCode=tieSwitch1,Length=0.001,Units=km,switch=T !numEQ NUMEQ:15281  - Data de conexão anterior06/2011.
new line.CTR109340 bus1=BMT122814283.2,bus2=BMT122814346.2,Phases=1,LineCode=tieSwitch1,Length=0.001,Units=km,switch=T !numEQ NUMEQ:72990  - Data de conexão anterior06/2011.
new line.CTR109347 bus1=BMT122815704.1,bus2=BMT122815851.1,Phases=1,LineCode=tieSwitch1,Length=0.001,Units=km,switch=T !numEQ NUMEQ:73783  - Data de conexão anterior06/2011.
new line.CTR109354 bus1=BMT150313386.1.2.3,bus2=BMT175999882.1.2.3,Phases=3,LineCode=tieSwitch,Length=0.001,Units=km,switch=T !numEQ NUMEQ:73548  - Data de conexão anterior06/2011.
new line.CTR109382 bus1=BMT150311559.1,bus2=BMT150312010.1,Phases=1,LineCode=tieSwitch1,Length=0.001,Units=km,switch=T !numEQ NUMEQ:74063  - Data de conexão anterior06/2011.
new line.CTR109417 bus1=BMT150313030.2,bus2=BMT150313150.2,Phases=1,LineCode=tieSwitch1,Length=0.001,Units=km,switch=T !numEQ NUMEQ:74007  - Data de conexão anterior06/2011.
new line.CTR109424 bus1=BMT150311374.1.2.3,bus2=BMT173774000.1.2.3,Phases=3,LineCode=tieSwitch,Length=0.001,Units=km,switch=T !numEQ NUMEQ:74000  - Data de conexão anterior06/2011.
new line.CTR109431 bus1=BMT150311422.1.2.3,bus2=BMT150311423.1.2.3,Phases=3,LineCode=tieSwitch,Length=0.001,Units=km,switch=T !numEQ NUMEQ:73972  - Data de conexão anterior06/2011.
new line.CTR109445 bus1=BMT150311509.1.2.3,bus2=BMT150311510.1.2.3,Phases=3,LineCode=tieSwitch,Length=0.001,Units=km,switch=T !numEQ NUMEQ:73985  - Data de conexão anterior06/2011.
new line.CTR109452 bus1=BMT150311533.1.2.3,bus2=BMT172267087.1.2.3,Phases=3,LineCode=tieSwitch,Length=0.001,Units=km,switch=T !numEQ NUMEQ:239317  - Data de conexão anterior06/2011.
new line.CTR109466 bus1=BMT150312045.1.2.3,bus2=BMT175812777.1.2.3,Phases=3,LineCode=tieSwitch,Length=0.001,Units=km,switch=T !numEQ NUMEQ:74013  - Data de conexão anterior06/2011.
new line.CTR109480 bus1=BMT150312096.3,bus2=BMT150312112.3,Phases=1,LineCode=tieSwitch1,Length=0.001,Units=km,switch=T !numEQ NUMEQ:74097  - Data de conexão anterior06/2011.
new line.CTR109487 bus1=BMT150312154.2,bus2=BMT150312166.2,Phases=1,LineCode=tieSwitch1,Length=0.001,Units=km,switch=T !numEQ NUMEQ:74002  - Data de conexão anterior06/2011.
new line.CTR109494 bus1=BMT150311554.1.2.3,bus2=BMT171640525.1.2.3,Phases=3,LineCode=tieSwitch,Length=0.001,Units=km,switch=T !numEQ NUMEQ:74003  - Data de conexão anterior06/2011.
new line.CTR109501 bus1=BMT150311570.2,bus2=BMT166330009.2,Phases=1,LineCode=tieSwitch1,Length=0.001,Units=km,switch=T !numEQ NUMEQ:74513  - Data de conexão anterior06/2011.
new line.CTR109508 bus1=BMT150311581.1,bus2=BMT150311891.1,Phases=1,LineCode=tieSwitch1,Length=0.001,Units=km,switch=T !numEQ NUMEQ:74020  - Data de conexão anterior06/2011.
new line.CTR109515 bus1=BMT150311585.1,bus2=BMT150311889.1,Phases=1,LineCode=tieSwitch1,Length=0.001,Units=km,switch=T !numEQ NUMEQ:74045  - Data de conexão anterior06/2011.
new line.CTR109536 bus1=BMT150311600.1,bus2=BMT150311794.1,Phases=1,LineCode=tieSwitch1,Length=0.001,Units=km,switch=T !numEQ NUMEQ:74624  - Data de conexão anterior06/2011.
new line.CTR109543 bus1=BMT150311607.1.2.3,bus2=BMT178551129.1.2.3,Phases=3,LineCode=tieSwitch,Length=0.001,Units=km,switch=T !numEQ NUMEQ:74128  - Data de conexão anterior06/2011.
new line.CTR109550 bus1=BMT150311631.2,bus2=BMT174029141.2,Phases=1,LineCode=tieSwitch1,Length=0.001,Units=km,switch=T !numEQ NUMEQ:74113  - Data de conexão anterior06/2011.
new line.CTR109557 bus1=BMT150311636.1,bus2=BMT150311761.1,Phases=1,LineCode=tieSwitch1,Length=0.001,Units=km,switch=T !numEQ NUMEQ:74095  - Data de conexão anterior06/2011.
new line.CTR109564 bus1=BMT150311660.1,bus2=BMT179103263.1,Phases=1,LineCode=tieSwitch1,Length=0.001,Units=km,switch=T !numEQ NUMEQ:74054  - Data de conexão anterior06/2011.
new line.CTR109571 bus1=BMT150311605.3,bus2=BMT171642916.3,Phases=1,LineCode=tieSwitch1,Length=0.001,Units=km,switch=T !numEQ NUMEQ:74024  - Data de conexão anterior06/2011.
new line.CTR109578 bus1=BMT150311850.3,bus2=BMT155318603.3,Phases=1,LineCode=tieSwitch1,Length=0.001,Units=km,switch=T !numEQ NUMEQ:74140  - Data de conexão anterior06/2011.
new line.CTR109585 bus1=BMT150311567.2,bus2=BMT150311578.2,Phases=1,LineCode=tieSwitch1,Length=0.001,Units=km,switch=T !numEQ NUMEQ:74038  - Data de conexão anterior06/2011.
new line.CTR109592 bus1=BMT150311946.3,bus2=BMT170525593.3,Phases=1,LineCode=tieSwitch1,Length=0.001,Units=km,switch=T !numEQ NUMEQ:74040  - Data de conexão anterior06/2011.
new line.CTR109599 bus1=BMT150311434.1.2.3,bus2=BMT150312556.1.2.3,Phases=3,LineCode=tieSwitch,Length=0.001,Units=km,switch=T !numEQ NUMEQ:73979  - Data de conexão anterior06/2011.
new line.CTR109606 bus1=BMT150311426.1.2.3,bus2=BMT167156870.1.2.3,Phases=3,LineCode=tieSwitch,Length=0.001,Units=km,switch=T !numEQ NUMEQ:73973  - Data de conexão anterior06/2011.
new line.CTR109613 bus1=BMT150312578.1.2.3,bus2=BMT159686841.1.2.3,Phases=3,LineCode=tieSwitch,Length=0.001,Units=km,switch=T !numEQ NUMEQ:285942  - Data de conexão anterior06/2011.
new line.CTR109620 bus1=BMT122775405.1.2.3,bus2=BMT137975884.1.2.3,Phases=3,LineCode=tieSwitch,Length=0.001,Units=km,switch=T !numEQ NUMEQ:15803  - Data de conexão anterior06/2011.
new line.CTR109627 bus1=BMT175812214.1.2.3,bus2=BMT122775069.1.2.3,Phases=3,LineCode=tieSwitch,Length=0.001,Units=km,switch=T !numEQ NUMEQ:84822  - Data de conexão anterior06/2011.
new line.CTR109634 bus1=BMT122775594.1.2.3,bus2=BMT122773200.1.2.3,Phases=3,LineCode=tieSwitch,Length=0.001,Units=km,switch=T !numEQ NUMEQ:74033  - Data de conexão anterior06/2011.
new line.CTR109641 bus1=BMT122775748.1,bus2=BMT176515323.1,Phases=1,LineCode=tieSwitch1,Length=0.001,Units=km,switch=T !numEQ NUMEQ:74100  - Data de conexão anterior06/2011.
new line.CTR109676 bus1=BMT122767292.3,bus2=BMT170553377.3,Phases=1,LineCode=tieSwitch1,Length=0.001,Units=km,switch=T !numEQ NUMEQ:74021  - Data de conexão anterior06/2011.
new line.CTR109683 bus1=BMT122775272.1.2.3,bus2=BMT178034368.1.2.3,Phases=3,LineCode=tieSwitch,Length=0.001,Units=km,switch=T !numEQ NUMEQ:74082  - Data de conexão anterior06/2011.
new line.CTR109704 bus1=BMT159065940.1.2.3,bus2=BMT2543352.1.2.3,Phases=3,LineCode=tieSwitch,Length=0.001,Units=km,switch=T !numEQ NUMEQ:91359  - Data de conexão anterior06/2011.
open line.CTR109704 term=1
new line.CTR109711 bus1=BMT122766144.1.2.3,bus2=BMT172855381.1.2.3,Phases=3,LineCode=tieSwitch,Length=0.001,Units=km,switch=T !numEQ NUMEQ:15313  - Data de conexão anterior06/2011.
new line.CTR109718 bus1=BMT122766326.1.2.3,bus2=BMT179498067.1.2.3,Phases=3,LineCode=tieSwitch,Length=0.001,Units=km,switch=T !numEQ NUMEQ:15316  - Data de conexão anterior06/2011.
new line.CTR109725 bus1=BMT122766872.1.2.3,bus2=BMT175279414.1.2.3,Phases=3,LineCode=tieSwitch,Length=0.001,Units=km,switch=T !numEQ NUMEQ:91353  - Data de conexão anterior06/2011.
new line.CTR109732 bus1=BMT122766879.1.2.3,bus2=BMT122767047.1.2.3,Phases=3,LineCode=tieSwitch,Length=0.001,Units=km,switch=T !numEQ NUMEQ:91354  - Data de conexão anterior06/2011.
new line.CTR109739 bus1=BMT122767180.1.2.3,bus2=BMT164592231.1.2.3,Phases=3,LineCode=tieSwitch,Length=0.001,Units=km,switch=T !numEQ NUMEQ:91351  - Data de conexão anterior06/2011.
new line.CTR109746 bus1=BMT122767089.1.2.3,bus2=BMT164228718.1.2.3,Phases=3,LineCode=tieSwitch,Length=0.001,Units=km,switch=T !numEQ NUMEQ:74108  - Data de conexão anterior06/2011.
new line.CTR109753 bus1=BMT122767096.1.2.3,bus2=BMT122769511.1.2.3,Phases=3,LineCode=tieSwitch,Length=0.001,Units=km,switch=T !numEQ NUMEQ:91310  - Data de conexão anterior06/2011.
new line.CTR109760 bus1=BMT122767124.1,bus2=BMT122769476.1,Phases=1,LineCode=tieSwitch1,Length=0.001,Units=km,switch=T !numEQ NUMEQ:74130  - Data de conexão anterior06/2011.
new line.CTR109767 bus1=BMT122767222.1.2.3,bus2=BMT166027467.1.2.3,Phases=3,LineCode=tieSwitch,Length=0.001,Units=km,switch=T !numEQ NUMEQ:74083  - Data de conexão anterior06/2011.
new line.CTR109774 bus1=BMT122767488.1.2.3,bus2=BMT175811798.1.2.3,Phases=3,LineCode=tieSwitch,Length=0.001,Units=km,switch=T !numEQ NUMEQ:91361  - Data de conexão anterior06/2011.