new line.SBT_11015649 bus1=BBT3277695.1.2.3.0,bus2=BBT3277702.1.2.3.0,Phases=3,Linecode=BT803_BT803_4_3_4_3,Length=0.034376000,Units=km
new line.SBT_11015670 bus1=BBT3277702.1.2.3.0,bus2=BBT3277709.1.2.3.0,Phases=3,Linecode=BT803_BT803_4_3_4_3,Length=0.032568000,Units=km
new line.SBT_11015747 bus1=BBT3277688.1.2.3.0,bus2=BBT3277772.1.2.3.0,Phases=3,Linecode=BT803_BT803_4_3_4_3,Length=0.033626000,Units=km
new line.SBT_11015768 bus1=BBT3277709.1.2.3.0,bus2=BBT3277716.1.2.3.0,Phases=3,Linecode=BT810_BT810_4_3_4_3,Length=0.031633000,Units=km
new line.SBT_11015789 bus1=BBT3277716.1.2.3.0,bus2=BBT3277723.1.2.3.0,Phases=3,Linecode=BT810_BT810_4_3_4_3,Length=0.030374000,Units=km
new line.SBT_11015810 bus1=BBT3277723.1.2.3.0,bus2=BBT3277730.1.2.3.0,Phases=3,Linecode=BT810_BT810_4_3_4_3,Length=0.031315000,Units=km
new line.SBT_11015831 bus1=BBT3277730.1.2.3.0,bus2=BBT3277744.1.2.3.0,Phases=3,Linecode=BT810_BT810_4_3_4_3,Length=0.030538000,Units=km
new line.SBT_11015852 bus1=BBT3277744.1.2.3.0,bus2=BBT3277751.1.2.3.0,Phases=3,Linecode=BT810_BT810_4_3_4_3,Length=0.029691000,Units=km
new line.SBT_11015873 bus1=BBT3277751.1.2.3.0,bus2=BBT3277758.1.2.3.0,Phases=3,Linecode=BT810_BT810_4_3_4_3,Length=0.031154000,Units=km
new line.SBT_11015901 bus1=BBT3277758.1.2.3.0,bus2=BBT3277765.1.2.3.0,Phases=3,Linecode=BT810_BT810_4_3_4_3,Length=0.029741000,Units=km
new line.SBT_11015943 bus1=BBT3277772.1.2.3.0,bus2=BBT3277779.1.2.3.0,Phases=3,Linecode=BT803_BT803_4_3_4_3,Length=0.025718000,Units=km
new line.SBT_11015964 bus1=BBT3277779.1.2.3.0,bus2=BBT3277786.1.2.3.0,Phases=3,Linecode=BT803_BT803_4_3_4_3,Length=0.025008000,Units=km
new line.SBT_11015978 bus1=BBT3277786.1.2.3.0,bus2=BBT3277793.1.2.3.0,Phases=3,Linecode=BT803_BT803_4_3_4_3,Length=0.026409000,Units=km
new line.SBT_11016090 bus1=BBT3277793.1.2.3.0,bus2=BBT3277842.1.2.3.0,Phases=3,Linecode=BT810_BT810_4_3_4_3,Length=0.118141000,Units=km
new line.SBT_11016104 bus1=BBT3277842.1.2.3.0,bus2=BBT157461314.1.2.3.0,Phases=3,Linecode=BT810_BT810_4_3_4_3,Length=0.014217000,Units=km
new line.SBT_11016118 bus1=BBT3277849.1.2.3.0,bus2=BBT3277856.1.2.3.0,Phases=3,Linecode=BT810_BT810_4_3_4_3,Length=0.032660000,Units=km
new line.SBT_11016160 bus1=BBT3277856.1.2.3.0,bus2=BBT3277863.1.2.3.0,Phases=3,Linecode=BT810_BT810_4_3_4_3,Length=0.032660000,Units=km
new line.SBT_11017378 bus1=BBT3278626.1.2.3.0,bus2=BBT3278633.1.2.3.0,Phases=3,Linecode=BT809_BT809_4_3_4_3,Length=0.034996000,Units=km
new line.SBT_11017392 bus1=BBT3278619.1.2.3.0,bus2=BBT3278626.1.2.3.0,Phases=3,Linecode=BT809_BT809_4_3_4_3,Length=0.031775000,Units=km
new line.SBT_11017413 bus1=BBT3278612.1.2.3.0,bus2=BBT3278619.1.2.3.0,Phases=3,Linecode=BT809_BT809_4_3_4_3,Length=0.031963000,Units=km
new line.SBT_11017434 bus1=BBT3278570.1.2.3.0,bus2=BBT3278612.1.2.3.0,Phases=3,Linecode=BT803_BT803_4_3_4_3,Length=0.035239000,Units=km
new line.SBT_11017462 bus1=BBT3278465.1.2.3.0,bus2=BBT3278570.1.2.3.0,Phases=3,Linecode=BT803_BT803_4_3_4_3,Length=0.033025000,Units=km
new line.SBT_11017469 bus1=BBT3278458.1.2.3.0,bus2=BBT3278465.1.2.3.0,Phases=3,Linecode=BT518_BT518_7_3_1_3,Length=0.000501000,Units=km
new line.SBT_11017476 bus1=BBT3278465.1.2.3.0,bus2=BBT3278577.1.2.3.0,Phases=3,Linecode=BT803_BT803_4_3_4_3,Length=0.032583000,Units=km
new line.SBT_11017490 bus1=BBT3278577.1.2.3.0,bus2=BBT3278584.1.2.3.0,Phases=3,Linecode=BT803_BT803_4_3_4_3,Length=0.036412000,Units=km
new line.SBT_11017518 bus1=BBT3278584.1.2.3.0,bus2=BBT3278591.1.2.3.0,Phases=3,Linecode=BT803_BT803_4_3_4_3,Length=0.035816000,Units=km
new line.SBT_11017553 bus1=BBT3278591.1.2.3.0,bus2=BBT3278598.1.2.3.0,Phases=3,Linecode=BT809_BT809_4_3_4_3,Length=0.036631000,Units=km
new line.SBT_11017581 bus1=BBT3278598.1.2.3.0,bus2=BBT3278605.1.2.3.0,Phases=3,Linecode=BT809_BT809_4_3_4_3,Length=0.027211000,Units=km
new line.SBT_11017609 bus1=BBT3278605.1.2.3.0,bus2=BBT3716392.1.2.3.0,Phases=3,Linecode=BT810_BT810_4_3_4_3,Length=0.036067000,Units=km
new line.SBT_11018267 bus1=BBT3278906.1.2.3.0,bus2=BBT3278913.1.2.3.0,Phases=3,Linecode=BT805_BT805_4_3_4_3,Length=0.037227000,Units=km
new line.SBT_11018295 bus1=BBT3278913.1.2.3.0,bus2=BBT3278934.1.2.3.0,Phases=3,Linecode=BT803_BT803_4_3_4_3,Length=0.041025000,Units=km
new line.SBT_11018554 bus1=BBT3279025.1.2.3.0,bus2=BBT3279032.1.2.3.0,Phases=3,Linecode=BT803_BT803_4_3_4_3,Length=0.037133000,Units=km
new line.SBT_11018561 bus1=BBT3279025.1.2.3.0,bus2=BBT5441738.1.2.3.0,Phases=3,Linecode=BT503_BT503_5_3_1_3,Length=0.004002000,Units=km
new line.SBT_11018582 bus1=BBT3279032.1.2.3.0,bus2=BBT3279039.1.2.3.0,Phases=3,Linecode=BT803_BT803_4_3_4_3,Length=0.037227000,Units=km
new line.SBT_11018603 bus1=BBT3279039.1.2.3.0,bus2=BBT3279053.1.2.3.0,Phases=3,Linecode=BT809_BT809_4_3_4_3,Length=0.038339000,Units=km
new line.SBT_11018624 bus1=BBT3279053.1.2.3.0,bus2=BBT3279060.1.2.3.0,Phases=3,Linecode=BT809_BT809_4_3_4_3,Length=0.034216000,Units=km
new line.SBT_11018652 bus1=BBT3279060.1.2.3.0,bus2=BBT3279067.1.2.3.0,Phases=3,Linecode=BT809_BT809_4_3_4_3,Length=0.036412000,Units=km
new line.SBT_11019793 bus1=BBT3281237.1.2.3.0,bus2=BBT3281244.1.2.3.0,Phases=3,Linecode=BT809_BT809_4_3_4_3,Length=0.036508000,Units=km
new line.SBT_11019891 bus1=BBT3281230.1.2.3.0,bus2=BBT3281237.1.2.3.0,Phases=3,Linecode=BT809_BT809_4_3_4_3,Length=0.030026000,Units=km
new line.SBT_11019954 bus1=BBT3281223.1.2.3.0,bus2=BBT3281230.1.2.3.0,Phases=3,Linecode=BT809_BT809_4_3_4_3,Length=0.032767000,Units=km
new line.SBT_11020017 bus1=BBT3281167.1.2.3.0,bus2=BBT3281223.1.2.3.0,Phases=3,Linecode=BT803_BT803_4_3_4_3,Length=0.031633000,Units=km
new line.SBT_11020101 bus1=BBT3279669.1.2.3.0,bus2=BBT3281167.1.2.3.0,Phases=3,Linecode=BT803_BT803_4_3_4_3,Length=0.033252000,Units=km
new line.SBT_11020108 bus1=BBT3279662.1.2.3.0,bus2=BBT3279669.1.2.3.0,Phases=3,Linecode=BT518_BT518_7_3_1_3,Length=0.000501000,Units=km
new line.SBT_11020115 bus1=BBT3279669.1.2.3.0,bus2=BBT3281174.1.2.3.0,Phases=3,Linecode=BT803_BT803_4_3_4_3,Length=0.036067000,Units=km
new line.SBT_11020255 bus1=BBT3280684.1.2.3.0,bus2=BBT3280817.1.2.3.0,Phases=3,Linecode=BT809_BT809_4_3_4_3,Length=0.035068000,Units=km
new line.SBT_11020360 bus1=BBT3280677.1.2.3.0,bus2=BBT3280684.1.2.3.0,Phases=3,Linecode=BT809_BT809_4_3_4_3,Length=0.032072000,Units=km
new line.SBT_11020381 bus1=BBT3280670.1.2.3.0,bus2=BBT3280677.1.2.3.0,Phases=3,Linecode=BT809_BT809_4_3_4_3,Length=0.029741000,Units=km
new line.SBT_11020451 bus1=BBT3280593.1.2.3.0,bus2=BBT3280670.1.2.3.0,Phases=3,Linecode=BT803_BT803_4_3_4_3,Length=0.031315000,Units=km
new line.SBT_11020458 bus1=BBT3280593.1.2.3.0,bus2=BBT3280621.1.2.3.0,Phases=3,Linecode=BT803_BT803_4_3_4_3,Length=0.026934000,Units=km
new line.SBT_11020479 bus1=BBT3280621.1.2.3.0,bus2=BBT3280628.1.2.3.0,Phases=3,Linecode=BT803_BT803_4_3_4_3,Length=0.024049000,Units=km
new line.SBT_11020507 bus1=BBT3280628.1.2.3.0,bus2=BBT3280635.1.2.3.0,Phases=3,Linecode=BT810_BT810_4_3_4_3,Length=0.035788000,Units=km
new line.SBT_11020514 bus1=BBT3280628.1.2.3.0,bus2=BBT3280656.1.2.3.0,Phases=3,Linecode=BT810_BT810_4_3_4_3,Length=0.035479000,Units=km
new line.SBT_11020584 bus1=BBT3280656.1.2.3.0,bus2=BBT3280663.1.2.3.0,Phases=3,Linecode=BT810_BT810_4_3_4_3,Length=0.035816000,Units=km
new line.SBT_11020640 bus1=BBT3280663.1.2.3.0,bus2=BBT3716476.1.2.3.0,Phases=3,Linecode=BT810_BT810_4_3_4_3,Length=0.031154000,Units=km
new line.SBT_11020745 bus1=BBT3280565.1.2.3.0,bus2=BBT3280593.1.2.3.0,Phases=3,Linecode=BT803_BT803_4_3_4_3,Length=0.041244000,Units=km
new line.SBT_11020752 bus1=BBT3280558.1.2.3.0,bus2=BBT3280565.1.2.3.0,Phases=3,Linecode=BT513_BT513_7_3_1_3,Length=0.000501000,Units=km
new line.SBT_11020759 bus1=BBT3280565.1.2.3.0,bus2=BBT3280579.1.2.3.0,Phases=3,Linecode=BT803_BT803_4_3_4_3,Length=0.040373000,Units=km
new line.SBT_11020787 bus1=BBT3280579.1.2.3.0,bus2=BBT3280705.1.2.3.0,Phases=3,Linecode=BT803_BT803_4_3_4_3,Length=0.039635000,Units=km
new line.SBT_11020822 bus1=BBT3280705.1.2.3.0,bus2=BBT3280712.1.2.3.0,Phases=3,Linecode=BT809_BT809_4_3_4_3,Length=0.040373000,Units=km
new line.SBT_11020878 bus1=BBT3280544.1.2.3.0,bus2=BBT3280551.1.2.3.0,Phases=3,Linecode=BT809_BT809_4_3_4_3,Length=0.036150000,Units=km
new line.SBT_11020906 bus1=BBT3280537.1.2.3.0,bus2=BBT3280544.1.2.3.0,Phases=3,Linecode=BT809_BT809_4_3_4_3,Length=0.034939000,Units=km
new line.SBT_11020934 bus1=BBT3280474.1.2.3.0,bus2=BBT3280537.1.2.3.0,Phases=3,Linecode=BT803_BT803_4_3_4_3,Length=0.034724000,Units=km
new line.SBT_11021032 bus1=BBT3280453.1.2.3.0,bus2=BBT3280474.1.2.3.0,Phases=3,Linecode=BT803_BT803_4_3_4_3,Length=0.035858000,Units=km
new line.SBT_11021039 bus1=BBT3280446.1.2.3.0,bus2=BBT3280453.1.2.3.0,Phases=3,Linecode=BT518_BT518_7_3_1_3,Length=0.000501000,Units=km
new line.SBT_11021046 bus1=BBT3280453.1.2.3.0,bus2=BBT3280481.1.2.3.0,Phases=3,Linecode=BT803_BT803_4_3_4_3,Length=0.033025000,Units=km
new line.SBT_11021074 bus1=BBT3280481.1.2.3.0,bus2=BBT3280488.1.2.3.0,Phases=3,Linecode=BT803_BT803_4_3_4_3,Length=0.036508000,Units=km
new line.SBT_11021109 bus1=BBT3280488.1.2.3.0,bus2=BBT3280495.1.2.3.0,Phases=3,Linecode=BT803_BT803_4_3_4_3,Length=0.037119000,Units=km
new line.SBT_11021130 bus1=BBT3280495.1.2.3.0,bus2=BBT3280509.1.2.3.0,Phases=3,Linecode=BT803_BT803_4_3_4_3,Length=0.038025000,Units=km
new line.SBT_11021158 bus1=BBT3280509.1.2.3.0,bus2=BBT3280516.1.2.3.0,Phases=3,Linecode=BT810_BT810_4_3_4_3,Length=0.040261000,Units=km
new line.SBT_11021179 bus1=BBT3280516.1.2.3.0,bus2=BBT3280523.1.2.3.0,Phases=3,Linecode=BT810_BT810_4_3_4_3,Length=0.010053000,Units=km
new line.SBT_11021214 bus1=BBT3280523.1.2.3.0,bus2=BBT3280530.1.2.3.0,Phases=3,Linecode=BT810_BT810_4_3_4_3,Length=0.030472000,Units=km
new line.SBT_11021228 bus1=BBT3280530.1.2.3.0,bus2=BBT3716483.1.2.3.0,Phases=3,Linecode=BT810_BT810_4_3_4_3,Length=0.036067000,Units=km
new line.SBT_11021823 bus1=BBT3281174.1.2.3.0,bus2=BBT3281188.1.2.3.0,Phases=3,Linecode=BT803_BT803_4_3_4_3,Length=0.035025000,Units=km
new line.SBT_11021844 bus1=BBT3281188.1.2.3.0,bus2=BBT3281195.1.2.3.0,Phases=3,Linecode=BT809_BT809_4_3_4_3,Length=0.039025000,Units=km
new line.SBT_11021893 bus1=BBT3281195.1.2.3.0,bus2=BBT3281202.1.2.3.0,Phases=3,Linecode=BT809_BT809_4_3_4_3,Length=0.033025000,Units=km
new line.SBT_11021935 bus1=BBT3281202.1.2.3.0,bus2=BBT3281209.1.2.3.0,Phases=3,Linecode=BT809_BT809_4_3_4_3,Length=0.033025000,Units=km
new line.SBT_11022033 bus1=BBT3281727.1.2.3.0,bus2=BBT3282070.1.2.3.0,Phases=3,Linecode=BT809_BT809_4_3_4_3,Length=0.031074000,Units=km
new line.SBT_11022082 bus1=BBT3281720.1.2.3.0,bus2=BBT3281727.1.2.3.0,Phases=3,Linecode=BT809_BT809_4_3_4_3,Length=0.034143000,Units=km
new line.SBT_11024693 bus1=BBT3281468.1.2.3.0,bus2=BBT3826348.1.2.3.0,Phases=3,Linecode=BT810_BT810_4_3_4_3,Length=0.029009000,Units=km
new line.SBT_11024728 bus1=BBT3281461.1.2.3.0,bus2=BBT3281468.1.2.3.0,Phases=3,Linecode=BT803_BT803_4_3_4_3,Length=0.036025000,Units=km
new line.SBT_11024749 bus1=BBT3281454.1.2.3.0,bus2=BBT3281461.1.2.3.0,Phases=3,Linecode=BT803_BT803_4_3_4_3,Length=0.016005000,Units=km
new line.SBT_11024756 bus1=BBT3282091.1.2.3.0,bus2=BBT3282098.1.2.3.0,Phases=3,Linecode=BT514_BT514_7_3_1_3,Length=0.000501000,Units=km
new line.SBT_11024784 bus1=BBT3281447.1.2.3.0,bus2=BBT3281454.1.2.3.0,Phases=3,Linecode=BT803_BT803_4_3_4_3,Length=0.016036000,Units=km
new line.SBT_11024819 bus1=BBT3281433.1.2.3.0,bus2=BBT3281447.1.2.3.0,Phases=3,Linecode=BT803_BT803_4_3_4_3,Length=0.032026000,Units=km
new line.SBT_11024826 bus1=BBT3281426.1.2.3.0,bus2=BBT3281433.1.2.3.0,Phases=3,Linecode=BT513_BT513_7_3_1_3,Length=0.000501000,Units=km
new line.SBT_11024833 bus1=BBT3281433.1.2.3.0,bus2=BBT3281440.1.2.3.0,Phases=3,Linecode=BT803_BT803_4_3_4_3,Length=0.038025000,Units=km
new line.SBT_11024861 bus1=BBT3281440.1.2.3.0,bus2=BBT3281475.1.2.3.0,Phases=3,Linecode=BT803_BT803_4_3_4_3,Length=0.034025000,Units=km
new line.SBT_11024882 bus1=BBT3281475.1.2.3.0,bus2=BBT3281482.1.2.3.0,Phases=3,Linecode=BT809_BT809_4_3_4_3,Length=0.031026000,Units=km
new line.SBT_11024910 bus1=BBT3281482.1.2.3.0,bus2=BBT3281608.1.2.3.0,Phases=3,Linecode=BT809_BT809_4_3_4_3,Length=0.031154000,Units=km
new line.SBT_11025344 bus1=BBT3281713.1.2.3.0,bus2=BBT3281720.1.2.3.0,Phases=3,Linecode=BT809_BT809_4_3_4_3,Length=0.035914000,Units=km
new line.SBT_11025358 bus1=BBT3281699.1.2.3.0,bus2=BBT3281713.1.2.3.0,Phases=3,Linecode=BT803_BT803_4_3_4_3,Length=0.035182000,Units=km
new line.SBT_11025372 bus1=BBT3281685.1.2.3.0,bus2=BBT3281699.1.2.3.0,Phases=3,Linecode=BT803_BT803_4_3_4_3,Length=0.033536000,Units=km
new line.SBT_11025379 bus1=BBT3281678.1.2.3.0,bus2=BBT3281685.1.2.3.0,Phases=3,Linecode=BT518_BT518_7_3_1_3,Length=0.000501000,Units=km
new line.SBT_11025386 bus1=BBT3281685.1.2.3.0,bus2=BBT3281706.1.2.3.0,Phases=3,Linecode=BT803_BT803_4_3_4_3,Length=0.024194000,Units=km
new line.SBT_11025414 bus1=BBT3281706.1.2.3.0,bus2=BBT3282021.1.2.3.0,Phases=3,Linecode=BT803_BT803_4_3_4_3,Length=0.011666000,Units=km
new line.SBT_11025421 bus1=BBT3281706.1.2.3.0,bus2=BBT3281741.1.2.3.0,Phases=3,Linecode=BT809_BT809_4_3_4_3,Length=0.035125000,Units=km
new line.SBT_11025428 bus1=BBT3281706.1.2.3.0,bus2=BBT5441542.1.2.3.0,Phases=3,Linecode=BT810_BT810_4_3_4_3,Length=0.010820000,Units=km
new line.SBT_11025449 bus1=BBT3282021.1.2.3.0,bus2=BBT3282035.1.2.3.0,Phases=3,Linecode=BT803_BT803_4_3_4_3,Length=0.038025000,Units=km
new line.SBT_11025470 bus1=BBT3282042.1.2.3.0,bus2=BBT178358713.1.2.3.0,Phases=3,Linecode=BT803_BT803_4_3_4_3,Length=0.027008000,Units=km
new line.SBT_11025491 bus1=BBT178358649.1.2.3.0,bus2=BBT3282042.1.2.3.0,Phases=3,Linecode=BT803_BT803_4_3_4_3,Length=0.038064000,Units=km
new line.SBT_11025505 bus1=BBT3281741.1.2.3.0,bus2=BBT3281748.1.2.3.0,Phases=3,Linecode=BT809_BT809_4_3_4_3,Length=0.035395000,Units=km
new line.SBT_11025526 bus1=BBT3281748.1.2.3.0,bus2=BBT3281755.1.2.3.0,Phases=3,Linecode=BT809_BT809_4_3_4_3,Length=0.034069000,Units=km
new line.SBT_11032358 bus1=BBT3285150.1.2.3.0,bus2=BBT3285157.1.2.3.0,Phases=3,Linecode=BT803_BT803_4_3_4_3,Length=0.029164000,Units=km
new line.SBT_11032407 bus1=BBT3285129.1.2.3.0,bus2=BBT3285136.1.2.3.0,Phases=3,Linecode=BT809_BT809_4_3_4_3,Length=0.028801000,Units=km
new line.SBT_11032414 bus1=BBT3285129.1.2.3.0,bus2=BBT3648170.1.2.3.0,Phases=3,Linecode=BT503_BT503_5_3_1_3,Length=0.004474000,Units=km
new line.SBT_11032442 bus1=BBT3285122.1.2.3.0,bus2=BBT3285129.1.2.3.0,Phases=3,Linecode=BT809_BT809_4_3_4_3,Length=0.025640000,Units=km
new line.SBT_11032624 bus1=BBT3284744.1.2.3.0,bus2=BBT3284751.1.2.3.0,Phases=3,Linecode=BT809_BT809_4_3_4_3,Length=0.027322000,Units=km
new line.SBT_11032652 bus1=BBT3284730.1.2.3.0,bus2=BBT3285122.1.2.3.0,Phases=3,Linecode=BT809_BT809_4_3_4_3,Length=0.020131000,Units=km
new line.SBT_11032659 bus1=BBT3284730.1.2.3.0,bus2=BBT3284744.1.2.3.0,Phases=3,Linecode=BT809_BT809_4_3_4_3,Length=0.030473000,Units=km
new line.SBT_11032680 bus1=BBT3284723.1.2.3.0,bus2=BBT3285150.1.2.3.0,Phases=3,Linecode=BT803_BT803_4_3_4_3,Length=0.035451000,Units=km
new line.SBT_11032687 bus1=BBT3284723.1.2.3.0,bus2=BBT3284730.1.2.3.0,Phases=3,Linecode=BT803_BT803_4_3_4_3,Length=0.026257000,Units=km
new line.SBT_11032694 bus1=BBT3284723.1.2.3.0,bus2=BBT3707558.1.2.3.0,Phases=3,Linecode=BT810_BT810_4_3_4_3,Length=0.015561000,Units=km
new line.SBT_11032715 bus1=BBT3284681.1.2.3.0,bus2=BBT3284723.1.2.3.0,Phases=3,Linecode=BT803_BT803_4_3_4_3,Length=0.025970000,Units=km
new line.SBT_11032743 bus1=BBT3284667.1.2.3.0,bus2=BBT3284681.1.2.3.0,Phases=3,Linecode=BT803_BT803_4_3_4_3,Length=0.029130000,Units=km
new line.SBT_11032750 bus1=BBT3284660.1.2.3.0,bus2=BBT3284667.1.2.3.0,Phases=3,Linecode=BT518_BT518_7_3_1_3,Length=0.000501000,Units=km
new line.SBT_11032757 bus1=BBT3284667.1.2.3.0,bus2=BBT3284674.1.2.3.0,Phases=3,Linecode=BT803_BT803_4_3_4_3,Length=0.030093000,Units=km
new line.SBT_11522169 bus1=BBT153116287.1.2.3.0,bus2=BBT153116325.1.2.3.0,Phases=3,Linecode=BT810_BT810_4_3_4_3,Length=0.040062000,Units=km
new line.SBT_11522190 bus1=BBT3455054.1.2.3.0,bus2=BBT3455068.1.2.3.0,Phases=3,Linecode=BT810_BT810_4_3_4_3,Length=0.040012000,Units=km
new line.SBT_11522211 bus1=BBT3455047.1.2.3.0,bus2=BBT3455054.1.2.3.0,Phases=3,Linecode=BT810_BT810_4_3_4_3,Length=0.032010000,Units=km
new line.SBT_11522253 bus1=BBT3455040.1.2.3.0,bus2=BBT3455047.1.2.3.0,Phases=3,Linecode=BT810_BT810_4_3_4_3,Length=0.018688000,Units=km
new line.SBT_11522281 bus1=BBT4230612.1.2.3.0,bus2=BBT3455040.1.2.3.0,Phases=3,Linecode=BT810_BT810_4_3_4_3,Length=0.028871000,Units=km
new line.SBT_11522288 bus1=BBT4230612.1.2.3.0,bus2=BBT4376849.1.2.3.0,Phases=3,Linecode=BT810_BT810_4_3_4_3,Length=0.044059000,Units=km
new line.SBT_11522344 bus1=BBT3455005.1.2.3.0,bus2=BBT153116287.1.2.3.0,Phases=3,Linecode=BT810_BT810_4_3_4_3,Length=0.040025000,Units=km
new line.SBT_11522372 bus1=BBT3454998.1.2.3.0,bus2=BBT3455005.1.2.3.0,Phases=3,Linecode=BT810_BT810_4_3_4_3,Length=0.041025000,Units=km
new line.SBT_11522393 bus1=BBT3454991.1.2.3.0,bus2=BBT3454998.1.2.3.0,Phases=3,Linecode=BT803_BT803_4_3_4_3,Length=0.040025000,Units=km
new line.SBT_11522414 bus1=BBT3454984.1.2.3.0,bus2=BBT3454991.1.2.3.0,Phases=3,Linecode=BT803_BT803_4_3_4_3,Length=0.040062000,Units=km
new line.SBT_11522442 bus1=BBT3454977.1.2.3.0,bus2=BBT3454984.1.2.3.0,Phases=3,Linecode=BT803_BT803_4_3_4_3,Length=0.041013000,Units=km
new line.SBT_11522463 bus1=BBT3454893.1.2.3.0,bus2=BBT3454977.1.2.3.0,Phases=3,Linecode=BT803_BT803_4_3_4_3,Length=0.031074000,Units=km
new line.SBT_11522470 bus1=BBT3454893.1.2.3.0,bus2=BBT3516591.1.2.3.0,Phases=3,Linecode=BT810_BT810_4_3_4_3,Length=0.020006000,Units=km
new line.SBT_11522491 bus1=BBT3454900.1.2.3.0,bus2=BBT3454907.1.2.3.0,Phases=3,Linecode=BT810_BT810_4_3_4_3,Length=0.040025000,Units=km
new line.SBT_11522533 bus1=BBT3454907.1.2.3.0,bus2=BBT3454914.1.2.3.0,Phases=3,Linecode=BT810_BT810_4_3_4_3,Length=0.041061000,Units=km
new line.SBT_11522554 bus1=BBT3454914.1.2.3.0,bus2=BBT3454921.1.2.3.0,Phases=3,Linecode=BT810_BT810_4_3_4_3,Length=0.040062000,Units=km
new line.SBT_11522575 bus1=BBT3454921.1.2.3.0,bus2=BBT3516829.1.2.3.0,Phases=3,Linecode=BT810_BT810_4_3_4_3,Length=0.023353000,Units=km
new line.SBT_11522603 bus1=BBT3454928.1.2.3.0,bus2=BBT3454935.1.2.3.0,Phases=3,Linecode=BT810_BT810_4_3_4_3,Length=0.027303000,Units=km
new line.SBT_11522673 bus1=BBT3454963.1.2.3.0,bus2=BBT3454970.1.2.3.0,Phases=3,Linecode=BT803_BT803_4_3_4_3,Length=0.040025000,Units=km
new line.SBT_11522694 bus1=BBT3454956.1.2.3.0,bus2=BBT3454963.1.2.3.0,Phases=3,Linecode=BT803_BT803_4_3_4_3,Length=0.041013000,Units=km
new line.SBT_11522715 bus1=BBT3454949.1.2.3.0,bus2=BBT3454956.1.2.3.0,Phases=3,Linecode=BT803_BT803_4_3_4_3,Length=0.040025000,Units=km
new line.SBT_11522736 bus1=BBT3454942.1.2.3.0,bus2=BBT3454949.1.2.3.0,Phases=3,Linecode=BT803_BT803_4_3_4_3,Length=0.040025000,Units=km
new line.SBT_11522757 bus1=BBT3454872.1.2.3.0,bus2=BBT3454942.1.2.3.0,Phases=3,Linecode=BT803_BT803_4_3_4_3,Length=0.025326000,Units=km
new line.SBT_11522764 bus1=BBT3454872.1.2.3.0,bus2=BBT3455096.1.2.3.0,Phases=3,Linecode=BT803_BT803_4_3_4_3,Length=0.015302000,Units=km
new line.SBT_11522771 bus1=BBT3454872.1.2.3.0,bus2=BBT3454879.1.2.3.0,Phases=3,Linecode=BT803_BT803_4_3_4_3,Length=0.028169000,Units=km
new line.SBT_11522792 bus1=BBT3455096.1.2.3.0,bus2=BBT3455089.1.2.3.0,Phases=3,Linecode=BT810_BT810_4_3_4_3,Length=0.041025000,Units=km
new line.SBT_11522820 bus1=BBT3455089.1.2.3.0,bus2=BBT3455082.1.2.3.0,Phases=3,Linecode=BT810_BT810_4_3_4_3,Length=0.040025000,Units=km
new line.SBT_11522848 bus1=BBT4230619.1.2.3.0,bus2=BBT167030976.1.2.3.0,Phases=3,Linecode=BT803_BT803_4_3_4_3,Length=0.040025000,Units=km
new line.SBT_11522869 bus1=BBT3455075.1.2.3.0,bus2=BBT4230619.1.2.3.0,Phases=3,Linecode=BT803_BT803_4_3_4_3,Length=0.041025000,Units=km
new line.SBT_11522890 bus1=BBT3455075.1.2.3.0,bus2=BBT3455117.1.2.3.0,Phases=3,Linecode=BT803_BT803_4_3_4_3,Length=0.040025000,Units=km
new line.SBT_11522911 bus1=BBT3455117.1.2.3.0,bus2=BBT3455124.1.2.3.0,Phases=3,Linecode=BT803_BT803_4_3_4_3,Length=0.041025000,Units=km
new line.SBT_11522932 bus1=BBT4376849.1.2.3.0,bus2=BBT153116370.1.2.3.0,Phases=3,Linecode=BT810_BT810_4_3_4_3,Length=0.039025000,Units=km
new line.SBT_11522953 bus1=BBT3454340.1.2.3.0,bus2=BBT3454893.1.2.3.0,Phases=3,Linecode=BT803_BT803_4_3_4_3,Length=0.028801000,Units=km
new line.SBT_11522960 bus1=BBT3454340.1.2.3.0,bus2=BBT3454872.1.2.3.0,Phases=3,Linecode=BT803_BT803_4_3_4_3,Length=0.022098000,Units=km
new line.SBT_11522967 bus1=BBT3454333.1.2.3.0,bus2=BBT3454340.1.2.3.0,Phases=3,Linecode=BT513_BT513_7_3_1_3,Length=0.000501000,Units=km
new line.SBT_11523058 bus1=BBT3455033.1.2.3.0,bus2=BBT4230612.1.2.3.0,Phases=3,Linecode=BT810_BT810_4_3_4_3,Length=0.028452000,Units=km
new line.SBT_11523079 bus1=BBT3455026.1.2.3.0,bus2=BBT3455033.1.2.3.0,Phases=3,Linecode=BT810_BT810_4_3_4_3,Length=0.029842000,Units=km
new line.SBT_11523387 bus1=BBT3455019.1.2.3.0,bus2=BBT3455026.1.2.3.0,Phases=3,Linecode=BT803_BT803_4_3_4_3,Length=0.044014000,Units=km
new line.SBT_11523408 bus1=BBT3454284.1.2.3.0,bus2=BBT3455019.1.2.3.0,Phases=3,Linecode=BT803_BT803_4_3_4_3,Length=0.039012000,Units=km
new line.SBT_11523415 bus1=BBT3454277.1.2.3.0,bus2=BBT3454284.1.2.3.0,Phases=3,Linecode=BT513_BT513_7_3_1_3,Length=0.000501000,Units=km
new line.SBT_11523422 bus1=BBT3454284.1.2.3.0,bus2=BBT3455173.1.2.3.0,Phases=3,Linecode=BT803_BT803_4_3_4_3,Length=0.037012000,Units=km
new line.SBT_11523443 bus1=BBT3455173.1.2.3.0,bus2=BBT3455215.1.2.3.0,Phases=3,Linecode=BT810_BT810_4_3_4_3,Length=0.036890000,Units=km
new line.SBT_11523450 bus1=BBT3455173.1.2.3.0,bus2=BBT3455180.1.2.3.0,Phases=3,Linecode=BT803_BT803_4_3_4_3,Length=0.044059000,Units=km
new line.SBT_11523471 bus1=BBT3455215.1.2.3.0,bus2=BBT3455222.1.2.3.0,Phases=3,Linecode=BT810_BT810_4_3_4_3,Length=0.040373000,Units=km
new line.SBT_11523492 bus1=BBT3455222.1.2.3.0,bus2=BBT3635045.1.2.3.0,Phases=3,Linecode=BT810_BT810_4_3_4_3,Length=0.036136000,Units=km
new line.SBT_11523499 bus1=BBT3455222.1.2.3.0,bus2=BBT3455229.1.2.3.0,Phases=3,Linecode=BT810_BT810_4_3_4_3,Length=0.039063000,Units=km
new line.SBT_11523534 bus1=BBT3455243.1.2.3.0,bus2=BBT3455250.1.2.3.0,Phases=3,Linecode=BT803_BT803_4_3_4_3,Length=0.030026000,Units=km
new line.SBT_11523541 bus1=BBT3455257.1.2.3.0,bus2=BBT177097420.1.2.3.0,Phases=3,Linecode=BT803_BT803_4_3_4_3,Length=0.021007000,Units=km
new line.SBT_11523562 bus1=BBT3455180.1.2.3.0,bus2=BBT3455187.1.2.3.0,Phases=3,Linecode=BT810_BT810_4_3_4_3,Length=0.040025000,Units=km
new line.SBT_11529533 bus1=BBT3455439.1.2.3.0,bus2=BBT3455446.1.2.3.0,Phases=3,Linecode=BT803_BT803_4_3_4_3,Length=0.035011000,Units=km
new line.SBT_11529561 bus1=BBT3454270.1.2.3.0,bus2=BBT3455243.1.2.3.0,Phases=3,Linecode=BT803_BT803_4_3_4_3,Length=0.041207000,Units=km
new line.SBT_11529568 bus1=BBT3454270.1.2.3.0,bus2=BBT3455439.1.2.3.0,Phases=3,Linecode=BT803_BT803_4_3_4_3,Length=0.030604000,Units=km
new line.SBT_11529575 bus1=BBT3454263.1.2.3.0,bus2=BBT3454270.1.2.3.0,Phases=3,Linecode=BT513_BT513_7_3_1_3,Length=0.000501000,Units=km
new line.SBT_11529582 bus1=BBT3454270.1.2.3.0,bus2=BBT3455362.1.2.3.0,Phases=3,Linecode=BT803_BT803_4_3_4_3,Length=0.030026000,Units=km
new line.SBT_11529617 bus1=BBT3455446.1.2.3.0,bus2=BBT3455453.1.2.3.0,Phases=3,Linecode=BT803_BT803_4_3_4_3,Length=0.028240000,Units=km
new line.SBT_11529645 bus1=BBT3455453.1.2.3.0,bus2=BBT3455460.1.2.3.0,Phases=3,Linecode=BT810_BT810_4_3_4_3,Length=0.029026000,Units=km
new line.SBT_11529666 bus1=BBT3455460.1.2.3.0,bus2=BBT3455467.1.2.3.0,Phases=3,Linecode=BT810_BT810_4_3_4_3,Length=0.025640000,Units=km
new line.SBT_11529694 bus1=BBT3455467.1.2.3.0,bus2=BBT3455474.1.2.3.0,Phases=3,Linecode=BT810_BT810_4_3_4_3,Length=0.034420000,Units=km
new line.SBT_11529715 bus1=BBT3455474.1.2.3.0,bus2=BBT3455481.1.2.3.0,Phases=3,Linecode=BT810_BT810_4_3_4_3,Length=0.036631000,Units=km
new line.SBT_11529736 bus1=BBT3455481.1.2.3.0,bus2=BBT3455488.1.2.3.0,Phases=3,Linecode=BT810_BT810_4_3_4_3,Length=0.035239000,Units=km
new line.SBT_11529757 bus1=BBT3455404.1.2.3.0,bus2=BBT3455418.1.2.3.0,Phases=3,Linecode=BT810_BT810_4_3_4_3,Length=0.036412000,Units=km
new line.SBT_11529778 bus1=BBT3455418.1.2.3.0,bus2=BBT3455425.1.2.3.0,Phases=3,Linecode=BT810_BT810_4_3_4_3,Length=0.034420000,Units=km
new line.SBT_11529799 bus1=BBT3455425.1.2.3.0,bus2=BBT3455432.1.2.3.0,Phases=3,Linecode=BT810_BT810_4_3_4_3,Length=0.035011000,Units=km
new line.SBT_11529925 bus1=BBT3454802.1.2.3.0,bus2=BBT3454809.1.2.3.0,Phases=3,Linecode=BT810_BT810_4_3_4_3,Length=0.031074000,Units=km
new line.SBT_11529946 bus1=BBT3454795.1.2.3.0,bus2=BBT3454802.1.2.3.0,Phases=3,Linecode=BT810_BT810_4_3_4_3,Length=0.042025000,Units=km
new line.SBT_11529967 bus1=BBT3454781.1.2.3.0,bus2=BBT3454788.1.2.3.0,Phases=3,Linecode=BT803_BT803_4_3_4_3,Length=0.040025000,Units=km
new line.SBT_11530002 bus1=BBT3454781.1.2.3.0,bus2=BBT165431454.1.2.3.0,Phases=3,Linecode=BT803_BT803_4_3_4_3,Length=0.040025000,Units=km
new line.SBT_11530009 bus1=BBT165431454.1.2.3.0,bus2=BBT3454858.1.2.3.0,Phases=3,Linecode=BT803_BT803_4_3_4_3,Length=0.031026000,Units=km
new line.SBT_11530030 bus1=BBT3454858.1.2.3.0,bus2=BBT3454865.1.2.3.0,Phases=3,Linecode=BT810_BT810_4_3_4_3,Length=0.041025000,Units=km
new line.SBT_11530058 bus1=BBT3455229.1.2.3.0,bus2=BBT3455236.1.2.3.0,Phases=3,Linecode=BT810_BT810_4_3_4_3,Length=0.040025000,Units=km
new line.SBT_11530079 bus1=BBT3455264.1.2.3.0,bus2=BBT3455257.1.2.3.0,Phases=3,Linecode=BT803_BT803_4_3_4_3,Length=0.041025000,Units=km
new line.SBT_11530093 bus1=BBT3455264.1.2.3.0,bus2=BBT3455271.1.2.3.0,Phases=3,Linecode=BT803_BT803_4_3_4_3,Length=0.048025000,Units=km
new line.SBT_11530114 bus1=BBT3455278.1.2.3.0,bus2=BBT3455285.1.2.3.0,Phases=3,Linecode=BT810_BT810_4_3_4_3,Length=0.040025000,Units=km
new line.SBT_11530135 bus1=BBT3455285.1.2.3.0,bus2=BBT3455313.1.2.3.0,Phases=3,Linecode=BT810_BT810_4_3_4_3,Length=0.040025000,Units=km
new line.SBT_11530170 bus1=BBT3455362.1.2.3.0,bus2=BBT3455369.1.2.3.0,Phases=3,Linecode=BT803_BT803_4_3_4_3,Length=0.040025000,Units=km
new line.SBT_11530191 bus1=BBT3455369.1.2.3.0,bus2=BBT3455383.1.2.3.0,Phases=3,Linecode=BT803_BT803_4_3_4_3,Length=0.037025000,Units=km
new line.SBT_11530226 bus1=BBT3455383.1.2.3.0,bus2=BBT3455390.1.2.3.0,Phases=3,Linecode=BT803_BT803_4_3_4_3,Length=0.043013000,Units=km
new line.SBT_11530247 bus1=BBT3455390.1.2.3.0,bus2=BBT3455404.1.2.3.0,Phases=3,Linecode=BT810_BT810_4_3_4_3,Length=0.043025000,Units=km
new line.SBT_11530268 bus1=BBT3454774.1.2.3.0,bus2=BBT3454851.1.2.3.0,Phases=3,Linecode=BT803_BT803_4_3_4_3,Length=0.016005000,Units=km
new line.SBT_11530275 bus1=BBT3454774.1.2.3.0,bus2=BBT3454256.1.2.3.0,Phases=3,Linecode=BT803_BT803_4_3_4_3,Length=0.022030000,Units=km
new line.SBT_11530282 bus1=BBT3454774.1.2.3.0,bus2=BBT5237856.1.2.3.0,Phases=3,Linecode=BT803_BT803_4_3_4_3,Length=0.010053000,Units=km
new line.SBT_11530296 bus1=BBT3455187.1.2.3.0,bus2=BBT3455194.1.2.3.0,Phases=3,Linecode=BT810_BT810_4_3_4_3,Length=0.040025000,Units=km
new line.SBT_11530310 bus1=BBT3455194.1.2.3.0,bus2=BBT3455201.1.2.3.0,Phases=3,Linecode=BT810_BT810_4_3_4_3,Length=0.040025000,Units=km
new line.SBT_11530324 bus1=BBT3455201.1.2.3.0,bus2=BBT3455208.1.2.3.0,Phases=3,Linecode=BT810_BT810_4_3_4_3,Length=0.031010000,Units=km
new line.SBT_11530352 bus1=BBT3454256.1.2.3.0,bus2=BBT3454767.1.2.3.0,Phases=3,Linecode=BT803_BT803_4_3_4_3,Length=0.029164000,Units=km
new line.SBT_11530401 bus1=BBT3454816.1.2.3.0,bus2=BBT3454774.1.2.3.0,Phases=3,Linecode=BT803_BT803_4_3_4_3,Length=0.024091000,Units=km
new line.SBT_11530422 bus1=BBT3454823.1.2.3.0,bus2=BBT3454816.1.2.3.0,Phases=3,Linecode=BT803_BT803_4_3_4_3,Length=0.040025000,Units=km
new line.SBT_11530443 bus1=BBT3454830.1.2.3.0,bus2=BBT3454823.1.2.3.0,Phases=3,Linecode=BT803_BT803_4_3_4_3,Length=0.041061000,Units=km
new line.SBT_11530450 bus1=BBT3454249.1.2.3.0,bus2=BBT3454830.1.2.3.0,Phases=3,Linecode=BT513_BT513_7_3_1_3,Length=0.000501000,Units=km
new line.SBT_11530457 bus1=BBT3454830.1.2.3.0,bus2=BBT3454837.1.2.3.0,Phases=3,Linecode=BT803_BT803_4_3_4_3,Length=0.040012000,Units=km
new line.SBT_11530492 bus1=BBT3454837.1.2.3.0,bus2=BBT3454844.1.2.3.0,Phases=3,Linecode=BT810_BT810_4_3_4_3,Length=0.039127000,Units=km
new line.SBT_12790107 bus1=BBT4024567.1.2.3.0,bus2=BBT4024574.1.2.3.0,Phases=3,Linecode=BT803_BT803_4_3_4_3,Length=0.036726000,Units=km
new line.SBT_12790121 bus1=BBT4024574.1.2.3.0,bus2=BBT4024595.1.2.3.0,Phases=3,Linecode=BT810_BT810_4_3_4_3,Length=0.033252000,Units=km
new line.SBT_12790135 bus1=BBT4024595.1.2.3.0,bus2=BBT4024602.1.2.3.0,Phases=3,Linecode=BT810_BT810_4_3_4_3,Length=0.026841000,Units=km
new line.SBT_12790156 bus1=BBT4024602.1.2.3.0,bus2=BBT4024609.1.2.3.0,Phases=3,Linecode=BT810_BT810_4_3_4_3,Length=0.030026000,Units=km
new line.SBT_12790177 bus1=BBT4024609.1.2.3.0,bus2=BBT114922754.1.2.3.0,Phases=3,Linecode=BT810_BT810_4_3_4_3,Length=0.030473000,Units=km
new line.SBT_12790212 bus1=BBT4024623.1.2.3.0,bus2=BBT172324933.1.2.3.0,Phases=3,Linecode=BT810_BT810_4_3_4_3,Length=0.031410000,Units=km
new line.SBT_12790429 bus1=BBT4024630.1.2.3.0,bus2=BBT4024623.1.2.3.0,Phases=3,Linecode=BT810_BT810_4_3_4_3,Length=0.033611000,Units=km
new line.SBT_12790492 bus1=BBT4024469.1.2.3.0,bus2=BBT4024630.1.2.3.0,Phases=3,Linecode=BT108_BT108_7_3_1_3,Length=0.038612000,Units=km
new line.SBT_12790499 bus1=BBT4024462.1.2.3.0,bus2=BBT4024469.1.2.3.0,Phases=3,Linecode=BT513_BT513_7_3_1_3,Length=0.000501000,Units=km
new line.SBT_12790506 bus1=BBT4024469.1.2.3.0,bus2=BBT4024497.1.2.3.0,Phases=3,Linecode=BT803_BT803_4_3_4_3,Length=0.038612000,Units=km
new line.SBT_12790520 bus1=BBT4024497.1.2.3.0,bus2=BBT4645509.1.2.3.0,Phases=3,Linecode=BT810_BT810_4_3_4_3,Length=0.045621000,Units=km
new line.SBT_13431825 bus1=BBT4221064.1.2.0,bus2=BBT4221071.1.2.0,Phases=2,Linecode=BT807_BT807_4_2_3_2,Length=0.020622000,Units=km
new line.SBT_13431839 bus1=BBT4220959.1.2.0,bus2=BBT4221064.1.2.0,Phases=2,Linecode=BT807_BT807_4_2_3_2,Length=0.033432000,Units=km