new load.3009012172M1 bus1=BMT179839469.1.2.3.0,Phases=3,kv=13.800000000,kW=299.27364,pf=0.92,Vminpu=0.93,Vmaxpu=1.5,model=1,daily=MT5_1,status=variable
new load.3009019918M1 bus1=BMT165676082.1.2.3.0,Phases=3,kv=13.800000000,kW=0.00152,pf=0.92,Vminpu=0.93,Vmaxpu=1.5,model=1,daily=MT1_1,status=variable
new load.3010250262M1 bus1=BMT165676069.1.2.3.0,Phases=3,kv=13.800000000,kW=0.00152,pf=0.92,Vminpu=0.93,Vmaxpu=1.5,model=1,daily=MT1_1,status=variable
new load.3010830716M1 bus1=BMT165676071.1.2.3.0,Phases=3,kv=13.800000000,kW=21.40524,pf=0.92,Vminpu=0.93,Vmaxpu=1.5,model=1,daily=MT2_1,status=variable
new load.3011381264M1 bus1=BMT165676067.1.2.3.0,Phases=3,kv=13.800000000,kW=2.66088,pf=0.92,Vminpu=0.93,Vmaxpu=1.5,model=1,daily=MT2_1,status=variable
new load.3011810040M1 bus1=BMT165676046.1.2.3.0,Phases=3,kv=13.800000000,kW=6.68174,pf=0.92,Vminpu=0.93,Vmaxpu=1.5,model=1,daily=MT2_1,status=variable
new load.3013485554M1 bus1=BMT166748802.1.2.3.0,Phases=3,kv=13.800000000,kW=140.01832,pf=0.92,Vminpu=0.93,Vmaxpu=1.5,model=1,daily=MT3_1,status=variable
new load.3013774626M1 bus1=BMT171047813.1.2.3.0,Phases=3,kv=13.800000000,kW=213.23296,pf=0.92,Vminpu=0.93,Vmaxpu=1.5,model=1,daily=MT4_1,status=variable
new load.3013925047M1 bus1=BMT166748802.1.2.3.0,Phases=3,kv=13.800000000,kW=0.00152,pf=0.92,Vminpu=0.93,Vmaxpu=1.5,model=1,daily=MT1_1,status=variable
new load.3014337693M1 bus1=BMT171047813.1.2.3.0,Phases=3,kv=13.800000000,kW=0.00152,pf=0.92,Vminpu=0.93,Vmaxpu=1.5,model=1,daily=MT1_1,status=variable
new load.3014745497M1 bus1=BMT179839469.1.2.3.0,Phases=3,kv=13.800000000,kW=0.00152,pf=0.92,Vminpu=0.93,Vmaxpu=1.5,model=1,daily=MT1_1,status=variable
