new line.SMT_10674462 bus1=BMT246338B.1.2.3,bus2=BMT179260029.1.2.3,Phases=3,Linecode=CABA08_3_3_3,Length=0.010053000,Units=km
new line.SMT_10674469 bus1=BMT179260029.1.2.3,bus2=BMT179260028.1.2.3,Phases=3,Linecode=CABA08_3_3_3,Length=0.017123000,Units=km
new line.SMT_11167388 bus1=BMT250531B.1.2.3,bus2=BMT250538B.1.2.3,Phases=3,Linecode=CABA06_3_3_3,Length=0.031395000,Units=km
new line.SMT_11167395 bus1=BMT250538B.1.2.3,bus2=BMT250552B.1.2.3,Phases=3,Linecode=CABA06_3_3_3,Length=0.034011000,Units=km
new line.SMT_11167402 bus1=BMT250552B.1.2.3,bus2=BMT165675940.1.2.3,Phases=3,Linecode=CABA06_3_3_3,Length=0.033252000,Units=km
new line.SMT_11516639 bus1=BMT98889695.1.2.3,bus2=BMT165676052.1.2.3,Phases=3,Linecode=CAB108_3_3_3,Length=0.014565000,Units=km
new line.SMT_11516646 bus1=BMT165676051.1.2.3,bus2=BMT165676052.1.2.3,Phases=3,Linecode=CAB108_3_3_3,Length=0.014323000,Units=km
new line.SMT_11516653 bus1=BMT165676066.1.2.3,bus2=BMT165676067.1.2.3,Phases=3,Linecode=CAB902_4_3_3,Length=0.008547000,Units=km
new line.SMT_11713129 bus1=BMT3509017B.1.2.3,bus2=BMT135877023.1.2.3,Phases=3,Linecode=CABA06_3_3_3,Length=0.030473000,Units=km
new line.SMT_11713136 bus1=BMT3509031B.1.2.3,bus2=BMT135877023.1.2.3,Phases=3,Linecode=CABA06_3_3_3,Length=0.007813000,Units=km
new line.SMT_11713724 bus1=BMT177105186.1.2.3,bus2=BMT7896849B.1.2.3,Phases=3,Linecode=CABA06_3_3_3,Length=0.041882000,Units=km
new line.SMT_11713731 bus1=BMT7896849B.1.2.3,bus2=BMT114928487.1.2.3,Phases=3,Linecode=CABA06_3_3_3,Length=0.041882000,Units=km
new line.SMT_11713738 bus1=BMT169943852.1.2.3,bus2=BMT169943851.1.2.3,Phases=3,Linecode=CABA06_3_3_3,Length=0.035479000,Units=km
new line.SMT_11713745 bus1=BMT169943850.1.2.3,bus2=BMT169943848.1.2.3,Phases=3,Linecode=CABA06_3_3_3,Length=0.039063000,Units=km
new line.SMT_11713752 bus1=BMT169943848.1.2.3,bus2=BMT7896905B.1.2.3,Phases=3,Linecode=CABA06_3_3_3,Length=0.038599000,Units=km
new line.SMT_11713759 bus1=BMT7896905B.1.2.3,bus2=BMT7896912B.1.2.3,Phases=3,Linecode=CABA06_3_3_3,Length=0.037455000,Units=km
new line.SMT_11713766 bus1=BMT7896912B.1.2.3,bus2=BMT169943845.1.2.3,Phases=3,Linecode=CABA06_3_3_3,Length=0.037214000,Units=km
new line.SMT_11713773 bus1=BMT169943845.1.2.3,bus2=BMT169943844.1.2.3,Phases=3,Linecode=CABA06_3_3_3,Length=0.039673000,Units=km
new line.SMT_11713780 bus1=BMT169943844.1.2.3,bus2=BMT7896968B.1.2.3,Phases=3,Linecode=CABA06_3_3_3,Length=0.017123000,Units=km
new line.SMT_11713787 bus1=BMT7896968B.1.2.3,bus2=BMT169943843.1.2.3,Phases=3,Linecode=CABA06_3_3_3,Length=0.036247000,Units=km
new line.SMT_11713794 bus1=BMT115016813.1.2.3,bus2=BMT7896996B.1.2.3,Phases=3,Linecode=CABA06_3_3_3,Length=0.040829000,Units=km
new line.SMT_11713801 bus1=BMT7896996B.1.2.3,bus2=BMT165414138.1.2.3,Phases=3,Linecode=CABA06_3_3_3,Length=0.026428000,Units=km
new line.SMT_11713836 bus1=BMT165414138.1.2.3,bus2=BMT7897038B.1.2.3,Phases=3,Linecode=CABA06_3_3_3,Length=0.031074000,Units=km
new line.SMT_11713843 bus1=BMT7897038B.1.2.3,bus2=BMT7897087B.1.2.3,Phases=3,Linecode=CABA06_3_3_3,Length=0.039063000,Units=km
new line.SMT_11713850 bus1=BMT7897087B.1.2.3,bus2=BMT7897094B.1.2.3,Phases=3,Linecode=CABA06_3_3_3,Length=0.036412000,Units=km
new line.SMT_11713857 bus1=BMT7897094B.1.2.3,bus2=BMT165414136.1.2.3,Phases=3,Linecode=CABA06_3_3_3,Length=0.035239000,Units=km
new line.SMT_11713864 bus1=BMT165414136.1.2.3,bus2=BMT7897129B.1.2.3,Phases=3,Linecode=CABA06_3_3_3,Length=0.034449000,Units=km
new line.SMT_11713871 bus1=BMT7897129B.1.2.3,bus2=BMT7897136B.1.2.3,Phases=3,Linecode=CABA06_3_3_3,Length=0.028645000,Units=km
new line.SMT_11713878 bus1=BMT135877023.1.2.3,bus2=BMT114920829.1.2.3,Phases=3,Linecode=CABA06_3_3_3,Length=0.024605000,Units=km
new line.SMT_11713885 bus1=BMT150342816.1.2.3,bus2=BMT150342817.1.2.3,Phases=3,Linecode=CABA06_3_3_3,Length=0.028187000,Units=km
new line.SMT_11713913 bus1=BMT165414132.1.2.3,bus2=BMT7897339B.1.2.3,Phases=3,Linecode=CABA06_3_3_3,Length=0.048388000,Units=km
new line.SMT_11713920 bus1=BMT7897339B.1.2.3,bus2=BMT165414133.1.2.3,Phases=3,Linecode=CABA06_3_3_3,Length=0.022679000,Units=km
new line.SMT_11713927 bus1=BMT165414133.1.2.3,bus2=BMT7897661B.1.2.3,Phases=3,Linecode=CABA06_3_3_3,Length=0.032706000,Units=km
new line.SMT_11713934 bus1=BMT7897661B.1.2.3,bus2=BMT7897668B.1.2.3,Phases=3,Linecode=CABA06_3_3_3,Length=0.024091000,Units=km
new line.SMT_11713941 bus1=BMT7897668B.1.2.3,bus2=BMT7897675B.1.2.3,Phases=3,Linecode=CABA06_3_3_3,Length=0.045202000,Units=km
new line.SMT_11713948 bus1=BMT7897675B.1.2.3,bus2=BMT7897682B.1.2.3,Phases=3,Linecode=CABA06_3_3_3,Length=0.033252000,Units=km
new line.SMT_11713955 bus1=BMT7897682B.1.2.3,bus2=BMT7897689B.1.2.3,Phases=3,Linecode=CABA06_3_3_3,Length=0.028080000,Units=km
new line.SMT_11713962 bus1=BMT7897689B.1.2.3,bus2=BMT7897696B.1.2.3,Phases=3,Linecode=CABA06_3_3_3,Length=0.027175000,Units=km
new line.SMT_11713969 bus1=BMT7897696B.1.2.3,bus2=BMT165414134.1.2.3,Phases=3,Linecode=CABA06_3_3_3,Length=0.039369000,Units=km
new line.SMT_11713976 bus1=BMT165414134.1.2.3,bus2=BMT7897724B.1.2.3,Phases=3,Linecode=CABA06_3_3_3,Length=0.038961000,Units=km
new line.SMT_11714046 bus1=BMT7897724B.1.2.3,bus2=BMT7897731B.1.2.3,Phases=3,Linecode=CABA06_3_3_3,Length=0.024847000,Units=km
new line.SMT_11714151 bus1=BMT7897731B.1.2.3,bus2=BMT7897976B.1.2.3,Phases=3,Linecode=CABA06_3_3_3,Length=0.033432000,Units=km
new line.SMT_11714158 bus1=BMT7897976B.1.2.3,bus2=BMT7897983B.1.2.3,Phases=3,Linecode=CABA06_3_3_3,Length=0.031155000,Units=km
new line.SMT_10650620 bus1=BMT2466836B.1.2.3,bus2=BMT2574181B.1.2.3,Phases=3,Linecode=CABA06_3_3_3,Length=0.030880000,Units=km
new line.SMT_10650669 bus1=BMT2574181B.1.2.3,bus2=BMT2574188B.1.2.3,Phases=3,Linecode=CABA06_3_3_3,Length=0.030093000,Units=km
new line.SMT_10650676 bus1=BMT2574188B.1.2.3,bus2=BMT2574195B.1.2.3,Phases=3,Linecode=CABA06_3_3_3,Length=0.028240000,Units=km
new line.SMT_10650704 bus1=BMT2574195B.1.2.3,bus2=BMT171431964.1.2.3,Phases=3,Linecode=CABA06_3_3_3,Length=0.031775000,Units=km
new line.SMT_11755724 bus1=BMT150342817.1.2.3,bus2=BMT150342818.1.2.3,Phases=3,Linecode=CAB609_3_3_3,Length=0.005002000,Units=km
new line.SMT_11755738 bus1=BMT150342818.1.2.3,bus2=BMT150342819.1.2.3,Phases=3,Linecode=CAB609_3_3_3,Length=0.046630000,Units=km
new line.SMT_11755745 bus1=BMT150342819.1.2.3,bus2=BMT117746568.1.2.3,Phases=3,Linecode=CAB609_3_3_3,Length=0.005002000,Units=km
new line.SMT_11950107 bus1=BMT171047808.1.2.3,bus2=BMT165676075.1.2.3,Phases=3,Linecode=CAB103_3_3_3,Length=0.006327000,Units=km
new line.SMT_11950114 bus1=BMT165676075.1.2.3,bus2=BMT165676076.1.2.3,Phases=3,Linecode=CAB103_3_3_3,Length=0.009852000,Units=km
new line.SMT_11950149 bus1=BMT165676083.1.2.3,bus2=BMT165676084.1.2.3,Phases=3,Linecode=CAB902_4_3_3,Length=0.005387000,Units=km
new line.SMT_12305104 bus1=BMT179839540.1.2.3,bus2=BMT2631588B.1.2.3,Phases=3,Linecode=CABA08_3_3_3,Length=0.036136000,Units=km
new line.SMT_12305105 bus1=BMT2631588B.1.2.3,bus2=BMT2631595B.1.2.3,Phases=3,Linecode=CABA08_3_3_3,Length=0.034839000,Units=km
new line.SMT_12630231 bus1=BMT167383980.2,bus2=BMT9239992B.2,Phases=1,Linecode=CAB103_3_1_1,Length=0.059525000,Units=km
new line.SMT_12630232 bus1=BMT9239992B.2,bus2=BMT165676188.2,Phases=1,Linecode=CAB103_3_1_1,Length=0.155308000,Units=km
new line.SMT_12931678 bus1=BMT177097405.1.2.3,bus2=BMT3084873B.1.2.3,Phases=3,Linecode=CABA08_3_3_3,Length=0.021007000,Units=km
new line.SMT_12931679 bus1=BMT3084873B.1.2.3,bus2=BMT177097407.1.2.3,Phases=3,Linecode=CABA08_3_3_3,Length=0.041025000,Units=km
new line.SMT_12931949 bus1=BMT177105192.1.2.3,bus2=BMT2631609B.1.2.3,Phases=3,Linecode=CABA06_3_3_3,Length=0.040175000,Units=km
new line.SMT_12931952 bus1=BMT2631609B.1.2.3,bus2=BMT2631616B.1.2.3,Phases=3,Linecode=CABA06_3_3_3,Length=0.039572000,Units=km
new line.SMT_12931953 bus1=BMT2631616B.1.2.3,bus2=BMT2631623B.1.2.3,Phases=3,Linecode=CABA06_3_3_3,Length=0.042392000,Units=km
new line.SMT_12931956 bus1=BMT2631623B.1.2.3,bus2=BMT3715013B.1.2.3,Phases=3,Linecode=CABA06_3_3_3,Length=0.028027000,Units=km
new line.SMT_12931960 bus1=BMT3715013B.1.2.3,bus2=BMT3715020B.1.2.3,Phases=3,Linecode=CABA06_3_3_3,Length=0.029420000,Units=km
new line.SMT_12931963 bus1=BMT3715020B.1.2.3,bus2=BMT177105194.1.2.3,Phases=3,Linecode=CABA06_3_3_3,Length=0.027812000,Units=km
new line.SMT_12976855 bus1=BMT2928815B.1.2.3,bus2=BMT178358710.1.2.3,Phases=3,Linecode=CABA06_3_3_3,Length=0.008003000,Units=km
new line.SMT_12976856 bus1=BMT178358710.1.2.3,bus2=BMT2928969B.1.2.3,Phases=3,Linecode=CABA06_3_3_3,Length=0.038064000,Units=km
new line.SMT_13007376 bus1=BMT179260029.1.2.3,bus2=BMT179260031.1.2.3,Phases=3,Linecode=CABA08_3_3_3,Length=0.029623000,Units=km
new line.SMT_13007377 bus1=BMT179259554.1.2.3,bus2=BMT179260644.1.2.3,Phases=3,Linecode=CABA08_3_3_3,Length=0.010003000,Units=km
new line.SMT_13007378 bus1=BMT179260642.1.2.3,bus2=BMT179260644.1.2.3,Phases=3,Linecode=CABA08_3_3_3,Length=0.022568000,Units=km
new line.SMT_13007379 bus1=BMT179260644.1.2.3,bus2=BMT179260645.1.2.3,Phases=3,Linecode=CABA08_3_3_3,Length=0.011406000,Units=km
new line.SMT_13007380 bus1=BMT179260645.1.2.3,bus2=BMT179260646.1.2.3,Phases=3,Linecode=CABA08_3_3_3,Length=0.013043000,Units=km
new line.SMT_13007381 bus1=BMT179260645.1.2.3,bus2=BMT9586889B.1.2.3,Phases=3,Linecode=CABA08_3_3_3,Length=0.021031000,Units=km
new line.SMT_13007382 bus1=BMT9586889B.1.2.3,bus2=BMT246345B.1.2.3,Phases=3,Linecode=CABA08_3_3_3,Length=0.009903000,Units=km
new line.SMT_13007383 bus1=BMT179260029.1.2.3,bus2=BMT246345D.1.2.3,Phases=3,Linecode=CABA08_3_3_3,Length=0.017006000,Units=km
new line.SMT_13007384 bus1=BMT246345D.1.2.3,bus2=BMT246359D.1.2.3,Phases=3,Linecode=CABA08_3_3_3,Length=0.034449000,Units=km
new line.SMT_13007385 bus1=BMT246359D.1.2.3,bus2=BMT2957872D.1.2.3,Phases=3,Linecode=CABA08_3_3_3,Length=0.032213000,Units=km
new line.SMT_13007386 bus1=BMT2957872D.1.2.3,bus2=BMT246373D.1.2.3,Phases=3,Linecode=CABA08_3_3_3,Length=0.027740000,Units=km
new line.SMT_13007387 bus1=BMT246373D.1.2.3,bus2=BMT246387D.1.2.3,Phases=3,Linecode=CABA08_3_3_3,Length=0.035788000,Units=km
new line.SMT_13007388 bus1=BMT246387D.1.2.3,bus2=BMT179260032.1.2.3,Phases=3,Linecode=CABA08_3_3_3,Length=0.036260000,Units=km
new line.SMT_13007389 bus1=BMT179259709.1.2.3,bus2=BMT9586896B.1.2.3,Phases=3,Linecode=CABA08_3_3_3,Length=0.006327000,Units=km
new line.SMT_13007391 bus1=BMT179260032.1.2.3,bus2=BMT9586925D.1.2.3,Phases=3,Linecode=CABA08_3_3_3,Length=0.021939000,Units=km
new line.SMT_13007392 bus1=BMT9586925D.1.2.3,bus2=BMT179260033.1.2.3,Phases=3,Linecode=CABA08_3_3_3,Length=0.021384000,Units=km
new line.SMT_13007393 bus1=BMT179260647.1.2.3,bus2=BMT9586925B.1.2.3,Phases=3,Linecode=CABA08_3_3_3,Length=0.021939000,Units=km
new line.SMT_13007394 bus1=BMT9586925B.1.2.3,bus2=BMT9586926B.1.2.3,Phases=3,Linecode=CABA08_3_3_3,Length=0.023202000,Units=km
new line.SMT_13007397 bus1=BMT9586925B.1.2.3,bus2=BMT9586928B.1.2.3,Phases=3,Linecode=CABA08_3_3_3,Length=0.021384000,Units=km
new line.SMT_12093467 bus1=BMT177105188.1.2.3,bus2=BMT177105190.1.2.3,Phases=3,Linecode=CABA06_3_3_3,Length=0.044308000,Units=km
new line.SMT_12093474 bus1=BMT177105190.1,bus2=BMT2534323B.1,Phases=1,Linecode=CAB103_3_1_1,Length=0.044735000,Units=km
new line.SMT_12093481 bus1=BMT2534323B.1,bus2=BMT2534330B.1,Phases=1,Linecode=CAB103_3_1_1,Length=0.044735000,Units=km
new line.SMT_12093488 bus1=BMT2534330B.1,bus2=BMT2534337B.1,Phases=1,Linecode=CAB103_3_1_1,Length=0.044735000,Units=km
new line.SMT_12093495 bus1=BMT2534337B.1,bus2=BMT2534344B.1,Phases=1,Linecode=CAB103_3_1_1,Length=0.045665000,Units=km
new line.SMT_12093502 bus1=BMT2534344B.1,bus2=BMT2534351B.1,Phases=1,Linecode=CAB103_3_1_1,Length=0.043843000,Units=km
new line.SMT_12093509 bus1=BMT2534351B.1,bus2=BMT2534358B.1,Phases=1,Linecode=CAB103_3_1_1,Length=0.045632000,Units=km
new line.SMT_12093516 bus1=BMT2534358B.1,bus2=BMT177105191.1,Phases=1,Linecode=CAB103_3_1_1,Length=0.045191000,Units=km
new line.SMT_12105437 bus1=BMT171431964.1.2.3,bus2=BMT2574412B.1.2.3,Phases=3,Linecode=CABA06_3_3_3,Length=0.025950000,Units=km
new line.SMT_12105451 bus1=BMT2574412B.1.2.3,bus2=BMT171431965.1.2.3,Phases=3,Linecode=CABA06_3_3_3,Length=0.030897000,Units=km
new line.SMT_12354657 bus1=BMT2930880B.1.2.3,bus2=BMT165676107.1.2.3,Phases=3,Linecode=CABA08_3_3_3,Length=0.018034000,Units=km
new line.SMT_12572609 bus1=BMT7898004B.1.2.3,bus2=BMT9182111B.1.2.3,Phases=3,Linecode=CABA06_3_3_3,Length=0.022368000,Units=km
new line.SMT_12572610 bus1=BMT9182111B.1.2.3,bus2=BMT7898025B.1.2.3,Phases=3,Linecode=CABA06_3_3_3,Length=0.017210000,Units=km
new line.SMT_12573057 bus1=BMT175349694.1.2.3,bus2=BMT175349697.1.2.3,Phases=3,Linecode=CABA06_3_3_3,Length=0.040025000,Units=km
new line.SMT_12961569 bus1=BMT245820B.1.2.3,bus2=BMT177941010.1.2.3,Phases=3,Linecode=CABA08_3_3_3,Length=0.014005000,Units=km
new line.SMT_12961570 bus1=BMT177942175.1.2.3,bus2=BMT177942173.1.2.3,Phases=3,Linecode=CABA08_3_3_3,Length=0.018034000,Units=km
new line.SMT_12961612 bus1=BMT177941010.1.2.3,bus2=BMT9541837D.1.2.3,Phases=3,Linecode=CABA08_3_3_3,Length=0.014427000,Units=km
new line.SMT_12961614 bus1=BMT177942173.1.2.3,bus2=BMT9541837B.1.2.3,Phases=3,Linecode=CABA08_3_3_3,Length=0.010820000,Units=km
new line.SMT_12961617 bus1=BMT9541837D.1.2.3,bus2=BMT248109D.1.2.3,Phases=3,Linecode=CABA08_3_3_3,Length=0.019032000,Units=km
new line.SMT_12961618 bus1=BMT9541837B.1.2.3,bus2=BMT248109B.1.2.3,Phases=3,Linecode=CABA08_3_3_3,Length=0.019032000,Units=km
new line.SMT_12961619 bus1=BMT248109B.1.2.3,bus2=BMT248116B.1.2.3,Phases=3,Linecode=CABA08_3_3_3,Length=0.032660000,Units=km
new line.SMT_12961620 bus1=BMT248109D.1.2.3,bus2=BMT248116D.1.2.3,Phases=3,Linecode=CABA08_3_3_3,Length=0.032660000,Units=km
new line.SMT_12961622 bus1=BMT248116B.1.2.3,bus2=BMT248123B.1.2.3,Phases=3,Linecode=CABA08_3_3_3,Length=0.030880000,Units=km
new line.SMT_12961625 bus1=BMT248116D.1.2.3,bus2=BMT248123D.1.2.3,Phases=3,Linecode=CABA08_3_3_3,Length=0.030880000,Units=km
new line.SMT_12961626 bus1=BMT248123B.1.2.3,bus2=BMT248130B.1.2.3,Phases=3,Linecode=CABA08_3_3_3,Length=0.032660000,Units=km
new line.SMT_12961628 bus1=BMT248123D.1.2.3,bus2=BMT248130D.1.2.3,Phases=3,Linecode=CABA08_3_3_3,Length=0.032660000,Units=km
new line.SMT_12961630 bus1=BMT248130D.1.2.3,bus2=BMT177941861.1.2.3,Phases=3,Linecode=CABA08_3_3_3,Length=0.033626000,Units=km
new line.SMT_12961631 bus1=BMT248130B.1.2.3,bus2=BMT177942176.1.2.3,Phases=3,Linecode=CABA08_3_3_3,Length=0.033626000,Units=km
new line.SMT_12961636 bus1=BMT177941861.1.2.3,bus2=BMT177941862.1.2.3,Phases=3,Linecode=CABA08_3_3_3,Length=0.033551000,Units=km
new line.SMT_12961638 bus1=BMT177942176.1.2.3,bus2=BMT248144B.1.2.3,Phases=3,Linecode=CABA08_3_3_3,Length=0.033551000,Units=km
new line.SMT_12961643 bus1=BMT248144B.1.2.3,bus2=BMT177942177.1.2.3,Phases=3,Linecode=CABA08_3_3_3,Length=0.015658000,Units=km
new line.SMT_13008535 bus1=BMT179839469.1.2.3,bus2=BMT179839470.1.2.3,Phases=3,Linecode=CAB609_5_3_3,Length=0.010053000,Units=km
new line.SMT_304375 bus1=BMT165676190.2,bus2=BMT3224439B.2,Phases=1,Linecode=CAB103_3_1_1,Length=0.060027000,Units=km
new line.SMT_347355 bus1=BMT240255B.1.2.3,bus2=BMT240262B.1.2.3,Phases=3,Linecode=CABA08_3_3_3,Length=0.035858000,Units=km
new line.SMT_347362 bus1=BMT240262B.1.2.3,bus2=BMT165675926.1.2.3,Phases=3,Linecode=CABA08_3_3_3,Length=0.037602000,Units=km
new line.SMT_347369 bus1=BMT165675926.1.2.3,bus2=BMT165675927.1.2.3,Phases=3,Linecode=CABA08_3_3_3,Length=0.036727000,Units=km
new line.SMT_347376 bus1=BMT165675928.1.2.3,bus2=BMT165675929.1.2.3,Phases=3,Linecode=CABA08_3_3_3,Length=0.032259000,Units=km
new line.SMT_347383 bus1=BMT165675929.1.2.3,bus2=BMT165675930.1.2.3,Phases=3,Linecode=CABA08_3_3_3,Length=0.035858000,Units=km
new line.SMT_347390 bus1=BMT165675934.1.2.3,bus2=BMT2572452B.1.2.3,Phases=3,Linecode=CABA06_3_3_3,Length=0.031916000,Units=km
new line.SMT_347397 bus1=BMT165675930.1.2.3,bus2=BMT165675931.1.2.3,Phases=3,Linecode=CABA06_3_3_3,Length=0.018364000,Units=km
new line.SMT_347404 bus1=BMT165675930.1.2.3,bus2=BMT240304B.1.2.3,Phases=3,Linecode=CABA08_3_3_3,Length=0.034493000,Units=km
new line.SMT_347411 bus1=BMT165675930.1.2.3,bus2=BMT240311B.1.2.3,Phases=3,Linecode=CAB103_3_3_3,Length=0.035366000,Units=km
new line.SMT_347418 bus1=BMT240304B.1.2.3,bus2=BMT165675932.1.2.3,Phases=3,Linecode=CABA08_3_3_3,Length=0.034493000,Units=km
new line.SMT_347425 bus1=BMT240311B.1.2.3,bus2=BMT248207B.1.2.3,Phases=3,Linecode=CAB103_3_3_3,Length=0.030026000,Units=km
new line.SMT_11714165 bus1=BMT7897983B.1.2.3,bus2=BMT165414135.1.2.3,Phases=3,Linecode=CABA06_3_3_3,Length=0.028293000,Units=km
new line.SMT_11714172 bus1=BMT165414135.1.2.3,bus2=BMT7898004B.1.2.3,Phases=3,Linecode=CABA06_3_3_3,Length=0.036903000,Units=km
new line.SMT_11714354 bus1=BMT7898354B.1.2.3,bus2=BMT7898361B.1.2.3,Phases=3,Linecode=CABA06_3_3_3,Length=0.040472000,Units=km
new line.SMT_11714361 bus1=BMT7898361B.1.2.3,bus2=BMT169943846.1.2.3,Phases=3,Linecode=CABA06_3_3_3,Length=0.039420000,Units=km
new line.SMT_11714368 bus1=BMT169943846.1.2.3,bus2=BMT7898375B.1.2.3,Phases=3,Linecode=CABA06_3_3_3,Length=0.030620000,Units=km
new line.SMT_11714375 bus1=BMT7898375B.1.2.3,bus2=BMT7898382B.1.2.3,Phases=3,Linecode=CABA06_3_3_3,Length=0.032290000,Units=km
new line.SMT_11714382 bus1=BMT7898382B.1.2.3,bus2=BMT7898319B.1.2.3,Phases=3,Linecode=CABA06_3_3_3,Length=0.038339000,Units=km
new line.SMT_11714389 bus1=BMT7898137B.1.2.3,bus2=BMT165414136.1.2.3,Phases=3,Linecode=CABA06_3_3_3,Length=0.028801000,Units=km
new line.SMT_11714522 bus1=BMT169943844.1.2.3,bus2=BMT7898354B.1.2.3,Phases=3,Linecode=CABA06_3_3_3,Length=0.036067000,Units=km
new line.SMT_11714529 bus1=BMT7898319B.1.2.3,bus2=BMT7898312B.1.2.3,Phases=3,Linecode=CABA06_3_3_3,Length=0.031155000,Units=km
new line.SMT_11714536 bus1=BMT7898312B.1.2.3,bus2=BMT7898263B.1.2.3,Phases=3,Linecode=CABA06_3_3_3,Length=0.032026000,Units=km
new line.SMT_11714543 bus1=BMT7898263B.1.2.3,bus2=BMT7898277B.1.2.3,Phases=3,Linecode=CABA06_3_3_3,Length=0.036067000,Units=km
new line.SMT_11714557 bus1=BMT7898277B.1.2.3,bus2=BMT169943847.1.2.3,Phases=3,Linecode=CABA06_3_3_3,Length=0.036781000,Units=km
new line.SMT_11714564 bus1=BMT165414135.1.2.3,bus2=BMT165414137.1.2.3,Phases=3,Linecode=CABA06_3_3_3,Length=0.032026000,Units=km
new line.SMT_11714781 bus1=BMT169943845.1.2.3,bus2=BMT7898340B.1.2.3,Phases=3,Linecode=CABA06_3_3_3,Length=0.028240000,Units=km
new line.SMT_11714788 bus1=BMT7898340B.1.2.3,bus2=BMT7898347B.1.2.3,Phases=3,Linecode=CABA06_3_3_3,Length=0.018607000,Units=km
new line.SMT_11714795 bus1=BMT7898347B.1.2.3,bus2=BMT169943849.1.2.3,Phases=3,Linecode=CABA06_3_3_3,Length=0.036371000,Units=km
new line.SMT_11714879 bus1=BMT7897136B.1.2.3,bus2=BMT7897143B.1.2.3,Phases=3,Linecode=CABA06_3_3_3,Length=0.035788000,Units=km
new line.SMT_11714886 bus1=BMT7897143B.1.2.3,bus2=BMT7897150B.1.2.3,Phases=3,Linecode=CABA06_3_3_3,Length=0.037173000,Units=km
new line.SMT_11715236 bus1=BMT7897150B.1.2.3,bus2=BMT7899642B.1.2.3,Phases=3,Linecode=CABA06_3_3_3,Length=0.035788000,Units=km
new line.SMT_11715243 bus1=BMT7899642B.1.2.3,bus2=BMT7899649B.1.2.3,Phases=3,Linecode=CABA06_3_3_3,Length=0.035522000,Units=km
new line.SMT_11715250 bus1=BMT7899649B.1.2.3,bus2=BMT165414139.1.2.3,Phases=3,Linecode=CABA06_3_3_3,Length=0.038287000,Units=km
new line.SMT_11716783 bus1=BMT7898025B.1.2.3,bus2=BMT7898137B.1.2.3,Phases=3,Linecode=CABA06_3_3_3,Length=0.022635000,Units=km
new line.SMT_12246243 bus1=BMT3601424B.1.2.3,bus2=BMT3601431B.1.2.3,Phases=3,Linecode=CABA06_3_3_3,Length=0.038091000,Units=km
new line.SMT_12246244 bus1=BMT3601431B.1.2.3,bus2=BMT165676016.1.2.3,Phases=3,Linecode=CABA06_3_3_3,Length=0.039063000,Units=km
new line.SMT_12319217 bus1=BMT165676104.1.2.3,bus2=BMT165676105.1.2.3,Phases=3,Linecode=CABA08_3_3_3,Length=0.033146000,Units=km
new line.SMT_12319218 bus1=BMT165676106.1.2.3,bus2=BMT256355B.1.2.3,Phases=3,Linecode=CABA08_3_3_3,Length=0.037227000,Units=km
new line.SMT_12319219 bus1=BMT256355B.1.2.3,bus2=BMT256362B.1.2.3,Phases=3,Linecode=CABA08_3_3_3,Length=0.036067000,Units=km
new line.SMT_12319220 bus1=BMT256362B.1.2.3,bus2=BMT254626B.1.2.3,Phases=3,Linecode=CABA08_3_3_3,Length=0.024339000,Units=km
new line.SMT_12319223 bus1=BMT254626B.1.2.3,bus2=BMT254619B.1.2.3,Phases=3,Linecode=CABA08_3_3_3,Length=0.033966000,Units=km
new line.SMT_12319224 bus1=BMT254619B.1.2.3,bus2=BMT2931601B.1.2.3,Phases=3,Linecode=CABA08_3_3_3,Length=0.032398000,Units=km
new line.SMT_12500167 bus1=BMT165676129.1.2.3,bus2=BMT165676132.1.2.3,Phases=3,Linecode=CABA06_3_3_3,Length=0.027009000,Units=km
new line.SMT_12500278 bus1=BMT165676126.1.2.3,bus2=BMT165676128.1.2.3,Phases=3,Linecode=CABA06_3_3_3,Length=0.026008000,Units=km
new line.SMT_345178 bus1=BMT238722B.1.2.3,bus2=BMT165675855.1.2.3,Phases=3,Linecode=CABA08_3_3_3,Length=0.035125000,Units=km
new line.SMT_345192 bus1=BMT165675923.1.2.3,bus2=BMT165675924.1.2.3,Phases=3,Linecode=CABA08_3_3_3,Length=0.035366000,Units=km
new line.SMT_345199 bus1=BMT165675924.1.2.3,bus2=BMT238743B.1.2.3,Phases=3,Linecode=CABA08_3_3_3,Length=0.034493000,Units=km
new line.SMT_345220 bus1=BMT238743B.1.2.3,bus2=BMT238750B.1.2.3,Phases=3,Linecode=CABA08_3_3_3,Length=0.038091000,Units=km
new line.SMT_345241 bus1=BMT238750B.1.2.3,bus2=BMT165675925.1.2.3,Phases=3,Linecode=CABA08_3_3_3,Length=0.038600000,Units=km
new line.SMT_345248 bus1=BMT165675925.1.2.3,bus2=BMT238771B.1.2.3,Phases=3,Linecode=CABA08_3_3_3,Length=0.030897000,Units=km
new line.SMT_345255 bus1=BMT165676143.1.2.3,bus2=BMT238778B.1.2.3,Phases=3,Linecode=CAB103_3_3_3,Length=0.035366000,Units=km
new line.SMT_345269 bus1=BMT238771B.1.2.3,bus2=BMT240255B.1.2.3,Phases=3,Linecode=CABA08_3_3_3,Length=0.037602000,Units=km
new line.SMT_345276 bus1=BMT238778B.1.2.3,bus2=BMT241704B.1.2.3,Phases=3,Linecode=CAB103_3_3_3,Length=0.031633000,Units=km
new line.SMT_357673 bus1=BMT247794B.1.2.3,bus2=BMT247801B.1.2.3,Phases=3,Linecode=CABA08_3_3_3,Length=0.030473000,Units=km
new line.SMT_357687 bus1=BMT247801B.1.2.3,bus2=BMT253639B.1.2.3,Phases=3,Linecode=CABA08_3_3_3,Length=0.027322000,Units=km
new line.SMT_10275784 bus1=BMT6479839B.1.2.3,bus2=BMT3084810B.1.2.3,Phases=3,Linecode=CABA08_3_3_3,Length=0.019242000,Units=km
new line.SMT_11427879 bus1=BMT135877030.1.2.3,bus2=BMT3509150B.1.2.3,Phases=3,Linecode=CAB103_3_3_3,Length=0.038612000,Units=km
new line.SMT_11427886 bus1=BMT3509150B.1.2.3,bus2=BMT3969197B.1.2.3,Phases=3,Linecode=CAB103_3_3_3,Length=0.045621000,Units=km
new line.SMT_11427893 bus1=BMT3969197B.1.2.3,bus2=BMT3969218B.1.2.3,Phases=3,Linecode=CAB103_3_3_3,Length=0.047816000,Units=km
new line.SMT_11427900 bus1=BMT3969218B.1.2.3,bus2=BMT135877037.1.2.3,Phases=3,Linecode=CAB103_3_3_3,Length=0.017210000,Units=km
new line.SMT_11437504 bus1=BMT177941860.1.2.3,bus2=BMT165675968.1.2.3,Phases=3,Linecode=CABA06_3_3_3,Length=0.008249000,Units=km
new line.SMT_11437511 bus1=BMT245827B.1.2.3,bus2=BMT170503233.1.2.3,Phases=3,Linecode=CAB103_3_3_3,Length=0.024746000,Units=km
new line.SMT_11445001 bus1=BMT165676121.1.2.3,bus2=BMT165676122.1.2.3,Phases=3,Linecode=CABA06_3_3_3,Length=0.029078000,Units=km
new line.SMT_12739407 bus1=BMT171047811.1.2.3,bus2=BMT171047812.1.2.3,Phases=3,Linecode=CABA06_3_3_3,Length=0.025950000,Units=km
new line.SMT_12739409 bus1=BMT171047812.1.2.3,bus2=BMT9346969B.1.2.3,Phases=3,Linecode=CAB609_3_3_3,Length=0.005387000,Units=km
new line.SMT_12739410 bus1=BMT9346969B.1.2.3,bus2=BMT171047813.1.2.3,Phases=3,Linecode=CAB609_3_3_3,Length=0.005387000,Units=km
new line.SMT_341314 bus1=BMT180104643.1.2.3,bus2=BMT180104645.1.2.3,Phases=3,Linecode=CABA06_3_3_3,Length=0.037959000,Units=km
new line.SMT_349266 bus1=BMT241704B.1.2.3,bus2=BMT241718B.1.2.3,Phases=3,Linecode=CAB103_3_3_3,Length=0.028853000,Units=km
new line.SMT_349287 bus1=BMT241718B.1.2.3,bus2=BMT241732B.1.2.3,Phases=3,Linecode=CAB103_3_3_3,Length=0.022479000,Units=km
new line.SMT_349301 bus1=BMT241732B.1.2.3,bus2=BMT165676144.1.2.3,Phases=3,Linecode=CAB103_3_3_3,Length=0.026692000,Units=km
new line.SMT_349308 bus1=BMT165676144.1.2.3,bus2=BMT241746B.1.2.3,Phases=3,Linecode=CAB103_3_3_3,Length=0.038483000,Units=km
new line.SMT_349315 bus1=BMT165676144.1.2.3,bus2=BMT241760B.1.2.3,Phases=3,Linecode=CAB103_3_3_3,Length=0.020131000,Units=km
new line.SMT_349329 bus1=BMT241746B.1.2.3,bus2=BMT165676145.1.2.3,Phases=3,Linecode=CAB103_3_3_3,Length=0.035366000,Units=km
new line.SMT_354803 bus1=BMT245750B.1.2.3,bus2=BMT170503235.1.2.3,Phases=3,Linecode=CAB103_3_3_3,Length=0.034681000,Units=km
new line.SMT_354810 bus1=BMT245757B.1.2.3,bus2=BMT245750B.1.2.3,Phases=3,Linecode=CAB103_3_3_3,Length=0.031633000,Units=km
new line.SMT_354817 bus1=BMT245764B.1.2.3,bus2=BMT245757B.1.2.3,Phases=3,Linecode=CAB103_3_3_3,Length=0.027211000,Units=km
new line.SMT_354831 bus1=BMT245771B.1.2.3,bus2=BMT245764B.1.2.3,Phases=3,Linecode=CAB103_3_3_3,Length=0.026916000,Units=km
new line.SMT_354838 bus1=BMT245785B.1.2.3,bus2=BMT245771B.1.2.3,Phases=3,Linecode=CAB103_3_3_3,Length=0.035858000,Units=km
new line.SMT_354845 bus1=BMT245792B.1.2.3,bus2=BMT245785B.1.2.3,Phases=3,Linecode=CAB103_3_3_3,Length=0.034997000,Units=km
new line.SMT_354866 bus1=BMT170503234.1.2.3,bus2=BMT245792B.1.2.3,Phases=3,Linecode=CAB103_3_3_3,Length=0.035788000,Units=km
new line.SMT_354873 bus1=BMT245806B.1.2.3,bus2=BMT170503234.1.2.3,Phases=3,Linecode=CAB103_3_3_3,Length=0.034143000,Units=km
new line.SMT_354880 bus1=BMT245813B.1.2.3,bus2=BMT245806B.1.2.3,Phases=3,Linecode=CAB103_3_3_3,Length=0.034011000,Units=km
new line.SMT_354929 bus1=BMT245827B.1.2.3,bus2=BMT245813B.1.2.3,Phases=3,Linecode=CAB103_3_3_3,Length=0.036136000,Units=km
new line.SMT_354943 bus1=BMT245834B.1.2.3,bus2=BMT177941860.1.2.3,Phases=3,Linecode=CABA08_3_3_3,Length=0.011049000,Units=km
new line.SMT_354964 bus1=BMT177941864.1.2.3,bus2=BMT245834B.1.2.3,Phases=3,Linecode=CABA08_3_3_3,Length=0.044116000,Units=km
new line.SMT_354971 bus1=BMT177941864.1.2.3,bus2=BMT248641B.1.2.3,Phases=3,Linecode=CAB103_3_3_3,Length=0.037548000,Units=km
new line.SMT_354985 bus1=BMT177941866.1.2.3,bus2=BMT177941864.1.2.3,Phases=3,Linecode=CABA08_3_3_3,Length=0.014040000,Units=km
new line.SMT_355020 bus1=BMT245876B.1.2.3,bus2=BMT165676120.1.2.3,Phases=3,Linecode=CAB103_3_3_3,Length=0.038496000,Units=km
new line.SMT_355034 bus1=BMT245883B.1.2.3,bus2=BMT245876B.1.2.3,Phases=3,Linecode=CAB103_3_3_3,Length=0.036726000,Units=km
new line.SMT_355048 bus1=BMT245890B.1.2.3,bus2=BMT245883B.1.2.3,Phases=3,Linecode=CAB103_3_3_3,Length=0.039369000,Units=km
new line.SMT_355069 bus1=BMT245897B.1.2.3,bus2=BMT245890B.1.2.3,Phases=3,Linecode=CAB103_3_3_3,Length=0.036247000,Units=km
new line.SMT_355090 bus1=BMT245904B.1.2.3,bus2=BMT245897B.1.2.3,Phases=3,Linecode=CAB103_3_3_3,Length=0.034011000,Units=km
new line.SMT_360368 bus1=BMT167328542.1.2.3,bus2=BMT167328543.1.2.3,Phases=3,Linecode=CAB103_3_3_3,Length=0.038961000,Units=km
new line.SMT_360375 bus1=BMT167328542.1.2.3,bus2=BMT165675951.1.2.3,Phases=3,Linecode=CABA08_3_3_3,Length=0.020131000,Units=km
new line.SMT_360389 bus1=BMT179260641.1.2.3,bus2=BMT250069B.1.2.3,Phases=3,Linecode=CABA08_3_3_3,Length=0.025068000,Units=km
new line.SMT_360578 bus1=BMT250167B.1.2.3,bus2=BMT165676129.1.2.3,Phases=3,Linecode=CAB103_3_3_3,Length=0.023007000,Units=km
new line.SMT_360592 bus1=BMT165676127.1.2.3,bus2=BMT250167B.1.2.3,Phases=3,Linecode=CAB103_3_3_3,Length=0.018117000,Units=km
new line.SMT_360599 bus1=BMT165676127.1.2.3,bus2=BMT165676130.1.2.3,Phases=3,Linecode=CAB103_3_3_3,Length=0.031790000,Units=km
new line.SMT_360606 bus1=BMT165676130.1.2.3,bus2=BMT250195B.1.2.3,Phases=3,Linecode=CAB103_3_3_3,Length=0.031058000,Units=km
new line.SMT_10394763 bus1=BMT170533178.1.2.3,bus2=BMT2573908B.1.2.3,Phases=3,Linecode=CABA06_3_3_3,Length=0.026916000,Units=km
new line.SMT_10394770 bus1=BMT2573908B.1.2.3,bus2=BMT2573901B.1.2.3,Phases=3,Linecode=CABA06_3_3_3,Length=0.031155000,Units=km
new line.SMT_10394798 bus1=BMT2573901B.1.2.3,bus2=BMT2573894B.1.2.3,Phases=3,Linecode=CABA06_3_3_3,Length=0.030423000,Units=km
new line.SMT_10394805 bus1=BMT2573894B.1.2.3,bus2=BMT2573887B.1.2.3,Phases=3,Linecode=CABA06_3_3_3,Length=0.031838000,Units=km
new line.SMT_10394812 bus1=BMT2573887B.1.2.3,bus2=BMT170533180.1.2.3,Phases=3,Linecode=CABA06_3_3_3,Length=0.028854000,Units=km
new line.SMT_10924502 bus1=BMT167838978.1.2.3,bus2=BMT165676025.1.2.3,Phases=3,Linecode=CABA08_3_3_3,Length=0.024194000,Units=km
new line.SMT_10924509 bus1=BMT178358703.1.2.3,bus2=BMT178358704.1.2.3,Phases=3,Linecode=CAB103_3_3_3,Length=0.016036000,Units=km
new line.SMT_10924516 bus1=BMT165676026.1.2.3,bus2=BMT7166469B.1.2.3,Phases=3,Linecode=CABA08_3_3_3,Length=0.019704000,Units=km
new line.SMT_10924523 bus1=BMT7166469B.1.2.3,bus2=BMT167838978.1.2.3,Phases=3,Linecode=CABA08_3_3_3,Length=0.005002000,Units=km
new line.SMT_12325234 bus1=BMT2931601B.1.2.3,bus2=BMT8926210B.1.2.3,Phases=3,Linecode=CABA08_3_3_3,Length=0.024339000,Units=km
new line.SMT_12325257 bus1=BMT8926210B.1.2.3,bus2=BMT8926228B.1.2.3,Phases=3,Linecode=CABA08_3_3_3,Length=0.026314000,Units=km
new line.SMT_12325258 bus1=BMT8926228B.1.2.3,bus2=BMT8920460B.1.2.3,Phases=3,Linecode=CABA08_3_3_3,Length=0.032398000,Units=km
new line.SMT_12325259 bus1=BMT8920460B.1.2.3,bus2=BMT8926232B.1.2.3,Phases=3,Linecode=CABA08_3_3_3,Length=0.033966000,Units=km
new line.SMT_12325260 bus1=BMT8926232B.1.2.3,bus2=BMT8920455B.1.2.3,Phases=3,Linecode=CABA08_3_3_3,Length=0.030815000,Units=km
new line.SMT_12325261 bus1=BMT8920455B.1.2.3,bus2=BMT8926236B.1.2.3,Phases=3,Linecode=CABA08_3_3_3,Length=0.031058000,Units=km
new line.SMT_12325264 bus1=BMT8926236B.1.2.3,bus2=BMT8926238B.1.2.3,Phases=3,Linecode=CABA08_3_3_3,Length=0.039572000,Units=km
new line.SMT_12325265 bus1=BMT8926238B.1.2.3,bus2=BMT8920454B.1.2.3,Phases=3,Linecode=CABA08_3_3_3,Length=0.033966000,Units=km
new line.SMT_12325301 bus1=BMT8920454B.1.2.3,bus2=BMT2930887B.1.2.3,Phases=3,Linecode=CABA08_3_3_3,Length=0.030242000,Units=km
new line.SMT_12325302 bus1=BMT2930887B.1.2.3,bus2=BMT2930880B.1.2.3,Phases=3,Linecode=CABA08_3_3_3,Length=0.029164000,Units=km