new line.CTR322113 bus1=BMT165675827.1.2.3,bus2=BMT165675829.1.2.3,Phases=3,LineCode=tieSwitch,Length=0.001,Units=km,switch=T !numEQ NUMEQ:64616  - Data de conexão anterior06/2011.
new line.CTR429353 bus1=BMT165675841.1.2.3,bus2=BMT165675842.1.2.3,Phases=3,LineCode=tieSwitch,Length=0.001,Units=km,switch=T !numEQ NUMEQ:196144  - Data de conexão anterior06/2011.
new line.CTR801641 bus1=BMT150342816.1.2.3,bus2=BMT114920829.1.2.3,Phases=3,LineCode=tieSwitch,Length=0.001,Units=km,switch=T !numEQ NUMEQ:296377  - Data de conexão anterior06/2011.
new line.CTR801648 bus1=BMT114928487.1.2.3,bus2=BMT169943852.1.2.3,Phases=3,LineCode=tieSwitch,Length=0.001,Units=km,switch=T !numEQ NUMEQ:296379  - Data de conexão anterior06/2011.
new line.CTR801809 bus1=BMT169943843.1.2.3,bus2=BMT115016813.1.2.3,Phases=3,LineCode=tieSwitch,Length=0.001,Units=km,switch=T !numEQ NUMEQ:296380  - Data de conexão anterior06/2011.
new line.CTR950593 bus1=BMT179259554.1.2.3,bus2=BMT179260028.1.2.3,Phases=3,LineCode=tieSwitch,Length=0.001,Units=km,switch=T !numEQ NUMEQ:357451  - Data de conexão anterior06/2011.
new line.CTR950594 bus1=BMT179260646.1.2.3,bus2=BMT179259709.1.2.3,Phases=3,LineCode=tieSwitch,Length=0.001,Units=km,switch=T !numEQ NUMEQ:357450  - Data de conexão anterior06/2011.
new line.CTR950597 bus1=BMT179260033.1.2.3,bus2=BMT179260034.1.2.3,Phases=3,LineCode=tieSwitch,Length=0.001,Units=km,switch=T !numEQ NUMEQ:357449  - Data de conexão anterior06/2011.
open line.CTR950597 term=1
new line.CTR950598 bus1=BMT179260648.1.2.3,bus2=BMT179260649.1.2.3,Phases=3,LineCode=tieSwitch,Length=0.001,Units=km,switch=T !numEQ NUMEQ:357448  - Data de conexão anterior06/2011.
open line.CTR950598 term=1
new line.CTRR27672 bus1=BMT178856293.1.2.3,bus2=BMT165675856.1.2.3,Phases=3,LineCode=tieSwitch,Length=0.001,Units=km,switch=T !numEQ NUMEQ:302273
open line.CTRR27672 term=1
new line.CTRR27679 bus1=BMT171433176.1.2.3,bus2=BMT165675893.1.2.3,Phases=3,LineCode=tieSwitch,Length=0.001,Units=km,switch=T !numEQ NUMEQ:306353
new line.CTRR46746 bus1=BMT165675817.2,bus2=BMT165676169.2,Phases=1,LineCode=tieSwitch1,Length=0.001,Units=km,switch=T !numEQ NUMEQ:62987
new line.CTR111931 bus1=BMT165675855.1.2.3,bus2=BMT165675923.1.2.3,Phases=3,LineCode=tieSwitch,Length=0.001,Units=km,switch=T !numEQ NUMEQ:151558  - Data de conexão anterior06/2011.
new line.CTR189197 bus1=BMT171047465.1.2.3,bus2=BMT165676044.1.2.3,Phases=3,LineCode=tieSwitch,Length=0.001,Units=km,switch=T !numEQ NUMEQ:112695  - Data de conexão anterior06/2011.
new line.CTR338332 bus1=BMT165676165.1.2.3,bus2=BMT165676167.1.2.3,Phases=3,LineCode=tieSwitch,Length=0.001,Units=km,switch=T !numEQ NUMEQ:135714  - Data de conexão anterior06/2011.
new line.CTR340985 bus1=BMT177105193.1.2.3,bus2=BMT165675900.1.2.3,Phases=3,LineCode=tieSwitch,Length=0.001,Units=km,switch=T !numEQ NUMEQ:238569  - Data de conexão anterior06/2011.
open line.CTR340985 term=1
new line.CTR379835 bus1=BMT165676048.1.2.3,bus2=BMT165676070.1.2.3,Phases=3,LineCode=tieSwitch,Length=0.001,Units=km,switch=T !numEQ NUMEQ:204635  - Data de conexão anterior06/2011.
new line.CTR509342 bus1=BMT165676029.1.2.3,bus2=BMT165676039.1.2.3,Phases=3,LineCode=tieSwitch,Length=0.001,Units=km,switch=T !numEQ NUMEQ:3057  - Data de conexão anterior06/2011.
new line.CTR614706 bus1=BMT165675813.2,bus2=BMT165676201.2,Phases=1,LineCode=tieSwitch1,Length=0.001,Units=km,switch=T !numEQ NUMEQ:126717  - Data de conexão anterior06/2011.
new line.CTR684902 bus1=BMT167656910.1.2.3,bus2=BMT98887910.1.2.3,Phases=3,LineCode=tieSwitch,Length=0.001,Units=km,switch=T !numEQ NUMEQ:195196  - Data de conexão anterior06/2011.
open line.CTR684902 term=1
new line.CTR684986 bus1=BMT165675838.1.2.3,bus2=BMT165675839.1.2.3,Phases=3,LineCode=tieSwitch,Length=0.001,Units=km,switch=T !numEQ NUMEQ:195197  - Data de conexão anterior06/2011.
new line.CTR741784 bus1=BMT165675981.1.2.3,bus2=BMT165675982.1.2.3,Phases=3,LineCode=tieSwitch,Length=0.001,Units=km,switch=T !numEQ NUMEQ:151549  - Data de conexão anterior06/2011.
new line.CTR741791 bus1=BMT165675980.1.2.3,bus2=BMT165676088.1.2.3,Phases=3,LineCode=tieSwitch,Length=0.001,Units=km,switch=T !numEQ NUMEQ:151550  - Data de conexão anterior06/2011.
new line.CTR743534 bus1=BMT165675973.1.2.3,bus2=BMT165675974.1.2.3,Phases=3,LineCode=tieSwitch,Length=0.001,Units=km,switch=T !numEQ NUMEQ:151551  - Data de conexão anterior06/2011.
new line.CTR745662 bus1=BMT165675968.1.2.3,bus2=BMT170503233.1.2.3,Phases=3,LineCode=tieSwitch,Length=0.001,Units=km,switch=T !numEQ NUMEQ:151553  - Data de conexão anterior06/2011.
new line.CTR867400 bus1=BMT165675904.1.2.3,bus2=BMT177105179.1.2.3,Phases=3,LineCode=tieSwitch,Length=0.001,Units=km,switch=T !numEQ NUMEQ:238568  - Data de conexão anterior06/2011.
new line.CTR223476 bus1=BMT165676197.2,bus2=BMT165676199.2,Phases=1,LineCode=tieSwitch1,Length=0.001,Units=km,switch=T !numEQ NUMEQ:134178  - Data de conexão anterior06/2011.
new line.CTR335875 bus1=BMT165675825.1.2.3,bus2=BMT165676163.1.2.3,Phases=3,LineCode=tieSwitch,Length=0.001,Units=km,switch=T !numEQ NUMEQ:64567  - Data de conexão anterior06/2011.
new line.CTR822984 bus1=BMT165676075.1.2.3,bus2=BMT165676083.1.2.3,Phases=3,LineCode=tieSwitch,Length=0.001,Units=km,switch=T !numEQ NUMEQ:230091  - Data de conexão anterior06/2011.
new line.CTR870058 bus1=BMT165676110.1.2.3,bus2=BMT165676111.1.2.3,Phases=3,LineCode=tieSwitch,Length=0.001,Units=km,switch=T !numEQ NUMEQ:374572  - Data de conexão anterior06/2011.
new line.CTR870089 bus1=BMT165675941.1.2.3,bus2=BMT167645465.1.2.3,Phases=3,LineCode=tieSwitch,Length=0.001,Units=km,switch=T !numEQ NUMEQ:139581  - Data de conexão anterior06/2011.
new line.CTR870148 bus1=BMT165676090.1.2.3,bus2=BMT165676133.1.2.3,Phases=3,LineCode=tieSwitch,Length=0.001,Units=km,switch=T !numEQ NUMEQ:240882  - Data de conexão anterior06/2011.
new line.CTR870653 bus1=BMT165675991.1.2.3,bus2=BMT165676006.1.2.3,Phases=3,LineCode=tieSwitch,Length=0.001,Units=km,switch=T !numEQ NUMEQ:374569  - Data de conexão anterior06/2011.
new line.CTR870654 bus1=BMT165675985.1.2.3,bus2=BMT165675986.1.2.3,Phases=3,LineCode=tieSwitch,Length=0.001,Units=km,switch=T !numEQ NUMEQ:254547  - Data de conexão anterior06/2011.
new line.CTR870712 bus1=BMT165676114.1.2.3,bus2=BMT165676117.1.2.3,Phases=3,LineCode=tieSwitch,Length=0.001,Units=km,switch=T !numEQ NUMEQ:318090  - Data de conexão anterior06/2011.
new line.CTR114563 bus1=BMT177941866.1.2.3,bus2=BMT165675971.1.2.3,Phases=3,LineCode=tieSwitch,Length=0.001,Units=km,switch=T !numEQ NUMEQ:151552  - Data de conexão anterior06/2011.
new line.CTR177493 bus1=BMT171047809.1.2.3,bus2=BMT171047811.1.2.3,Phases=3,LineCode=tieSwitch,Length=0.001,Units=km,switch=T !numEQ NUMEQ:147846  - Data de conexão anterior06/2011.
new line.CTR191717 bus1=BMT165676157.2,bus2=BMT165676158.2,Phases=1,LineCode=tieSwitch1,Length=0.001,Units=km,switch=T !numEQ NUMEQ:9392  - Data de conexão anterior06/2011.
new line.CTR216651 bus1=BMT165675868.1.2.3,bus2=BMT165675877.1.2.3,Phases=3,LineCode=tieSwitch,Length=0.001,Units=km,switch=T !numEQ NUMEQ:13881  - Data de conexão anterior06/2011.
new line.CTR83497 bus1=BMT165675806.1.2.3,bus2=BMT179335365.1.2.3,Phases=3,LineCode=tieSwitch,Length=0.001,Units=km,switch=T !numEQ NUMEQ:63640  - Data de conexão anterior06/2011.
new line.CTR855140 bus1=BMT165675927.1.2.3,bus2=BMT165675928.1.2.3,Phases=3,LineCode=tieSwitch,Length=0.001,Units=km,switch=T !numEQ NUMEQ:145263  - Data de conexão anterior06/2011.
new line.CTR869321 bus1=BMT165676105.1.2.3,bus2=BMT165676106.1.2.3,Phases=3,LineCode=tieSwitch,Length=0.001,Units=km,switch=T !numEQ NUMEQ:240884  - Data de conexão anterior06/2011.
new line.CTR869324 bus1=BMT165676107.1.2.3,bus2=BMT165675987.1.2.3,Phases=3,LineCode=tieSwitch,Length=0.001,Units=km,switch=T !numEQ NUMEQ:309820  - Data de conexão anterior06/2011.
open line.CTR869324 term=1
new line.CTR869485 bus1=BMT165676097.1.2.3,bus2=BMT165676098.1.2.3,Phases=3,LineCode=tieSwitch,Length=0.001,Units=km,switch=T !numEQ NUMEQ:314284  - Data de conexão anterior06/2011.
new line.CTR914013 bus1=BMT171432379.1.2.3,bus2=BMT171433284.1.2.3,Phases=3,LineCode=tieSwitch,Length=0.001,Units=km,switch=T !numEQ NUMEQ:280098  - Data de conexão anterior06/2011.
new line.CTRR42230 bus1=BMT165676041.1.2.3,bus2=BMT171047806.1.2.3,Phases=3,LineCode=tieSwitch,Length=0.001,Units=km,switch=T !numEQ NUMEQ:151544  - Data de conexão anterior06/2011.
new line.CTR15023 bus1=BMT165676051.1.2.3,bus2=BMT165676068.1.2.3,Phases=3,LineCode=tieSwitch,Length=0.001,Units=km,switch=T !numEQ NUMEQ:150869  - Data de conexão anterior06/2011.
new line.CTR330744 bus1=BMT171431959.1.2.3,bus2=BMT165675870.1.2.3,Phases=3,LineCode=tieSwitch,Length=0.001,Units=km,switch=T !numEQ NUMEQ:13884  - Data de conexão anterior06/2011.
new line.CTR331766 bus1=BMT171433177.1.2.3,bus2=BMT165675899.1.2.3,Phases=3,LineCode=tieSwitch,Length=0.001,Units=km,switch=T !numEQ NUMEQ:110705  - Data de conexão anterior06/2011.
new line.CTR371449 bus1=BMT165675847.1.2.3,bus2=BMT175349692.1.2.3,Phases=3,LineCode=tieSwitch,Length=0.001,Units=km,switch=T !numEQ NUMEQ:149098  - Data de conexão anterior06/2011.
new line.CTR600650 bus1=BMT165676026.1.2.3,bus2=BMT165676085.1.2.3,Phases=3,LineCode=tieSwitch,Length=0.001,Units=km,switch=T !numEQ NUMEQ:151542  - Data de conexão anterior06/2011.
new line.CTRR40047 bus1=BMT167328536.1.2.3,bus2=BMT167328537.1.2.3,Phases=3,LineCode=tieSwitch,Length=0.001,Units=km,switch=T !numEQ NUMEQ:273751
new line.CTRR40259 bus1=BMT167656745.1.2.3,bus2=BMT167656746.1.2.3,Phases=3,LineCode=tieSwitch,Length=0.001,Units=km,switch=T !numEQ NUMEQ:273752
new line.CTRR40614 bus1=BMT165675975.1.2.3,bus2=BMT165675976.1.2.3,Phases=3,LineCode=tieSwitch,Length=0.001,Units=km,switch=T !numEQ NUMEQ:230237  - Data de conexão anterior06/2011.
new line.CTRR41446 bus1=BMT169943851.1.2.3,bus2=BMT169943850.1.2.3,Phases=3,LineCode=tieSwitch,Length=0.001,Units=km,switch=T !numEQ NUMEQ:279072
new line.CTRR53708 bus1=BMT179839472.1.2.3,bus2=BMT179839471.1.2.3,Phases=3,LineCode=tieSwitch,Length=0.001,Units=km,switch=T !numEQ NUMEQ:362082
new line.CTR148107 bus1=BMT165675816.1.2.3,bus2=BMT165675819.1.2.3,Phases=3,LineCode=tieSwitch,Length=0.001,Units=km,switch=T !numEQ NUMEQ:64508  - Data de conexão anterior06/2011.
new line.CTR311515 bus1=BMT165675897.1.2.3,bus2=BMT171433174.1.2.3,Phases=3,LineCode=tieSwitch,Length=0.001,Units=km,switch=T !numEQ NUMEQ:212651  - Data de conexão anterior06/2011.
new line.CTR350456 bus1=BMT165676076.1.2.3,bus2=BMT165676081.1.2.3,Phases=3,LineCode=tieSwitch,Length=0.001,Units=km,switch=T !numEQ NUMEQ:139809  - Data de conexão anterior06/2011.
new line.CTR503651 bus1=BMT165676042.1.2.3,bus2=BMT165676045.1.2.3,Phases=3,LineCode=tieSwitch,Length=0.001,Units=km,switch=T !numEQ NUMEQ:197034  - Data de conexão anterior06/2011.
new line.CTR607314 bus1=BMT165675989.1.2.3,bus2=BMT165675992.1.2.3,Phases=3,LineCode=tieSwitch,Length=0.001,Units=km,switch=T !numEQ NUMEQ:151546  - Data de conexão anterior06/2011.
new line.CTR727098 bus1=BMT165675932.1.2.3,bus2=BMT165675937.1.2.3,Phases=3,LineCode=tieSwitch,Length=0.001,Units=km,switch=T !numEQ NUMEQ:151556  - Data de conexão anterior06/2011.
new line.CTR727119 bus1=BMT165675925.1.2.3,bus2=BMT165676143.1.2.3,Phases=3,LineCode=tieSwitch,Length=0.001,Units=km,switch=T !numEQ NUMEQ:151557  - Data de conexão anterior06/2011.
new line.CTR728414 bus1=BMT167838981.1.2.3,bus2=BMT165676031.1.2.3,Phases=3,LineCode=tieSwitch,Length=0.001,Units=km,switch=T !numEQ NUMEQ:151543  - Data de conexão anterior06/2011.
new line.CTR728428 bus1=BMT165676025.1.2.3,bus2=BMT178358703.1.2.3,Phases=3,LineCode=tieSwitch,Length=0.001,Units=km,switch=T !numEQ NUMEQ:151541  - Data de conexão anterior06/2011.
new line.CTR729891 bus1=BMT165676012.1.2.3,bus2=BMT167838971.1.2.3,Phases=3,LineCode=tieSwitch,Length=0.001,Units=km,switch=T !numEQ NUMEQ:151545  - Data de conexão anterior06/2011.
new line.CTR804994 bus1=BMT135877009.1.2.3,bus2=BMT117709209.1.2.3,Phases=3,LineCode=tieSwitch,Length=0.001,Units=km,switch=T !numEQ NUMEQ:296378  - Data de conexão anterior06/2011.
open line.CTR804994 term=1
new line.CTR805022 bus1=BMT165414132.1.2.3,bus2=BMT117746568.1.2.3,Phases=3,LineCode=tieSwitch,Length=0.001,Units=km,switch=T !numEQ NUMEQ:300212  - Data de conexão anterior06/2011.
new line.CTR925050 bus1=BMT174349810.1.2.3,bus2=BMT177097404.1.2.3,Phases=3,LineCode=tieSwitch,Length=0.001,Units=km,switch=T !numEQ NUMEQ:338574  - Data de conexão anterior06/2011.
new line.CTR942403 bus1=BMT180102318.1.2.3,bus2=BMT177825499.1.2.3,Phases=3,LineCode=tieSwitch,Length=0.001,Units=km,switch=T !numEQ NUMEQ:356285  - Data de conexão anterior06/2011.
new line.CTR98050 bus1=BMT165676188.2,bus2=BMT165676189.2,Phases=1,LineCode=tieSwitch1,Length=0.001,Units=km,switch=T !numEQ NUMEQ:108131  - Data de conexão anterior06/2011.
new line.CTR948516 bus1=BMT178856289.1.2.3,bus2=BMT178856292.1.2.3,Phases=3,LineCode=tieSwitch,Length=0.001,Units=km,switch=T !numEQ NUMEQ:361358  - Data de conexão anterior06/2011.
new line.CTR108144 bus1=BMT165675844.1.2.3,bus2=BMT165675845.1.2.3,Phases=3,LineCode=tieSwitch,Length=0.001,Units=km,switch=T !numEQ NUMEQ:196145  - Data de conexão anterior06/2011.
new line.CTR140757 bus1=BMT165675931.1.2.3,bus2=BMT165675934.1.2.3,Phases=3,LineCode=tieSwitch,Length=0.001,Units=km,switch=T !numEQ NUMEQ:151555  - Data de conexão anterior06/2011.
new line.CTR213704 bus1=BMT165675857.1.2.3,bus2=BMT165675921.1.2.3,Phases=3,LineCode=tieSwitch,Length=0.001,Units=km,switch=T !numEQ NUMEQ:104344  - Data de conexão anterior06/2011.
new line.CTR281128 bus1=BMT165675951.1.2.3,bus2=BMT179260641.1.2.3,Phases=3,LineCode=tieSwitch,Length=0.001,Units=km,switch=T !numEQ NUMEQ:151554  - Data de conexão anterior06/2011.
new line.CTR281205 bus1=BMT165676112.1.2.3,bus2=BMT165676123.1.2.3,Phases=3,LineCode=tieSwitch,Length=0.001,Units=km,switch=T !numEQ NUMEQ:240883  - Data de conexão anterior06/2011.
new line.CTR536313 bus1=BMT165675864.1.2.3,bus2=BMT170533174.1.2.3,Phases=3,LineCode=tieSwitch,Length=0.001,Units=km,switch=T !numEQ NUMEQ:13876  - Data de conexão anterior06/2011.
new line.CTR540261 bus1=BMT165676011.1.2.3,bus2=BMT165676013.1.2.3,Phases=3,LineCode=tieSwitch,Length=0.001,Units=km,switch=T !numEQ NUMEQ:133797  - Data de conexão anterior06/2011.
new line.CTR782538 bus1=BMT165676052.1.2.3,bus2=BMT165676066.1.2.3,Phases=3,LineCode=tieSwitch,Length=0.001,Units=km,switch=T !numEQ NUMEQ:296671  - Data de conexão anterior06/2011.
new line.CTR86283 bus1=BMT165676177.2,bus2=BMT167383972.2,Phases=1,LineCode=tieSwitch1,Length=0.001,Units=km,switch=T !numEQ NUMEQ:62986  - Data de conexão anterior06/2011.
new line.CTR897938 bus1=BMT165956455.1.2.3,bus2=BMT166748800.1.2.3,Phases=3,LineCode=tieSwitch,Length=0.001,Units=km,switch=T !numEQ NUMEQ:267737  - Data de conexão anterior06/2011.
new line.CTR943686 bus1=BMT179260030.1.2.3,bus2=BMT177940844.1.2.3,Phases=3,LineCode=tieSwitch,Length=0.001,Units=km,switch=T !numEQ NUMEQ:357457  - Data de conexão anterior06/2011.
new line.CTR943689 bus1=BMT177942175.1.2.3,bus2=BMT177941010.1.2.3,Phases=3,LineCode=tieSwitch,Length=0.001,Units=km,switch=T !numEQ NUMEQ:357458  - Data de conexão anterior06/2011.
new line.CTR943697 bus1=BMT177941862.1.2.3,bus2=BMT177941863.1.2.3,Phases=3,LineCode=tieSwitch,Length=0.001,Units=km,switch=T !numEQ NUMEQ:357456  - Data de conexão anterior06/2011.
open line.CTR943697 term=1
new line.CTR943698 bus1=BMT177942177.1.2.3,bus2=BMT177942178.1.2.3,Phases=3,LineCode=tieSwitch,Length=0.001,Units=km,switch=T !numEQ NUMEQ:357455  - Data de conexão anterior06/2011.
open line.CTR943698 term=1
