new load.BT_3002340810_M1 bus1=RML1006367866.1.2.0,Phases=2,kv=0.24,kW=0.00998,pf=0.92,Vminpu=0.92,Vmaxpu=1.5,model=1,daily=RES1_11,status=variable
new load.BT_3002340879_M1 bus1=RML1000518232.1.2.0,Phases=2,kv=0.24,kW=0.00998,pf=0.92,Vminpu=0.92,Vmaxpu=1.5,model=1,daily=RES1_11,status=variable
new load.BT_3002340897_M1 bus1=RML1006661369.1.2.0,Phases=2,kv=0.24,kW=0.55308,pf=0.92,Vminpu=0.92,Vmaxpu=1.5,model=1,daily=RES1_11,status=variable
new load.BT_3002340906_M1 bus1=RML1000817566.1.2.0,Phases=2,kv=0.24,kW=3.88382,pf=0.92,Vminpu=0.92,Vmaxpu=1.5,model=1,daily=COM1_13,status=variable
new load.BT_3002340907_M1 bus1=RML1000817559.1.2.0,Phases=2,kv=0.24,kW=1.97314,pf=0.92,Vminpu=0.92,Vmaxpu=1.5,model=1,daily=RES1_11,status=variable
new load.BT_3002340908_M1 bus1=RML1000728057.1.2.0,Phases=2,kv=0.24,kW=2.26328,pf=0.92,Vminpu=0.92,Vmaxpu=1.5,model=1,daily=RES1_11,status=variable
new load.BT_3002340909_M1 bus1=RML1000512163.1.2.0,Phases=2,kv=0.24,kW=0.99482,pf=0.92,Vminpu=0.92,Vmaxpu=1.5,model=1,daily=RES1_11,status=variable
new load.BT_3002340910_M1 bus1=RML1000512149.1.2.0,Phases=2,kv=0.24,kW=1.82106,pf=0.92,Vminpu=0.92,Vmaxpu=1.5,model=1,daily=RES1_11,status=variable
new load.BT_3002340912_M1 bus1=RML1009131109.1.2.0,Phases=2,kv=0.24,kW=1.0684,pf=0.92,Vminpu=0.92,Vmaxpu=1.5,model=1,daily=RES1_11,status=variable
new load.BT_3002340913_M1 bus1=RML1000817524.1.2.0,Phases=2,kv=0.24,kW=1.68602,pf=0.92,Vminpu=0.92,Vmaxpu=1.5,model=1,daily=RES1_11,status=variable
new load.BT_3002340914_M1 bus1=RML1000817531.1.2.0,Phases=2,kv=0.24,kW=3.61964,pf=0.92,Vminpu=0.92,Vmaxpu=1.5,model=1,daily=RES1_11,status=variable
new load.BT_3002340915_M1 bus1=RML1000512184.1.2.0,Phases=2,kv=0.24,kW=0.689,pf=0.92,Vminpu=0.92,Vmaxpu=1.5,model=1,daily=RES1_11,status=variable
new load.BT_3002340916_M1 bus1=RML1000512177.1.2.0,Phases=2,kv=0.24,kW=1.08734,pf=0.92,Vminpu=0.92,Vmaxpu=1.5,model=1,daily=RES1_11,status=variable
new load.BT_3002340917_M1 bus1=RML1000512156.1.2.0,Phases=2,kv=0.24,kW=1.56476,pf=0.92,Vminpu=0.92,Vmaxpu=1.5,model=1,daily=RES1_11,status=variable
new load.BT_3002340918_M1 bus1=RML1000512170.1.2.0,Phases=2,kv=0.24,kW=1.09086,pf=0.92,Vminpu=0.92,Vmaxpu=1.5,model=1,daily=RES1_11,status=variable
new load.BT_3002340920_M1 bus1=RML1000817538.1.2.0,Phases=2,kv=0.24,kW=0.80022,pf=0.92,Vminpu=0.92,Vmaxpu=1.5,model=1,daily=RES1_11,status=variable
new load.BT_3002340923_M1 bus1=RML1000817545.1.2.0,Phases=2,kv=0.24,kW=1.13776,pf=0.92,Vminpu=0.92,Vmaxpu=1.5,model=1,daily=RES1_11,status=variable
new load.BT_3002340926_M1 bus1=RML1000817517.1.2.0,Phases=2,kv=0.24,kW=0.44458,pf=0.92,Vminpu=0.92,Vmaxpu=1.5,model=1,daily=RES1_11,status=variable
new load.BT_3002340931_M1 bus1=RML1000817552.1.2.0,Phases=2,kv=0.24,kW=0.94276,pf=0.92,Vminpu=0.92,Vmaxpu=1.5,model=1,daily=RES1_11,status=variable
new load.BT_3002340936_M1 bus1=RML1006268508.1.2.0,Phases=2,kv=0.24,kW=0.00998,pf=0.92,Vminpu=0.92,Vmaxpu=1.5,model=1,daily=RES1_11,status=variable
new load.BT_3002341364_M1 bus1=RML1000512177.1.2.0,Phases=2,kv=0.24,kW=0.00998,pf=0.92,Vminpu=0.92,Vmaxpu=1.5,model=1,daily=RES1_11,status=variable
new load.BT_3002363553_M1 bus1=RML1000597703.3.0,Phases=1,kv=0.127,kW=2.38554,pf=0.92,Vminpu=0.92,Vmaxpu=1.5,model=1,daily=RES1_13,status=variable
new load.BT_3002363554_M1 bus1=RML1000597689.1.2.3.0,Phases=3,kv=0.22,kW=1.97824,pf=0.92,Vminpu=0.92,Vmaxpu=1.5,model=1,daily=RES1_13,status=variable
new load.BT_3002363555_M1 bus1=RML1000597815.2.3.0,Phases=2,kv=0.22,kW=6.54778,pf=0.92,Vminpu=0.92,Vmaxpu=1.5,model=1,daily=RES1_13,status=variable
new load.BT_3002363556_M1 bus1=RML1000597724.3.1.0,Phases=2,kv=0.22,kW=3.91874,pf=0.92,Vminpu=0.92,Vmaxpu=1.5,model=1,daily=RES1_13,status=variable
new load.BT_3002363557_M1 bus1=RML1000597773.3.0,Phases=1,kv=0.127,kW=4.48948,pf=0.92,Vminpu=0.92,Vmaxpu=1.5,model=1,daily=RES1_13,status=variable
new load.BT_3002363558_M1 bus1=RML1000597773.3.0,Phases=1,kv=0.127,kW=2.99494,pf=0.92,Vminpu=0.92,Vmaxpu=1.5,model=1,daily=RES1_13,status=variable
new load.BT_3002363559_M1 bus1=RML1000597780.3.1.0,Phases=2,kv=0.22,kW=5.82608,pf=0.92,Vminpu=0.92,Vmaxpu=1.5,model=1,daily=RES1_13,status=variable
new load.BT_3002363560_M1 bus1=RML1000597745.2.0,Phases=1,kv=0.127,kW=1.0167,pf=0.92,Vminpu=0.92,Vmaxpu=1.5,model=1,daily=RES1_13,status=variable
new load.BT_3002363561_M1 bus1=RML1000597829.2.3.0,Phases=2,kv=0.22,kW=5.5526,pf=0.92,Vminpu=0.92,Vmaxpu=1.5,model=1,daily=RES1_13,status=variable
new load.BT_3002363562_M1 bus1=RML1000597836.1.0,Phases=1,kv=0.127,kW=0.0211,pf=0.92,Vminpu=0.92,Vmaxpu=1.5,model=1,daily=RES1_13,status=variable
new load.BT_3002363563_M1 bus1=RML1000597871.1.2.3.0,Phases=3,kv=0.22,kW=4.09922,pf=0.92,Vminpu=0.92,Vmaxpu=1.5,model=1,daily=RES1_13,status=variable
new load.BT_3002363564_M1 bus1=RML1000597906.1.2.3.0,Phases=3,kv=0.22,kW=4.19246,pf=0.92,Vminpu=0.92,Vmaxpu=1.5,model=1,daily=RES1_13,status=variable
new load.BT_3002363565_M1 bus1=RML1000597906.1.2.3.0,Phases=3,kv=0.22,kW=0.46062,pf=0.92,Vminpu=0.92,Vmaxpu=1.5,model=1,daily=RES1_13,status=variable
new load.BT_3002363566_M1 bus1=RML1000597899.2.3.0,Phases=2,kv=0.22,kW=4.4487,pf=0.92,Vminpu=0.92,Vmaxpu=1.5,model=1,daily=RES1_13,status=variable
new load.BT_3002363567_M1 bus1=RML1000597934.2.3.0,Phases=2,kv=0.22,kW=3.67634,pf=0.92,Vminpu=0.92,Vmaxpu=1.5,model=1,daily=RES1_13,status=variable
new load.BT_3002363568_M1 bus1=RML1000597948.3.0,Phases=1,kv=0.127,kW=3.11292,pf=0.92,Vminpu=0.92,Vmaxpu=1.5,model=1,daily=RES1_13,status=variable
new load.BT_3002363569_M1 bus1=RML1000597941.1.2.0,Phases=2,kv=0.22,kW=3.33592,pf=0.92,Vminpu=0.92,Vmaxpu=1.5,model=1,daily=RES1_13,status=variable
new load.BT_3002363570_M1 bus1=RML1000597920.1.2.0,Phases=2,kv=0.22,kW=1.76516,pf=0.92,Vminpu=0.92,Vmaxpu=1.5,model=1,daily=RES1_13,status=variable
new load.BT_3002363571_M1 bus1=RML1000597892.1.2.3.0,Phases=3,kv=0.22,kW=0.75112,pf=0.92,Vminpu=0.92,Vmaxpu=1.5,model=1,daily=RES1_13,status=variable
new load.BT_3002363572_M1 bus1=RML1000597892.1.2.3.0,Phases=3,kv=0.22,kW=1.65082,pf=0.92,Vminpu=0.92,Vmaxpu=1.5,model=1,daily=RES1_13,status=variable
new load.BT_3002363574_M1 bus1=RML1000597885.1.2.3.0,Phases=3,kv=0.22,kW=5.51606,pf=0.92,Vminpu=0.92,Vmaxpu=1.5,model=1,daily=RES1_13,status=variable
new load.BT_3002363575_M1 bus1=RML1000597857.1.2.0,Phases=2,kv=0.22,kW=4.75908,pf=0.92,Vminpu=0.92,Vmaxpu=1.5,model=1,daily=RES1_13,status=variable
new load.BT_3002363576_M1 bus1=RML1000597710.1.2.0,Phases=2,kv=0.22,kW=1.38828,pf=0.92,Vminpu=0.92,Vmaxpu=1.5,model=1,daily=RES1_13,status=variable
new load.BT_3002363577_M1 bus1=RML1000597661.2.0,Phases=1,kv=0.127,kW=4.94642,pf=0.92,Vminpu=0.92,Vmaxpu=1.5,model=1,daily=RES1_13,status=variable
new load.BT_3002363578_M1 bus1=RML1000597668.1.0,Phases=1,kv=0.127,kW=6.36454,pf=0.92,Vminpu=0.92,Vmaxpu=1.5,model=1,daily=RES1_13,status=variable
new load.BT_3002363579_M1 bus1=RML1000597654.1.0,Phases=1,kv=0.127,kW=1.83772,pf=0.92,Vminpu=0.92,Vmaxpu=1.5,model=1,daily=RES1_13,status=variable
new load.BT_3002363580_M1 bus1=RML1000609302.1.2.3.0,Phases=3,kv=0.22,kW=0.5464,pf=0.92,Vminpu=0.92,Vmaxpu=1.5,model=1,daily=COM1_13,status=variable
new load.BT_3002363581_M1 bus1=RML1000593153.1.2.0,Phases=2,kv=0.22,kW=7.307,pf=0.92,Vminpu=0.92,Vmaxpu=1.5,model=1,daily=RES1_13,status=variable
new load.BT_3002363582_M1 bus1=RML1000593181.1.0,Phases=1,kv=0.127,kW=0.0211,pf=0.92,Vminpu=0.92,Vmaxpu=1.5,model=1,daily=RES1_13,status=variable
new load.BT_3002363583_M1 bus1=RML1000593188.1.2.0,Phases=2,kv=0.22,kW=1.89748,pf=0.92,Vminpu=0.92,Vmaxpu=1.5,model=1,daily=RES1_13,status=variable
new load.BT_3002363584_M1 bus1=RML1000593202.1.2.0,Phases=2,kv=0.22,kW=4.6131,pf=0.92,Vminpu=0.92,Vmaxpu=1.5,model=1,daily=RES1_13,status=variable
new load.BT_3002363585_M1 bus1=RML1000593202.1.2.0,Phases=2,kv=0.22,kW=2.1903,pf=0.92,Vminpu=0.92,Vmaxpu=1.5,model=1,daily=RES1_13,status=variable
new load.BT_3002363586_M1 bus1=RML1000593237.3.1.0,Phases=2,kv=0.22,kW=3.78956,pf=0.92,Vminpu=0.92,Vmaxpu=1.5,model=1,daily=RES1_13,status=variable
new load.BT_3002363587_M1 bus1=RML1000593251.2.3.0,Phases=2,kv=0.22,kW=0.0211,pf=0.92,Vminpu=0.92,Vmaxpu=1.5,model=1,daily=RES1_13,status=variable
new load.BT_3002363588_M1 bus1=RML1000593223.1.2.0,Phases=2,kv=0.22,kW=3.81858,pf=0.92,Vminpu=0.92,Vmaxpu=1.5,model=1,daily=RES1_13,status=variable
new load.BT_3002363589_M1 bus1=RML1000593258.1.0,Phases=1,kv=0.127,kW=3.69274,pf=0.92,Vminpu=0.92,Vmaxpu=1.5,model=1,daily=RES1_13,status=variable
new load.BT_3002363590_M1 bus1=RML1000593279.1.2.3.0,Phases=3,kv=0.22,kW=3.77666,pf=0.92,Vminpu=0.92,Vmaxpu=1.5,model=1,daily=RES1_13,status=variable
new load.BT_3002363591_M1 bus1=RML1000593349.3.1.0,Phases=2,kv=0.22,kW=3.83932,pf=0.92,Vminpu=0.92,Vmaxpu=1.5,model=1,daily=RES1_13,status=variable
new load.BT_3002363592_M1 bus1=RML1000593384.3.1.0,Phases=2,kv=0.22,kW=2.20654,pf=0.92,Vminpu=0.92,Vmaxpu=1.5,model=1,daily=RES1_13,status=variable
new load.BT_3002363593_M1 bus1=RML1000593391.2.3.0,Phases=2,kv=0.22,kW=2.68108,pf=0.92,Vminpu=0.92,Vmaxpu=1.5,model=1,daily=RES1_13,status=variable
new load.BT_3002363594_M1 bus1=RML1000593328.3.1.0,Phases=2,kv=0.22,kW=2.3916,pf=0.92,Vminpu=0.92,Vmaxpu=1.5,model=1,daily=RES1_13,status=variable
new load.BT_3002363595_M1 bus1=RML1000593342.1.0,Phases=1,kv=0.127,kW=2.09358,pf=0.92,Vminpu=0.92,Vmaxpu=1.5,model=1,daily=RES1_13,status=variable
new load.BT_3002363596_M1 bus1=RML1000593293.1.2.0,Phases=2,kv=0.22,kW=3.2727,pf=0.92,Vminpu=0.92,Vmaxpu=1.5,model=1,daily=RES1_13,status=variable
new load.BT_3002363597_M1 bus1=RML1000593314.1.0,Phases=1,kv=0.127,kW=2.19636,pf=0.92,Vminpu=0.92,Vmaxpu=1.5,model=1,daily=RES1_13,status=variable
new load.BT_3002363598_M1 bus1=RML1000593286.1.2.3.0,Phases=3,kv=0.22,kW=2.1315,pf=0.92,Vminpu=0.92,Vmaxpu=1.5,model=1,daily=RES1_13,status=variable
new load.BT_3002363599_M1 bus1=RML1000593286.1.2.3.0,Phases=3,kv=0.22,kW=1.27458,pf=0.92,Vminpu=0.92,Vmaxpu=1.5,model=1,daily=RES1_13,status=variable
new load.BT_3002363600_M1 bus1=RML1000593209.2.3.0,Phases=2,kv=0.22,kW=1.62692,pf=0.92,Vminpu=0.92,Vmaxpu=1.5,model=1,daily=RES1_13,status=variable
new load.BT_3002363601_M1 bus1=RML1000593230.1.0,Phases=1,kv=0.127,kW=5.57748,pf=0.92,Vminpu=0.92,Vmaxpu=1.5,model=1,daily=RES1_13,status=variable
new load.BT_3002363602_M1 bus1=RML1000593146.2.3.0,Phases=2,kv=0.22,kW=3.80904,pf=0.92,Vminpu=0.92,Vmaxpu=1.5,model=1,daily=RES1_13,status=variable
new load.BT_3002363603_M1 bus1=RML1000592117.1.2.0,Phases=2,kv=0.22,kW=2.64258,pf=0.92,Vminpu=0.92,Vmaxpu=1.5,model=1,daily=RES1_13,status=variable
new load.BT_3002363604_M1 bus1=RML1007121157.1.0,Phases=1,kv=0.127,kW=1.417,pf=0.92,Vminpu=0.92,Vmaxpu=1.5,model=1,daily=RES1_13,status=variable
new load.BT_3002363605_M1 bus1=RML1000592138.1.2.0,Phases=2,kv=0.22,kW=2.40406,pf=0.92,Vminpu=0.92,Vmaxpu=1.5,model=1,daily=RES1_13,status=variable
new load.BT_3002363606_M1 bus1=RML1000592187.2.3.0,Phases=2,kv=0.22,kW=5.6801,pf=0.92,Vminpu=0.92,Vmaxpu=1.5,model=1,daily=RES1_13,status=variable
new load.BT_3002363607_M1 bus1=RML1000592180.1.2.0,Phases=2,kv=0.22,kW=2.12906,pf=0.92,Vminpu=0.92,Vmaxpu=1.5,model=1,daily=RES1_13,status=variable
new load.BT_3002363608_M1 bus1=RML1000592180.1.2.0,Phases=2,kv=0.22,kW=7.03798,pf=0.92,Vminpu=0.92,Vmaxpu=1.5,model=1,daily=RES1_13,status=variable
new load.BT_3002363609_M1 bus1=RML1000592215.1.2.0,Phases=2,kv=0.22,kW=3.4024,pf=0.92,Vminpu=0.92,Vmaxpu=1.5,model=1,daily=RES1_13,status=variable
new load.BT_3002363610_M1 bus1=RML1000592215.1.2.0,Phases=2,kv=0.22,kW=3.4548,pf=0.92,Vminpu=0.92,Vmaxpu=1.5,model=1,daily=RES1_13,status=variable
new load.BT_3002363611_M1 bus1=RML1000592250.2.3.0,Phases=2,kv=0.22,kW=3.57228,pf=0.92,Vminpu=0.92,Vmaxpu=1.5,model=1,daily=RES1_13,status=variable
new load.BT_3002363612_M1 bus1=RML1000592250.2.3.0,Phases=2,kv=0.22,kW=3.67594,pf=0.92,Vminpu=0.92,Vmaxpu=1.5,model=1,daily=RES1_13,status=variable
new load.BT_3002363613_M1 bus1=RML1000592243.2.0,Phases=1,kv=0.127,kW=1.42092,pf=0.92,Vminpu=0.92,Vmaxpu=1.5,model=1,daily=RES1_13,status=variable
new load.BT_3002363614_M1 bus1=RML1000592278.3.0,Phases=1,kv=0.127,kW=3.99624,pf=0.92,Vminpu=0.92,Vmaxpu=1.5,model=1,daily=RES1_13,status=variable
new load.BT_3002363615_M1 bus1=RML1000592264.1.2.0,Phases=2,kv=0.22,kW=1.25316,pf=0.92,Vminpu=0.92,Vmaxpu=1.5,model=1,daily=RES1_13,status=variable
new load.BT_3002363616_M1 bus1=RML1000592292.1.0,Phases=1,kv=0.127,kW=4.41846,pf=0.92,Vminpu=0.92,Vmaxpu=1.5,model=1,daily=RES1_13,status=variable
new load.BT_3002363617_M1 bus1=RML1000592229.1.2.0,Phases=2,kv=0.22,kW=3.85644,pf=0.92,Vminpu=0.92,Vmaxpu=1.5,model=1,daily=RES1_13,status=variable
new load.BT_3002363618_M1 bus1=RML1000592222.2.3.0,Phases=2,kv=0.22,kW=4.54518,pf=0.92,Vminpu=0.92,Vmaxpu=1.5,model=1,daily=RES1_13,status=variable
new load.BT_3002363619_M1 bus1=RML1000592173.2.3.0,Phases=2,kv=0.22,kW=4.17566,pf=0.92,Vminpu=0.92,Vmaxpu=1.5,model=1,daily=RES1_13,status=variable
new load.BT_3002363620_M1 bus1=RML1000592110.2.0,Phases=1,kv=0.127,kW=0.88262,pf=0.92,Vminpu=0.92,Vmaxpu=1.5,model=1,daily=RES1_13,status=variable
new load.BT_3002363621_M1 bus1=RML1000592068.1.0,Phases=1,kv=0.127,kW=3.36222,pf=0.92,Vminpu=0.92,Vmaxpu=1.5,model=1,daily=RES1_13,status=variable
new load.BT_3002363622_M1 bus1=RML1000592033.1.2.3.0,Phases=3,kv=0.22,kW=0.0211,pf=0.92,Vminpu=0.92,Vmaxpu=1.5,model=1,daily=RES1_13,status=variable
new load.BT_3002363623_M1 bus1=RML1000609372.1.2.3.0,Phases=3,kv=0.22,kW=6.91632,pf=0.92,Vminpu=0.92,Vmaxpu=1.5,model=1,daily=RES1_13,status=variable
new load.BT_3002363624_M1 bus1=RML1000609372.1.2.3.0,Phases=3,kv=0.22,kW=3.3762,pf=0.92,Vminpu=0.92,Vmaxpu=1.5,model=1,daily=RES1_13,status=variable
new load.BT_3002363625_M1 bus1=RML1000609372.1.2.3.0,Phases=3,kv=0.22,kW=2.25258,pf=0.92,Vminpu=0.92,Vmaxpu=1.5,model=1,daily=RES1_13,status=variable
new load.BT_3002363626_M1 bus1=RML1000602652.3.0,Phases=1,kv=0.127,kW=4.3696,pf=0.92,Vminpu=0.92,Vmaxpu=1.5,model=1,daily=RES1_13,status=variable
new load.BT_3002363627_M1 bus1=RML1000602813.3.1.0,Phases=2,kv=0.22,kW=2.31344,pf=0.92,Vminpu=0.92,Vmaxpu=1.5,model=1,daily=RES1_13,status=variable
new load.BT_3002363628_M1 bus1=RML1000602813.3.1.0,Phases=2,kv=0.22,kW=2.30566,pf=0.92,Vminpu=0.92,Vmaxpu=1.5,model=1,daily=RES1_13,status=variable
new load.BT_3002363629_M1 bus1=RML1000602715.1.0,Phases=1,kv=0.127,kW=1.58726,pf=0.92,Vminpu=0.92,Vmaxpu=1.5,model=1,daily=RES1_13,status=variable
new load.BT_3002363630_M1 bus1=RML1000602708.2.3.0,Phases=2,kv=0.22,kW=3.2718,pf=0.92,Vminpu=0.92,Vmaxpu=1.5,model=1,daily=RES1_13,status=variable
new load.BT_3002363631_M1 bus1=RML1000602834.1.2.3.0,Phases=3,kv=0.22,kW=4.21424,pf=0.92,Vminpu=0.92,Vmaxpu=1.5,model=1,daily=RES1_13,status=variable
new load.BT_3002363632_M1 bus1=RML1000602834.1.2.3.0,Phases=3,kv=0.22,kW=2.81352,pf=0.92,Vminpu=0.92,Vmaxpu=1.5,model=1,daily=RES1_13,status=variable
new load.BT_3002363633_M1 bus1=RML1000602862.3.0,Phases=1,kv=0.127,kW=3.28206,pf=0.92,Vminpu=0.92,Vmaxpu=1.5,model=1,daily=RES1_13,status=variable
new load.BT_3002363634_M1 bus1=RML1000602855.3.0,Phases=1,kv=0.127,kW=0.17554,pf=0.92,Vminpu=0.92,Vmaxpu=1.5,model=1,daily=RES1_13,status=variable
new load.BT_3002363635_M1 bus1=RML1000602897.1.2.3.0,Phases=3,kv=0.22,kW=4.7596,pf=0.92,Vminpu=0.92,Vmaxpu=1.5,model=1,daily=RES1_13,status=variable
new load.BT_3002363637_M1 bus1=RML1000602925.2.3.0,Phases=2,kv=0.22,kW=0.7025,pf=0.92,Vminpu=0.92,Vmaxpu=1.5,model=1,daily=RES1_13,status=variable
new load.BT_3002363638_M1 bus1=RML1000602918.3.0,Phases=1,kv=0.127,kW=1.84772,pf=0.92,Vminpu=0.92,Vmaxpu=1.5,model=1,daily=RES1_13,status=variable
new load.BT_3002363639_M1 bus1=RML1000602939.1.0,Phases=1,kv=0.127,kW=2.0551,pf=0.92,Vminpu=0.92,Vmaxpu=1.5,model=1,daily=RES1_13,status=variable
new load.BT_3002363640_M1 bus1=RML1000602890.1.0,Phases=1,kv=0.127,kW=2.3223,pf=0.92,Vminpu=0.92,Vmaxpu=1.5,model=1,daily=RES1_13,status=variable
new load.BT_3002363641_M1 bus1=RML1000602883.3.0,Phases=1,kv=0.127,kW=3.1851,pf=0.92,Vminpu=0.92,Vmaxpu=1.5,model=1,daily=RES1_13,status=variable
new load.BT_3002363642_M1 bus1=RML1000602876.1.2.0,Phases=2,kv=0.22,kW=3.99872,pf=0.92,Vminpu=0.92,Vmaxpu=1.5,model=1,daily=RES1_13,status=variable
new load.BT_3002363643_M1 bus1=RML1000602841.2.0,Phases=1,kv=0.127,kW=6.38826,pf=0.92,Vminpu=0.92,Vmaxpu=1.5,model=1,daily=RES1_13,status=variable
new load.BT_3002363644_M1 bus1=RML1000602757.2.3.0,Phases=2,kv=0.22,kW=1.43152,pf=0.92,Vminpu=0.92,Vmaxpu=1.5,model=1,daily=RES1_13,status=variable
new load.BT_3002363645_M1 bus1=RML1000602771.1.2.3.0,Phases=3,kv=0.22,kW=1.68244,pf=0.92,Vminpu=0.92,Vmaxpu=1.5,model=1,daily=RES1_13,status=variable
new load.BT_3002363646_M1 bus1=RML1000602729.3.1.0,Phases=2,kv=0.22,kW=1.80454,pf=0.92,Vminpu=0.92,Vmaxpu=1.5,model=1,daily=RES1_13,status=variable
new load.BT_3002363647_M1 bus1=RML1000602820.3.0,Phases=1,kv=0.127,kW=3.99342,pf=0.92,Vminpu=0.92,Vmaxpu=1.5,model=1,daily=RES1_13,status=variable
new load.BT_3002363648_M1 bus1=RML1000602694.1.2.0,Phases=2,kv=0.22,kW=3.44806,pf=0.92,Vminpu=0.92,Vmaxpu=1.5,model=1,daily=RES1_13,status=variable
new load.BT_3002363649_M1 bus1=RML1000602694.1.2.0,Phases=2,kv=0.22,kW=1.98998,pf=0.92,Vminpu=0.92,Vmaxpu=1.5,model=1,daily=RES1_13,status=variable
new load.BT_3002363650_M1 bus1=RML1000602687.2.3.0,Phases=2,kv=0.22,kW=0.0211,pf=0.92,Vminpu=0.92,Vmaxpu=1.5,model=1,daily=RES1_13,status=variable
new load.BT_3002363651_M1 bus1=RML1000602680.1.2.0,Phases=2,kv=0.22,kW=5.6847,pf=0.92,Vminpu=0.92,Vmaxpu=1.5,model=1,daily=RES1_13,status=variable
new load.BT_3002363652_M1 bus1=RML1000602673.2.3.0,Phases=2,kv=0.22,kW=4.65274,pf=0.92,Vminpu=0.92,Vmaxpu=1.5,model=1,daily=RES1_13,status=variable
new load.BT_3002363653_M1 bus1=RML1000602638.1.2.3.0,Phases=3,kv=0.22,kW=0.00356,pf=0.92,Vminpu=0.92,Vmaxpu=1.5,model=1,daily=COM1_13,status=variable
new load.BT_3002363654_M1 bus1=RML1000597332.3.1.0,Phases=2,kv=0.22,kW=2.64462,pf=0.92,Vminpu=0.92,Vmaxpu=1.5,model=1,daily=RES1_13,status=variable
new load.BT_3002363655_M1 bus1=RML1000597339.1.2.0,Phases=2,kv=0.22,kW=4.80938,pf=0.92,Vminpu=0.92,Vmaxpu=1.5,model=1,daily=RES1_13,status=variable
new load.BT_3002363656_M1 bus1=RML1000609351.1.2.3.0,Phases=3,kv=0.22,kW=3.17982,pf=0.92,Vminpu=0.92,Vmaxpu=1.5,model=1,daily=RES1_13,status=variable
new load.BT_3002363657_M1 bus1=RML1000609337.2.0,Phases=1,kv=0.127,kW=2.13618,pf=0.92,Vminpu=0.92,Vmaxpu=1.5,model=1,daily=RES1_13,status=variable
new load.BT_3002363659_M1 bus1=RML1000606726.1.0,Phases=1,kv=0.127,kW=1.09392,pf=0.92,Vminpu=0.92,Vmaxpu=1.5,model=1,daily=RES1_13,status=variable
new load.BT_3002363660_M1 bus1=RML1000606705.2.3.0,Phases=2,kv=0.22,kW=0.9367,pf=0.92,Vminpu=0.92,Vmaxpu=1.5,model=1,daily=RES1_13,status=variable
new load.BT_3002363661_M1 bus1=RML1000606705.2.3.0,Phases=2,kv=0.22,kW=2.76968,pf=0.92,Vminpu=0.92,Vmaxpu=1.5,model=1,daily=RES1_13,status=variable
new load.BT_3002363662_M1 bus1=RML1000606831.2.0,Phases=1,kv=0.127,kW=2.95966,pf=0.92,Vminpu=0.92,Vmaxpu=1.5,model=1,daily=RES1_13,status=variable
new load.BT_3002363663_M1 bus1=RML1000606831.2.0,Phases=1,kv=0.127,kW=4.53188,pf=0.92,Vminpu=0.92,Vmaxpu=1.5,model=1,daily=RES1_13,status=variable
new load.BT_3002364020_M1 bus1=RML1000597983.1.0,Phases=1,kv=0.127,kW=2.36582,pf=0.92,Vminpu=0.92,Vmaxpu=1.5,model=1,daily=RES1_13,status=variable
new load.BT_3002364021_M1 bus1=RML1000598018.3.0,Phases=1,kv=0.127,kW=2.22498,pf=0.92,Vminpu=0.92,Vmaxpu=1.5,model=1,daily=RES1_13,status=variable
new load.BT_3002364022_M1 bus1=RML1000598004.3.1.0,Phases=2,kv=0.22,kW=2.96746,pf=0.92,Vminpu=0.92,Vmaxpu=1.5,model=1,daily=RES1_13,status=variable
new load.BT_3002364023_M1 bus1=RML1000601483.3.0,Phases=1,kv=0.127,kW=1.12328,pf=0.92,Vminpu=0.92,Vmaxpu=1.5,model=1,daily=RES1_13,status=variable
new load.BT_3002364024_M1 bus1=RML1000602911.1.2.3.0,Phases=3,kv=0.22,kW=3.66746,pf=0.92,Vminpu=0.92,Vmaxpu=1.5,model=1,daily=RES1_13,status=variable
new load.BT_3002364025_M1 bus1=RML1000602911.1.2.3.0,Phases=3,kv=0.22,kW=1.6414,pf=0.92,Vminpu=0.92,Vmaxpu=1.5,model=1,daily=RES1_13,status=variable
new load.BT_3002364026_M1 bus1=RML1000602911.1.2.3.0,Phases=3,kv=0.22,kW=0.7304,pf=0.92,Vminpu=0.92,Vmaxpu=1.5,model=1,daily=COM1_13,status=variable
new load.BT_3002364027_M1 bus1=RML1000602981.1.2.3.0,Phases=3,kv=0.22,kW=3.34012,pf=0.92,Vminpu=0.92,Vmaxpu=1.5,model=1,daily=RES1_13,status=variable
new load.BT_3002364028_M1 bus1=RML1000602981.1.2.3.0,Phases=3,kv=0.22,kW=0.12922,pf=0.92,Vminpu=0.92,Vmaxpu=1.5,model=1,daily=COM1_13,status=variable
new load.BT_3002364029_M1 bus1=RML1000602988.2.3.0,Phases=2,kv=0.22,kW=3.89502,pf=0.92,Vminpu=0.92,Vmaxpu=1.5,model=1,daily=RES1_13,status=variable
new load.BT_3002364117_M1 bus1=RML1000625920.2.3.0,Phases=2,kv=0.22,kW=4.6223,pf=0.92,Vminpu=0.92,Vmaxpu=1.5,model=1,daily=RES1_13,status=variable
new load.BT_3002364118_M1 bus1=RML1000625941.1.2.0,Phases=2,kv=0.22,kW=1.25572,pf=0.92,Vminpu=0.92,Vmaxpu=1.5,model=1,daily=COM1_13,status=variable
new load.BT_3002364119_M1 bus1=RML1000615560.1.2.0,Phases=2,kv=0.22,kW=2.98974,pf=0.92,Vminpu=0.92,Vmaxpu=1.5,model=1,daily=RES1_13,status=variable
new load.BT_3002364120_M1 bus1=RML1000597437.3.0,Phases=1,kv=0.127,kW=1.5062,pf=0.92,Vminpu=0.92,Vmaxpu=1.5,model=1,daily=RES1_13,status=variable
new load.BT_3002364121_M1 bus1=RML1000616316.2.0,Phases=1,kv=0.127,kW=5.9933,pf=0.92,Vminpu=0.92,Vmaxpu=1.5,model=1,daily=RES1_13,status=variable
new load.BT_3002364122_M1 bus1=RML1000615434.1.0,Phases=1,kv=0.127,kW=1.3434,pf=0.92,Vminpu=0.92,Vmaxpu=1.5,model=1,daily=RES1_13,status=variable
new load.BT_3002364123_M1 bus1=RML1000615413.1.2.0,Phases=2,kv=0.22,kW=3.81044,pf=0.92,Vminpu=0.92,Vmaxpu=1.5,model=1,daily=RES1_13,status=variable
new load.BT_3002364124_M1 bus1=RML1000615420.2.3.0,Phases=2,kv=0.22,kW=3.8784,pf=0.92,Vminpu=0.92,Vmaxpu=1.5,model=1,daily=RES1_13,status=variable
new load.BT_3002364125_M1 bus1=RML1000597472.1.2.3.0,Phases=3,kv=0.22,kW=0.0211,pf=0.92,Vminpu=0.92,Vmaxpu=1.5,model=1,daily=RES1_13,status=variable
new load.BT_3002364126_M1 bus1=RML1000597444.1.2.3.0,Phases=3,kv=0.22,kW=3.23112,pf=0.92,Vminpu=0.92,Vmaxpu=1.5,model=1,daily=RES1_13,status=variable
new load.BT_3002364127_M1 bus1=RML1000597402.1.0,Phases=1,kv=0.127,kW=2.7208,pf=0.92,Vminpu=0.92,Vmaxpu=1.5,model=1,daily=RES1_13,status=variable
new load.BT_3002364128_M1 bus1=RML1000597430.1.2.0,Phases=2,kv=0.22,kW=1.38304,pf=0.92,Vminpu=0.92,Vmaxpu=1.5,model=1,daily=RES1_13,status=variable
new load.BT_3002364129_M1 bus1=RML1000597423.2.3.0,Phases=2,kv=0.22,kW=2.25646,pf=0.92,Vminpu=0.92,Vmaxpu=1.5,model=1,daily=RES1_13,status=variable
new load.BT_3002364131_M1 bus1=RML1000597493.1.2.3.0,Phases=3,kv=0.22,kW=1.9093,pf=0.92,Vminpu=0.92,Vmaxpu=1.5,model=1,daily=RES1_13,status=variable
new load.BT_3002364132_M1 bus1=RML1000615448.3.1.0,Phases=2,kv=0.22,kW=2.34814,pf=0.92,Vminpu=0.92,Vmaxpu=1.5,model=1,daily=RES1_13,status=variable
new load.BT_3002364133_M1 bus1=RML1000615483.2.3.0,Phases=2,kv=0.22,kW=4.00862,pf=0.92,Vminpu=0.92,Vmaxpu=1.5,model=1,daily=RES1_13,status=variable
new load.BT_3002364134_M1 bus1=RML1000615476.1.2.0,Phases=2,kv=0.22,kW=2.52332,pf=0.92,Vminpu=0.92,Vmaxpu=1.5,model=1,daily=RES1_13,status=variable
new load.BT_3002364135_M1 bus1=RML1000615490.3.1.0,Phases=2,kv=0.22,kW=1.32926,pf=0.92,Vminpu=0.92,Vmaxpu=1.5,model=1,daily=RES1_13,status=variable
new load.BT_3002364136_M1 bus1=RML1000615553.1.2.0,Phases=2,kv=0.22,kW=0.0211,pf=0.92,Vminpu=0.92,Vmaxpu=1.5,model=1,daily=RES1_13,status=variable
new load.BT_3002364137_M1 bus1=RML1000602967.2.3.0,Phases=2,kv=0.22,kW=0.00356,pf=0.92,Vminpu=0.92,Vmaxpu=1.5,model=1,daily=COM1_13,status=variable
new load.BT_3002364138_M1 bus1=RML1000597990.1.2.0,Phases=2,kv=0.22,kW=2.1634,pf=0.92,Vminpu=0.92,Vmaxpu=1.5,model=1,daily=RES1_13,status=variable
new load.BT_3002364139_M1 bus1=RML1000597997.1.0,Phases=1,kv=0.127,kW=3.48238,pf=0.92,Vminpu=0.92,Vmaxpu=1.5,model=1,daily=RES1_13,status=variable
new load.BT_3002364140_M1 bus1=RML1000597969.2.3.0,Phases=2,kv=0.22,kW=2.8648,pf=0.92,Vminpu=0.92,Vmaxpu=1.5,model=1,daily=RES1_13,status=variable
new load.BT_3002364141_M1 bus1=RML1000615798.1.2.3.0,Phases=3,kv=0.22,kW=1.68138,pf=0.92,Vminpu=0.92,Vmaxpu=1.5,model=1,daily=RES1_13,status=variable
new load.BT_3002364143_M1 bus1=RML1000615679.2.0,Phases=1,kv=0.127,kW=2.5679,pf=0.92,Vminpu=0.92,Vmaxpu=1.5,model=1,daily=RES1_13,status=variable
new load.BT_3002364144_M1 bus1=RML1000602995.3.0,Phases=1,kv=0.127,kW=3.62146,pf=0.92,Vminpu=0.92,Vmaxpu=1.5,model=1,daily=RES1_13,status=variable
new load.BT_3002364145_M1 bus1=RML1000615651.2.0,Phases=1,kv=0.127,kW=1.28042,pf=0.92,Vminpu=0.92,Vmaxpu=1.5,model=1,daily=RES1_13,status=variable
new load.BT_3002364146_M1 bus1=RML1000595183.1.2.0,Phases=2,kv=0.22,kW=1.96276,pf=0.92,Vminpu=0.92,Vmaxpu=1.5,model=1,daily=RES1_13,status=variable
new load.BT_3002364147_M1 bus1=RML1006535264.1.2.3.0,Phases=3,kv=0.22,kW=1.00212,pf=0.92,Vminpu=0.92,Vmaxpu=1.5,model=1,daily=COM1_13,status=variable
new load.BT_3002364150_M1 bus1=RML1000595253.1.2.3.0,Phases=3,kv=0.22,kW=1.46442,pf=0.92,Vminpu=0.92,Vmaxpu=1.5,model=1,daily=RES1_13,status=variable
new load.BT_3002364151_M1 bus1=RML1000617709.2.3.0,Phases=2,kv=0.22,kW=3.98636,pf=0.92,Vminpu=0.92,Vmaxpu=1.5,model=1,daily=RES1_13,status=variable
new load.BT_3002364153_M1 bus1=RML1000617772.1.2.3.0,Phases=3,kv=0.22,kW=0.50366,pf=0.92,Vminpu=0.92,Vmaxpu=1.5,model=1,daily=COM1_13,status=variable
new load.BT_3002364154_M1 bus1=RML1000617772.1.2.3.0,Phases=3,kv=0.22,kW=2.94126,pf=0.92,Vminpu=0.92,Vmaxpu=1.5,model=1,daily=RES1_13,status=variable
new load.BT_3002364155_M1 bus1=RML1011337157.1.2.3.0,Phases=3,kv=0.22,kW=4.0518,pf=0.92,Vminpu=0.92,Vmaxpu=1.5,model=1,daily=RES1_13,status=variable
new load.BT_3002364156_M1 bus1=RML1000617702.1.2.0,Phases=2,kv=0.22,kW=2.541,pf=0.92,Vminpu=0.92,Vmaxpu=1.5,model=1,daily=RES1_13,status=variable
new load.BT_3002364157_M1 bus1=RML1010957165.3.1.0,Phases=2,kv=0.22,kW=2.7537,pf=0.92,Vminpu=0.92,Vmaxpu=1.5,model=1,daily=RES1_13,status=variable
new load.BT_3002364158_M1 bus1=RML1000617730.1.2.3.0,Phases=3,kv=0.22,kW=1.55612,pf=0.92,Vminpu=0.92,Vmaxpu=1.5,model=1,daily=RES1_13,status=variable
new load.BT_3002364159_M1 bus1=RML1000617947.1.2.3.0,Phases=3,kv=0.22,kW=2.3322,pf=0.92,Vminpu=0.92,Vmaxpu=1.5,model=1,daily=RES1_13,status=variable
new load.BT_3002364160_M1 bus1=RML1000617898.2.0,Phases=1,kv=0.127,kW=3.2626,pf=0.92,Vminpu=0.92,Vmaxpu=1.5,model=1,daily=RES1_13,status=variable
new load.BT_3002364161_M1 bus1=RML1000617828.2.0,Phases=1,kv=0.127,kW=1.03586,pf=0.92,Vminpu=0.92,Vmaxpu=1.5,model=1,daily=RES1_13,status=variable
new load.BT_3002364162_M1 bus1=RML1000618052.1.2.0,Phases=2,kv=0.22,kW=3.77116,pf=0.92,Vminpu=0.92,Vmaxpu=1.5,model=1,daily=RES1_13,status=variable
new load.BT_3002364163_M1 bus1=RML1000618024.2.3.0,Phases=2,kv=0.22,kW=3.14794,pf=0.92,Vminpu=0.92,Vmaxpu=1.5,model=1,daily=RES1_13,status=variable
new load.BT_3002364164_M1 bus1=RML1000618087.1.2.3.0,Phases=3,kv=0.22,kW=2.91542,pf=0.92,Vminpu=0.92,Vmaxpu=1.5,model=1,daily=RES1_13,status=variable
new load.BT_3002364165_M1 bus1=RML1000618038.2.3.0,Phases=2,kv=0.22,kW=0.6016,pf=0.92,Vminpu=0.92,Vmaxpu=1.5,model=1,daily=RES1_13,status=variable
new load.BT_3002364166_M1 bus1=RML1000617912.1.2.0,Phases=2,kv=0.22,kW=1.6552,pf=0.92,Vminpu=0.92,Vmaxpu=1.5,model=1,daily=RES1_13,status=variable
new load.BT_3002364167_M1 bus1=RML1000617912.1.2.0,Phases=2,kv=0.22,kW=3.3649,pf=0.92,Vminpu=0.92,Vmaxpu=1.5,model=1,daily=RES1_13,status=variable
new load.BT_3002364168_M1 bus1=RML1000617793.1.2.3.0,Phases=3,kv=0.22,kW=0.10748,pf=0.92,Vminpu=0.92,Vmaxpu=1.5,model=1,daily=COM1_13,status=variable
new load.BT_3002364169_M1 bus1=RML1000617786.3.0,Phases=1,kv=0.127,kW=2.1949,pf=0.92,Vminpu=0.92,Vmaxpu=1.5,model=1,daily=RES1_13,status=variable
new load.BT_3002364170_M1 bus1=RML1000617765.2.3.0,Phases=2,kv=0.22,kW=2.68682,pf=0.92,Vminpu=0.92,Vmaxpu=1.5,model=1,daily=RES1_13,status=variable
new load.BT_3002364171_M1 bus1=RML1000617163.1.0,Phases=1,kv=0.127,kW=0.08776,pf=0.92,Vminpu=0.92,Vmaxpu=1.5,model=1,daily=RES1_13,status=variable
new load.BT_3002364172_M1 bus1=RML1007212626.1.2.3.0,Phases=3,kv=0.22,kW=0.6809,pf=0.92,Vminpu=0.92,Vmaxpu=1.5,model=1,daily=RES1_13,status=variable
new load.BT_3002364173_M1 bus1=RML1000617275.3.1.0,Phases=2,kv=0.22,kW=2.67054,pf=0.92,Vminpu=0.92,Vmaxpu=1.5,model=1,daily=RES1_13,status=variable
new load.BT_3002364174_M1 bus1=RML1000617289.1.2.3.0,Phases=3,kv=0.22,kW=2.24444,pf=0.92,Vminpu=0.92,Vmaxpu=1.5,model=1,daily=RES1_13,status=variable
new load.BT_3002364175_M1 bus1=RML1000617233.3.0,Phases=1,kv=0.127,kW=2.04164,pf=0.92,Vminpu=0.92,Vmaxpu=1.5,model=1,daily=RES1_13,status=variable
new load.BT_3002364176_M1 bus1=RML1000617352.3.1.0,Phases=2,kv=0.22,kW=3.45478,pf=0.92,Vminpu=0.92,Vmaxpu=1.5,model=1,daily=RES1_13,status=variable
new load.BT_3002364177_M1 bus1=RML1000617191.1.2.3.0,Phases=3,kv=0.22,kW=4.0083,pf=0.92,Vminpu=0.92,Vmaxpu=1.5,model=1,daily=RES1_13,status=variable
new load.BT_3002364178_M1 bus1=RML1000617359.3.1.0,Phases=2,kv=0.22,kW=2.17294,pf=0.92,Vminpu=0.92,Vmaxpu=1.5,model=1,daily=RES1_13,status=variable
new load.BT_3003398709_M1 bus1=RML1000595190.1.0,Phases=1,kv=0.127,kW=1.67074,pf=0.92,Vminpu=0.92,Vmaxpu=1.5,model=1,daily=RES1_2,status=variable
new load.BT_3003398710_M1 bus1=RML1000618094.1.0,Phases=1,kv=0.127,kW=0.0098,pf=0.92,Vminpu=0.92,Vmaxpu=1.5,model=1,daily=RES1_2,status=variable
new load.BT_3003484769_M1 bus1=RML1000608091.2.3.0,Phases=2,kv=0.22,kW=1.8318,pf=0.92,Vminpu=0.92,Vmaxpu=1.5,model=1,daily=RES1_3,status=variable
new load.BT_3003484771_M1 bus1=RML1000605487.1.0,Phases=1,kv=0.127,kW=0.67814,pf=0.92,Vminpu=0.92,Vmaxpu=1.5,model=1,daily=RES1_3,status=variable
new load.BT_3003484772_M1 bus1=RML1000605473.2.0,Phases=1,kv=0.127,kW=1.3411,pf=0.92,Vminpu=0.92,Vmaxpu=1.5,model=1,daily=RES1_3,status=variable
new load.BT_3003484773_M1 bus1=RML1000602659.3.0,Phases=1,kv=0.127,kW=1.08196,pf=0.92,Vminpu=0.92,Vmaxpu=1.5,model=1,daily=RES1_3,status=variable