new line.RBT_10001839 bus1=BBT95596741.1.2.0,bus2=RML1010001839.1.2.0,Phases=2,Linecode=CABBTG04_4_2_2,Length=0.029000000,Units=km
new line.RBT_10002385 bus1=BBT2839698.1.2.0,bus2=RML1010002385.1.2.0,Phases=2,Linecode=CABBTG13_4_2_2,Length=0.029000000,Units=km
new line.RBT_10002448 bus1=BBT114973035.1.0,bus2=RML1010002448.1.0,Phases=1,Linecode=CABBTG03_4_1_1,Length=0.029000000,Units=km
new line.RBT_10002490 bus1=BBT2842722.1.2.0,bus2=RML1010002490.1.2.0,Phases=2,Linecode=CABBTG13_4_2_2,Length=0.029000000,Units=km
new line.RBT_10002525 bus1=BBT273225.1.0,bus2=RML1010002525.1.0,Phases=1,Linecode=CABBTG03_4_1_1,Length=0.029000000,Units=km
new line.RBT_10002658 bus1=BBT285251.1.0,bus2=RML1010002658.1.0,Phases=1,Linecode=CABBTG03_4_1_1,Length=0.029000000,Units=km
new line.RBT_10002749 bus1=BBT295128.1.0,bus2=RML1010002749.1.0,Phases=1,Linecode=CABBTG02_4_1_1,Length=0.029000000,Units=km
new line.RBT_10002987 bus1=BBT3455362.1.2.0,bus2=RML1010002987.1.2.0,Phases=2,Linecode=CABBTG05_4_2_2,Length=0.029000000,Units=km
new line.RBT_10004037 bus1=BBT2842841.1.0,bus2=RML1010004037.1.0,Phases=1,Linecode=CABBTG02_4_1_1,Length=0.029000000,Units=km
new line.RBT_10004198 bus1=BBT114922754.1.2.0,bus2=RML1010004198.1.2.0,Phases=2,Linecode=CABBTG05_4_2_2,Length=0.029000000,Units=km
new line.RBT_10004219 bus1=BBT283683.1.2.0,bus2=RML1010004219.1.2.0,Phases=2,Linecode=CABBTG04_4_2_2,Length=0.029000000,Units=km
new line.RBT_10004387 bus1=BBT4024497.1.2.0,bus2=RML1010004387.1.2.0,Phases=2,Linecode=CABBTG04_4_2_2,Length=0.017000000,Units=km
new line.RBT_10006032 bus1=BBT3454970.1.0,bus2=RML1010006032.1.0,Phases=1,Linecode=CABBTG03_4_1_1,Length=0.029000000,Units=km
new line.RBT_10006095 bus1=BBT2842995.1.2.0,bus2=RML1010006095.1.2.0,Phases=2,Linecode=CABBTG05_4_2_2,Length=0.029000000,Units=km
new line.RBT_10007201 bus1=BBT2847811.1.2.0,bus2=RML1010007201.1.2.0,Phases=2,Linecode=CABBTG04_4_2_2,Length=0.029000000,Units=km
new line.RBT_10007425 bus1=BBT3277576.1.2.3.0,bus2=RML1010007425.1.2.3.0,Phases=3,Linecode=CABBTG12_4_3_3,Length=0.029000000,Units=km
new line.RBT_10011695 bus1=BBT3455278.1.2.0,bus2=RML1010011695.1.2.0,Phases=2,Linecode=CABBTG05_4_2_2,Length=0.029000000,Units=km
new line.RBT_10011842 bus1=BBT2847538.1.2.0,bus2=RML1010011842.1.2.0,Phases=2,Linecode=CABBTG05_4_2_2,Length=0.029000000,Units=km
new line.RBT_10087804 bus1=BBT114931392.1.2.0,bus2=RML1010087804.1.2.0,Phases=2,Linecode=CABBTG05_4_2_2,Length=0.016000000,Units=km
new line.RBT_10087813 bus1=BBT167030976.3.0,bus2=RML1010087813.3.0,Phases=1,Linecode=CABBTG02_4_1_1,Length=0.010000000,Units=km
new line.RBT_10087847 bus1=BBT2821925.1.2.3.0,bus2=RML1010087847.1.2.3.0,Phases=3,Linecode=CABBTG06_4_3_3,Length=0.029000000,Units=km
new line.RBT_10087954 bus1=BBT4960614.1.0,bus2=RML1010087954.1.0,Phases=1,Linecode=CABBTG02_4_1_1,Length=0.007000000,Units=km
new line.RBT_10087957 bus1=BBT271454.1.2.3.0,bus2=RML1010087957.1.2.3.0,Phases=3,Linecode=CABBTG06_4_3_3,Length=0.010000000,Units=km
new line.RBT_10087962 bus1=BBT2820434.1.0,bus2=RML1010087962.1.0,Phases=1,Linecode=CABBTG02_4_1_1,Length=0.012000000,Units=km
new line.RBT_10088023 bus1=BBT117714942.1.0,bus2=RML1010088023.1.0,Phases=1,Linecode=CABBTG02_4_1_1,Length=0.029000000,Units=km
new line.RBT_10088041 bus1=BBT95596734.1.2.0,bus2=RML1010088041.1.2.0,Phases=2,Linecode=CABBTG05_4_2_2,Length=0.029000000,Units=km
new line.RBT_10088066 bus1=BBT114922747.1.2.3.0,bus2=RML1010088066.1.2.3.0,Phases=3,Linecode=CABBTG06_4_3_3,Length=0.017000000,Units=km
new line.RBT_10088081 bus1=BBT295114.1.2.3.0,bus2=RML1010088081.1.2.3.0,Phases=3,Linecode=CABBTG06_4_3_3,Length=0.022000000,Units=km
new line.RBT_10088089 bus1=BBT3455488.1.2.3.0,bus2=RML1010088089.1.2.3.0,Phases=3,Linecode=CABBTG06_4_3_3,Length=0.012000000,Units=km
new line.RBT_10088118 bus1=BBT2843037.1.0,bus2=RML1010088118.1.0,Phases=1,Linecode=CABBTG02_4_1_1,Length=0.016000000,Units=km
new line.RBT_10088228 bus1=BBT2844353.1.2.0,bus2=RML1010088228.1.2.0,Phases=2,Linecode=CABBTG05_4_2_2,Length=0.010000000,Units=km
new line.RBT_10088233 bus1=BBT3455362.1.2.0,bus2=RML1010088233.1.2.0,Phases=2,Linecode=CABBTG05_4_2_2,Length=0.010000000,Units=km
new line.RBT_10088257 bus1=BBT3716490.1.0,bus2=RML1010088257.1.0,Phases=1,Linecode=CABBTG02_4_1_1,Length=0.013000000,Units=km
new line.RBT_10088265 bus1=BBT2843037.1.0,bus2=RML1010088265.1.0,Phases=1,Linecode=CABBTG02_4_1_1,Length=0.017000000,Units=km
new line.RBT_10088384 bus1=BBT2846075.1.0,bus2=RML1010088384.1.0,Phases=1,Linecode=CABBTG02_4_1_1,Length=0.016000000,Units=km
new line.RBT_10088386 bus1=BBT2846075.1.0,bus2=RML1010088386.1.0,Phases=1,Linecode=CABBTG02_4_1_1,Length=0.017000000,Units=km
new line.RBT_10088393 bus1=BBT2847685.1.2.3.0,bus2=RML1010088393.1.2.3.0,Phases=3,Linecode=CABBTG12_4_3_3,Length=0.007000000,Units=km
new line.RBT_10084989 bus1=BBT114979552.1.0,bus2=RML1010084989.1.0,Phases=1,Linecode=CABBTG02_4_1_1,Length=0.029000000,Units=km
new line.RBT_10085041 bus1=BBT2843492.1.0,bus2=RML1010085041.1.0,Phases=1,Linecode=CABBTG02_4_1_1,Length=0.029000000,Units=km
new line.RBT_10085056 bus1=BBT114848148.1.0,bus2=RML1010085056.1.0,Phases=1,Linecode=CABBTG02_4_1_1,Length=0.029000000,Units=km
new line.RBT_10085072 bus1=BBT114848148.1.0,bus2=RML1010085072.1.0,Phases=1,Linecode=CABBTG02_4_1_1,Length=0.029000000,Units=km
new line.RBT_10085332 bus1=BBT2844458.1.2.3.0,bus2=RML1010085332.1.2.3.0,Phases=3,Linecode=CABBTG06_4_3_3,Length=0.029000000,Units=km
new line.RBT_10085362 bus1=BBT2845998.1.0,bus2=RML1010085362.1.0,Phases=1,Linecode=CABBTG02_4_1_1,Length=0.029000000,Units=km
new line.RBT_10085370 bus1=BBT114931903.1.2.3.0,bus2=RML1010085370.1.2.3.0,Phases=3,Linecode=CABBTG06_4_3_3,Length=0.029000000,Units=km
new line.RBT_10085410 bus1=BBT95596741.1.2.0,bus2=RML1010085410.1.2.0,Phases=2,Linecode=CABBTG05_4_2_2,Length=0.029000000,Units=km
new line.RBT_10085483 bus1=BBT3454459.1.2.0,bus2=RML1010085483.1.2.0,Phases=2,Linecode=CABBTG05_4_2_2,Length=0.029000000,Units=km
new line.RBT_10085895 bus1=BBT2844073.1.2.3.0,bus2=RML1010085895.1.2.3.0,Phases=3,Linecode=CABBTG12_4_3_3,Length=0.029000000,Units=km
new line.RBT_10085941 bus1=BBT273232.1.2.3.0,bus2=RML1010085941.1.2.3.0,Phases=3,Linecode=CABBTG06_4_3_3,Length=0.029000000,Units=km
new line.RBT_10086338 bus1=BBT2845704.1.2.0,bus2=RML1010086338.1.2.0,Phases=2,Linecode=CABBTG05_4_2_2,Length=0.029000000,Units=km
new line.RBT_10086343 bus1=BBT285125.1.0,bus2=RML1010086343.1.0,Phases=1,Linecode=CABBTG02_4_1_1,Length=0.029000000,Units=km
new line.RBT_10086347 bus1=BBT282500.1.0,bus2=RML1010086347.1.0,Phases=1,Linecode=CABBTG02_4_1_1,Length=0.029000000,Units=km
new line.RBT_10086357 bus1=BBT3455271.1.2.0,bus2=RML1010086357.1.2.0,Phases=2,Linecode=CABBTG05_4_2_2,Length=0.029000000,Units=km
new line.RBT_10086407 bus1=BBT273267.1.2.3.0,bus2=RML1010086407.1.2.3.0,Phases=3,Linecode=CABBTG07_4_3_3,Length=0.029000000,Units=km
new line.RBT_10086437 bus1=BBT3454781.1.2.0,bus2=RML1010086437.1.2.0,Phases=2,Linecode=CABBTG05_4_2_2,Length=0.029000000,Units=km
new line.RBT_10086442 bus1=BBT2842687.1.2.0,bus2=RML1010086442.1.2.0,Phases=2,Linecode=CABBTG05_4_2_2,Length=0.029000000,Units=km
new line.RBT_10086443 bus1=BBT3278584.1.0,bus2=RML1010086443.1.0,Phases=1,Linecode=CABBTG02_4_1_1,Length=0.029000000,Units=km
new line.RBT_10086446 bus1=BBT114955353.1.2.0,bus2=RML1010086446.1.2.0,Phases=2,Linecode=CABBTG05_4_2_2,Length=0.017000000,Units=km
new line.RBT_10086461 bus1=BBT2820413.1.2.0,bus2=RML1010086461.1.2.0,Phases=2,Linecode=CABBTG05_4_2_2,Length=0.029000000,Units=km
new line.RBT_10086525 bus1=BBT3454977.1.0,bus2=RML1010086525.1.0,Phases=1,Linecode=CABBTG02_4_1_1,Length=0.029000000,Units=km
new line.RBT_10086530 bus1=BBT295184.1.2.0,bus2=RML1010086530.1.2.0,Phases=2,Linecode=CABBTG05_4_2_2,Length=0.029000000,Units=km
new line.RBT_10086546 bus1=BBT2842470.1.0,bus2=RML1010086546.1.0,Phases=1,Linecode=CABBTG02_4_1_1,Length=0.029000000,Units=km
new line.RBT_10086697 bus1=BBT153116287.1.0,bus2=RML1010086697.1.0,Phases=1,Linecode=CABBTG02_4_1_1,Length=0.029000000,Units=km
new line.RBT_10086846 bus1=BBT279602.1.0,bus2=RML1010086846.1.0,Phases=1,Linecode=CABBTG02_4_1_1,Length=0.029000000,Units=km
new line.RBT_10086914 bus1=BBT2848007.1.0,bus2=RML1010086914.1.0,Phases=1,Linecode=CABBTG02_4_1_1,Length=0.029000000,Units=km
new line.RBT_10086925 bus1=BBT2848007.1.0,bus2=RML1010086925.1.0,Phases=1,Linecode=CABBTG02_4_1_1,Length=0.029000000,Units=km
new line.RBT_10087228 bus1=BBT167030976.1.2.3.0,bus2=RML1010087228.1.2.3.0,Phases=3,Linecode=CABBTG06_4_3_3,Length=0.012000000,Units=km
new line.RBT_10087232 bus1=BBT4230619.1.2.3.0,bus2=RML1010087232.1.2.3.0,Phases=3,Linecode=CABBTG06_4_3_3,Length=0.012000000,Units=km
new line.RBT_10087246 bus1=BBT114926184.1.2.3.0,bus2=RML1010087246.1.2.3.0,Phases=3,Linecode=CABBTG06_4_3_3,Length=0.006000000,Units=km
new line.RBT_10087341 bus1=BBT2843982.1.0,bus2=RML1010087341.1.0,Phases=1,Linecode=CABBTG02_4_1_1,Length=0.029000000,Units=km
new line.RBT_10104948 bus1=BBT114966980.1.0,bus2=RML1010104948.1.0,Phases=1,Linecode=CABBTG02_4_1_1,Length=0.010000000,Units=km
new line.RBT_10105134 bus1=BBT114979552.1.0,bus2=RML1010105134.1.0,Phases=1,Linecode=CABBTG02_4_1_1,Length=0.010000000,Units=km
new line.RBT_10131977 bus1=BBT291810.1.2.0,bus2=RML1010131977.1.2.0,Phases=2,Linecode=CABBTG05_4_2_2,Length=0.029000000,Units=km
new line.RBT_10132012 bus1=BBT289171.1.2.0,bus2=RML1010132012.1.2.0,Phases=2,Linecode=CABBTG05_4_2_2,Length=0.029000000,Units=km
new line.RBT_10132020 bus1=BBT177011575.1.2.0,bus2=RML1010132020.1.2.0,Phases=2,Linecode=CABBTG05_4_2_2,Length=0.029000000,Units=km
new line.RBT_10089549 bus1=BBT2843156.1.0,bus2=RML1010089549.1.0,Phases=1,Linecode=CABBTG02_4_1_1,Length=0.010000000,Units=km
new line.RBT_10119105 bus1=BBT2844129.1.2.3.0,bus2=RML1010119105.1.2.3.0,Phases=3,Linecode=CABBTG06_4_3_3,Length=0.019000000,Units=km
new line.RBT_10119205 bus1=BBT2843821.1.2.0,bus2=RML1010119205.1.2.0,Phases=2,Linecode=CABBTG05_4_2_2,Length=0.030000000,Units=km
new line.RBT_10119211 bus1=BBT271433.1.2.3.0,bus2=RML1010119211.1.2.3.0,Phases=3,Linecode=CABBTG09_4_3_3,Length=0.029000000,Units=km
new line.RBT_10119251 bus1=BBT282514.1.2.0,bus2=RML1010119251.1.2.0,Phases=2,Linecode=CABBTG05_4_2_2,Length=0.029000000,Units=km
new line.RBT_10119254 bus1=BBT280246.1.2.3.0,bus2=RML1010119254.1.2.3.0,Phases=3,Linecode=CABBTG06_4_3_3,Length=0.011000000,Units=km
new line.RBT_10119257 bus1=BBT282514.1.2.0,bus2=RML1010119257.1.2.0,Phases=2,Linecode=CABBTG05_4_2_2,Length=0.029000000,Units=km
new line.RBT_10119289 bus1=BBT2843093.1.2.3.0,bus2=RML1010119289.1.2.3.0,Phases=3,Linecode=CABBTG06_4_3_3,Length=0.012000000,Units=km
new line.RBT_10119313 bus1=BBT2842750.1.2.0,bus2=RML1010119313.1.2.0,Phases=2,Linecode=CABBTG05_4_2_2,Length=0.029000000,Units=km
new line.RBT_10119317 bus1=BBT282801.1.2.0,bus2=RML1010119317.1.2.0,Phases=2,Linecode=CABBTG05_4_2_2,Length=0.029000000,Units=km
new line.RBT_10119319 bus1=BBT282780.1.2.0,bus2=RML1010119319.1.2.0,Phases=2,Linecode=CABBTG05_4_2_2,Length=0.029000000,Units=km
new line.RBT_10119322 bus1=BBT282206.1.2.0,bus2=RML1010119322.1.2.0,Phases=2,Linecode=CABBTG05_4_2_2,Length=0.029000000,Units=km
new line.RBT_10119328 bus1=BBT283620.1.2.0,bus2=RML1010119328.1.2.0,Phases=2,Linecode=CABBTG05_4_2_2,Length=0.029000000,Units=km
new line.RBT_10119354 bus1=BBT293000.1.2.3.0,bus2=RML1010119354.1.2.3.0,Phases=3,Linecode=CABBTG07_4_3_3,Length=0.029000000,Units=km
new line.RBT_10119362 bus1=BBT287372.1.2.3.0,bus2=RML1010119362.1.2.3.0,Phases=3,Linecode=CABBTG06_4_3_3,Length=0.029000000,Units=km
new line.RBT_10119406 bus1=BBT288849.1.2.0,bus2=RML1010119406.1.2.0,Phases=2,Linecode=CABBTG05_4_2_2,Length=0.029000000,Units=km
new line.RBT_10119440 bus1=BBT3454942.1.2.0,bus2=RML1010119440.1.2.0,Phases=2,Linecode=CABBTG05_4_2_2,Length=0.029000000,Units=km
new line.RBT_10119443 bus1=BBT3454942.1.2.0,bus2=RML1010119443.1.2.0,Phases=2,Linecode=CABBTG05_4_2_2,Length=0.029000000,Units=km
new line.RBT_10119449 bus1=BBT3455089.1.2.0,bus2=RML1010119449.1.2.0,Phases=2,Linecode=CABBTG05_4_2_2,Length=0.029000000,Units=km
new line.RBT_10119455 bus1=BBT3455271.1.2.0,bus2=RML1010119455.1.2.0,Phases=2,Linecode=CABBTG05_4_2_2,Length=0.029000000,Units=km
new line.RBT_10119469 bus1=BBT3454830.1.2.0,bus2=RML1010119469.1.2.0,Phases=2,Linecode=CABBTG05_4_2_2,Length=0.029000000,Units=km
new line.RBT_10119479 bus1=BBT2845697.1.2.0,bus2=RML1010119479.1.2.0,Phases=2,Linecode=CABBTG05_4_2_2,Length=0.029000000,Units=km
new line.RBT_10119501 bus1=BBT284579.1.2.0,bus2=RML1010119501.1.2.0,Phases=2,Linecode=CABBTG05_4_2_2,Length=0.029000000,Units=km
new line.RBT_10161036 bus1=BBT282500.1.0,bus2=RML1010161036.1.0,Phases=1,Linecode=CABBTG02_4_1_1,Length=0.029000000,Units=km
new line.RBT_10192723 bus1=BBT282794.1.2.0,bus2=RML1010192723.1.2.0,Phases=2,Linecode=CABBTG13_4_2_2,Length=0.029000000,Units=km
new line.RBT_10194847 bus1=BBT114965538.1.0,bus2=RML1010194847.1.0,Phases=1,Linecode=CABBTG02_4_1_1,Length=0.029000000,Units=km
new line.RBT_10194864 bus1=BBT298628.1.2.0,bus2=RML1010194864.1.2.0,Phases=2,Linecode=CABBTG05_4_2_2,Length=0.029000000,Units=km
new line.RBT_10194911 bus1=BBT3652566.1.0,bus2=RML1010194911.1.0,Phases=1,Linecode=CABBTG02_4_1_1,Length=0.029000000,Units=km
new line.RBT_10228751 bus1=BBT3454480.1.0,bus2=RML1010228751.1.0,Phases=1,Linecode=CABBTG02_4_1_1,Length=0.029000000,Units=km
new line.RBT_10228872 bus1=BBT285300.1.0,bus2=RML1010228872.1.0,Phases=1,Linecode=CABBTG02_4_1_1,Length=0.029000000,Units=km
new line.RBT_10228937 bus1=BBT11151856.1.2.3.0,bus2=RML1010228937.1.2.3.0,Phases=3,Linecode=CABBTG10_4_3_3,Length=0.029000000,Units=km
new line.RBT_10228941 bus1=BBT4076724.1.2.0,bus2=RML1010228941.1.2.0,Phases=2,Linecode=CABBTG13_4_2_2,Length=0.029000000,Units=km
new line.RBT_10228943 bus1=BBT3412851.1.2.0,bus2=RML1010228943.1.2.0,Phases=2,Linecode=CABBTG13_4_2_2,Length=0.029000000,Units=km
new line.RBT_10229391 bus1=BBT2844535.1.0,bus2=RML1010229391.1.0,Phases=1,Linecode=CABBTG02_4_1_1,Length=0.029000000,Units=km
new line.RBT_10229396 bus1=BBT2842750.1.0,bus2=RML1010229396.1.0,Phases=1,Linecode=CABBTG02_4_1_1,Length=0.029000000,Units=km
new line.RBT_10229468 bus1=BBT3454480.1.0,bus2=RML1010229468.1.0,Phases=1,Linecode=CABBTG02_4_1_1,Length=0.029000000,Units=km
new line.RBT_10229473 bus1=BBT153116287.1.0,bus2=RML1010229473.1.0,Phases=1,Linecode=CABBTG02_4_1_1,Length=0.029000000,Units=km
new line.RBT_10045807 bus1=BBT3455187.1.2.3.0,bus2=RML1010045807.1.2.3.0,Phases=3,Linecode=CABBTG12_4_3_3,Length=0.029000000,Units=km
new line.RBT_10045812 bus1=BBT279742.1.2.3.0,bus2=RML1010045812.1.2.3.0,Phases=3,Linecode=CABBTG06_4_3_3,Length=0.029000000,Units=km
new line.RBT_10068613 bus1=BBT114848239.2.0,bus2=RML1010068613.2.0,Phases=1,Linecode=CABBTG02_4_1_1,Length=0.029000000,Units=km
new line.RBT_10068627 bus1=BBT2839600.1.2.0,bus2=RML1010068627.1.2.0,Phases=2,Linecode=CABBTG05_4_2_2,Length=0.029000000,Units=km
new line.RBT_10068642 bus1=BBT3652552.1.2.3.0,bus2=RML1010068642.1.2.3.0,Phases=3,Linecode=CABBTG12_4_3_3,Length=0.029000000,Units=km
new line.RBT_10068736 bus1=BBT3455201.1.2.0,bus2=RML1010068736.1.2.0,Phases=2,Linecode=CABBTG05_4_2_2,Length=0.029000000,Units=km
new line.RBT_10068747 bus1=BBT3454424.1.0,bus2=RML1010068747.1.0,Phases=1,Linecode=CABBTG02_4_1_1,Length=0.029000000,Units=km
new line.RBT_10068751 bus1=BBT2843184.2.0,bus2=RML1010068751.2.0,Phases=1,Linecode=CABBTG02_4_1_1,Length=0.029000000,Units=km
new line.RBT_10068758 bus1=BBT4960628.1.0,bus2=RML1010068758.1.0,Phases=1,Linecode=CABBTG02_4_1_1,Length=0.029000000,Units=km
new line.RBT_10069164 bus1=BBT2839663.1.0,bus2=RML1010069164.1.0,Phases=1,Linecode=CABBTG02_4_1_1,Length=0.029000000,Units=km
new line.RBT_10069180 bus1=BBT3455243.1.2.0,bus2=RML1010069180.1.2.0,Phases=2,Linecode=CABBTG05_4_2_2,Length=0.029000000,Units=km
new line.RBT_10069182 bus1=BBT2844388.1.2.0,bus2=RML1010069182.1.2.0,Phases=2,Linecode=CABBTG05_4_2_2,Length=0.029000000,Units=km
new line.RBT_10069192 bus1=BBT114968653.1.2.3.0,bus2=RML1010069192.1.2.3.0,Phases=3,Linecode=CABBTG06_4_3_3,Length=0.029000000,Units=km
new line.RBT_10136021 bus1=BBT4389190.3.1.0,bus2=RML1010136021.3.1.0,Phases=2,Linecode=CABBTG05_4_2_2,Length=0.029000000,Units=km
new line.RBT_10136787 bus1=BBT3455124.1.2.0,bus2=RML1010136787.1.2.0,Phases=2,Linecode=CABBTG05_4_2_2,Length=0.029000000,Units=km
new line.RBT_10137940 bus1=BBT97205915.1.2.3.0,bus2=RML1010137940.1.2.3.0,Phases=3,Linecode=CABBTG06_4_3_3,Length=0.013000000,Units=km
new line.RBT_10137981 bus1=BBT2822016.1.0,bus2=RML1010137981.1.0,Phases=1,Linecode=CABBTG02_4_1_1,Length=0.029000000,Units=km
new line.RBT_10138044 bus1=BBT288660.1.0,bus2=RML1010138044.1.0,Phases=1,Linecode=CABBTG02_4_1_1,Length=0.015000000,Units=km
new line.RBT_10138118 bus1=BBT287694.1.0,bus2=RML1010138118.1.0,Phases=1,Linecode=CABBTG01_4_1_1,Length=0.025000000,Units=km
new line.RBT_10138139 bus1=BBT2845998.1.0,bus2=RML1010138139.1.0,Phases=1,Linecode=CABBTG02_4_1_1,Length=0.015000000,Units=km
new line.RBT_10138168 bus1=BBT3455369.1.0,bus2=RML1010138168.1.0,Phases=1,Linecode=CABBTG02_4_1_1,Length=0.019000000,Units=km
new line.RBT_10138190 bus1=BBT114966980.1.2.0,bus2=RML1010138190.1.2.0,Phases=2,Linecode=CABBTG05_4_2_2,Length=0.018000000,Units=km
new line.RBT_10138289 bus1=BBT4076738.1.2.3.0,bus2=RML1010138289.1.2.3.0,Phases=3,Linecode=CABBTG06_4_3_3,Length=0.010000000,Units=km
new line.RBT_10138494 bus1=BBT284747.1.2.0,bus2=RML1010138494.1.2.0,Phases=2,Linecode=CABBTG05_4_2_2,Length=0.016000000,Units=km
new line.RBT_10138498 bus1=BBT2847468.1.2.0,bus2=RML1010138498.1.2.0,Phases=2,Linecode=CABBTG05_4_2_2,Length=0.017000000,Units=km
new line.RBT_10177866 bus1=BBT4376849.3.0,bus2=RML1010177866.3.0,Phases=1,Linecode=CABBTG02_4_1_1,Length=0.029000000,Units=km
new line.RBT_10179609 bus1=BBT3336670.1.2.0,bus2=RML1010179609.1.2.0,Phases=2,Linecode=CABBTG05_4_2_2,Length=0.029000000,Units=km
new line.RBT_10218622 bus1=BBT2848042.1.0,bus2=RML1010218622.1.0,Phases=1,Linecode=CABBTG02_4_1_1,Length=0.029000000,Units=km
new line.RBT_10218652 bus1=BBT114924357.1.0,bus2=RML1010218652.1.0,Phases=1,Linecode=CABBTG02_4_1_1,Length=0.017000000,Units=km
new line.RBT_10220289 bus1=BBT114931784.1.2.0,bus2=RML1010220289.1.2.0,Phases=2,Linecode=CABBTG13_4_2_2,Length=0.029000000,Units=km
new line.RBT_10220294 bus1=BBT114931784.2.0,bus2=RML1010220294.2.0,Phases=1,Linecode=CABBTG02_4_1_1,Length=0.029000000,Units=km
new line.RBT_10220297 bus1=BBT115021783.2.0,bus2=RML1010220297.2.0,Phases=1,Linecode=CABBTG02_4_1_1,Length=0.029000000,Units=km
new line.RBT_10220300 bus1=BBT114931392.2.0,bus2=RML1010220300.2.0,Phases=1,Linecode=CABBTG02_4_1_1,Length=0.029000000,Units=km
new line.RBT_10220301 bus1=BBT114931784.2.0,bus2=RML1010220301.2.0,Phases=1,Linecode=CABBTG02_4_1_1,Length=0.029000000,Units=km
new line.RBT_10220302 bus1=BBT115021783.3.0,bus2=RML1010220302.3.0,Phases=1,Linecode=CABBTG02_4_1_1,Length=0.029000000,Units=km
new line.RBT_10220305 bus1=BBT114931784.3.0,bus2=RML1010220305.3.0,Phases=1,Linecode=CABBTG02_4_1_1,Length=0.029000000,Units=km
new line.RBT_10220306 bus1=BBT114931903.3.0,bus2=RML1010220306.3.0,Phases=1,Linecode=CABBTG02_4_1_1,Length=0.029000000,Units=km
new line.RBT_10053820 bus1=BBT2821967.1.2.0,bus2=RML1010053820.1.2.0,Phases=2,Linecode=CABBTG05_4_2_2,Length=0.029000000,Units=km
new line.RBT_10053827 bus1=BBT2822023.1.2.0,bus2=RML1010053827.1.2.0,Phases=2,Linecode=CABBTG05_4_2_2,Length=0.029000000,Units=km
new line.RBT_10111912 bus1=BBT3626666.1.2.3.0,bus2=RML1010111912.1.2.3.0,Phases=3,Linecode=CABBTG06_4_3_3,Length=0.016000000,Units=km
new line.RBT_10111956 bus1=BBT284761.1.2.0,bus2=RML1010111956.1.2.0,Phases=2,Linecode=CABBTG05_4_2_2,Length=0.029000000,Units=km
new line.RBT_10112242 bus1=BBT2847706.1.2.3.0,bus2=RML1010112242.1.2.3.0,Phases=3,Linecode=CABBTG06_4_3_3,Length=0.011000000,Units=km
new line.RBT_10112245 bus1=BBT2847706.1.2.3.0,bus2=RML1010112245.1.2.3.0,Phases=3,Linecode=CABBTG06_4_3_3,Length=0.010000000,Units=km
new line.RBT_10112559 bus1=BBT2844073.1.2.3.0,bus2=RML1010112559.1.2.3.0,Phases=3,Linecode=CABBTG06_4_3_3,Length=0.013000000,Units=km
new line.RBT_10112766 bus1=BBT3455264.1.2.3.0,bus2=RML1010112766.1.2.3.0,Phases=3,Linecode=CABBTG12_4_3_3,Length=0.011000000,Units=km
new line.RBT_10112776 bus1=BBT114965552.1.0,bus2=RML1010112776.1.0,Phases=1,Linecode=CABBTG01_4_1_1,Length=0.008000000,Units=km
new line.RBT_10112790 bus1=BBT3516591.1.0,bus2=RML1010112790.1.0,Phases=1,Linecode=CABBTG01_4_1_1,Length=0.010000000,Units=km
new line.RBT_10112798 bus1=BBT285832.1.2.3.0,bus2=RML1010112798.1.2.3.0,Phases=3,Linecode=CABBTG07_4_3_3,Length=0.019000000,Units=km
new line.RBT_10112876 bus1=BBT114922747.1.2.3.0,bus2=RML1010112876.1.2.3.0,Phases=3,Linecode=CABBTG06_4_3_3,Length=0.018000000,Units=km
new line.RBT_10112912 bus1=BBT271468.1.2.3.0,bus2=RML1010112912.1.2.3.0,Phases=3,Linecode=CABBTG06_4_3_3,Length=0.017000000,Units=km
new line.RBT_10113028 bus1=BBT114848239.1.2.3.0,bus2=RML1010113028.1.2.3.0,Phases=3,Linecode=CABBTG06_4_3_3,Length=0.012000000,Units=km
new line.RBT_10113162 bus1=BBT3454837.1.0,bus2=RML1010113162.1.0,Phases=1,Linecode=CABBTG01_4_1_1,Length=0.010000000,Units=km
new line.RBT_10113168 bus1=BBT3454837.1.0,bus2=RML1010113168.1.0,Phases=1,Linecode=CABBTG01_4_1_1,Length=0.012000000,Units=km
new line.RBT_10113194 bus1=BBT2845690.1.2.0,bus2=RML1010113194.1.2.0,Phases=2,Linecode=CABBTG05_4_2_2,Length=0.009000000,Units=km
new line.RBT_10113196 bus1=BBT3455026.1.2.3.0,bus2=RML1010113196.1.2.3.0,Phases=3,Linecode=CABBTG06_4_3_3,Length=0.029000000,Units=km
new line.RBT_10113309 bus1=BBT3516591.1.0,bus2=RML1010113309.1.0,Phases=1,Linecode=CABBTG01_4_1_1,Length=0.007000000,Units=km
new line.RBT_10176661 bus1=BBT3684045.1.2.0,bus2=RML1010176661.1.2.0,Phases=2,Linecode=CABBTG05_4_2_2,Length=0.017000000,Units=km
new line.RBT_10204005 bus1=BBT2842764.1.2.0,bus2=RML1010204005.1.2.0,Phases=2,Linecode=CABBTG04_4_2_2,Length=0.029000000,Units=km
new line.RBT_10205144 bus1=BBT2843240.1.2.3.0,bus2=RML1010205144.1.2.3.0,Phases=3,Linecode=CABBTG06_4_3_3,Length=0.029000000,Units=km
new line.RBT_10205209 bus1=BBT3454242.1.0,bus2=RML1010205209.1.0,Phases=1,Linecode=CABBTG02_4_1_1,Length=0.029000000,Units=km
new line.RBT_10205623 bus1=BBT114931392.1.0,bus2=RML1010205623.1.0,Phases=1,Linecode=CABBTG02_4_1_1,Length=0.029000000,Units=km
new line.RBT_10205627 bus1=BBT114979552.1.0,bus2=RML1010205627.1.0,Phases=1,Linecode=CABBTG02_4_1_1,Length=0.029000000,Units=km
new line.RBT_10205631 bus1=BBT289535.1.0,bus2=RML1010205631.1.0,Phases=1,Linecode=CABBTG02_4_1_1,Length=0.029000000,Units=km
new line.RBT_10206198 bus1=BBT114931903.1.0,bus2=RML1010206198.1.0,Phases=1,Linecode=CABBTG02_4_1_1,Length=0.029000000,Units=km
new line.RBT_10237907 bus1=BBT291397.1.0,bus2=RML1010237907.1.0,Phases=1,Linecode=CABBTG02_4_1_1,Length=0.029000000,Units=km
new line.RBT_10237937 bus1=BBT284089.1.0,bus2=RML1010237937.1.0,Phases=1,Linecode=CABBTG02_4_1_1,Length=0.029000000,Units=km
new line.RBT_10238034 bus1=BBT4024623.1.2.0,bus2=RML1010238034.1.2.0,Phases=2,Linecode=CABBTG05_4_2_2,Length=0.017000000,Units=km
new line.RBT_10238062 bus1=BBT114935228.1.0,bus2=RML1010238062.1.0,Phases=1,Linecode=CABBTG02_4_1_1,Length=0.029000000,Units=km
new line.RBT_10238082 bus1=BBT3277765.1.0,bus2=RML1010238082.1.0,Phases=1,Linecode=CABBTG02_4_1_1,Length=0.029000000,Units=km
new line.RBT_10238093 bus1=BBT2843058.1.2.0,bus2=RML1010238093.1.2.0,Phases=2,Linecode=CABBTG05_4_2_2,Length=0.029000000,Units=km
new line.RBT_10239117 bus1=BBT139727373.1.2.3.0,bus2=RML1010239117.1.2.3.0,Phases=3,Linecode=CABBTG06_4_3_3,Length=0.029000000,Units=km
new line.RBT_10239121 bus1=BBT139730845.1.2.3.0,bus2=RML1010239121.1.2.3.0,Phases=3,Linecode=CABBTG06_4_3_3,Length=0.029000000,Units=km
new line.RBT_10239124 bus1=BBT139730845.1.2.3.0,bus2=RML1010239124.1.2.3.0,Phases=3,Linecode=CABBTG06_4_3_3,Length=0.029000000,Units=km
new line.RBT_10239125 bus1=BBT139727373.1.2.3.0,bus2=RML1010239125.1.2.3.0,Phases=3,Linecode=CABBTG06_4_3_3,Length=0.029000000,Units=km
new line.RBT_10220309 bus1=BBT114965405.3.0,bus2=RML1010220309.3.0,Phases=1,Linecode=CABBTG02_4_1_1,Length=0.029000000,Units=km
new line.RBT_10220311 bus1=BBT114966217.3.0,bus2=RML1010220311.3.0,Phases=1,Linecode=CABBTG02_4_1_1,Length=0.029000000,Units=km
new line.RBT_10220312 bus1=BBT114966217.1.0,bus2=RML1010220312.1.0,Phases=1,Linecode=CABBTG02_4_1_1,Length=0.029000000,Units=km
new line.RBT_10220315 bus1=BBT114966217.1.2.0,bus2=RML1010220315.1.2.0,Phases=2,Linecode=CABBTG13_4_2_2,Length=0.029000000,Units=km
new line.RBT_10220316 bus1=BBT114965405.1.0,bus2=RML1010220316.1.0,Phases=1,Linecode=CABBTG02_4_1_1,Length=0.029000000,Units=km
new line.RBT_10220317 bus1=BBT114965461.1.0,bus2=RML1010220317.1.0,Phases=1,Linecode=CABBTG02_4_1_1,Length=0.029000000,Units=km
new line.RBT_10220318 bus1=BBT114962766.1.0,bus2=RML1010220318.1.0,Phases=1,Linecode=CABBTG02_4_1_1,Length=0.017000000,Units=km
new line.RBT_10220320 bus1=BBT114962647.1.0,bus2=RML1010220320.1.0,Phases=1,Linecode=CABBTG02_4_1_1,Length=0.017000000,Units=km
new line.RBT_10220322 bus1=BBT114962563.1.0,bus2=RML1010220322.1.0,Phases=1,Linecode=CABBTG02_4_1_1,Length=0.017000000,Units=km
new line.RBT_10220324 bus1=BBT114930265.2.0,bus2=RML1010220324.2.0,Phases=1,Linecode=CABBTG02_4_1_1,Length=0.029000000,Units=km
new line.RBT_10220328 bus1=BBT114979965.2.0,bus2=RML1010220328.2.0,Phases=1,Linecode=CABBTG02_4_1_1,Length=0.029000000,Units=km
new line.RBT_10220329 bus1=BBT114979965.1.0,bus2=RML1010220329.1.0,Phases=1,Linecode=CABBTG02_4_1_1,Length=0.029000000,Units=km
new line.RBT_10220332 bus1=BBT114978166.1.0,bus2=RML1010220332.1.0,Phases=1,Linecode=CABBTG02_4_1_1,Length=0.029000000,Units=km
new line.RBT_10220336 bus1=BBT114969157.1.0,bus2=RML1010220336.1.0,Phases=1,Linecode=CABBTG02_4_1_1,Length=0.029000000,Units=km
new line.RBT_10220339 bus1=BBT114968639.1.0,bus2=RML1010220339.1.0,Phases=1,Linecode=CABBTG02_4_1_1,Length=0.029000000,Units=km
new line.RBT_10220340 bus1=BBT114968765.1.0,bus2=RML1010220340.1.0,Phases=1,Linecode=CABBTG02_4_1_1,Length=0.029000000,Units=km
new line.RBT_10220341 bus1=BBT114973035.2.0,bus2=RML1010220341.2.0,Phases=1,Linecode=CABBTG02_4_1_1,Length=0.029000000,Units=km
new line.RBT_10220343 bus1=BBT114965552.2.0,bus2=RML1010220343.2.0,Phases=1,Linecode=CABBTG02_4_1_1,Length=0.029000000,Units=km
new line.RBT_10220344 bus1=BBT114965552.3.0,bus2=RML1010220344.3.0,Phases=1,Linecode=CABBTG02_4_1_1,Length=0.029000000,Units=km
new line.RBT_10220352 bus1=BBT115028377.3.0,bus2=RML1010220352.3.0,Phases=1,Linecode=CABBTG02_4_1_1,Length=0.017000000,Units=km
new line.RBT_10220353 bus1=BBT115028307.2.0,bus2=RML1010220353.2.0,Phases=1,Linecode=CABBTG03_4_1_1,Length=0.017000000,Units=km
new line.RBT_10220356 bus1=BBT115028307.1.0,bus2=RML1010220356.1.0,Phases=1,Linecode=CABBTG03_4_1_1,Length=0.017000000,Units=km
new line.RBT_10220357 bus1=BBT115028377.1.0,bus2=RML1010220357.1.0,Phases=1,Linecode=CABBTG03_4_1_1,Length=0.017000000,Units=km
new line.RBT_10220360 bus1=BBT115028916.1.0,bus2=RML1010220360.1.0,Phases=1,Linecode=CABBTG03_4_1_1,Length=0.017000000,Units=km
new line.RBT_10220361 bus1=BBT115028916.3.0,bus2=RML1010220361.3.0,Phases=1,Linecode=CABBTG03_4_1_1,Length=0.017000000,Units=km
new line.RBT_10220363 bus1=BBT115028916.3.0,bus2=RML1010220363.3.0,Phases=1,Linecode=CABBTG03_4_1_1,Length=0.017000000,Units=km
new line.RBT_10220366 bus1=BBT115029490.3.1.0,bus2=RML1010220366.3.1.0,Phases=2,Linecode=CABBTG13_4_2_2,Length=0.017000000,Units=km
new line.RBT_10259450 bus1=BBT114973812.2.0,bus2=RML1010259450.2.0,Phases=1,Linecode=CABBTG02_4_1_1,Length=0.029000000,Units=km
new line.RBT_10259451 bus1=BBT114973812.3.0,bus2=RML1010259451.3.0,Phases=1,Linecode=CABBTG02_4_1_1,Length=0.029000000,Units=km
new line.RBT_10259452 bus1=BBT114973812.1.0,bus2=RML1010259452.1.0,Phases=1,Linecode=CABBTG02_4_1_1,Length=0.029000000,Units=km
new line.RBT_10259453 bus1=BBT114973812.1.0,bus2=RML1010259453.1.0,Phases=1,Linecode=CABBTG02_4_1_1,Length=0.029000000,Units=km
new line.RBT_10259454 bus1=BBT114967428.1.0,bus2=RML1010259454.1.0,Phases=1,Linecode=CABBTG02_4_1_1,Length=0.029000000,Units=km
new line.RBT_10259455 bus1=BBT114967428.2.0,bus2=RML1010259455.2.0,Phases=1,Linecode=CABBTG02_4_1_1,Length=0.029000000,Units=km
new line.RBT_10259602 bus1=BBT295107.2.3.0,bus2=RML1010259602.2.3.0,Phases=2,Linecode=CABBTG05_4_2_2,Length=0.029000000,Units=km
new line.RBT_10260058 bus1=BBT3630705.1.2.3.0,bus2=RML1010260058.1.2.3.0,Phases=3,Linecode=CABBTG12_4_3_3,Length=0.029000000,Units=km
new line.RBT_10260060 bus1=BBT2847538.2.3.0,bus2=RML1010260060.2.3.0,Phases=2,Linecode=CABBTG05_4_2_2,Length=0.029000000,Units=km
new line.RBT_10260062 bus1=BBT3454795.1.0,bus2=RML1010260062.1.0,Phases=1,Linecode=CABBTG02_4_1_1,Length=0.029000000,Units=km
new line.RBT_10017386 bus1=BBT4389190.1.2.0,bus2=RML1010017386.1.2.0,Phases=2,Linecode=CABBTG05_4_2_2,Length=0.029000000,Units=km
new line.RBT_10017470 bus1=BBT2842673.1.2.0,bus2=RML1010017470.1.2.0,Phases=2,Linecode=CABBTG05_4_2_2,Length=0.029000000,Units=km
new line.RBT_10019430 bus1=BBT2844472.2.0,bus2=RML1010019430.2.0,Phases=1,Linecode=CABBTG02_4_1_1,Length=0.029000000,Units=km
new line.RBT_10019437 bus1=BBT115051414.2.0,bus2=RML1010019437.2.0,Phases=1,Linecode=CABBTG02_4_1_1,Length=0.017000000,Units=km
new line.RBT_10020585 bus1=BBT282500.1.0,bus2=RML1010020585.1.0,Phases=1,Linecode=CABBTG02_4_1_1,Length=0.029000000,Units=km
new line.RBT_10021635 bus1=BBT2847545.1.2.0,bus2=RML1010021635.1.2.0,Phases=2,Linecode=CABBTG04_4_2_2,Length=0.029000000,Units=km
new line.RBT_10021649 bus1=BBT3455418.1.2.0,bus2=RML1010021649.1.2.0,Phases=2,Linecode=CABBTG04_4_2_2,Length=0.029000000,Units=km
new line.RBT_10022160 bus1=BBT2847608.1.0,bus2=RML1010022160.1.0,Phases=1,Linecode=CABBTG02_4_1_1,Length=0.029000000,Units=km
new line.RBT_10023721 bus1=BBT282626.2.0,bus2=RML1010023721.2.0,Phases=1,Linecode=CABBTG02_4_1_1,Length=0.029000000,Units=km
new line.RBT_10023735 bus1=BBT3280551.2.0,bus2=RML1010023735.2.0,Phases=1,Linecode=CABBTG02_4_1_1,Length=0.029000000,Units=km