new load.BT_3000008011_M1 bus1=1002135456.2.3.0,Phases=2,kv=0.22,kW=0.09474,pf=0.92,Vminpu=0.92,Vmaxpu=1.5,model=1,daily=RES1_1,status=variable
new load.BT_3000008019_M1 bus1=1002135400.1.2.3.0,Phases=3,kv=0.22,kW=1.72457,pf=0.92,Vminpu=0.92,Vmaxpu=1.5,model=1,daily=RES1_1,status=variable
new load.BT_3000008029_M1 bus1=1002139096.1.2.3.0,Phases=3,kv=0.22,kW=2.16663,pf=0.92,Vminpu=0.92,Vmaxpu=1.5,model=1,daily=RES1_1,status=variable
new load.BT_3000008037_M1 bus1=1002145851.2.3.0,Phases=2,kv=0.22,kW=2.56921,pf=0.92,Vminpu=0.92,Vmaxpu=1.5,model=1,daily=RES1_1,status=variable
new load.BT_3000008046_M1 bus1=1002145788.1.2.0,Phases=2,kv=0.22,kW=1.16878,pf=0.92,Vminpu=0.92,Vmaxpu=1.5,model=1,daily=RES1_1,status=variable
new load.BT_3000008057_M1 bus1=1002148952.2.0,Phases=1,kv=0.127,kW=1.29545,pf=0.92,Vminpu=0.92,Vmaxpu=1.5,model=1,daily=RES1_1,status=variable
new load.BT_3000008065_M1 bus1=1002149029.2.3.0,Phases=2,kv=0.22,kW=1.41045,pf=0.92,Vminpu=0.92,Vmaxpu=1.5,model=1,daily=comUGBT,status=variable
new load.BT_3000008074_M1 bus1=1002139054.1.2.0,Phases=2,kv=0.22,kW=0.98896,pf=0.92,Vminpu=0.92,Vmaxpu=1.5,model=1,daily=RES1_1,status=variable
new load.BT_3000008082_M1 bus1=1002134609.2.3.0,Phases=2,kv=0.22,kW=0.4686,pf=0.92,Vminpu=0.92,Vmaxpu=1.5,model=1,daily=RES1_1,status=variable
new load.BT_3000008092_M1 bus1=1002134511.1.0,Phases=1,kv=0.127,kW=1.78516,pf=0.92,Vminpu=0.92,Vmaxpu=1.5,model=1,daily=RES1_1,status=variable
new load.BT_3000008100_M1 bus1=1002134490.2.3.0,Phases=2,kv=0.22,kW=2.99274,pf=0.92,Vminpu=0.92,Vmaxpu=1.5,model=1,daily=RES1_1,status=variable
new load.BT_3000008110_M1 bus1=1002134392.1.2.3.0,Phases=3,kv=0.22,kW=1.23483,pf=0.92,Vminpu=0.92,Vmaxpu=1.5,model=1,daily=RES1_1,status=variable
new load.BT_3000008119_M1 bus1=1002136226.1.2.3.0,Phases=3,kv=0.22,kW=1.78581,pf=0.92,Vminpu=0.92,Vmaxpu=1.5,model=1,daily=RES1_1,status=variable
new load.BT_3000008127_M1 bus1=1002136100.1.0,Phases=1,kv=0.127,kW=0.35347,pf=0.92,Vminpu=0.92,Vmaxpu=1.5,model=1,daily=RES1_1,status=variable
new load.BT_3000008138_M1 bus1=1011319103.3.1.0,Phases=2,kv=0.22,kW=1.04279,pf=0.92,Vminpu=0.92,Vmaxpu=1.5,model=1,daily=RES1_1,status=variable
new load.BT_3000008151_M1 bus1=1002138648.2.0,Phases=1,kv=0.127,kW=0.73558,pf=0.92,Vminpu=0.92,Vmaxpu=1.5,model=1,daily=RES1_1,status=variable
new load.BT_3000008161_M1 bus1=1002138865.3.0,Phases=1,kv=0.127,kW=1.26348,pf=0.92,Vminpu=0.92,Vmaxpu=1.5,model=1,daily=RES1_1,status=variable
new load.BT_3000008172_M1 bus1=1002138536.1.0,Phases=1,kv=0.127,kW=1.94116,pf=0.92,Vminpu=0.92,Vmaxpu=1.5,model=1,daily=RES1_1,status=variable
new load.BT_3000008180_M1 bus1=1002138403.1.2.0,Phases=2,kv=0.22,kW=2.84305,pf=0.92,Vminpu=0.92,Vmaxpu=1.5,model=1,daily=RES1_1,status=variable
new load.BT_3000008188_M1 bus1=1002138389.1.2.3.0,Phases=3,kv=0.22,kW=0.6689,pf=0.92,Vminpu=0.92,Vmaxpu=1.5,model=1,daily=COM1_1,status=variable
new load.BT_3000008197_M1 bus1=1002146642.2.0,Phases=1,kv=0.127,kW=1.19943,pf=0.92,Vminpu=0.92,Vmaxpu=1.5,model=1,daily=RES1_1,status=variable
new load.BT_3000008205_M1 bus1=1002146600.2.3.0,Phases=2,kv=0.22,kW=2.52559,pf=0.92,Vminpu=0.92,Vmaxpu=1.5,model=1,daily=RES1_1,status=variable
new load.BT_3000008213_M1 bus1=1002146663.2.3.0,Phases=2,kv=0.22,kW=0.09528,pf=0.92,Vminpu=0.92,Vmaxpu=1.5,model=1,daily=RES1_1,status=variable
new load.BT_3000008221_M1 bus1=1002131655.1.0,Phases=1,kv=0.127,kW=0.90994,pf=0.92,Vminpu=0.92,Vmaxpu=1.5,model=1,daily=RES1_1,status=variable
new load.BT_3000008234_M1 bus1=1002134644.2.0,Phases=1,kv=0.127,kW=1.76948,pf=0.92,Vminpu=0.92,Vmaxpu=1.5,model=1,daily=RES1_1,status=variable
new load.BT_3000008242_M1 bus1=1002131592.2.0,Phases=1,kv=0.127,kW=1.1885,pf=0.92,Vminpu=0.92,Vmaxpu=1.5,model=1,daily=RES1_1,status=variable
new load.BT_3000008250_M1 bus1=1002134126.1.2.3.0,Phases=3,kv=0.22,kW=1.89557,pf=0.92,Vminpu=0.92,Vmaxpu=1.5,model=1,daily=RES1_1,status=variable
new load.BT_3000008258_M1 bus1=1002131760.2.3.0,Phases=2,kv=0.22,kW=2.02353,pf=0.92,Vminpu=0.92,Vmaxpu=1.5,model=1,daily=RES1_1,status=variable
new load.BT_3000008007_M1 bus1=1002135512.1.2.3.0,Phases=3,kv=0.22,kW=0.93584,pf=0.92,Vminpu=0.92,Vmaxpu=1.5,model=1,daily=RES1_1,status=variable
new load.BT_3000008015_M1 bus1=1002135400.1.2.3.0,Phases=3,kv=0.22,kW=2.7564,pf=0.92,Vminpu=0.92,Vmaxpu=1.5,model=1,daily=RES1_1,status=variable
new load.BT_3000008023_M1 bus1=1002135358.1.2.0,Phases=2,kv=0.22,kW=1.66188,pf=0.92,Vminpu=0.92,Vmaxpu=1.5,model=1,daily=RES1_1,status=variable
new load.BT_3000008033_M1 bus1=1002139040.2.3.0,Phases=2,kv=0.22,kW=2.42275,pf=0.92,Vminpu=0.92,Vmaxpu=1.5,model=1,daily=RES1_1,status=variable
new load.BT_3000008042_M1 bus1=1002145760.2.0,Phases=1,kv=0.127,kW=2.61809,pf=0.92,Vminpu=0.92,Vmaxpu=1.5,model=1,daily=RES1_1,status=variable
new load.BT_3000008052_M1 bus1=1002149015.1.0,Phases=1,kv=0.127,kW=3.27948,pf=0.92,Vminpu=0.92,Vmaxpu=1.5,model=1,daily=RES1_1,status=variable
new load.BT_3000008061_M1 bus1=1002148994.1.0,Phases=1,kv=0.127,kW=1.1769,pf=0.92,Vminpu=0.92,Vmaxpu=1.5,model=1,daily=RES1_1,status=variable
new load.BT_3000008069_M1 bus1=1002149064.2.0,Phases=1,kv=0.127,kW=1.43299,pf=0.92,Vminpu=0.92,Vmaxpu=1.5,model=1,daily=RES1_1,status=variable
new load.BT_3000008078_M1 bus1=1002139110.1.2.3.0,Phases=3,kv=0.22,kW=2.63927,pf=0.92,Vminpu=0.92,Vmaxpu=1.5,model=1,daily=RES1_1,status=variable
new load.BT_3000008088_M1 bus1=1002134546.2.3.0,Phases=2,kv=0.22,kW=3.69295,pf=0.92,Vminpu=0.92,Vmaxpu=1.5,model=1,daily=RES1_1,status=variable
new load.BT_3000008096_M1 bus1=1002134504.1.2.3.0,Phases=3,kv=0.22,kW=0.01022,pf=0.92,Vminpu=0.92,Vmaxpu=1.5,model=1,daily=RES1_1,status=variable
new load.BT_3000008114_M1 bus1=1002138760.1.2.0,Phases=2,kv=0.22,kW=1.38061,pf=0.92,Vminpu=0.92,Vmaxpu=1.5,model=1,daily=RES1_1,status=variable
new load.BT_3000008132_M1 bus1=1002136086.1.2.0,Phases=2,kv=0.22,kW=0.91747,pf=0.92,Vminpu=0.92,Vmaxpu=1.5,model=1,daily=RES1_1,status=variable
new load.BT_3000008143_M1 bus1=1002136198.3.1.0,Phases=2,kv=0.22,kW=0.00883,pf=0.92,Vminpu=0.92,Vmaxpu=1.5,model=1,daily=RES1_1,status=variable
new load.BT_3000008157_M1 bus1=1002138683.3.0,Phases=1,kv=0.127,kW=0.60206,pf=0.92,Vminpu=0.92,Vmaxpu=1.5,model=1,daily=RES1_1,status=variable
new load.BT_3000008165_M1 bus1=1002138529.2.0,Phases=1,kv=0.127,kW=2.10594,pf=0.92,Vminpu=0.92,Vmaxpu=1.5,model=1,daily=RES1_1,status=variable
new load.BT_3000008176_M1 bus1=1002138844.1.2.3.0,Phases=3,kv=0.22,kW=0.23814,pf=0.92,Vminpu=0.92,Vmaxpu=1.5,model=1,daily=COM1_1,status=variable
new load.BT_3000008184_M1 bus1=1002138396.1.2.3.0,Phases=3,kv=0.22,kW=0.89361,pf=0.92,Vminpu=0.92,Vmaxpu=1.5,model=1,daily=RES1_1,status=variable
new load.BT_3000008192_M1 bus1=1002138354.3.1.0,Phases=2,kv=0.22,kW=0.03395,pf=0.92,Vminpu=0.92,Vmaxpu=1.5,model=1,daily=RES1_1,status=variable
new load.BT_3000008201_M1 bus1=1002146579.3.1.0,Phases=2,kv=0.22,kW=3.86482,pf=0.92,Vminpu=0.92,Vmaxpu=1.5,model=1,daily=RES1_1,status=variable
new load.BT_3000008209_M1 bus1=1002146621.1.2.3.0,Phases=3,kv=0.22,kW=1.49299,pf=0.92,Vminpu=0.92,Vmaxpu=1.5,model=1,daily=RES1_1,status=variable
new load.BT_3000008217_M1 bus1=1002139215.3.1.0,Phases=2,kv=0.22,kW=1.07683,pf=0.92,Vminpu=0.92,Vmaxpu=1.5,model=1,daily=RES1_1,status=variable
new load.BT_3000008229_M1 bus1=1002131627.1.2.0,Phases=2,kv=0.22,kW=1.50929,pf=0.92,Vminpu=0.92,Vmaxpu=1.5,model=1,daily=RES1_1,status=variable
new load.BT_3000008238_M1 bus1=1002134623.2.0,Phases=1,kv=0.127,kW=1.32206,pf=0.92,Vminpu=0.92,Vmaxpu=1.5,model=1,daily=RES1_1,status=variable
new load.BT_3000008246_M1 bus1=1002134091.1.2.0,Phases=2,kv=0.22,kW=0.23915,pf=0.92,Vminpu=0.92,Vmaxpu=1.5,model=1,daily=COM1_1,status=variable
new load.BT_3000008014_M1 bus1=1002135393.3.1.0,Phases=2,kv=0.22,kW=1.80013,pf=0.92,Vminpu=0.92,Vmaxpu=1.5,model=1,daily=RES1_1,status=variable
new load.BT_3000008022_M1 bus1=1002135358.1.2.0,Phases=2,kv=0.22,kW=0.76694,pf=0.92,Vminpu=0.92,Vmaxpu=1.5,model=1,daily=RES1_1,status=variable
new load.BT_3000008032_M1 bus1=1002139075.2.0,Phases=1,kv=0.127,kW=0.99032,pf=0.92,Vminpu=0.92,Vmaxpu=1.5,model=1,daily=RES1_1,status=variable
new load.BT_3000008041_M1 bus1=1002145774.1.2.0,Phases=2,kv=0.22,kW=1.99156,pf=0.92,Vminpu=0.92,Vmaxpu=1.5,model=1,daily=RES1_1,status=variable
new load.BT_3000008049_M1 bus1=1002145823.2.3.0,Phases=2,kv=0.22,kW=1.25122,pf=0.92,Vminpu=0.92,Vmaxpu=1.5,model=1,daily=RES1_1,status=variable
new load.BT_3000008060_M1 bus1=1002149008.1.2.3.0,Phases=3,kv=0.22,kW=0.4673,pf=0.92,Vminpu=0.92,Vmaxpu=1.5,model=1,daily=COM1_1,status=variable
new load.BT_3000008068_M1 bus1=1002149043.3.0,Phases=1,kv=0.127,kW=2.2953,pf=0.92,Vminpu=0.92,Vmaxpu=1.5,model=1,daily=RES1_1,status=variable
new load.BT_3000008077_M1 bus1=1002139117.1.2.0,Phases=2,kv=0.22,kW=2.26006,pf=0.92,Vminpu=0.92,Vmaxpu=1.5,model=1,daily=RES1_1,status=variable
new load.BT_3000008087_M1 bus1=1002134560.3.1.0,Phases=2,kv=0.22,kW=0.41403,pf=0.92,Vminpu=0.92,Vmaxpu=1.5,model=1,daily=RES1_1,status=variable
new load.BT_3000008095_M1 bus1=1002134504.1.2.3.0,Phases=3,kv=0.22,kW=1.01757,pf=0.92,Vminpu=0.92,Vmaxpu=1.5,model=1,daily=RES1_1,status=variable
new load.BT_3000008104_M1 bus1=1002134455.1.0,Phases=1,kv=0.127,kW=0.62799,pf=0.92,Vminpu=0.92,Vmaxpu=1.5,model=1,daily=RES1_1,status=variable
new load.BT_3000008113_M1 bus1=1002138753.1.2.3.0,Phases=3,kv=0.22,kW=1.08528,pf=0.92,Vminpu=0.92,Vmaxpu=1.5,model=1,daily=comUGBT,status=variable
new load.BT_3000008122_M1 bus1=1002136184.1.2.0,Phases=2,kv=0.22,kW=2.63109,pf=0.92,Vminpu=0.92,Vmaxpu=1.5,model=1,daily=RES1_1,status=variable
new load.BT_3000008142_M1 bus1=1002136191.1.0,Phases=1,kv=0.127,kW=1.12859,pf=0.92,Vminpu=0.92,Vmaxpu=1.5,model=1,daily=RES1_1,status=variable
new load.BT_3000008164_M1 bus1=1002138543.1.2.3.0,Phases=3,kv=0.22,kW=1.10742,pf=0.92,Vminpu=0.92,Vmaxpu=1.5,model=1,daily=RES1_1,status=variable
new load.BT_3000008175_M1 bus1=1002138858.1.2.3.0,Phases=3,kv=0.22,kW=0.09945,pf=0.92,Vminpu=0.92,Vmaxpu=1.5,model=1,daily=RES1_1,status=variable
new load.BT_3000008183_M1 bus1=1002138396.1.2.3.0,Phases=3,kv=0.22,kW=0.18999,pf=0.92,Vminpu=0.92,Vmaxpu=1.5,model=1,daily=COM1_1,status=variable
new load.BT_3000008191_M1 bus1=1002138375.1.2.3.0,Phases=3,kv=0.22,kW=2.5664,pf=0.92,Vminpu=0.92,Vmaxpu=1.5,model=1,daily=RES1_1,status=variable
new load.BT_3000008200_M1 bus1=1002146572.3.0,Phases=1,kv=0.127,kW=0.54079,pf=0.92,Vminpu=0.92,Vmaxpu=1.5,model=1,daily=RES1_1,status=variable
new load.BT_3000008208_M1 bus1=1002146621.1.2.3.0,Phases=3,kv=0.22,kW=2.39068,pf=0.92,Vminpu=0.92,Vmaxpu=1.5,model=1,daily=RES1_1,status=variable
new load.BT_3000008216_M1 bus1=1002134616.3.0,Phases=1,kv=0.127,kW=0.03586,pf=0.92,Vminpu=0.92,Vmaxpu=1.5,model=1,daily=COM1_1,status=variable
new load.BT_3000008228_M1 bus1=1002131627.1.2.0,Phases=2,kv=0.22,kW=0.11635,pf=0.92,Vminpu=0.92,Vmaxpu=1.5,model=1,daily=COM1_1,status=variable
new load.BT_3000008237_M1 bus1=1002134497.1.2.0,Phases=2,kv=0.22,kW=2.40022,pf=0.92,Vminpu=0.92,Vmaxpu=1.5,model=1,daily=RES1_1,status=variable
new load.BT_3000008245_M1 bus1=1002134105.3.0,Phases=1,kv=0.127,kW=0.93037,pf=0.92,Vminpu=0.92,Vmaxpu=1.5,model=1,daily=RES1_1,status=variable
new load.BT_3000008253_M1 bus1=1007527073.2.0,Phases=1,kv=0.127,kW=2.34299,pf=0.92,Vminpu=0.92,Vmaxpu=1.5,model=1,daily=RES1_1,status=variable
new load.BT_3000008263_M1 bus1=1002132985.1.2.3.0,Phases=3,kv=0.22,kW=0.84525,pf=0.92,Vminpu=0.92,Vmaxpu=1.5,model=1,daily=RES1_1,status=variable
new load.BT_3000008010_M1 bus1=1002135442.1.0,Phases=1,kv=0.127,kW=1.15452,pf=0.92,Vminpu=0.92,Vmaxpu=1.5,model=1,daily=RES1_1,status=variable
new load.BT_3000008018_M1 bus1=1002135400.1.2.3.0,Phases=3,kv=0.22,kW=3.5752,pf=0.92,Vminpu=0.92,Vmaxpu=1.5,model=1,daily=RES1_1,status=variable
new load.BT_3000008028_M1 bus1=1002139089.1.2.3.0,Phases=3,kv=0.22,kW=1.01621,pf=0.92,Vminpu=0.92,Vmaxpu=1.5,model=1,daily=RES1_1,status=variable
new load.BT_3000008036_M1 bus1=1002145837.1.2.3.0,Phases=3,kv=0.22,kW=1.25166,pf=0.92,Vminpu=0.92,Vmaxpu=1.5,model=1,daily=COM1_1,status=variable
new load.BT_3000008045_M1 bus1=1002145725.1.2.0,Phases=2,kv=0.22,kW=1.23076,pf=0.92,Vminpu=0.92,Vmaxpu=1.5,model=1,daily=RES1_1,status=variable
new load.BT_3000008056_M1 bus1=1002148924.1.2.0,Phases=2,kv=0.22,kW=1.29817,pf=0.92,Vminpu=0.92,Vmaxpu=1.5,model=1,daily=RES1_1,status=variable
new load.BT_3000008064_M1 bus1=1002149036.2.3.0,Phases=2,kv=0.22,kW=1.56852,pf=0.92,Vminpu=0.92,Vmaxpu=1.5,model=1,daily=RES1_1,status=variable
new load.BT_3000008072_M1 bus1=1002149092.2.0,Phases=1,kv=0.127,kW=0.53261,pf=0.92,Vminpu=0.92,Vmaxpu=1.5,model=1,daily=RES1_1,status=variable
new load.BT_3000008081_M1 bus1=1002134658.3.1.0,Phases=2,kv=0.22,kW=0.01975,pf=0.92,Vminpu=0.92,Vmaxpu=1.5,model=1,daily=RES1_1,status=variable
new load.BT_3000008099_M1 bus1=1002134504.1.2.3.0,Phases=3,kv=0.22,kW=1.78189,pf=0.92,Vminpu=0.92,Vmaxpu=1.5,model=1,daily=RES1_1,status=variable
new load.BT_3000008109_M1 bus1=1002134392.1.2.3.0,Phases=3,kv=0.22,kW=0.8112,pf=0.92,Vminpu=0.92,Vmaxpu=1.5,model=1,daily=RES1_1,status=variable
new load.BT_3000008118_M1 bus1=1002136240.2.3.0,Phases=2,kv=0.22,kW=0.98195,pf=0.92,Vminpu=0.92,Vmaxpu=1.5,model=1,daily=COM1_1,status=variable
new load.BT_3000008126_M1 bus1=1002136093.3.1.0,Phases=2,kv=0.22,kW=2.29598,pf=0.92,Vminpu=0.92,Vmaxpu=1.5,model=1,daily=RES1_1,status=variable
new load.BT_3000008137_M1 bus1=1002136107.1.2.0,Phases=2,kv=0.22,kW=0.45638,pf=0.92,Vminpu=0.92,Vmaxpu=1.5,model=1,daily=RES1_1,status=variable
new load.BT_3000008147_M1 bus1=1010197531.1.2.3.0,Phases=3,kv=0.22,kW=0.07959,pf=0.92,Vminpu=0.92,Vmaxpu=1.5,model=1,daily=COM1_1,status=variable
new load.BT_3000008160_M1 bus1=1002138795.1.2.3.0,Phases=3,kv=0.22,kW=3.94519,pf=0.92,Vminpu=0.92,Vmaxpu=1.5,model=1,daily=RES1_1,status=variable
new load.BT_3000008171_M1 bus1=1002138501.1.0,Phases=1,kv=0.127,kW=1.22736,pf=0.92,Vminpu=0.92,Vmaxpu=1.5,model=1,daily=RES1_1,status=variable
new load.BT_3000008179_M1 bus1=1002138424.1.2.3.0,Phases=3,kv=0.22,kW=2.03236,pf=0.92,Vminpu=0.92,Vmaxpu=1.5,model=1,daily=RES1_1,status=variable
new load.BT_3000008187_M1 bus1=1002138396.1.2.3.0,Phases=3,kv=0.22,kW=0.16007,pf=0.92,Vminpu=0.92,Vmaxpu=1.5,model=1,daily=RES1_1,status=variable
new load.BT_3000008196_M1 bus1=1002146740.1.2.3.0,Phases=3,kv=0.22,kW=1.7137,pf=0.92,Vminpu=0.92,Vmaxpu=1.5,model=1,daily=COM1_1,status=variable
new load.BT_3000008204_M1 bus1=1002146698.1.2.3.0,Phases=3,kv=0.22,kW=2.55485,pf=0.92,Vminpu=0.92,Vmaxpu=1.5,model=1,daily=RES1_1,status=variable
new load.BT_3000008212_M1 bus1=1002146656.3.0,Phases=1,kv=0.127,kW=1.04014,pf=0.92,Vminpu=0.92,Vmaxpu=1.5,model=1,daily=RES1_1,status=variable
new load.BT_3000008220_M1 bus1=1002131676.2.3.0,Phases=2,kv=0.22,kW=2.08483,pf=0.92,Vminpu=0.92,Vmaxpu=1.5,model=1,daily=RES1_1,status=variable
new load.BT_3000008233_M1 bus1=1002134651.1.0,Phases=1,kv=0.127,kW=0.48903,pf=0.92,Vminpu=0.92,Vmaxpu=1.5,model=1,daily=RES1_1,status=variable
new load.BT_3000008241_M1 bus1=1002131599.1.0,Phases=1,kv=0.127,kW=0.77102,pf=0.92,Vminpu=0.92,Vmaxpu=1.5,model=1,daily=RES1_1,status=variable
new load.BT_3000008249_M1 bus1=1002134119.1.2.3.0,Phases=3,kv=0.22,kW=2.74903,pf=0.92,Vminpu=0.92,Vmaxpu=1.5,model=1,daily=RES1_1,status=variable
new load.BT_3000008257_M1 bus1=1002131760.2.3.0,Phases=2,kv=0.22,kW=1.75519,pf=0.92,Vminpu=0.92,Vmaxpu=1.5,model=1,daily=RES1_1,status=variable
new load.BT_3000008270_M1 bus1=1002132943.1.2.0,Phases=2,kv=0.22,kW=1.80288,pf=0.92,Vminpu=0.92,Vmaxpu=1.5,model=1,daily=RES1_1,status=variable
new load.BT_3000008278_M1 bus1=1002134056.3.0,Phases=1,kv=0.127,kW=1.43712,pf=0.92,Vminpu=0.92,Vmaxpu=1.5,model=1,daily=RES1_1,status=variable
new load.BT_3000008287_M1 bus1=1002132586.1.2.3.0,Phases=3,kv=0.22,kW=7.29945,pf=0.92,Vminpu=0.92,Vmaxpu=1.5,model=1,daily=RES1_1,status=variable
new load.BT_3000008296_M1 bus1=1002132733.1.2.3.0,Phases=3,kv=0.22,kW=2.97434,pf=0.92,Vminpu=0.92,Vmaxpu=1.5,model=1,daily=COM1_1,status=variable
new load.BT_3000008309_M1 bus1=1002132719.1.2.3.0,Phases=3,kv=0.22,kW=0.13039,pf=0.92,Vminpu=0.92,Vmaxpu=1.5,model=1,daily=COM1_1,status=variable
new load.BT_3000008318_M1 bus1=1002132572.1.0,Phases=1,kv=0.127,kW=7.20734,pf=0.92,Vminpu=0.92,Vmaxpu=1.5,model=1,daily=RES1_1,status=variable
new load.BT_3000008328_M1 bus1=1002133020.1.2.3.0,Phases=3,kv=0.22,kW=0.14244,pf=0.92,Vminpu=0.92,Vmaxpu=1.5,model=1,daily=COM1_1,status=variable
new load.BT_3000008336_M1 bus1=1002133139.2.3.0,Phases=2,kv=0.22,kW=0.02787,pf=0.92,Vminpu=0.92,Vmaxpu=1.5,model=1,daily=RES1_1,status=variable
new load.BT_3000008344_M1 bus1=1002133216.3.0,Phases=1,kv=0.127,kW=0.64431,pf=0.92,Vminpu=0.92,Vmaxpu=1.5,model=1,daily=RES1_1,status=variable
new load.BT_3000008356_M1 bus1=1002133531.1.2.3.0,Phases=3,kv=0.22,kW=1.3615,pf=0.92,Vminpu=0.92,Vmaxpu=1.5,model=1,daily=RES1_1,status=variable
new load.BT_3000008377_M1 bus1=1002138851.1.2.3.0,Phases=3,kv=0.22,kW=0.3964,pf=0.92,Vminpu=0.92,Vmaxpu=1.5,model=1,daily=RES1_1,status=variable
new load.BT_3000008385_M1 bus1=1002138718.2.0,Phases=1,kv=0.127,kW=0.45634,pf=0.92,Vminpu=0.92,Vmaxpu=1.5,model=1,daily=RES1_1,status=variable
new load.BT_3000008394_M1 bus1=1002138571.1.2.3.0,Phases=3,kv=0.22,kW=0.03187,pf=0.92,Vminpu=0.92,Vmaxpu=1.5,model=1,daily=COM1_1,status=variable
new load.BT_3000008402_M1 bus1=1002138732.1.2.0,Phases=2,kv=0.22,kW=1.27912,pf=0.92,Vminpu=0.92,Vmaxpu=1.5,model=1,daily=RES1_1,status=variable
new load.BT_3000008413_M1 bus1=1002134462.1.0,Phases=1,kv=0.127,kW=1.65173,pf=0.92,Vminpu=0.92,Vmaxpu=1.5,model=1,daily=RES1_1,status=variable
new load.BT_3000008426_M1 bus1=1002133048.3.0,Phases=1,kv=0.127,kW=2.06033,pf=0.92,Vminpu=0.92,Vmaxpu=1.5,model=1,daily=RES1_1,status=variable
new load.BT_3000008435_M1 bus1=1002132950.1.2.3.0,Phases=3,kv=0.22,kW=0.2123,pf=0.92,Vminpu=0.92,Vmaxpu=1.5,model=1,daily=COM1_1,status=variable
new load.BT_3000008448_M1 bus1=1002156764.1.2.3.0,Phases=3,kv=0.22,kW=0.32489,pf=0.92,Vminpu=0.92,Vmaxpu=1.5,model=1,daily=RES1_1,status=variable
new load.BT_3000008457_M1 bus1=1002156757.2.0,Phases=1,kv=0.127,kW=1.43166,pf=0.92,Vminpu=0.92,Vmaxpu=1.5,model=1,daily=RES1_1,status=variable
new load.BT_3000008465_M1 bus1=1002145501.3.0,Phases=1,kv=0.127,kW=1.39829,pf=0.92,Vminpu=0.92,Vmaxpu=1.5,model=1,daily=RES1_1,status=variable
new load.BT_3000008476_M1 bus1=1002155994.1.0,Phases=1,kv=0.127,kW=2.17946,pf=0.92,Vminpu=0.92,Vmaxpu=1.5,model=1,daily=RES1_1,status=variable
new load.BT_3000008485_M1 bus1=1002156064.2.0,Phases=1,kv=0.127,kW=1.78998,pf=0.92,Vminpu=0.92,Vmaxpu=1.5,model=1,daily=RES1_1,status=variable
new load.BT_3000008495_M1 bus1=1002152697.1.2.3.0,Phases=3,kv=0.22,kW=1.2873,pf=0.92,Vminpu=0.92,Vmaxpu=1.5,model=1,daily=RES1_1,status=variable
new load.BT_3000008504_M1 bus1=1002155966.1.2.3.0,Phases=3,kv=0.22,kW=1.38607,pf=0.92,Vminpu=0.92,Vmaxpu=1.5,model=1,daily=RES1_1,status=variable
new load.BT_3000008515_M1 bus1=1002152585.3.0,Phases=1,kv=0.127,kW=2.92129,pf=0.92,Vminpu=0.92,Vmaxpu=1.5,model=1,daily=RES1_1,status=variable
new load.BT_3000008523_M1 bus1=1002152795.1.2.0,Phases=2,kv=0.22,kW=0.73833,pf=0.92,Vminpu=0.92,Vmaxpu=1.5,model=1,daily=RES1_1,status=variable
new load.BT_3000008532_M1 bus1=1002152928.1.2.3.0,Phases=3,kv=0.22,kW=0.10403,pf=0.92,Vminpu=0.92,Vmaxpu=1.5,model=1,daily=COM1_1,status=variable
new load.BT_3000008543_M1 bus1=1002152984.1.2.0,Phases=2,kv=0.22,kW=2.30517,pf=0.92,Vminpu=0.92,Vmaxpu=1.5,model=1,daily=RES1_1,status=variable
new load.BT_3000008008_M1 bus1=1002135428.1.0,Phases=1,kv=0.127,kW=1.61012,pf=0.92,Vminpu=0.92,Vmaxpu=1.5,model=1,daily=RES1_1,status=variable
new load.BT_3000008016_M1 bus1=1002135400.1.2.3.0,Phases=3,kv=0.22,kW=0.79753,pf=0.92,Vminpu=0.92,Vmaxpu=1.5,model=1,daily=RES1_1,status=variable
new load.BT_3000008024_M1 bus1=1002135414.3.0,Phases=1,kv=0.127,kW=0.28874,pf=0.92,Vminpu=0.92,Vmaxpu=1.5,model=1,daily=RES1_1,status=variable
new load.BT_3000008034_M1 bus1=1002139047.1.2.3.0,Phases=3,kv=0.22,kW=1.80411,pf=0.92,Vminpu=0.92,Vmaxpu=1.5,model=1,daily=RES1_1,status=variable
new load.BT_3000008043_M1 bus1=1002145718.1.2.0,Phases=2,kv=0.22,kW=2.12162,pf=0.92,Vminpu=0.92,Vmaxpu=1.5,model=1,daily=RES1_1,status=variable
new load.BT_3000008054_M1 bus1=1002148966.2.3.0,Phases=2,kv=0.22,kW=0.75602,pf=0.92,Vminpu=0.92,Vmaxpu=1.5,model=1,daily=RES1_1,status=variable
new load.BT_3000008062_M1 bus1=1002148987.2.0,Phases=1,kv=0.127,kW=1.67081,pf=0.92,Vminpu=0.92,Vmaxpu=1.5,model=1,daily=RES1_1,status=variable
new load.BT_3000008070_M1 bus1=1002149078.1.2.0,Phases=2,kv=0.22,kW=2.74073,pf=0.92,Vminpu=0.92,Vmaxpu=1.5,model=1,daily=RES1_1,status=variable
new load.BT_3000008079_M1 bus1=1002139110.1.2.3.0,Phases=3,kv=0.22,kW=0.69747,pf=0.92,Vminpu=0.92,Vmaxpu=1.5,model=1,daily=RES1_1,status=variable
new load.BT_3000008089_M1 bus1=1002134539.2.0,Phases=1,kv=0.127,kW=1.42076,pf=0.92,Vminpu=0.92,Vmaxpu=1.5,model=1,daily=RES1_1,status=variable
new load.BT_3000008097_M1 bus1=1002134504.1.2.3.0,Phases=3,kv=0.22,kW=0.67222,pf=0.92,Vminpu=0.92,Vmaxpu=1.5,model=1,daily=RES1_1,status=variable
new load.BT_3000008106_M1 bus1=1002134420.3.0,Phases=1,kv=0.127,kW=1.14835,pf=0.92,Vminpu=0.92,Vmaxpu=1.5,model=1,daily=RES1_1,status=variable
new load.BT_3000008116_M1 bus1=1002138697.2.3.0,Phases=2,kv=0.22,kW=4.5091,pf=0.92,Vminpu=0.92,Vmaxpu=1.5,model=1,daily=RES1_1,status=variable
new load.BT_3000008124_M1 bus1=1002136128.1.2.0,Phases=2,kv=0.22,kW=1.29338,pf=0.92,Vminpu=0.92,Vmaxpu=1.5,model=1,daily=RES1_1,status=variable
new load.BT_3000008133_M1 bus1=1002136086.1.2.0,Phases=2,kv=0.22,kW=1.74569,pf=0.92,Vminpu=0.92,Vmaxpu=1.5,model=1,daily=RES1_1,status=variable
new load.BT_3000008144_M1 bus1=1002136205.3.0,Phases=1,kv=0.127,kW=0.42977,pf=0.92,Vminpu=0.92,Vmaxpu=1.5,model=1,daily=RES1_1,status=variable
new load.BT_3000008158_M1 bus1=1002138690.1.2.3.0,Phases=3,kv=0.22,kW=0.88748,pf=0.92,Vminpu=0.92,Vmaxpu=1.5,model=1,daily=COM1_1,status=variable
new load.BT_3000008177_M1 bus1=1002138837.1.2.0,Phases=2,kv=0.22,kW=4.86251,pf=0.92,Vminpu=0.92,Vmaxpu=1.5,model=1,daily=RES1_1,status=variable
new load.BT_3000008185_M1 bus1=1002138396.1.2.3.0,Phases=3,kv=0.22,kW=0.13828,pf=0.92,Vminpu=0.92,Vmaxpu=1.5,model=1,daily=RES1_1,status=variable
new load.BT_3000008193_M1 bus1=1002138361.1.2.3.0,Phases=3,kv=0.22,kW=10.15864,pf=0.92,Vminpu=0.92,Vmaxpu=1.5,model=1,daily=RES1_1,status=variable
new load.BT_3000008202_M1 bus1=1002146677.1.2.3.0,Phases=3,kv=0.22,kW=1.61491,pf=0.92,Vminpu=0.92,Vmaxpu=1.5,model=1,daily=RES1_1,status=variable
new load.BT_3000008210_M1 bus1=1002146621.1.2.3.0,Phases=3,kv=0.22,kW=1.68071,pf=0.92,Vminpu=0.92,Vmaxpu=1.5,model=1,daily=COM1_1,status=variable
new load.BT_3000008218_M1 bus1=1002139215.3.1.0,Phases=2,kv=0.22,kW=2.02764,pf=0.92,Vminpu=0.92,Vmaxpu=1.5,model=1,daily=RES1_1,status=variable
new load.BT_3000008230_M1 bus1=1002131620.1.0,Phases=1,kv=0.127,kW=1.39629,pf=0.92,Vminpu=0.92,Vmaxpu=1.5,model=1,daily=RES1_1,status=variable
new load.BT_3000008239_M1 bus1=1002134637.1.2.0,Phases=2,kv=0.22,kW=3.60233,pf=0.92,Vminpu=0.92,Vmaxpu=1.5,model=1,daily=RES1_1,status=variable
new load.BT_3000008247_M1 bus1=1002134091.1.2.0,Phases=2,kv=0.22,kW=1.38329,pf=0.92,Vminpu=0.92,Vmaxpu=1.5,model=1,daily=RES1_1,status=variable
new load.BT_3000008255_M1 bus1=1002131739.3.1.0,Phases=2,kv=0.22,kW=1.174,pf=0.92,Vminpu=0.92,Vmaxpu=1.5,model=1,daily=COM1_1,status=variable
new load.BT_3000008264_M1 bus1=1002132978.1.2.0,Phases=2,kv=0.22,kW=0.67544,pf=0.92,Vminpu=0.92,Vmaxpu=1.5,model=1,daily=COM1_1,status=variable
new load.BT_3000008274_M1 bus1=1002132887.1.2.3.0,Phases=3,kv=0.22,kW=1.07525,pf=0.92,Vminpu=0.92,Vmaxpu=1.5,model=1,daily=RES1_1,status=variable
new load.BT_3000008283_M1 bus1=1002132488.1.2.3.0,Phases=3,kv=0.22,kW=0.64292,pf=0.92,Vminpu=0.92,Vmaxpu=1.5,model=1,daily=RES1_1,status=variable
new load.BT_3000008292_M1 bus1=1002132705.1.2.3.0,Phases=3,kv=0.22,kW=0.8653,pf=0.92,Vminpu=0.92,Vmaxpu=1.5,model=1,daily=COM1_1,status=variable
new load.BT_3000008304_M1 bus1=1002132698.1.2.3.0,Phases=3,kv=0.22,kW=0.1696,pf=0.92,Vminpu=0.92,Vmaxpu=1.5,model=1,daily=COM1_1,status=variable
new load.BT_3000008313_M1 bus1=1002132628.1.2.3.0,Phases=3,kv=0.22,kW=1.58494,pf=0.92,Vminpu=0.92,Vmaxpu=1.5,model=1,daily=RES1_1,status=variable
new load.BT_3000008324_M1 bus1=1002134161.3.1.0,Phases=2,kv=0.22,kW=0.94812,pf=0.92,Vminpu=0.92,Vmaxpu=1.5,model=1,daily=RES1_1,status=variable
new load.BT_3000008332_M1 bus1=1002133083.1.2.0,Phases=2,kv=0.22,kW=0.61777,pf=0.92,Vminpu=0.92,Vmaxpu=1.5,model=1,daily=RES1_1,status=variable
new load.BT_3000008340_M1 bus1=1002133160.1.2.3.0,Phases=3,kv=0.22,kW=3.96821,pf=0.92,Vminpu=0.92,Vmaxpu=1.5,model=1,daily=RES1_1,status=variable
new load.BT_3000008349_M1 bus1=1002133223.1.2.3.0,Phases=3,kv=0.22,kW=1.31802,pf=0.92,Vminpu=0.92,Vmaxpu=1.5,model=1,daily=RES1_1,status=variable
new load.BT_3000008368_M1 bus1=1002138473.1.0,Phases=1,kv=0.127,kW=2.44923,pf=0.92,Vminpu=0.92,Vmaxpu=1.5,model=1,daily=RES1_1,status=variable
new load.BT_3000008381_M1 bus1=1002138767.2.3.0,Phases=2,kv=0.22,kW=1.2519,pf=0.92,Vminpu=0.92,Vmaxpu=1.5,model=1,daily=RES1_1,status=variable
new load.BT_3000008390_M1 bus1=1002138599.1.2.3.0,Phases=3,kv=0.22,kW=1.04004,pf=0.92,Vminpu=0.92,Vmaxpu=1.5,model=1,daily=RES1_1,status=variable
new load.BT_3000008398_M1 bus1=1002138571.1.2.3.0,Phases=3,kv=0.22,kW=1.55497,pf=0.92,Vminpu=0.92,Vmaxpu=1.5,model=1,daily=RES1_1,status=variable
new load.BT_3000008407_M1 bus1=1002134378.2.3.0,Phases=2,kv=0.22,kW=0.93994,pf=0.92,Vminpu=0.92,Vmaxpu=1.5,model=1,daily=RES1_1,status=variable
new load.BT_3000008431_M1 bus1=1002133006.2.3.0,Phases=2,kv=0.22,kW=0.04419,pf=0.92,Vminpu=0.92,Vmaxpu=1.5,model=1,daily=COM1_1,status=variable
new load.BT_3000008440_M1 bus1=1002145508.1.0,Phases=1,kv=0.127,kW=0.86086,pf=0.92,Vminpu=0.92,Vmaxpu=1.5,model=1,daily=RES1_1,status=variable
new load.BT_3000008452_M1 bus1=1002156806.3.0,Phases=1,kv=0.127,kW=0.46452,pf=0.92,Vminpu=0.92,Vmaxpu=1.5,model=1,daily=RES1_1,status=variable
new load.BT_3000008461_M1 bus1=1002145515.2.3.0,Phases=2,kv=0.22,kW=0.40866,pf=0.92,Vminpu=0.92,Vmaxpu=1.5,model=1,daily=RES1_1,status=variable
new load.BT_3000008469_M1 bus1=1002155938.1.0,Phases=1,kv=0.127,kW=0.78599,pf=0.92,Vminpu=0.92,Vmaxpu=1.5,model=1,daily=RES1_1,status=variable
new load.BT_3000008481_M1 bus1=1002156099.3.0,Phases=1,kv=0.127,kW=0.86979,pf=0.92,Vminpu=0.92,Vmaxpu=1.5,model=1,daily=RES1_1,status=variable
new load.BT_3000008490_M1 bus1=1002156001.3.0,Phases=1,kv=0.127,kW=1.47256,pf=0.92,Vminpu=0.92,Vmaxpu=1.5,model=1,daily=RES1_1,status=variable
new load.BT_3000008499_M1 bus1=1002152725.2.0,Phases=1,kv=0.127,kW=1.29817,pf=0.92,Vminpu=0.92,Vmaxpu=1.5,model=1,daily=RES1_1,status=variable
new load.BT_3000008509_M1 bus1=1002131795.1.2.0,Phases=2,kv=0.22,kW=1.07004,pf=0.92,Vminpu=0.92,Vmaxpu=1.5,model=1,daily=RES1_1,status=variable
new load.BT_3000008519_M1 bus1=1002152753.1.2.3.0,Phases=3,kv=0.22,kW=0.61095,pf=0.92,Vminpu=0.92,Vmaxpu=1.5,model=1,daily=RES1_1,status=variable
new load.BT_3000008527_M1 bus1=1002152935.3.1.0,Phases=2,kv=0.22,kW=1.2832,pf=0.92,Vminpu=0.92,Vmaxpu=1.5,model=1,daily=RES1_1,status=variable
new load.BT_3000008538_M1 bus1=1002153005.3.1.0,Phases=2,kv=0.22,kW=2.7243,pf=0.92,Vminpu=0.92,Vmaxpu=1.5,model=1,daily=RES1_1,status=variable
new load.BT_3000008273_M1 bus1=1002132894.1.2.3.0,Phases=3,kv=0.22,kW=0.76487,pf=0.92,Vminpu=0.92,Vmaxpu=1.5,model=1,daily=RES1_1,status=variable
new load.BT_3000008282_M1 bus1=1002132481.1.2.3.0,Phases=3,kv=0.22,kW=1.10369,pf=0.92,Vminpu=0.92,Vmaxpu=1.5,model=1,daily=COM1_1,status=variable
new load.BT_3000008291_M1 bus1=1002132642.2.0,Phases=1,kv=0.127,kW=3.13166,pf=0.92,Vminpu=0.92,Vmaxpu=1.5,model=1,daily=RES1_1,status=variable
new load.BT_3000008302_M1 bus1=1002132719.1.2.3.0,Phases=3,kv=0.22,kW=0.38838,pf=0.92,Vminpu=0.92,Vmaxpu=1.5,model=1,daily=COM1_1,status=variable
new load.BT_3000008312_M1 bus1=1002132663.3.1.0,Phases=2,kv=0.22,kW=0.26594,pf=0.92,Vminpu=0.92,Vmaxpu=1.5,model=1,daily=COM1_1,status=variable
new load.BT_3000008321_M1 bus1=1002132474.1.2.3.0,Phases=3,kv=0.22,kW=1.89412,pf=0.92,Vminpu=0.92,Vmaxpu=1.5,model=1,daily=RES1_1,status=variable
new load.BT_3000008331_M1 bus1=1002133069.1.2.3.0,Phases=3,kv=0.22,kW=3.06801,pf=0.92,Vminpu=0.92,Vmaxpu=1.5,model=1,daily=COM1_1,status=variable
new load.BT_3000008339_M1 bus1=1002133174.3.0,Phases=1,kv=0.127,kW=0.71243,pf=0.92,Vminpu=0.92,Vmaxpu=1.5,model=1,daily=RES1_1,status=variable
new load.BT_3000008348_M1 bus1=1002133524.1.2.0,Phases=2,kv=0.22,kW=0.57509,pf=0.92,Vminpu=0.92,Vmaxpu=1.5,model=1,daily=COM1_1,status=variable
new load.BT_3000008360_M1 bus1=1002133517.1.2.3.0,Phases=3,kv=0.22,kW=8.13882,pf=0.92,Vminpu=0.92,Vmaxpu=1.5,model=1,daily=COM1_1,status=variable
new load.BT_3000008380_M1 bus1=1002138879.3.1.0,Phases=2,kv=0.22,kW=1.42484,pf=0.92,Vminpu=0.92,Vmaxpu=1.5,model=1,daily=RES1_1,status=variable
new load.BT_3000008388_M1 bus1=1002138641.2.3.0,Phases=2,kv=0.22,kW=1.07816,pf=0.92,Vminpu=0.92,Vmaxpu=1.5,model=1,daily=RES1_1,status=variable
new load.BT_3000008397_M1 bus1=1002138571.1.2.3.0,Phases=3,kv=0.22,kW=1.26137,pf=0.92,Vminpu=0.92,Vmaxpu=1.5,model=1,daily=RES1_1,status=variable
new load.BT_3000008406_M1 bus1=1002138809.1.2.0,Phases=2,kv=0.22,kW=0.74237,pf=0.92,Vminpu=0.92,Vmaxpu=1.5,model=1,daily=RES1_1,status=variable
new load.BT_3000008416_M1 bus1=1002134483.3.1.0,Phases=2,kv=0.22,kW=0.58179,pf=0.92,Vminpu=0.92,Vmaxpu=1.5,model=1,daily=RES1_1,status=variable
new load.BT_3000008430_M1 bus1=1002133041.1.2.3.0,Phases=3,kv=0.22,kW=2.38185,pf=0.92,Vminpu=0.92,Vmaxpu=1.5,model=1,daily=RES1_1,status=variable
new load.BT_3000008439_M1 bus1=1002145459.1.0,Phases=1,kv=0.127,kW=1.5754,pf=0.92,Vminpu=0.92,Vmaxpu=1.5,model=1,daily=RES1_1,status=variable
new load.BT_3000008451_M1 bus1=1002156820.2.0,Phases=1,kv=0.127,kW=2.15922,pf=0.92,Vminpu=0.92,Vmaxpu=1.5,model=1,daily=RES1_1,status=variable
new load.BT_3000008460_M1 bus1=1011207770.2.0,Phases=1,kv=0.127,kW=1.2219,pf=0.92,Vminpu=0.92,Vmaxpu=1.5,model=1,daily=RES1_1,status=variable