new loadshape.ccurvaUGBT npts=24,interval=1.0,mult=[0.0001,0.0001,0.0001,0.0001,0.0001,0.0001,0.17,0.47,0.7,0.9,1,1,0.93,0.8,0.53,0.33,0.2,0.13,0.0001,0.0001,0.0001,0.0001,0.0001,0.0001]
new generator.3006419122 bus1=1006786137.1.2.0,Phases=2,kv=0.22,kW=10.58704,pf=1,model=1,daily=ccurvaUGBT,status=Variable
new generator.3006425699 bus1=1006755918.1.2.0,Phases=2,kv=0.22,kW=4.57004,pf=1,model=1,daily=ccurvaUGBT,status=Variable
new generator.3007368734 bus1=1007305348.1.2.0,Phases=2,kv=0.22,kW=2.91877,pf=1,model=1,daily=ccurvaUGBT,status=Variable
new generator.3010739614 bus1=1008200200.1.2.0,Phases=2,kv=0.22,kW=1.09719,pf=1,model=1,daily=ccurvaUGBT,status=Variable
new generator.3010764955 bus1=1008242158.1.2.0,Phases=2,kv=0.22,kW=5.36463,pf=1,model=1,daily=ccurvaUGBT,status=Variable
new generator.3012272918 bus1=1010199614.2.0,Phases=1,kv=0.127,kW=0.66153,pf=1,model=1,daily=ccurvaUGBT,status=Variable
new generator.3012277923 bus1=1010199489.1.0,Phases=1,kv=0.127,kW=1.34652,pf=1,model=1,daily=ccurvaUGBT,status=Variable
new generator.3012278265 bus1=1010199349.1.2.0,Phases=2,kv=0.22,kW=7.55947,pf=1,model=1,daily=ccurvaUGBT,status=Variable
new generator.3013945174 bus1=1011038557.1.2.3.0,Phases=3,kv=0.22,kW=54.50858,pf=1,model=1,daily=ccurvaUGBT,status=Variable
new generator.3014374345 bus1=1011237010.1.2.0,Phases=2,kv=0.22,kW=2.25101,pf=1,model=1,daily=ccurvaUGBT,status=Variable
new generator.3004751349 bus1=1002044176.1.2.0,Phases=2,kv=0.22,kW=2.76281,pf=1,model=1,daily=ccurvaUGBT,status=Variable
new generator.3005070525 bus1=1002164093.1.2.0,Phases=2,kv=0.22,kW=0.11894,pf=1,model=1,daily=ccurvaUGBT,status=Variable
new generator.3007177268 bus1=1007208594.1.2.0,Phases=2,kv=0.22,kW=2.85817,pf=1,model=1,daily=ccurvaUGBT,status=Variable
new generator.3007191877 bus1=1007216406.2.3.0,Phases=2,kv=0.22,kW=2.15835,pf=1,model=1,daily=ccurvaUGBT,status=Variable
new generator.3007200569 bus1=1007220690.1.2.0,Phases=2,kv=0.22,kW=1.017,pf=1,model=1,daily=ccurvaUGBT,status=Variable
new generator.3011263346 bus1=1009000111.1.2.0,Phases=2,kv=0.22,kW=1.62142,pf=1,model=1,daily=ccurvaUGBT,status=Variable
new generator.3011808106 bus1=1010234899.1.2.0,Phases=2,kv=0.22,kW=0.99883,pf=1,model=1,daily=ccurvaUGBT,status=Variable
new generator.3013430512 bus1=1010774079.1.2.3.0,Phases=3,kv=0.22,kW=4.36282,pf=1,model=1,daily=ccurvaUGBT,status=Variable
new generator.3000193186 bus1=1002163183.1.2.0,Phases=2,kv=0.22,kW=0.69021,pf=1,model=1,daily=ccurvaUGBT,status=Variable
new generator.3000193205 bus1=1002161517.2.0,Phases=1,kv=0.127,kW=0.66994,pf=1,model=1,daily=ccurvaUGBT,status=Variable
new generator.3000193211 bus1=1002161559.3.0,Phases=1,kv=0.127,kW=3.66988,pf=1,model=1,daily=ccurvaUGBT,status=Variable
new generator.3000193353 bus1=1002160166.2.3.0,Phases=2,kv=0.22,kW=1.03025,pf=1,model=1,daily=ccurvaUGBT,status=Variable
new generator.3000193449 bus1=1002155588.1.2.3.0,Phases=3,kv=0.22,kW=9.3667,pf=1,model=1,daily=ccurvaUGBT,status=Variable
new generator.3000193476 bus1=1002154923.2.3.0,Phases=2,kv=0.22,kW=3.5194,pf=1,model=1,daily=ccurvaUGBT,status=Variable
new generator.3000193574 bus1=1002156456.1.0,Phases=1,kv=0.127,kW=4.79185,pf=1,model=1,daily=ccurvaUGBT,status=Variable
new generator.3000193594 bus1=1002145564.3.1.0,Phases=2,kv=0.22,kW=4.57301,pf=1,model=1,daily=ccurvaUGBT,status=Variable
new generator.3000193605 bus1=1002145585.3.1.0,Phases=2,kv=0.22,kW=1.5219,pf=1,model=1,daily=ccurvaUGBT,status=Variable
new generator.3000193639 bus1=1002137878.1.2.3.0,Phases=3,kv=0.22,kW=2.68892,pf=1,model=1,daily=ccurvaUGBT,status=Variable
new generator.3000193659 bus1=1002135176.1.2.3.0,Phases=3,kv=0.22,kW=6.78906,pf=1,model=1,daily=ccurvaUGBT,status=Variable
new generator.3000193681 bus1=1002135183.3.1.0,Phases=2,kv=0.22,kW=2.28374,pf=1,model=1,daily=ccurvaUGBT,status=Variable
new generator.3000193757 bus1=1002135323.1.2.3.0,Phases=3,kv=0.22,kW=0.46384,pf=1,model=1,daily=ccurvaUGBT,status=Variable
new generator.3000193798 bus1=1002131466.3.1.0,Phases=2,kv=0.22,kW=2.22157,pf=1,model=1,daily=ccurvaUGBT,status=Variable
new generator.3001975054 bus1=1002007846.1.2.0,Phases=2,kv=0.22,kW=1.87494,pf=1,model=1,daily=ccurvaUGBT,status=Variable
new generator.3001975062 bus1=1006649910.1.2.0,Phases=2,kv=0.22,kW=5.22842,pf=1,model=1,daily=ccurvaUGBT,status=Variable
new generator.3004561286 bus1=1002135309.1.2.3.0,Phases=3,kv=0.22,kW=8.78573,pf=1,model=1,daily=ccurvaUGBT,status=Variable
new generator.3004895307 bus1=1002161944.1.0,Phases=1,kv=0.127,kW=1.02931,pf=1,model=1,daily=ccurvaUGBT,status=Variable
new generator.3005198920 bus1=1002154349.1.2.0,Phases=2,kv=0.22,kW=6.34979,pf=1,model=1,daily=ccurvaUGBT,status=Variable
new generator.3007391434 bus1=1007317815.1.2.0,Phases=2,kv=0.22,kW=3.58035,pf=1,model=1,daily=ccurvaUGBT,status=Variable
new generator.3007398789 bus1=1007322148.1.2.0,Phases=2,kv=0.22,kW=1.95846,pf=1,model=1,daily=ccurvaUGBT,status=Variable
new generator.3014243772 bus1=1011228455.1.2.0,Phases=2,kv=0.22,kW=0.00451,pf=1,model=1,daily=ccurvaUGBT,status=Variable
new generator.3003304087 bus1=1002036112.1.2.0,Phases=2,kv=0.22,kW=0.87815,pf=1,model=1,daily=ccurvaUGBT,status=Variable
new generator.3003315365 bus1=1002131585.1.2.3.0,Phases=3,kv=0.22,kW=2.16081,pf=1,model=1,daily=ccurvaUGBT,status=Variable
new generator.3004786080 bus1=1002145529.2.3.0,Phases=2,kv=0.22,kW=1.3641,pf=1,model=1,daily=ccurvaUGBT,status=Variable
new generator.3004788650 bus1=1002153054.1.2.0,Phases=2,kv=0.22,kW=3.15124,pf=1,model=1,daily=ccurvaUGBT,status=Variable
new generator.3005850861 bus1=1006119219.3.0,Phases=1,kv=0.127,kW=0.89413,pf=1,model=1,daily=ccurvaUGBT,status=Variable
new generator.3005887942 bus1=1006150411.1.2.3.0,Phases=3,kv=0.22,kW=8.33434,pf=1,model=1,daily=ccurvaUGBT,status=Variable
new generator.3006519760 bus1=1006290278.1.2.3.0,Phases=3,kv=0.22,kW=0.12179,pf=1,model=1,daily=ccurvaUGBT,status=Variable
new generator.3006531523 bus1=1006834437.2.3.0,Phases=2,kv=0.22,kW=1.63318,pf=1,model=1,daily=ccurvaUGBT,status=Variable
new generator.3007510826 bus1=1007402676.1.2.3.0,Phases=3,kv=0.22,kW=1.41978,pf=1,model=1,daily=ccurvaUGBT,status=Variable
new generator.3007534147 bus1=1007423781.1.2.0,Phases=2,kv=0.22,kW=5.61248,pf=1,model=1,daily=ccurvaUGBT,status=Variable
new generator.3010616765 bus1=1007996178.1.2.0,Phases=2,kv=0.22,kW=1.09436,pf=1,model=1,daily=ccurvaUGBT,status=Variable
new generator.3010873488 bus1=1002138396.1.2.3.0,Phases=3,kv=0.22,kW=4.81908,pf=1,model=1,daily=ccurvaUGBT,status=Variable
new generator.3011236056 bus1=1008918897.1.2.0,Phases=2,kv=0.22,kW=1.28305,pf=1,model=1,daily=ccurvaUGBT,status=Variable
new generator.3011915487 bus1=1009947225.1.2.0,Phases=2,kv=0.22,kW=5.96008,pf=1,model=1,daily=ccurvaUGBT,status=Variable
new generator.3004329049 bus1=1002144059.1.2.3.0,Phases=3,kv=0.22,kW=0.00451,pf=1,model=1,daily=ccurvaUGBT,status=Variable
new generator.3004947882 bus1=1002163575.1.2.3.0,Phases=3,kv=0.22,kW=14.91875,pf=1,model=1,daily=ccurvaUGBT,status=Variable
new generator.3006387318 bus1=1006720904.2.3.0,Phases=2,kv=0.22,kW=9.42557,pf=1,model=1,daily=ccurvaUGBT,status=Variable
new generator.3006690951 bus1=1006962187.1.2.0,Phases=2,kv=0.22,kW=2.40419,pf=1,model=1,daily=ccurvaUGBT,status=Variable
new generator.3006695913 bus1=1006955789.2.3.0,Phases=2,kv=0.22,kW=3.44,pf=1,model=1,daily=ccurvaUGBT,status=Variable
new generator.3006696820 bus1=1002037617.1.2.0,Phases=2,kv=0.22,kW=3.02791,pf=1,model=1,daily=ccurvaUGBT,status=Variable
new generator.3010018188 bus1=1007611423.1.2.0,Phases=2,kv=0.22,kW=0.00451,pf=1,model=1,daily=ccurvaUGBT,status=Variable
new generator.3012412790 bus1=1010299997.1.2.3.0,Phases=3,kv=0.22,kW=5.59876,pf=1,model=1,daily=ccurvaUGBT,status=Variable
new generator.3013473193 bus1=1010894337.1.2.0,Phases=2,kv=0.22,kW=0.00451,pf=1,model=1,daily=ccurvaUGBT,status=Variable
new generator.3014466936 bus1=1002133006.2.3.0,Phases=2,kv=0.22,kW=18.14938,pf=1,model=1,daily=ccurvaUGBT,status=Variable
new generator.3014472576 bus1=1011271835.1.0,Phases=1,kv=0.127,kW=1.41095,pf=1,model=1,daily=ccurvaUGBT,status=Variable
new generator.3014477360 bus1=1011277140.1.2.3.0,Phases=3,kv=0.22,kW=9.59942,pf=1,model=1,daily=ccurvaUGBT,status=Variable
new generator.3002342108 bus1=1011228455.1.2.0,Phases=2,kv=0.22,kW=2.12304,pf=1,model=1,daily=ccurvaUGBT,status=Variable
new generator.3005368774 bus1=1002038142.1.2.0,Phases=2,kv=0.22,kW=2.12083,pf=1,model=1,daily=ccurvaUGBT,status=Variable
new generator.3006474912 bus1=1006784107.1.0,Phases=1,kv=0.127,kW=1.20112,pf=1,model=1,daily=ccurvaUGBT,status=Variable
new generator.3011118068 bus1=1008747509.1.2.0,Phases=2,kv=0.22,kW=2.6736,pf=1,model=1,daily=ccurvaUGBT,status=Variable
new generator.3014600217 bus1=1011400689.1.2.3.0,Phases=3,kv=0.22,kW=66.56221,pf=1,model=1,daily=ccurvaUGBT,status=Variable
new generator.3000904287 bus1=1001955997.2.0,Phases=1,kv=0.127,kW=0.00451,pf=1,model=1,daily=ccurvaUGBT,status=Variable
new generator.3001974667 bus1=1002041131.1.2.0,Phases=2,kv=0.22,kW=3.15598,pf=1,model=1,daily=ccurvaUGBT,status=Variable
new generator.3001975045 bus1=1001999383.2.0,Phases=1,kv=0.127,kW=3.55858,pf=1,model=1,daily=ccurvaUGBT,status=Variable
new generator.3003810720 bus1=1002140580.1.2.0,Phases=2,kv=0.22,kW=2.52027,pf=1,model=1,daily=ccurvaUGBT,status=Variable
new generator.3004100628 bus1=1002143723.1.2.0,Phases=2,kv=0.22,kW=17.36388,pf=1,model=1,daily=ccurvaUGBT,status=Variable
new generator.3004115577 bus1=1002132523.1.2.3.0,Phases=3,kv=0.22,kW=3.77294,pf=1,model=1,daily=ccurvaUGBT,status=Variable
new generator.3005600807 bus1=1002137906.1.2.3.0,Phases=3,kv=0.22,kW=3.63416,pf=1,model=1,daily=ccurvaUGBT,status=Variable
new generator.3005613943 bus1=1002142309.2.0,Phases=1,kv=0.127,kW=2.61175,pf=1,model=1,daily=ccurvaUGBT,status=Variable
new generator.3006289830 bus1=1006666528.1.2.0,Phases=2,kv=0.22,kW=1.89852,pf=1,model=1,daily=ccurvaUGBT,status=Variable
new generator.3010090261 bus1=1007722772.1.2.0,Phases=2,kv=0.22,kW=6.58368,pf=1,model=1,daily=ccurvaUGBT,status=Variable
new generator.3011042388 bus1=1008243761.1.2.3.0,Phases=3,kv=0.22,kW=0.76185,pf=1,model=1,daily=ccurvaUGBT,status=Variable
new generator.3011548641 bus1=1009395702.1.2.3.0,Phases=3,kv=0.22,kW=2.33135,pf=1,model=1,daily=ccurvaUGBT,status=Variable
new generator.3014218542 bus1=1011109400.1.2.0,Phases=2,kv=0.22,kW=0.0039,pf=1,model=1,daily=ccurvaUGBT,status=Variable
new generator.3014568379 bus1=1011283481.1.2.0,Phases=2,kv=0.22,kW=1.80128,pf=1,model=1,daily=ccurvaUGBT,status=Variable
new generator.3000008035 bus1=1002149085.1.2.3.0,Phases=3,kv=0.22,kW=10.49913,pf=1,model=1,daily=ccurvaUGBT,status=Variable
new generator.3000008039 bus1=1002145858.1.2.0,Phases=2,kv=0.22,kW=1.64459,pf=1,model=1,daily=ccurvaUGBT,status=Variable
new generator.3000008065 bus1=1002149029.2.3.0,Phases=2,kv=0.22,kW=2.8275,pf=1,model=1,daily=ccurvaUGBT,status=Variable
new generator.3000008071 bus1=1002139019.1.2.0,Phases=2,kv=0.22,kW=7.42753,pf=1,model=1,daily=ccurvaUGBT,status=Variable
new generator.3000008113 bus1=1002138753.1.2.3.0,Phases=3,kv=0.22,kW=3.36605,pf=1,model=1,daily=ccurvaUGBT,status=Variable
new generator.3000008215 bus1=1002137906.1.2.3.0,Phases=3,kv=0.22,kW=7.08861,pf=1,model=1,daily=ccurvaUGBT,status=Variable
new generator.3000008269 bus1=1010991736.1.2.3.0,Phases=3,kv=0.22,kW=7.38107,pf=1,model=1,daily=ccurvaUGBT,status=Variable
new generator.3000008572 bus1=1002152781.1.2.0,Phases=2,kv=0.22,kW=2.79304,pf=1,model=1,daily=ccurvaUGBT,status=Variable
new generator.3000365429 bus1=1002132369.1.2.3.0,Phases=3,kv=0.22,kW=4.43753,pf=1,model=1,daily=ccurvaUGBT,status=Variable
new generator.3003759556 bus1=1002155539.1.2.3.0,Phases=3,kv=0.22,kW=21.24106,pf=1,model=1,daily=ccurvaUGBT,status=Variable
new generator.3004136875 bus1=1002155518.1.0,Phases=1,kv=0.127,kW=0.70628,pf=1,model=1,daily=ccurvaUGBT,status=Variable
new generator.3004481299 bus1=1002145704.2.3.0,Phases=2,kv=0.22,kW=1.5872,pf=1,model=1,daily=ccurvaUGBT,status=Variable
new generator.3006838707 bus1=1007099919.3.1.0,Phases=2,kv=0.22,kW=1.08501,pf=1,model=1,daily=ccurvaUGBT,status=Variable
new generator.3010528316 bus1=1001950432.1.2.0,Phases=2,kv=0.22,kW=6.54747,pf=1,model=1,daily=ccurvaUGBT,status=Variable
new generator.3012941852 bus1=1010570747.1.2.0,Phases=2,kv=0.22,kW=0.00451,pf=1,model=1,daily=ccurvaUGBT,status=Variable
new generator.3014090312 bus1=1011067510.1.2.0,Phases=2,kv=0.22,kW=2.0352,pf=1,model=1,daily=ccurvaUGBT,status=Variable
