new load.3009001232M1 bus1=BMT98863725.1.2.3.0,Phases=3,kv=13.800000000,kW=2.44536,pf=0.92,Vminpu=0.93,Vmaxpu=1.5,model=1,daily=MT3_1,status=variable
new load.3009012985M1 bus1=BMT98867092.1.2.3.0,Phases=3,kv=13.800000000,kW=53.8159,pf=0.92,Vminpu=0.93,Vmaxpu=1.5,model=1,daily=MT2_1,status=variable
new load.3009017640M1 bus1=BMT167566066.1.2.3.0,Phases=3,kv=13.800000000,kW=7.49778,pf=0.92,Vminpu=0.93,Vmaxpu=1.5,model=1,daily=MT1_1,status=variable
new load.3009020886M1 bus1=BMT158496776.1.2.3.0,Phases=3,kv=13.800000000,kW=14.90286,pf=0.92,Vminpu=0.93,Vmaxpu=1.5,model=1,daily=MT2_1,status=variable
new load.3010817247M1 bus1=BMT98867624.1.2.3.0,Phases=3,kv=13.800000000,kW=124.56902,pf=0.92,Vminpu=0.93,Vmaxpu=1.5,model=1,daily=MT2_1,status=variable
new load.3010906484M1 bus1=BMT98867680.1.2.3.0,Phases=3,kv=13.800000000,kW=31.32134,pf=0.92,Vminpu=0.93,Vmaxpu=1.5,model=1,daily=MT1_1,status=variable
new load.3011149754M1 bus1=BMT163949909.1.2.3.0,Phases=3,kv=13.800000000,kW=18.6235,pf=0.92,Vminpu=0.93,Vmaxpu=1.5,model=1,daily=MT1_1,status=variable
new load.3011191032M1 bus1=BMT158496693.1.2.3.0,Phases=3,kv=13.800000000,kW=12.89216,pf=0.92,Vminpu=0.93,Vmaxpu=1.5,model=1,daily=MT2_1,status=variable
new load.3011670921M1 bus1=BMT163162420.1.2.3.0,Phases=3,kv=13.800000000,kW=23.70262,pf=0.92,Vminpu=0.93,Vmaxpu=1.5,model=1,daily=MT1_1,status=variable
new load.3011731833M1 bus1=BMT163949909.1.2.3.0,Phases=3,kv=13.800000000,kW=21.76772,pf=0.92,Vminpu=0.93,Vmaxpu=1.5,model=1,daily=MT1_1,status=variable
new load.3011820579M1 bus1=BMT130856364.1.2.3.0,Phases=3,kv=13.800000000,kW=154.70594,pf=0.92,Vminpu=0.93,Vmaxpu=1.5,model=1,daily=MT2_1,status=variable
new load.3012744176M1 bus1=BMT159470757.1.2.3.0,Phases=3,kv=13.800000000,kW=31.32134,pf=0.92,Vminpu=0.93,Vmaxpu=1.5,model=1,daily=MT1_1,status=variable
new load.3013268355M1 bus1=BMT170105851.1.2.3.0,Phases=3,kv=13.800000000,kW=4.83728,pf=0.92,Vminpu=0.93,Vmaxpu=1.5,model=1,daily=MT1_1,status=variable
new load.3014458674M1 bus1=BMT166699273.1.2.3.0,Phases=3,kv=13.800000000,kW=137.0354,pf=0.92,Vminpu=0.93,Vmaxpu=1.5,model=1,daily=MT2_1,status=variable
