new line.CTR101695 bus1=BMT124262912.3,bus2=BMT124263780.3,Phases=1,LineCode=tieSwitch1,Length=0.001,Units=km,switch=T !numEQ 104611
new line.CTR101744 bus1=BMT142859147.1,bus2=BMT142859161.1,Phases=1,LineCode=tieSwitch1,Length=0.001,Units=km,switch=T !numEQ 104618
new line.CTR113924 bus1=BMT124290114.2,bus2=BMT124290170.2,Phases=1,LineCode=tieSwitch1,Length=0.001,Units=km,switch=T !numEQ 89523
new line.CTR113931 bus1=BMT124249479.2,bus2=BMT124250662.2,Phases=1,LineCode=tieSwitch1,Length=0.001,Units=km,switch=T !numEQ 89547
new line.CTR113938 bus1=BMT124249416.2,bus2=BMT124250949.2,Phases=1,LineCode=tieSwitch1,Length=0.001,Units=km,switch=T !numEQ 89549
new line.CTR113945 bus1=BMT124249395.2,bus2=BMT162609719.2,Phases=1,LineCode=tieSwitch1,Length=0.001,Units=km,switch=T !numEQ 89550
new line.CTR113952 bus1=BMT124249423.2,bus2=BMT124250844.2,Phases=1,LineCode=tieSwitch1,Length=0.001,Units=km,switch=T !numEQ 89551
new line.CTR113959 bus1=BMT124249458.2,bus2=BMT167068032.2,Phases=1,LineCode=tieSwitch1,Length=0.001,Units=km,switch=T !numEQ 89552
new line.CTR113966 bus1=BMT124249472.2,bus2=BMT124250690.2,Phases=1,LineCode=tieSwitch1,Length=0.001,Units=km,switch=T !numEQ 89553
new line.CTR113973 bus1=BMT124244152.1.2.3,bus2=BMT124248303.1.2.3,Phases=3,LineCode=tieSwitch,Length=0.001,Units=km,switch=T !numEQ 89554
new line.CTR113980 bus1=BMT124291402.1.2.3,bus2=BMT162887901.1.2.3,Phases=3,LineCode=tieSwitch,Length=0.001,Units=km,switch=T !numEQ 89555
new line.CTR113987 bus1=BMT124252881.1.2.3,bus2=BMT124252888.1.2.3,Phases=3,LineCode=tieSwitch,Length=0.001,Units=km,switch=T !numEQ 89556
new line.CTR114008 bus1=BMT124270710.1.2.3,bus2=BMT124270703.1.2.3,Phases=3,LineCode=tieSwitch,Length=0.001,Units=km,switch=T !numEQ 89559
new line.CTR114113 bus1=BMT124254372.1.2.3,bus2=BMT124254379.1.2.3,Phases=3,LineCode=tieSwitch,Length=0.001,Units=km,switch=T !numEQ 89576
new line.CTR114120 bus1=BMT124288938.1.2.3,bus2=BMT170100547.1.2.3,Phases=3,LineCode=tieSwitch,Length=0.001,Units=km,switch=T !numEQ 263756
new line.CTR114127 bus1=BMT124251740.1.2.3,bus2=BMT124251789.1.2.3,Phases=3,LineCode=tieSwitch,Length=0.001,Units=km,switch=T !numEQ 89580
new line.CTR114134 bus1=BMT165704678.1.2.3,bus2=BMT124270493.1.2.3,Phases=3,LineCode=tieSwitch,Length=0.001,Units=km,switch=T !numEQ 89581
open line.CTR114134 term=1
new line.CTR114141 bus1=BMT124270808.2,bus2=BMT153694032.2,Phases=1,LineCode=tieSwitch1,Length=0.001,Units=km,switch=T !numEQ 89582
new line.CTR114148 bus1=BMT171963468.1.2.3,bus2=BMT124262289.1.2.3,Phases=3,LineCode=tieSwitch,Length=0.001,Units=km,switch=T !numEQ 89583
open line.CTR114148 term=1
new line.CTR114155 bus1=BMT172420249.1.2.3,bus2=BMT124271473.1.2.3,Phases=3,LineCode=tieSwitch,Length=0.001,Units=km,switch=T !numEQ 89584
open line.CTR114155 term=1
new line.CTR114169 bus1=BMT124252027.1.2.3,bus2=BMT124252041.1.2.3,Phases=3,LineCode=tieSwitch,Length=0.001,Units=km,switch=T !numEQ 89587
new line.CTR114176 bus1=BMT127019568.1,bus2=BMT127019582.1,Phases=1,LineCode=tieSwitch1,Length=0.001,Units=km,switch=T !numEQ 89588
new line.CTR114183 bus1=BMT124252972.1.2.3,bus2=BMT150723692.1.2.3,Phases=3,LineCode=tieSwitch,Length=0.001,Units=km,switch=T !numEQ 89589
new line.CTR114197 bus1=BMT124268267.1.2.3,bus2=BMT124268358.1.2.3,Phases=3,LineCode=tieSwitch,Length=0.001,Units=km,switch=T !numEQ 89591
new line.CTR114204 bus1=BMT124268379.2,bus2=BMT168143572.2,Phases=1,LineCode=tieSwitch1,Length=0.001,Units=km,switch=T !numEQ 89592
new line.CTR114225 bus1=BMT124265313.3,bus2=BMT124265488.3,Phases=1,LineCode=tieSwitch1,Length=0.001,Units=km,switch=T !numEQ 89595
new line.CTR114232 bus1=BMT124265201.1.2.3,bus2=BMT124265229.1.2.3,Phases=3,LineCode=tieSwitch,Length=0.001,Units=km,switch=T !numEQ 89596
new line.CTR114239 bus1=BMT124263913.3,bus2=BMT124263927.3,Phases=1,LineCode=tieSwitch1,Length=0.001,Units=km,switch=T !numEQ 89597
new line.CTR114260 bus1=BMT142850138.1.2.3,bus2=BMT142878684.1.2.3,Phases=3,LineCode=tieSwitch,Length=0.001,Units=km,switch=T !numEQ 89600
new line.CTR114267 bus1=BMT127019946.2,bus2=BMT127020611.2,Phases=1,LineCode=tieSwitch1,Length=0.001,Units=km,switch=T !numEQ 89601
new line.CTR114281 bus1=BMT124289134.1.2.3,bus2=BMT124289141.1.2.3,Phases=3,LineCode=tieSwitch,Length=0.001,Units=km,switch=T !numEQ 89603
new line.CTR114295 bus1=BMT127018420.1.2.3,bus2=BMT127019155.1.2.3,Phases=3,LineCode=tieSwitch,Length=0.001,Units=km,switch=T !numEQ 89605
new line.CTR114302 bus1=BMT124267063.1.2.3,bus2=BMT124268197.1.2.3,Phases=3,LineCode=tieSwitch,Length=0.001,Units=km,switch=T !numEQ 89606
new line.CTR114309 bus1=BMT124267042.1,bus2=BMT124268218.1,Phases=1,LineCode=tieSwitch1,Length=0.001,Units=km,switch=T !numEQ 89607
new line.CTR114316 bus1=BMT124263808.1,bus2=BMT124263815.1,Phases=1,LineCode=tieSwitch1,Length=0.001,Units=km,switch=T !numEQ 89608
new line.CTR114323 bus1=BMT124264711.3,bus2=BMT124264935.3,Phases=1,LineCode=tieSwitch1,Length=0.001,Units=km,switch=T !numEQ 89609
new line.CTR114351 bus1=BMT124265929.1.2.3,bus2=BMT124269646.1.2.3,Phases=3,LineCode=tieSwitch,Length=0.001,Units=km,switch=T !numEQ 89614
new line.CTR114372 bus1=BMT124286159.1.2.3,bus2=BMT124287034.1.2.3,Phases=3,LineCode=tieSwitch,Length=0.001,Units=km,switch=T !numEQ 89617
new line.CTR114386 bus1=BMT146671445.1.2.3,bus2=BMT146674245.1.2.3,Phases=3,LineCode=tieSwitch,Length=0.001,Units=km,switch=T !numEQ 89620
new line.CTR114393 bus1=BMT124261442.1.2.3,bus2=BMT171959313.1.2.3,Phases=3,LineCode=tieSwitch,Length=0.001,Units=km,switch=T !numEQ 89621
new line.CTR114400 bus1=BMT124253287.1.2.3,bus2=BMT168635066.1.2.3,Phases=3,LineCode=tieSwitch,Length=0.001,Units=km,switch=T !numEQ 89622
new line.CTR114407 bus1=BMT142850453.1.2.3,bus2=BMT165926423.1.2.3,Phases=3,LineCode=tieSwitch,Length=0.001,Units=km,switch=T !numEQ 89624
new line.CTR114414 bus1=BMT142850523.1.2.3,bus2=BMT146685858.1.2.3,Phases=3,LineCode=tieSwitch,Length=0.001,Units=km,switch=T !numEQ 89626
new line.CTR114421 bus1=BMT124255786.1.2.3,bus2=BMT124255947.1.2.3,Phases=3,LineCode=tieSwitch,Length=0.001,Units=km,switch=T !numEQ 89628
new line.CTR114435 bus1=BMT124266440.1.2.3,bus2=BMT160593600.1.2.3,Phases=3,LineCode=tieSwitch,Length=0.001,Units=km,switch=T !numEQ 89630
new line.CTR114442 bus1=BMT142850551.1.2.3,bus2=BMT144263564.1.2.3,Phases=3,LineCode=tieSwitch,Length=0.001,Units=km,switch=T !numEQ 89625
new line.CTR114463 bus1=BMT124266552.1.2.3,bus2=BMT124266951.1.2.3,Phases=3,LineCode=tieSwitch,Length=0.001,Units=km,switch=T !numEQ 89634
new line.CTR114498 bus1=BMT124265236.1.2.3,bus2=BMT124265243.1.2.3,Phases=3,LineCode=tieSwitch,Length=0.001,Units=km,switch=T !numEQ 89639
new line.CTR101751 bus1=BMT124261995.1.2.3,bus2=BMT124262051.1.2.3,Phases=3,LineCode=tieSwitch,Length=0.001,Units=km,switch=T !numEQ 104619
new line.CTR101758 bus1=BMT124261974.1.2.3,bus2=BMT124262065.1.2.3,Phases=3,LineCode=tieSwitch,Length=0.001,Units=km,switch=T !numEQ 104620
new line.CTR101793 bus1=BMT124287216.1,bus2=BMT124287685.1,Phases=1,LineCode=tieSwitch1,Length=0.001,Units=km,switch=T !numEQ 104625
new line.CTR101800 bus1=BMT124252524.1.2.3,bus2=BMT124252531.1.2.3,Phases=3,LineCode=tieSwitch,Length=0.001,Units=km,switch=T !numEQ 104626
new line.CTR101807 bus1=BMT124255660.1.2.3,bus2=BMT124255961.1.2.3,Phases=3,LineCode=tieSwitch,Length=0.001,Units=km,switch=T !numEQ 104627
new line.CTR101828 bus1=BMT124266174.1.2.3,bus2=BMT124266258.1.2.3,Phases=3,LineCode=tieSwitch,Length=0.001,Units=km,switch=T !numEQ 104631
new line.CTR115527 bus1=BMT124244327.1.2.3,bus2=BMT124248016.1.2.3,Phases=3,LineCode=tieSwitch,Length=0.001,Units=km,switch=T !numEQ 89340
new line.CTR115534 bus1=BMT124248037.1.2.3,bus2=BMT170711845.1.2.3,Phases=3,LineCode=tieSwitch,Length=0.001,Units=km,switch=T !numEQ 89341
new line.CTR115541 bus1=BMT124244320.1.2.3,bus2=BMT124248107.1.2.3,Phases=3,LineCode=tieSwitch,Length=0.001,Units=km,switch=T !numEQ 89342
new line.CTR115548 bus1=BMT124267070.1.2.3,bus2=BMT170602429.1.2.3,Phases=3,LineCode=tieSwitch,Length=0.001,Units=km,switch=T !numEQ 89344
new line.CTR115555 bus1=BMT124268253.1.2.3,bus2=BMT124268792.1.2.3,Phases=3,LineCode=tieSwitch,Length=0.001,Units=km,switch=T !numEQ 89345
new line.CTR115562 bus1=BMT124268330.1.2.3,bus2=BMT124268344.1.2.3,Phases=3,LineCode=tieSwitch,Length=0.001,Units=km,switch=T !numEQ 89346
new line.CTR115569 bus1=BMT124265852.1,bus2=BMT124269793.1,Phases=1,LineCode=tieSwitch1,Length=0.001,Units=km,switch=T !numEQ 89347
new line.CTR115576 bus1=BMT124265880.1,bus2=BMT162821352.1,Phases=1,LineCode=tieSwitch1,Length=0.001,Units=km,switch=T !numEQ 89349
new line.CTR115597 bus1=BMT124262968.1.2.3,bus2=BMT124263682.1.2.3,Phases=3,LineCode=tieSwitch,Length=0.001,Units=km,switch=T !numEQ 89353
new line.CTR115604 bus1=BMT124264718.1.2.3,bus2=BMT124264830.1.2.3,Phases=3,LineCode=tieSwitch,Length=0.001,Units=km,switch=T !numEQ 89354
new line.CTR115611 bus1=BMT124262898.1.2.3,bus2=BMT124262905.1.2.3,Phases=3,LineCode=tieSwitch,Length=0.001,Units=km,switch=T !numEQ 89356
new line.CTR115618 bus1=BMT171356715.1,bus2=BMT171358199.1,Phases=1,LineCode=tieSwitch1,Length=0.001,Units=km,switch=T !numEQ 89357
new line.CTR115625 bus1=BMT157276509.2,bus2=BMT162298307.2,Phases=1,LineCode=tieSwitch1,Length=0.001,Units=km,switch=T !numEQ 131456
new line.CTR115639 bus1=BMT124263801.1,bus2=BMT124263843.1,Phases=1,LineCode=tieSwitch1,Length=0.001,Units=km,switch=T !numEQ 89360
new line.CTR115646 bus1=BMT124262821.3,bus2=BMT124263906.3,Phases=1,LineCode=tieSwitch1,Length=0.001,Units=km,switch=T !numEQ 89361
new line.CTR115653 bus1=BMT124244201.1.2.3,bus2=BMT164982207.1.2.3,Phases=3,LineCode=tieSwitch,Length=0.001,Units=km,switch=T !numEQ 89362
new line.CTR115660 bus1=BMT124247862.1.2.3,bus2=BMT124247988.1.2.3,Phases=3,LineCode=tieSwitch,Length=0.001,Units=km,switch=T !numEQ 89363
new line.CTR115674 bus1=BMT124244292.1.2.3,bus2=BMT156603861.1.2.3,Phases=3,LineCode=tieSwitch,Length=0.001,Units=km,switch=T !numEQ 89365
new line.CTR115681 bus1=BMT124244411.3,bus2=BMT124247806.3,Phases=1,LineCode=tieSwitch1,Length=0.001,Units=km,switch=T !numEQ 89366
new line.CTR115688 bus1=BMT124244299.1.2.3,bus2=BMT124248121.1.2.3,Phases=3,LineCode=tieSwitch,Length=0.001,Units=km,switch=T !numEQ 89367
new line.CTR115695 bus1=BMT124244264.1.2.3,bus2=BMT124248198.1.2.3,Phases=3,LineCode=tieSwitch,Length=0.001,Units=km,switch=T !numEQ 89368
new line.CTR115702 bus1=BMT124244306.1.2.3,bus2=BMT172575826.1.2.3,Phases=3,LineCode=tieSwitch,Length=0.001,Units=km,switch=T !numEQ 89369
new line.CTR115709 bus1=BMT124244159.2,bus2=BMT171516953.2,Phases=1,LineCode=tieSwitch1,Length=0.001,Units=km,switch=T !numEQ 89370
new line.CTR115716 bus1=BMT124248380.2,bus2=BMT124248394.2,Phases=1,LineCode=tieSwitch1,Length=0.001,Units=km,switch=T !numEQ 89371
new line.CTR115723 bus1=BMT124243977.1.2.3,bus2=BMT169359092.1.2.3,Phases=3,LineCode=tieSwitch,Length=0.001,Units=km,switch=T !numEQ 89372
new line.CTR115730 bus1=BMT124243872.1.2.3,bus2=BMT124243921.1.2.3,Phases=3,LineCode=tieSwitch,Length=0.001,Units=km,switch=T !numEQ 89374
new line.CTR115737 bus1=BMT124243851.1.2.3,bus2=BMT124249108.1.2.3,Phases=3,LineCode=tieSwitch,Length=0.001,Units=km,switch=T !numEQ 89375
new line.CTR115758 bus1=BMT124249325.2,bus2=BMT163564608.2,Phases=1,LineCode=tieSwitch1,Length=0.001,Units=km,switch=T !numEQ 89378
new line.CTR115765 bus1=BMT160617879.1.2.3,bus2=BMT124253595.1.2.3,Phases=3,LineCode=tieSwitch,Length=0.001,Units=km,switch=T !numEQ 89392
new line.CTR115772 bus1=BMT124269121.1,bus2=BMT141131414.1,Phases=1,LineCode=tieSwitch1,Length=0.001,Units=km,switch=T !numEQ 89393
new line.CTR115779 bus1=BMT124265978.1,bus2=BMT124269100.1,Phases=1,LineCode=tieSwitch1,Length=0.001,Units=km,switch=T !numEQ 89394
new line.CTR115786 bus1=BMT124285515.1.2.3,bus2=BMT170554135.1.2.3,Phases=3,LineCode=tieSwitch,Length=0.001,Units=km,switch=T !numEQ 266151
new line.CTR115793 bus1=BMT127017293.1.2.3,bus2=BMT127017300.1.2.3,Phases=3,LineCode=tieSwitch,Length=0.001,Units=km,switch=T !numEQ 89397
new line.CTR115800 bus1=BMT127016985.1.2.3,bus2=BMT165232329.1.2.3,Phases=3,LineCode=tieSwitch,Length=0.001,Units=km,switch=T !numEQ 89398
new line.CTR115814 bus1=BMT124289036.1.2.3,bus2=BMT142408382.1.2.3,Phases=3,LineCode=tieSwitch,Length=0.001,Units=km,switch=T !numEQ 89413
new line.CTR115821 bus1=BMT124289015.3,bus2=BMT142351598.3,Phases=1,LineCode=tieSwitch1,Length=0.001,Units=km,switch=T !numEQ 89414
new line.CTR115828 bus1=BMT124289281.3,bus2=BMT124289708.3,Phases=1,LineCode=tieSwitch1,Length=0.001,Units=km,switch=T !numEQ 89415
new line.CTR115835 bus1=BMT124289043.1.2.3,bus2=BMT124289925.1.2.3,Phases=3,LineCode=tieSwitch,Length=0.001,Units=km,switch=T !numEQ 89416
new line.CTR115842 bus1=BMT124289995.1,bus2=BMT153220270.1,Phases=1,LineCode=tieSwitch1,Length=0.001,Units=km,switch=T !numEQ 233137
new line.CTR115849 bus1=BMT124290009.1,bus2=BMT153222010.1,Phases=1,LineCode=tieSwitch1,Length=0.001,Units=km,switch=T !numEQ 233168
new line.CTR115856 bus1=BMT124290744.1.2.3,bus2=BMT124290751.1.2.3,Phases=3,LineCode=tieSwitch,Length=0.001,Units=km,switch=T !numEQ 89419
new line.CTR115863 bus1=BMT124289729.2,bus2=BMT153553417.2,Phases=1,LineCode=tieSwitch1,Length=0.001,Units=km,switch=T !numEQ 89420
new line.CTR116955 bus1=BMT124252188.1.2.3,bus2=BMT124252356.1.2.3,Phases=3,LineCode=tieSwitch,Length=0.001,Units=km,switch=T !numEQ 89129
new line.CTR116962 bus1=BMT124252174.1.2.3,bus2=BMT124252370.1.2.3,Phases=3,LineCode=tieSwitch,Length=0.001,Units=km,switch=T !numEQ 89130
new line.CTR116969 bus1=BMT124252181.1.2.3,bus2=BMT172508540.1.2.3,Phases=3,LineCode=tieSwitch,Length=0.001,Units=km,switch=T !numEQ 89131
new line.CTR116976 bus1=BMT171104365.1.2.3,bus2=BMT124253518.1.2.3,Phases=3,LineCode=tieSwitch,Length=0.001,Units=km,switch=T !numEQ 89132
new line.CTR116983 bus1=BMT124261715.1.2.3,bus2=BMT165704669.1.2.3,Phases=3,LineCode=tieSwitch,Length=0.001,Units=km,switch=T !numEQ 89133
new line.CTR116990 bus1=BMT124243627.1,bus2=BMT124251348.1,Phases=1,LineCode=tieSwitch1,Length=0.001,Units=km,switch=T !numEQ 89134
new line.CTR116997 bus1=BMT124243795.1.2.3,bus2=BMT170569397.1.2.3,Phases=3,LineCode=tieSwitch,Length=0.001,Units=km,switch=T !numEQ 89136
new line.CTR117004 bus1=BMT167351181.1.2.3,bus2=BMT172925832.1.2.3,Phases=3,LineCode=tieSwitch,Length=0.001,Units=km,switch=T !numEQ 89138
new line.CTR117011 bus1=BMT124255226.1.2.3,bus2=BMT169914875.1.2.3,Phases=3,LineCode=tieSwitch,Length=0.001,Units=km,switch=T !numEQ 89139
new line.CTR117018 bus1=BMT124255254.1.2.3,bus2=BMT172347599.1.2.3,Phases=3,LineCode=tieSwitch,Length=0.001,Units=km,switch=T !numEQ 89140
new line.CTR117025 bus1=BMT124255345.1.2.3,bus2=BMT124256339.1.2.3,Phases=3,LineCode=tieSwitch,Length=0.001,Units=km,switch=T !numEQ 89141
new line.CTR117032 bus1=BMT124251040.1,bus2=BMT167843906.1,Phases=1,LineCode=tieSwitch1,Length=0.001,Units=km,switch=T !numEQ 89142
new line.CTR117039 bus1=BMT124255387.1.2.3,bus2=BMT2244710.1.2.3,Phases=3,LineCode=tieSwitch,Length=0.001,Units=km,switch=T !numEQ 89143
open line.CTR117039 term=1
new line.CTR117046 bus1=BMT124255394.1.2.3,bus2=BMT124256185.1.2.3,Phases=3,LineCode=tieSwitch,Length=0.001,Units=km,switch=T !numEQ 89144
new line.CTR117053 bus1=BMT124255443.1.2.3,bus2=BMT165533998.1.2.3,Phases=3,LineCode=tieSwitch,Length=0.001,Units=km,switch=T !numEQ 89145
new line.CTR117060 bus1=BMT124255464.1.2.3,bus2=BMT138815793.1.2.3,Phases=3,LineCode=tieSwitch,Length=0.001,Units=km,switch=T !numEQ 89146
new line.CTR117067 bus1=BMT124255534.1.2.3,bus2=BMT172590149.1.2.3,Phases=3,LineCode=tieSwitch,Length=0.001,Units=km,switch=T !numEQ 89147
new line.CTR117074 bus1=BMT124255611.1.2.3,bus2=BMT124255625.1.2.3,Phases=3,LineCode=tieSwitch,Length=0.001,Units=km,switch=T !numEQ 89148
new line.CTR117081 bus1=BMT170840923.1.2.3,bus2=BMT2104164.1.2.3,Phases=3,LineCode=tieSwitch,Length=0.001,Units=km,switch=T !numEQ 89149
open line.CTR117081 term=1
new line.CTR117088 bus1=BMT170840922.1.2.3,bus2=BMT170841217.1.2.3,Phases=3,LineCode=tieSwitch,Length=0.001,Units=km,switch=T !numEQ 89150
new line.CTR117095 bus1=BMT168503713.1.2.3,bus2=BMT168503720.1.2.3,Phases=3,LineCode=tieSwitch,Length=0.001,Units=km,switch=T !numEQ 89137
new line.CTR117102 bus1=BMT124253798.1.2.3,bus2=BMT170840921.1.2.3,Phases=3,LineCode=tieSwitch,Length=0.001,Units=km,switch=T !numEQ 89151
new line.CTR117109 bus1=BMT172443065.1.2.3,bus2=BMT2246313.1.2.3,Phases=3,LineCode=tieSwitch,Length=0.001,Units=km,switch=T !numEQ 232809
open line.CTR117109 term=1
new line.CTR117116 bus1=BMT124249318.1.2.3,bus2=BMT124249332.1.2.3,Phases=3,LineCode=tieSwitch,Length=0.001,Units=km,switch=T !numEQ 89153
new line.CTR117123 bus1=BMT127016796.1.2.3,bus2=BMT127016810.1.2.3,Phases=3,LineCode=tieSwitch,Length=0.001,Units=km,switch=T !numEQ 89154
new line.CTR117130 bus1=BMT127019589.1,bus2=BMT127019645.1,Phases=1,LineCode=tieSwitch1,Length=0.001,Units=km,switch=T !numEQ 89155
new line.CTR117137 bus1=BMT127016831.1.2.3,bus2=BMT127016838.1.2.3,Phases=3,LineCode=tieSwitch,Length=0.001,Units=km,switch=T !numEQ 89156
new line.CTR117144 bus1=BMT124255702.1.2.3,bus2=BMT2243583.1.2.3,Phases=3,LineCode=tieSwitch,Length=0.001,Units=km,switch=T !numEQ 89157
open line.CTR117144 term=1
new line.CTR117151 bus1=BMT124255695.1.2.3,bus2=BMT124255751.1.2.3,Phases=3,LineCode=tieSwitch,Length=0.001,Units=km,switch=T !numEQ 89160
new line.CTR117158 bus1=BMT127020079.2,bus2=BMT162623837.2,Phases=1,LineCode=tieSwitch1,Length=0.001,Units=km,switch=T !numEQ 89161
new line.CTR117165 bus1=BMT124254694.1.2.3,bus2=BMT2248686.1.2.3,Phases=3,LineCode=tieSwitch,Length=0.001,Units=km,switch=T !numEQ 89162
open line.CTR117165 term=1
new line.CTR117179 bus1=BMT124289008.2,bus2=BMT142349778.2,Phases=1,LineCode=tieSwitch1,Length=0.001,Units=km,switch=T !numEQ 89164
new line.CTR117186 bus1=BMT124255821.1.2.3,bus2=BMT124255828.1.2.3,Phases=3,LineCode=tieSwitch,Length=0.001,Units=km,switch=T !numEQ 89165
new line.CTR117193 bus1=BMT124255667.1.2.3,bus2=BMT124255674.1.2.3,Phases=3,LineCode=tieSwitch,Length=0.001,Units=km,switch=T !numEQ 89166
new line.CTR117200 bus1=BMT124263017.1.2.3,bus2=BMT124263066.1.2.3,Phases=3,LineCode=tieSwitch,Length=0.001,Units=km,switch=T !numEQ 89167
new line.CTR117207 bus1=BMT124255646.1.2.3,bus2=BMT124255975.1.2.3,Phases=3,LineCode=tieSwitch,Length=0.001,Units=km,switch=T !numEQ 89168
new line.CTR117214 bus1=BMT124255639.1.2.3,bus2=BMT124255989.1.2.3,Phases=3,LineCode=tieSwitch,Length=0.001,Units=km,switch=T !numEQ 89169
open line.CTR117214 term=1
new line.CTR117221 bus1=BMT124255597.1.2.3,bus2=BMT124255604.1.2.3,Phases=3,LineCode=tieSwitch,Length=0.001,Units=km,switch=T !numEQ 89170
new line.CTR117228 bus1=BMT127017699.1,bus2=BMT127017741.1,Phases=1,LineCode=tieSwitch1,Length=0.001,Units=km,switch=T !numEQ 89172
new line.CTR117235 bus1=BMT157245933.1.2.3,bus2=BMT162229289.1.2.3,Phases=3,LineCode=tieSwitch,Length=0.001,Units=km,switch=T !numEQ 131430
new line.CTR117242 bus1=BMT124253259.1.2.3,bus2=BMT160281552.1.2.3,Phases=3,LineCode=tieSwitch,Length=0.001,Units=km,switch=T !numEQ 89174
new line.CTR117249 bus1=BMT124243676.1.2.3,bus2=BMT157079256.1.2.3,Phases=3,LineCode=tieSwitch,Length=0.001,Units=km,switch=T !numEQ 89171
new line.CTR117256 bus1=BMT124261232.1.2.3,bus2=BMT165879124.1.2.3,Phases=3,LineCode=tieSwitch,Length=0.001,Units=km,switch=T !numEQ 89202
new line.CTR117270 bus1=BMT172321400.1.2.3,bus2=BMT2246936.1.2.3,Phases=3,LineCode=tieSwitch,Length=0.001,Units=km,switch=T !numEQ 89204
open line.CTR117270 term=1
new line.CTR117298 bus1=BMT127017258.1.2.3,bus2=BMT127017538.1.2.3,Phases=3,LineCode=tieSwitch,Length=0.001,Units=km,switch=T !numEQ 89175
new line.CTR117522 bus1=BMT124242801.1.2.3,bus2=BMT152597527.1.2.3,Phases=3,LineCode=tieSwitch,Length=0.001,Units=km,switch=T !numEQ 89000
new line.CTR117529 bus1=BMT152597530.1.2.3,bus2=BMT2104262.1.2.3,Phases=3,LineCode=tieSwitch,Length=0.001,Units=km,switch=T !numEQ 89001
open line.CTR117529 term=1
new line.CTR117536 bus1=BMT168105250.1.2.3,bus2=BMT140127803.1.2.3,Phases=3,LineCode=tieSwitch,Length=0.001,Units=km,switch=T !numEQ 89002
open line.CTR117536 term=1
new line.CTR114505 bus1=BMT127019092.1.2.3,bus2=BMT127019113.1.2.3,Phases=3,LineCode=tieSwitch,Length=0.001,Units=km,switch=T !numEQ 89640
new line.CTR114526 bus1=BMT142850383.1.2.3,bus2=BMT146671914.1.2.3,Phases=3,LineCode=tieSwitch,Length=0.001,Units=km,switch=T !numEQ 89618
new line.CTR114547 bus1=BMT127019911.2,bus2=BMT127019932.2,Phases=1,LineCode=tieSwitch1,Length=0.001,Units=km,switch=T !numEQ 89645
new line.CTR114554 bus1=BMT127018392.1.2.3,bus2=BMT156371864.1.2.3,Phases=3,LineCode=tieSwitch,Length=0.001,Units=km,switch=T !numEQ 89646
new line.CTR114561 bus1=BMT152486186.1.2.3,bus2=BMT142862388.1.2.3,Phases=3,LineCode=tieSwitch,Length=0.001,Units=km,switch=T !numEQ 89647
new line.CTR114568 bus1=BMT127020037.2,bus2=BMT146674252.2,Phases=1,LineCode=tieSwitch1,Length=0.001,Units=km,switch=T !numEQ 89650
new line.CTR114575 bus1=BMT127020107.2,bus2=BMT127020163.2,Phases=1,LineCode=tieSwitch1,Length=0.001,Units=km,switch=T !numEQ 89651
new line.CTR114582 bus1=BMT127017342.1.2.3,bus2=BMT169587527.1.2.3,Phases=3,LineCode=tieSwitch,Length=0.001,Units=km,switch=T !numEQ 257890
new line.CTR114589 bus1=BMT132231551.1.2.3,bus2=BMT2251598.1.2.3,Phases=3,LineCode=tieSwitch,Length=0.001,Units=km,switch=T !numEQ 89653
open line.CTR114589 term=1
new line.CTR114596 bus1=BMT157242195.1,bus2=BMT162220293.1,Phases=1,LineCode=tieSwitch1,Length=0.001,Units=km,switch=T !numEQ 131420
new line.CTR114603 bus1=BMT157243164.1.2.3,bus2=BMT162225962.1.2.3,Phases=3,LineCode=tieSwitch,Length=0.001,Units=km,switch=T !numEQ 131421
new line.CTR114610 bus1=BMT124265579.2,bus2=BMT124265586.2,Phases=1,LineCode=tieSwitch1,Length=0.001,Units=km,switch=T !numEQ 89403
new line.CTR114617 bus1=BMT124264039.1,bus2=BMT124264102.1,Phases=1,LineCode=tieSwitch1,Length=0.001,Units=km,switch=T !numEQ 89404
new line.CTR114624 bus1=BMT157263717.1.2.3,bus2=BMT157263718.1.2.3,Phases=3,LineCode=tieSwitch,Length=0.001,Units=km,switch=T !numEQ 131433
new line.CTR114631 bus1=BMT124254127.3,bus2=BMT124254141.3,Phases=1,LineCode=tieSwitch1,Length=0.001,Units=km,switch=T !numEQ 89406
new line.CTR114645 bus1=BMT168501125.1,bus2=BMT168502370.1,Phases=1,LineCode=tieSwitch1,Length=0.001,Units=km,switch=T !numEQ 89408
new line.CTR114652 bus1=BMT124285991.1.2.3,bus2=BMT167539276.1.2.3,Phases=3,LineCode=tieSwitch,Length=0.001,Units=km,switch=T !numEQ 89410
new line.CTR114659 bus1=BMT124289071.1.2.3,bus2=BMT161971409.1.2.3,Phases=3,LineCode=tieSwitch,Length=0.001,Units=km,switch=T !numEQ 89425
new line.CTR114673 bus1=BMT124291927.1.2.3,bus2=BMT124291955.1.2.3,Phases=3,LineCode=tieSwitch,Length=0.001,Units=km,switch=T !numEQ 89427
new line.CTR114680 bus1=BMT127020212.2,bus2=BMT127020464.2,Phases=1,LineCode=tieSwitch1,Length=0.001,Units=km,switch=T !numEQ 89429
new line.CTR114708 bus1=BMT127018098.1.2.3,bus2=BMT157436010.1.2.3,Phases=3,LineCode=tieSwitch,Length=0.001,Units=km,switch=T !numEQ 89433
new line.CTR114715 bus1=BMT162206227.2,bus2=BMT162678437.2,Phases=1,LineCode=tieSwitch1,Length=0.001,Units=km,switch=T !numEQ 89434
new line.CTR114722 bus1=BMT127017223.1.2.3,bus2=BMT157805876.1.2.3,Phases=3,LineCode=tieSwitch,Length=0.001,Units=km,switch=T !numEQ 89435
new line.CTR114729 bus1=BMT127017097.1.2.3,bus2=BMT127017104.1.2.3,Phases=3,LineCode=tieSwitch,Length=0.001,Units=km,switch=T !numEQ 89436
new line.CTR114743 bus1=BMT124252167.1.2.3,bus2=BMT124252384.1.2.3,Phases=3,LineCode=tieSwitch,Length=0.001,Units=km,switch=T !numEQ 89439
new line.CTR114750 bus1=BMT172907175.1.2.3,bus2=BMT124253924.1.2.3,Phases=3,LineCode=tieSwitch,Length=0.001,Units=km,switch=T !numEQ 89440
new line.CTR114757 bus1=BMT124266055.1.2.3,bus2=BMT124266062.1.2.3,Phases=3,LineCode=tieSwitch,Length=0.001,Units=km,switch=T !numEQ 89442
new line.CTR114771 bus1=BMT127017349.1.2.3,bus2=BMT127017433.1.2.3,Phases=3,LineCode=tieSwitch,Length=0.001,Units=km,switch=T !numEQ 89445
new line.CTR114778 bus1=BMT124251495.1,bus2=BMT167722736.1,Phases=1,LineCode=tieSwitch1,Length=0.001,Units=km,switch=T !numEQ 89447
new line.CTR114785 bus1=BMT124261771.1.2.3,bus2=BMT165845712.1.2.3,Phases=3,LineCode=tieSwitch,Length=0.001,Units=km,switch=T !numEQ 89450
new line.CTR114799 bus1=BMT124261820.1.2.3,bus2=BMT164705566.1.2.3,Phases=3,LineCode=tieSwitch,Length=0.001,Units=km,switch=T !numEQ 89452
new line.CTR114806 bus1=BMT127017916.1.2.3,bus2=BMT127017993.1.2.3,Phases=3,LineCode=tieSwitch,Length=0.001,Units=km,switch=T !numEQ 89453
new line.CTR114813 bus1=BMT127017692.1,bus2=BMT153612947.1,Phases=1,LineCode=tieSwitch1,Length=0.001,Units=km,switch=T !numEQ 89454
new line.CTR114820 bus1=BMT127020975.1.2.3,bus2=BMT150346401.1.2.3,Phases=3,LineCode=tieSwitch,Length=0.001,Units=km,switch=T !numEQ 89455
new line.CTR114827 bus1=BMT124255359.1.2.3,bus2=BMT124255366.1.2.3,Phases=3,LineCode=tieSwitch,Length=0.001,Units=km,switch=T !numEQ 89456
new line.CTR114834 bus1=BMT124289120.1.2.3,bus2=BMT129100199.1.2.3,Phases=3,LineCode=tieSwitch,Length=0.001,Units=km,switch=T !numEQ 89457
new line.CTR114869 bus1=BMT127017265.1.2.3,bus2=BMT153608650.1.2.3,Phases=3,LineCode=tieSwitch,Length=0.001,Units=km,switch=T !numEQ 89463
new line.CTR114876 bus1=BMT164705576.1.2.3,bus2=BMT164705577.1.2.3,Phases=3,LineCode=tieSwitch,Length=0.001,Units=km,switch=T !numEQ 89464
new line.CTR114883 bus1=BMT124270122.2,bus2=BMT148383854.2,Phases=1,LineCode=tieSwitch1,Length=0.001,Units=km,switch=T !numEQ 89465
new line.CTR114890 bus1=BMT124256094.1,bus2=BMT124256115.1,Phases=1,LineCode=tieSwitch1,Length=0.001,Units=km,switch=T !numEQ 89467
new line.CTR114897 bus1=BMT124285179.1.2.3,bus2=BMT165191493.1.2.3,Phases=3,LineCode=tieSwitch,Length=0.001,Units=km,switch=T !numEQ 89469
new line.CTR114904 bus1=BMT127019561.1,bus2=BMT127019673.1,Phases=1,LineCode=tieSwitch1,Length=0.001,Units=km,switch=T !numEQ 89470
new line.CTR114911 bus1=BMT142862360.1.2.3,bus2=BMT142862766.1.2.3,Phases=3,LineCode=tieSwitch,Length=0.001,Units=km,switch=T !numEQ 89471
new line.CTR114918 bus1=BMT127019372.2,bus2=BMT127019827.2,Phases=1,LineCode=tieSwitch1,Length=0.001,Units=km,switch=T !numEQ 89473
new line.CTR114925 bus1=BMT127020128.2,bus2=BMT152257358.2,Phases=1,LineCode=tieSwitch1,Length=0.001,Units=km,switch=T !numEQ 89474
new line.CTR114932 bus1=BMT127020310.2,bus2=BMT165917805.2,Phases=1,LineCode=tieSwitch1,Length=0.001,Units=km,switch=T !numEQ 89475
new line.CTR114939 bus1=BMT127020394.2,bus2=BMT169162094.2,Phases=1,LineCode=tieSwitch1,Length=0.001,Units=km,switch=T !numEQ 89476
new line.CTR114946 bus1=BMT127019708.3,bus2=BMT127019743.3,Phases=1,LineCode=tieSwitch1,Length=0.001,Units=km,switch=T !numEQ 89477
new line.CTR115884 bus1=BMT145194039.1.2.3,bus2=BMT156979760.1.2.3,Phases=3,LineCode=tieSwitch,Length=0.001,Units=km,switch=T !numEQ 89423
new line.CTR115891 bus1=BMT124289267.1.2.3,bus2=BMT170964679.1.2.3,Phases=3,LineCode=tieSwitch,Length=0.001,Units=km,switch=T !numEQ 89424
new line.CTR115898 bus1=BMT124244334.1.2.3,bus2=BMT124244341.1.2.3,Phases=3,LineCode=tieSwitch,Length=0.001,Units=km,switch=T !numEQ 89206
new line.CTR115905 bus1=BMT124253280.1.2.3,bus2=BMT124254876.1.2.3,Phases=3,LineCode=tieSwitch,Length=0.001,Units=km,switch=T !numEQ 89207
new line.CTR115926 bus1=BMT124260980.1.2.3,bus2=BMT152597642.1.2.3,Phases=3,LineCode=tieSwitch,Length=0.001,Units=km,switch=T !numEQ 89177
new line.CTR115933 bus1=BMT124261064.1.2.3,bus2=BMT128282326.1.2.3,Phases=3,LineCode=tieSwitch,Length=0.001,Units=km,switch=T !numEQ 89178
new line.CTR115940 bus1=BMT124288798.1.2.3,bus2=BMT124290947.1.2.3,Phases=3,LineCode=tieSwitch,Length=0.001,Units=km,switch=T !numEQ 89179
new line.CTR115947 bus1=BMT152597644.1.2.3,bus2=BMT124261022.1.2.3,Phases=3,LineCode=tieSwitch,Length=0.001,Units=km,switch=T !numEQ 89180
new line.CTR115954 bus1=BMT124288805.1.2.3,bus2=BMT161929587.1.2.3,Phases=3,LineCode=tieSwitch,Length=0.001,Units=km,switch=T !numEQ 89181
new line.CTR115961 bus1=BMT127016719.1.2.3,bus2=BMT155105951.1.2.3,Phases=3,LineCode=tieSwitch,Length=0.001,Units=km,switch=T !numEQ 89183
new line.CTR115975 bus1=BMT154644438.1.2.3,bus2=BMT2239824.1.2.3,Phases=3,LineCode=tieSwitch,Length=0.001,Units=km,switch=T !numEQ 89186
open line.CTR115975 term=1
new line.CTR115989 bus1=BMT124261211.1.2.3,bus2=BMT168939037.1.2.3,Phases=3,LineCode=tieSwitch,Length=0.001,Units=km,switch=T !numEQ 89188
new line.CTR115996 bus1=BMT127017860.1.2.3,bus2=BMT160785764.1.2.3,Phases=3,LineCode=tieSwitch,Length=0.001,Units=km,switch=T !numEQ 89189
new line.CTR116003 bus1=BMT127017881.1.2.3,bus2=BMT157984258.1.2.3,Phases=3,LineCode=tieSwitch,Length=0.001,Units=km,switch=T !numEQ 373769
new line.CTR116010 bus1=BMT124262814.1,bus2=BMT124263976.1,Phases=1,LineCode=tieSwitch1,Length=0.001,Units=km,switch=T !numEQ 89192
new line.CTR116017 bus1=BMT127017951.1.2.3,bus2=BMT127017965.1.2.3,Phases=3,LineCode=tieSwitch,Length=0.001,Units=km,switch=T !numEQ 89193
new line.CTR116024 bus1=BMT127018210.1.2.3,bus2=BMT127018217.1.2.3,Phases=3,LineCode=tieSwitch,Length=0.001,Units=km,switch=T !numEQ 89194
new line.CTR116031 bus1=BMT124253749.1.2.3,bus2=BMT157621764.1.2.3,Phases=3,LineCode=tieSwitch,Length=0.001,Units=km,switch=T !numEQ 89196
new line.CTR116045 bus1=BMT127017363.1.2.3,bus2=BMT127017370.1.2.3,Phases=3,LineCode=tieSwitch,Length=0.001,Units=km,switch=T !numEQ 89198
new line.CTR116052 bus1=BMT127016887.1.2.3,bus2=BMT127016901.1.2.3,Phases=3,LineCode=tieSwitch,Length=0.001,Units=km,switch=T !numEQ 253239
new line.CTR116059 bus1=BMT165879133.1.2.3,bus2=BMT2104283.1.2.3,Phases=3,LineCode=tieSwitch,Length=0.001,Units=km,switch=T !numEQ 89201
open line.CTR116059 term=1
new line.CTR116066 bus1=BMT124244376.1.2.3,bus2=BMT148074553.1.2.3,Phases=3,LineCode=tieSwitch,Length=0.001,Units=km,switch=T !numEQ 89205
new line.CTR116073 bus1=BMT124251803.1.2.3,bus2=BMT2250275.1.2.3,Phases=3,LineCode=tieSwitch,Length=0.001,Units=km,switch=T !numEQ 89208
open line.CTR116073 term=1