new line.TR1116142 bus1=BMT131091734.1.2.3,bus2=BMT1824619B.1.2.3,Phases=3,Linecode=CAB203_3_3,Length=0.123249000,Units=km
new line.TR1116149 bus1=BMT1824619B.1.2.3,bus2=BMT4849515B.1.2.3,Phases=3,Linecode=CAB203_3_3,Length=0.133148000,Units=km
new line.TR1116156 bus1=BMT131091741.1,bus2=BMT4847723B.1,Phases=1,Linecode=CAB202_3_1,Length=0.147144000,Units=km
new line.TR1116163 bus1=BMT131091741.1.2.3,bus2=BMT4849529B.1.2.3,Phases=3,Linecode=CAB203_3_3,Length=0.135147000,Units=km
new line.TR1116170 bus1=BMT1824633B.1.2.3,bus2=BMT131091755.1.2.3,Phases=3,Linecode=CAB203_3_3,Length=0.136876000,Units=km
new line.TR1116177 bus1=BMT121872034.1.2.3,bus2=BMT4849669B.1.2.3,Phases=3,Linecode=CAB203_3_3,Length=0.134535000,Units=km
new line.TR1116184 bus1=BMT151465959.1.2.3,bus2=BMT5071072B.1.2.3,Phases=3,Linecode=CAB104_3_3,Length=0.020108000,Units=km
new line.TR1116191 bus1=BMT151465961.1.2.3,bus2=BMT151465962.1.2.3,Phases=3,Linecode=CAB204_3_3,Length=0.110213000,Units=km
new line.TR1116198 bus1=BMT151465961.2,bus2=BMT4849732B.2,Phases=1,Linecode=CAB202_3_1,Length=0.098223000,Units=km
new line.TR1116205 bus1=BMT1824654B.1.2.3,bus2=BMT4847380B.1.2.3,Phases=3,Linecode=CAB203_3_3,Length=0.140071000,Units=km
new line.TR1116212 bus1=BMT1824661B.1.2.3,bus2=BMT4847394B.1.2.3,Phases=3,Linecode=CAB203_3_3,Length=0.111616000,Units=km
new line.TR1116219 bus1=BMT1824668B.1.2.3,bus2=BMT121872041.1.2.3,Phases=3,Linecode=CAB203_3_3,Length=0.166070000,Units=km
new line.TR1116226 bus1=BMT121872041.1.2.3,bus2=BMT121872048.1.2.3,Phases=3,Linecode=CAB203_3_3,Length=0.082021000,Units=km
new line.TR1116233 bus1=BMT121872041.1,bus2=BMT2799908B.1,Phases=1,Linecode=CAB103_3_1,Length=0.012005000,Units=km
new line.TR1116240 bus1=BMT121872811.3,bus2=BMT4848647B.3,Phases=1,Linecode=CAB202_3_1,Length=0.101046000,Units=km
new line.TR1116247 bus1=BMT166685971.1.2.3,bus2=BMT166685972.1.2.3,Phases=3,Linecode=CAB203_3_3,Length=0.102901000,Units=km
new line.TR1116254 bus1=BMT1824689B.3,bus2=BMT4850474B.3,Phases=1,Linecode=CAB202_3_1,Length=0.087012000,Units=km
new line.TR1116261 bus1=BMT121872825.3,bus2=BMT121872839.3,Phases=1,Linecode=CAB202_3_1,Length=0.131575000,Units=km
new line.TR1116268 bus1=BMT121872825.3,bus2=BMT4849753B.3,Phases=1,Linecode=CAB202_3_1,Length=0.151061000,Units=km
new line.TR1116275 bus1=BMT166685972.1.2.3,bus2=BMT4847478B.1.2.3,Phases=3,Linecode=CAB207_3_3,Length=0.336289000,Units=km
new line.TR1116282 bus1=BMT121872573.1.2.3,bus2=BMT4769876B.1.2.3,Phases=3,Linecode=CAB202_3_3,Length=0.130915000,Units=km
new line.TR1116289 bus1=BMT121872573.1,bus2=BMT4769883B.1,Phases=1,Linecode=CAB102_3_1,Length=0.047189000,Units=km
new line.TR1116296 bus1=BMT121872580.3,bus2=BMT121872594.3,Phases=1,Linecode=CAB202_3_1,Length=0.081027000,Units=km
new line.TR1116303 bus1=BMT121872580.1.2.3,bus2=BMT121872601.1.2.3,Phases=3,Linecode=CAB202_3_3,Length=0.133897000,Units=km
new line.TR1116310 bus1=BMT121872608.2,bus2=BMT121872622.2,Phases=1,Linecode=CAB103_3_1,Length=0.080841000,Units=km
new line.TR1116317 bus1=BMT121872608.1.2.3,bus2=BMT4769659B.1.2.3,Phases=3,Linecode=CAB202_3_3,Length=0.128877000,Units=km
new line.TR1116324 bus1=BMT121872629.1,bus2=BMT121872636.1,Phases=1,Linecode=CAB103_3_1,Length=0.069950000,Units=km
new line.TR1116331 bus1=BMT121872629.1.2.3,bus2=BMT121872643.1.2.3,Phases=3,Linecode=CAB202_3_3,Length=0.142763000,Units=km
new line.TR1116338 bus1=BMT121872643.3,bus2=BMT121872650.3,Phases=1,Linecode=CAB202_3_1,Length=0.085597000,Units=km
new line.TR1116345 bus1=BMT121872643.1.2.3,bus2=BMT4768791B.1.2.3,Phases=3,Linecode=CAB202_3_3,Length=0.151299000,Units=km
new line.TR1116352 bus1=BMT121872657.1.2.3,bus2=BMT1824752B.1.2.3,Phases=3,Linecode=CAB202_3_3,Length=0.143183000,Units=km
new line.TR1116359 bus1=BMT121872657.2,bus2=BMT2205839B.2,Phases=1,Linecode=CAB202_3_1,Length=0.112726000,Units=km
new line.TR1116366 bus1=BMT1824752B.1.2.3,bus2=BMT121872664.1.2.3,Phases=3,Linecode=CAB202_3_3,Length=0.107323000,Units=km
new line.TR1116373 bus1=BMT121872664.1,bus2=BMT121872678.1,Phases=1,Linecode=CAB103_3_1,Length=0.052021000,Units=km
new line.TR1116380 bus1=BMT121872664.1.2.3,bus2=BMT121872685.1.2.3,Phases=3,Linecode=CAB202_3_3,Length=0.143668000,Units=km
new line.TR1116387 bus1=BMT121872685.1.2.3,bus2=BMT121872692.1.2.3,Phases=3,Linecode=CAB202_3_3,Length=0.123812000,Units=km
new line.TR1116394 bus1=BMT121872685.3,bus2=BMT2205909B.3,Phases=1,Linecode=CAB202_3_1,Length=0.118390000,Units=km
new line.TR1116401 bus1=BMT121872692.1,bus2=BMT121872706.1,Phases=1,Linecode=CAB103_3_1,Length=0.063437000,Units=km
new line.TR1116408 bus1=BMT121872797.2,bus2=BMT2205930B.2,Phases=1,Linecode=CAB202_3_1,Length=0.130052000,Units=km
new line.TR1116415 bus1=BMT121872692.1.2.3,bus2=BMT4766012B.1.2.3,Phases=3,Linecode=CAB202_3_3,Length=0.132250000,Units=km
new line.TR1116422 bus1=BMT121872713.3,bus2=BMT121872720.3,Phases=1,Linecode=CAB202_3_1,Length=0.116322000,Units=km
new line.TR1116429 bus1=BMT121872713.1.2.3,bus2=BMT4765991B.1.2.3,Phases=3,Linecode=CAB202_3_3,Length=0.135970000,Units=km
new line.TR1116436 bus1=BMT121872727.1.2.3,bus2=BMT4765872B.1.2.3,Phases=3,Linecode=CAB202_3_3,Length=0.142637000,Units=km
new line.TR1116443 bus1=BMT121872769.2,bus2=BMT4765907B.2,Phases=1,Linecode=CAB202_3_1,Length=0.120954000,Units=km
new line.TR1116450 bus1=BMT121872741.1.2.3,bus2=BMT121872748.1.2.3,Phases=3,Linecode=CAB202_3_3,Length=0.101953000,Units=km
new line.TR1116457 bus1=BMT121872776.2,bus2=BMT121872783.2,Phases=1,Linecode=CAB202_3_1,Length=0.089507000,Units=km
new line.TR1116464 bus1=BMT121872776.2,bus2=BMT2205895B.2,Phases=1,Linecode=CAB202_3_1,Length=0.087035000,Units=km
new line.TR1116471 bus1=BMT121872748.3,bus2=BMT121872755.3,Phases=1,Linecode=CAB103_3_1,Length=0.014872000,Units=km
new line.TR1116478 bus1=BMT121872748.1.2.3,bus2=BMT4765557B.1.2.3,Phases=3,Linecode=CAB202_3_3,Length=0.113452000,Units=km
new line.TR1116485 bus1=BMT1824815B.1.2.3,bus2=BMT4765459B.1.2.3,Phases=3,Linecode=CAB202_3_3,Length=0.143145000,Units=km
new line.TR1116492 bus1=BMT1824822B.1.2.3,bus2=BMT1824829B.1.2.3,Phases=3,Linecode=CAB202_3_3,Length=0.140071000,Units=km
new line.TR1116499 bus1=BMT1824836B.1.2.3,bus2=BMT121872762.1.2.3,Phases=3,Linecode=CAB202_3_3,Length=0.119597000,Units=km
new line.TR1116506 bus1=BMT1824836B.1.2.3,bus2=BMT4765326B.1.2.3,Phases=3,Linecode=CAB202_3_3,Length=0.149462000,Units=km
new line.TR1117038 bus1=BMT121872286.1.2.3,bus2=BMT1825242B.1.2.3,Phases=3,Linecode=CAB203_3_3,Length=0.149626000,Units=km
new line.TR1117045 bus1=BMT121872286.3,bus2=BMT2205958B.3,Phases=1,Linecode=CAB202_3_1,Length=0.170697000,Units=km
new line.TR1117052 bus1=BMT1825242B.1.2.3,bus2=BMT4831189B.1.2.3,Phases=3,Linecode=CAB203_3_3,Length=0.161669000,Units=km
new line.TR1117059 bus1=BMT1825249B.1.2.3,bus2=BMT121872293.1.2.3,Phases=3,Linecode=CAB203_3_3,Length=0.136246000,Units=km
new line.TR1117066 bus1=BMT121872293.1.2.3,bus2=BMT1825263B.1.2.3,Phases=3,Linecode=CAB203_3_3,Length=0.129821000,Units=km
new line.TR1117073 bus1=BMT121872503.1,bus2=BMT4831196B.1,Phases=1,Linecode=CAB202_3_1,Length=0.084757000,Units=km
new line.TR1117080 bus1=BMT1825263B.1.2.3,bus2=BMT4831217B.1.2.3,Phases=3,Linecode=CAB203_3_3,Length=0.327698000,Units=km
new line.TR1117087 bus1=BMT1825270B.1,bus2=BMT121872510.1,Phases=1,Linecode=CAB202_3_1,Length=0.135158000,Units=km
new line.TR1117094 bus1=BMT121872307.3,bus2=BMT121872314.3,Phases=1,Linecode=CAB202_3_1,Length=0.137351000,Units=km
new line.TR1117101 bus1=BMT121872307.1.2.3,bus2=BMT4831231B.1.2.3,Phases=3,Linecode=CAB203_3_3,Length=0.153558000,Units=km
new line.TR1117108 bus1=BMT121872328.1,bus2=BMT121872349.1,Phases=1,Linecode=CAB103_3_1,Length=0.018447000,Units=km
new line.TR1117115 bus1=BMT121872328.1.2.3,bus2=BMT4831294B.1.2.3,Phases=3,Linecode=CAB203_3_3,Length=0.123597000,Units=km
new line.TR1117122 bus1=BMT121872328.1.2.3,bus2=BMT121872363.1.2.3,Phases=3,Linecode=CAB202_3_3,Length=0.008948000,Units=km
new line.TR1117129 bus1=BMT1825291B.1.2.3,bus2=BMT4831315B.1.2.3,Phases=3,Linecode=CAB203_3_3,Length=0.249301000,Units=km
new line.TR1117136 bus1=BMT121872356.1.2.3,bus2=BMT1825305B.1.2.3,Phases=3,Linecode=CAB203_3_3,Length=0.165094000,Units=km
new line.TR1117143 bus1=BMT121872356.1.2.3,bus2=BMT4831336B.1.2.3,Phases=3,Linecode=CAB202_3_3,Length=0.124533000,Units=km
new line.TR1117150 bus1=BMT1825305B.1.2.3,bus2=BMT1825312B.1.2.3,Phases=3,Linecode=CAB203_3_3,Length=0.150420000,Units=km
new line.TR1117157 bus1=BMT1825312B.1.2.3,bus2=BMT4831364B.1.2.3,Phases=3,Linecode=CAB203_3_3,Length=0.128465000,Units=km
new line.TR1117164 bus1=BMT1825319B.1.2.3,bus2=BMT4831392B.1.2.3,Phases=3,Linecode=CAB203_3_3,Length=0.130651000,Units=km
new line.TR1117171 bus1=BMT171232532.1.2.3,bus2=BMT1825333B.1.2.3,Phases=3,Linecode=CAB203_3_3,Length=0.467486000,Units=km
new line.TR1117178 bus1=BMT121872370.1.2.3,bus2=BMT121872384.1.2.3,Phases=3,Linecode=CAB203_3_3,Length=0.575447000,Units=km
new line.TR1117185 bus1=BMT1825333B.1.2.3,bus2=BMT171232533.1.2.3,Phases=3,Linecode=CAB203_3_3,Length=2.783677000,Units=km
new line.TR1117192 bus1=BMT121872391.1.2.3,bus2=BMT1825347B.1.2.3,Phases=3,Linecode=CAB203_3_3,Length=0.140128000,Units=km
new line.TR1117199 bus1=BMT1825347B.1.2.3,bus2=BMT1825354B.1.2.3,Phases=3,Linecode=CAB203_3_3,Length=1.434756000,Units=km
new line.TR1117206 bus1=BMT1825354B.1.2.3,bus2=BMT1825361B.1.2.3,Phases=3,Linecode=CAB203_3_3,Length=0.051334000,Units=km
new line.TR1117213 bus1=BMT1825361B.1.2.3,bus2=BMT121872398.1.2.3,Phases=3,Linecode=CAB203_3_3,Length=0.139347000,Units=km
new line.TR1117220 bus1=BMT121872398.1.2.3,bus2=BMT121872405.1.2.3,Phases=3,Linecode=CAB202_3_3,Length=0.035242000,Units=km
new line.TR1117227 bus1=BMT121872398.1.2.3,bus2=BMT1825382B.1.2.3,Phases=3,Linecode=CAB203_3_3,Length=0.302515000,Units=km
new line.TR1117234 bus1=BMT121872405.1.2.3,bus2=BMT121872447.1.2.3,Phases=3,Linecode=CAB202_3_3,Length=0.025090000,Units=km
new line.TR1117241 bus1=BMT121872405.1.2.3,bus2=BMT121872454.1.2.3,Phases=3,Linecode=CAB202_3_3,Length=0.029081000,Units=km
new line.TR1117248 bus1=BMT1825382B.1.2.3,bus2=BMT1825389B.1.2.3,Phases=3,Linecode=CAB203_3_3,Length=0.301918000,Units=km
new line.TR1117255 bus1=BMT1825389B.1.2.3,bus2=BMT1825396B.1.2.3,Phases=3,Linecode=CAB203_3_3,Length=0.945033000,Units=km
new line.TR1117262 bus1=BMT1825396B.1.2.3,bus2=BMT1825403B.1.2.3,Phases=3,Linecode=CAB203_3_3,Length=0.370773000,Units=km
new line.TR1117269 bus1=BMT1825403B.1.2.3,bus2=BMT1825410B.1.2.3,Phases=3,Linecode=CAB203_3_3,Length=0.552027000,Units=km
new line.TR1117276 bus1=BMT1825410B.1.2.3,bus2=BMT1825417B.1.2.3,Phases=3,Linecode=CAB203_3_3,Length=0.524837000,Units=km
new line.TR1117283 bus1=BMT1825417B.1.2.3,bus2=BMT121872412.1.2.3,Phases=3,Linecode=CAB203_3_3,Length=0.186027000,Units=km
new line.TR1117290 bus1=BMT121872412.1.2.3,bus2=BMT121872419.1.2.3,Phases=3,Linecode=CAB203_3_3,Length=0.282408000,Units=km
new line.TR1117297 bus1=BMT121872412.1.2.3,bus2=BMT121872426.1.2.3,Phases=3,Linecode=CAB203_3_3,Length=0.260260000,Units=km
new line.TR1117304 bus1=BMT121872426.1.2.3,bus2=BMT121872433.1.2.3,Phases=3,Linecode=CAB203_3_3,Length=0.159689000,Units=km
new line.TR1117311 bus1=BMT121872426.1.2.3,bus2=BMT1825438B.1.2.3,Phases=3,Linecode=CAB203_3_3,Length=0.108791000,Units=km
new line.TR1117318 bus1=BMT1825438B.1.2.3,bus2=BMT1825445B.1.2.3,Phases=3,Linecode=CAB203_3_3,Length=0.340048000,Units=km
new line.TR1117325 bus1=BMT1825445B.1.2.3,bus2=BMT1825452B.1.2.3,Phases=3,Linecode=CAB203_3_3,Length=0.382390000,Units=km
new line.TR1117332 bus1=BMT1825452B.1.2.3,bus2=BMT1825459B.1.2.3,Phases=3,Linecode=CAB203_3_3,Length=0.905197000,Units=km
new line.TR1117339 bus1=BMT1825459B.1.2.3,bus2=BMT121872440.1.2.3,Phases=3,Linecode=CAB203_3_3,Length=0.098655000,Units=km
new line.TR1117346 bus1=BMT151465962.1,bus2=BMT151465964.1,Phases=1,Linecode=CAB103_3_1,Length=0.026260000,Units=km
new line.TR1117353 bus1=BMT151465962.3,bus2=BMT151465965.3,Phases=1,Linecode=CAB102_3_1,Length=0.050110000,Units=km
new line.TR1117360 bus1=BMT151465962.1.2.3,bus2=BMT4849879B.1.2.3,Phases=3,Linecode=CAB204_3_3,Length=0.083664000,Units=km
new line.TR1117367 bus1=BMT143346123.1.2.3,bus2=BMT4850019B.1.2.3,Phases=3,Linecode=CAB204_3_3,Length=0.104085000,Units=km
new line.TR1117374 bus1=BMT155192153.2,bus2=BMT143346396.2,Phases=1,Linecode=CAB202_3_1,Length=0.157038000,Units=km
new line.TR1117381 bus1=BMT166787737.2,bus2=BMT166787738.2,Phases=1,Linecode=CAB102_3_1,Length=0.066938000,Units=km
new line.TR1117388 bus1=BMT166787737.1.2.3,bus2=BMT166787736.1.2.3,Phases=3,Linecode=CAB204_3_3,Length=0.018035000,Units=km
new line.TR1117395 bus1=BMT1825487B.2,bus2=BMT4851412B.2,Phases=1,Linecode=CAB202_3_1,Length=0.138656000,Units=km
new line.TR1117402 bus1=BMT121873763.2,bus2=BMT155192156.2,Phases=1,Linecode=CAB202_3_1,Length=0.090175000,Units=km
new line.TR1117409 bus1=BMT121873777.2,bus2=BMT121873784.2,Phases=1,Linecode=CAB202_3_1,Length=0.064965000,Units=km
new line.TR1117416 bus1=BMT166787733.1,bus2=BMT166787735.1,Phases=1,Linecode=CAB102_3_1,Length=0.048103000,Units=km
new line.TR1117423 bus1=BMT166787733.1.2.3,bus2=BMT4850033B.1.2.3,Phases=3,Linecode=CAB204_3_3,Length=0.116051000,Units=km
new line.TR1117430 bus1=BMT166787730.1.2.3,bus2=BMT166787728.1.2.3,Phases=3,Linecode=CAB204_3_3,Length=0.132087000,Units=km
new line.TR1117437 bus1=BMT166787730.3,bus2=BMT4850047B.3,Phases=1,Linecode=CAB202_3_1,Length=0.114327000,Units=km
new line.TR1117444 bus1=BMT166787728.1,bus2=BMT166787731.1,Phases=1,Linecode=CAB102_3_1,Length=0.072865000,Units=km
new line.TR1117451 bus1=BMT166787728.1.2.3,bus2=BMT166787726.1.2.3,Phases=3,Linecode=CAB204_3_3,Length=0.130068000,Units=km
new line.TR1117458 bus1=BMT166787726.3,bus2=BMT166787729.3,Phases=1,Linecode=CAB202_3_1,Length=0.124958000,Units=km
new line.TR1117465 bus1=BMT166787726.1.2.3,bus2=BMT166787725.1.2.3,Phases=3,Linecode=CAB204_3_3,Length=0.130068000,Units=km
new line.TR1117472 bus1=BMT166787725.1,bus2=BMT166787727.1,Phases=1,Linecode=CAB102_3_1,Length=0.064524000,Units=km
new line.TR1117479 bus1=BMT166787725.1.2.3,bus2=BMT4847779B.1.2.3,Phases=3,Linecode=CAB204_3_3,Length=0.140285000,Units=km
new line.TR1117486 bus1=BMT166787722.2,bus2=BMT4850075B.2,Phases=1,Linecode=CAB202_3_1,Length=0.147199000,Units=km
new line.TR1117493 bus1=BMT166787722.1.2.3,bus2=BMT4850089B.1.2.3,Phases=3,Linecode=CAB204_3_3,Length=0.135217000,Units=km
new line.TR1117500 bus1=BMT166787718.1,bus2=BMT166787720.1,Phases=1,Linecode=CAB202_3_1,Length=0.064439000,Units=km
new line.TR1117507 bus1=BMT166787718.1.2.3,bus2=BMT1825550B.1.2.3,Phases=3,Linecode=CAB204_3_3,Length=0.142693000,Units=km
new line.TR1117514 bus1=BMT1825550B.1.2.3,bus2=BMT166787717.1.2.3,Phases=3,Linecode=CAB204_3_3,Length=0.162894000,Units=km
new line.TR1117521 bus1=BMT166787717.2,bus2=BMT166787719.2,Phases=1,Linecode=CAB102_3_1,Length=0.058333000,Units=km
new line.TR1117528 bus1=BMT166787717.1.2.3,bus2=BMT4851594B.1.2.3,Phases=3,Linecode=CAB204_3_3,Length=0.148468000,Units=km
new line.TR1117535 bus1=BMT166787715.1,bus2=BMT166787716.1,Phases=1,Linecode=CAB102_3_1,Length=0.022857000,Units=km
new line.TR1117549 bus1=BMT166787713.2,bus2=BMT166787714.2,Phases=1,Linecode=CAB102_3_1,Length=0.043950000,Units=km
new line.TR1117556 bus1=BMT166787713.1.2.3,bus2=BMT4851608B.1.2.3,Phases=3,Linecode=CAB204_3_3,Length=0.110430000,Units=km
new line.TR1117563 bus1=BMT167180861.1.2.3,bus2=BMT4851615B.1.2.3,Phases=3,Linecode=CAB204_3_3,Length=0.135495000,Units=km
new line.TR1117570 bus1=BMT167180859.1,bus2=BMT167180860.1,Phases=1,Linecode=CAB102_3_1,Length=0.037552000,Units=km
new line.TR1117577 bus1=BMT167180859.1.2.3,bus2=BMT4851622B.1.2.3,Phases=3,Linecode=CAB204_3_3,Length=0.137696000,Units=km
new line.TR1117584 bus1=BMT167180856.2,bus2=BMT167180858.2,Phases=1,Linecode=CAB102_3_1,Length=0.094553000,Units=km
new line.TR1117591 bus1=BMT167180856.1.2.3,bus2=BMT4851713B.1.2.3,Phases=3,Linecode=CAB204_3_3,Length=0.127833000,Units=km
new line.TR12126050 bus1=BMT148706221.1.2.3,bus2=BMT975638B.1.2.3,Phases=3,Linecode=CABA06_3_3,Length=0.027796000,Units=km
new line.TR12126051 bus1=BMT975638B.1.2.3,bus2=BMT975666B.1.2.3,Phases=3,Linecode=CABA06_3_3,Length=0.037231000,Units=km
new line.TR12126052 bus1=BMT975666B.1.2.3,bus2=BMT975652B.1.2.3,Phases=3,Linecode=CABA06_3_3,Length=0.037605000,Units=km
new line.TR12126053 bus1=BMT975652B.1.2.3,bus2=BMT975631B.1.2.3,Phases=3,Linecode=CABA06_3_3,Length=0.035862000,Units=km
new line.TR12126054 bus1=BMT975631B.1.2.3,bus2=BMT148706222.1.2.3,Phases=3,Linecode=CABA06_3_3,Length=0.036374000,Units=km
new line.TR12129202 bus1=BMT163455550.1.2.3,bus2=BMT8722930B.1.2.3,Phases=3,Linecode=CABA06_3_3,Length=0.025010000,Units=km
new line.TR12129249 bus1=BMT163455553.1.2.3,bus2=BMT149165417.1.2.3,Phases=3,Linecode=CABA06_3_3,Length=0.043122000,Units=km
new line.TR12129264 bus1=BMT163455549.1.2.3,bus2=BMT163455550.1.2.3,Phases=3,Linecode=CAB103_3_3,Length=0.040809000,Units=km
new line.TR12129503 bus1=BMT149000313.1,bus2=BMT8723313B.1,Phases=1,Linecode=CAB202_3_1,Length=0.140518000,Units=km
new line.TR12129511 bus1=BMT8723313B.1,bus2=BMT8723315B.1,Phases=1,Linecode=CAB202_3_1,Length=0.169984000,Units=km
new line.TR12129604 bus1=BMT8723244B.1,bus2=BMT8723366B.1,Phases=1,Linecode=CAB202_3_1,Length=0.102529000,Units=km
new line.TR12129605 bus1=BMT8723366B.1,bus2=BMT8723367B.1,Phases=1,Linecode=CAB202_3_1,Length=0.096914000,Units=km
new line.TR12129606 bus1=BMT8723367B.1,bus2=BMT8723249B.1,Phases=1,Linecode=CAB202_3_1,Length=0.080131000,Units=km
new line.TR12129607 bus1=BMT8723249B.1,bus2=BMT8723368B.1,Phases=1,Linecode=CAB202_3_1,Length=0.083465000,Units=km
new line.TR12129608 bus1=BMT8723368B.1,bus2=BMT8723369B.1,Phases=1,Linecode=CAB202_3_1,Length=0.081776000,Units=km
new line.TR12129609 bus1=BMT8723369B.1,bus2=BMT8723250B.1,Phases=1,Linecode=CAB202_3_1,Length=0.083711000,Units=km
new line.TR12129642 bus1=BMT8723250B.1,bus2=BMT8723370B.1,Phases=1,Linecode=CAB202_3_1,Length=0.108213000,Units=km
new line.TR12129643 bus1=BMT8723370B.1,bus2=BMT8723372B.1,Phases=1,Linecode=CAB202_3_1,Length=0.107731000,Units=km
new line.TR12129644 bus1=BMT8723372B.1,bus2=BMT8723255B.1,Phases=1,Linecode=CAB202_3_1,Length=0.111241000,Units=km
new line.TR12129645 bus1=BMT8723255B.1,bus2=BMT8723261B.1,Phases=1,Linecode=CAB202_3_1,Length=0.130228000,Units=km
new line.TR12129646 bus1=BMT8723261B.1,bus2=BMT8723265B.1,Phases=1,Linecode=CAB202_3_1,Length=0.124471000,Units=km
new line.TR12129647 bus1=BMT8723265B.1,bus2=BMT8723375B.1,Phases=1,Linecode=CAB202_3_1,Length=0.090174000,Units=km
new line.TR12129648 bus1=BMT8723375B.1,bus2=BMT8723376B.1,Phases=1,Linecode=CAB202_3_1,Length=0.084087000,Units=km
new line.TR12129649 bus1=BMT8723376B.1,bus2=BMT8723266B.1,Phases=1,Linecode=CAB202_3_1,Length=0.087235000,Units=km
new line.TR12129650 bus1=BMT8723266B.1,bus2=BMT8723268B.1,Phases=1,Linecode=CAB202_3_1,Length=0.083561000,Units=km
new line.TR12129651 bus1=BMT8723268B.1,bus2=BMT8723269B.1,Phases=1,Linecode=CAB202_3_1,Length=0.120401000,Units=km
new line.TR12129652 bus1=BMT8723269B.1,bus2=BMT8723378B.1,Phases=1,Linecode=CAB202_3_1,Length=0.118304000,Units=km
new line.TR12129653 bus1=BMT8723378B.1,bus2=BMT8723270B.1,Phases=1,Linecode=CAB202_3_1,Length=0.129499000,Units=km
new line.TR12129654 bus1=BMT8723270B.1,bus2=BMT8723272B.1,Phases=1,Linecode=CAB202_3_1,Length=0.127612000,Units=km
new line.TR12129655 bus1=BMT8723272B.1,bus2=BMT8723380B.1,Phases=1,Linecode=CAB202_3_1,Length=0.111278000,Units=km
new line.TR12129656 bus1=BMT8723380B.1,bus2=BMT8723275B.1,Phases=1,Linecode=CAB202_3_1,Length=0.129453000,Units=km
new line.TR12129657 bus1=BMT8723275B.1,bus2=BMT8723383B.1,Phases=1,Linecode=CAB202_3_1,Length=0.077825000,Units=km
new line.TR12129658 bus1=BMT8723383B.1,bus2=BMT8723384B.1,Phases=1,Linecode=CAB202_3_1,Length=0.088635000,Units=km
new line.TR12129659 bus1=BMT8723384B.1,bus2=BMT8723276B.1,Phases=1,Linecode=CAB202_3_1,Length=0.099528000,Units=km
new line.TR12129660 bus1=BMT8723276B.1,bus2=BMT8723277B.1,Phases=1,Linecode=CAB202_3_1,Length=0.125193000,Units=km
new line.TR12129661 bus1=BMT8723277B.1,bus2=BMT8723385B.1,Phases=1,Linecode=CAB202_3_1,Length=0.129128000,Units=km
new line.TR12129662 bus1=BMT8723385B.1,bus2=BMT8723278B.1,Phases=1,Linecode=CAB202_3_1,Length=0.114281000,Units=km
new line.TR12129663 bus1=BMT8723278B.1,bus2=BMT8723279B.1,Phases=1,Linecode=CAB202_3_1,Length=0.074029000,Units=km
new line.TR12129664 bus1=BMT8723279B.1,bus2=BMT8723280B.1,Phases=1,Linecode=CAB202_3_1,Length=0.082252000,Units=km
new line.TR12129665 bus1=BMT8723280B.1,bus2=BMT8723282B.1,Phases=1,Linecode=CAB202_3_1,Length=0.099969000,Units=km
new line.TR12129666 bus1=BMT8723282B.1,bus2=BMT8723283B.1,Phases=1,Linecode=CAB202_3_1,Length=0.133506000,Units=km
new line.TR12129667 bus1=BMT8723283B.1,bus2=BMT8723388B.1,Phases=1,Linecode=CAB202_3_1,Length=0.057798000,Units=km
new line.TR12129668 bus1=BMT8723388B.1,bus2=BMT8723389B.1,Phases=1,Linecode=CAB202_3_1,Length=0.125974000,Units=km
new line.TR12129669 bus1=BMT8723389B.1,bus2=BMT8723391B.1,Phases=1,Linecode=CAB202_3_1,Length=0.192429000,Units=km
new line.TR12134492 bus1=BMT8723315B.1,bus2=BMT8723244B.1,Phases=1,Linecode=CAB202_3_1,Length=0.207503000,Units=km
new line.TR12134844 bus1=BMT169011086.1.2.3,bus2=BMT169011087.1.2.3,Phases=3,Linecode=CABA08_3_3,Length=0.059690000,Units=km
new line.TR12134845 bus1=BMT169011087.1,bus2=BMT169011088.1,Phases=1,Linecode=CAB103_3_1,Length=0.094680000,Units=km
new line.TR12139381 bus1=BMT165290703.2,bus2=BMT3058467B.2,Phases=1,Linecode=CABA06_3_1,Length=0.035029000,Units=km
new line.TR12139382 bus1=BMT3058467B.2,bus2=BMT3058551B.2,Phases=1,Linecode=CABA06_3_1,Length=0.039221000,Units=km
new line.TR12139383 bus1=BMT3058551B.2,bus2=BMT3058558B.2,Phases=1,Linecode=CABA06_3_1,Length=0.037069000,Units=km
new line.TR12139387 bus1=BMT3058558B.2,bus2=BMT3058614B.2,Phases=1,Linecode=CABA06_3_1,Length=0.034146000,Units=km
new line.TR12139390 bus1=BMT3058614B.2,bus2=BMT3058621B.2,Phases=1,Linecode=CABA06_3_1,Length=0.039067000,Units=km
new line.TR12139391 bus1=BMT3058621B.2,bus2=BMT3058628B.2,Phases=1,Linecode=CABA06_3_1,Length=0.042029000,Units=km
new line.TR12139393 bus1=BMT3058628B.2,bus2=BMT8733307B.2,Phases=1,Linecode=CABA06_3_1,Length=0.027030000,Units=km
new line.TR12139394 bus1=BMT8733307B.2,bus2=BMT165290704.2,Phases=1,Linecode=CABA06_3_1,Length=0.038068000,Units=km
new line.TR12139787 bus1=BMT161344617.1,bus2=BMT8733725B.1,Phases=1,Linecode=CAB202_3_1,Length=0.101574000,Units=km
new line.TR12139792 bus1=BMT8733725B.1,bus2=BMT161344619.1,Phases=1,Linecode=CAB202_3_1,Length=0.122172000,Units=km
new line.TR12139937 bus1=BMT161507375.1.2.3,bus2=BMT945902B.1.2.3,Phases=3,Linecode=CABA06_3_3,Length=0.045018000,Units=km
new line.TR12139938 bus1=BMT945902B.1.2.3,bus2=BMT946000B.1.2.3,Phases=3,Linecode=CABA06_3_3,Length=0.029081000,Units=km
new line.TR12139939 bus1=BMT946000B.1.2.3,bus2=BMT946007B.1.2.3,Phases=3,Linecode=CABA06_3_3,Length=0.036635000,Units=km
new line.TR12139940 bus1=BMT946007B.1.2.3,bus2=BMT946014B.1.2.3,Phases=3,Linecode=CABA06_3_3,Length=0.025249000,Units=km
new line.TR12139941 bus1=BMT946014B.1.2.3,bus2=BMT946021B.1.2.3,Phases=3,Linecode=CABA06_3_3,Length=0.035000000,Units=km
new line.TR12139945 bus1=BMT946021B.1.2.3,bus2=BMT161507376.1.2.3,Phases=3,Linecode=CABA06_3_3,Length=0.031077000,Units=km
new line.TR12140069 bus1=BMT163111268.1.2.3,bus2=BMT163111269.1.2.3,Phases=3,Linecode=CAB103_3_3,Length=0.058880000,Units=km
new line.TR12140070 bus1=BMT163111269.1.2.3,bus2=BMT149164344.1.2.3,Phases=3,Linecode=CAB103_3_3,Length=0.030607000,Units=km
new line.TR12140084 bus1=BMT172590160.1.2.3,bus2=BMT960686B.1.2.3,Phases=3,Linecode=CABA06_3_3,Length=0.029167000,Units=km
new line.TR12140086 bus1=BMT960686B.1.2.3,bus2=BMT172590162.1.2.3,Phases=3,Linecode=CABA06_3_3,Length=0.030245000,Units=km
new line.TR12140087 bus1=BMT163455550.1.2.3,bus2=BMT163455552.1.2.3,Phases=3,Linecode=CAB103_3_3,Length=0.037499000,Units=km
new line.TR12140102 bus1=BMT8722930B.1.2.3,bus2=BMT8733935B.1.2.3,Phases=3,Linecode=CABA06_3_3,Length=0.039131000,Units=km
new line.TR12140103 bus1=BMT8733935B.1.2.3,bus2=BMT8733936B.1.2.3,Phases=3,Linecode=CABA06_3_3,Length=0.040129000,Units=km
new line.TR12140104 bus1=BMT8733936B.1.2.3,bus2=BMT8733937B.1.2.3,Phases=3,Linecode=CABA06_3_3,Length=0.039131000,Units=km
new line.TR12140105 bus1=BMT8733937B.1.2.3,bus2=BMT8733940B.1.2.3,Phases=3,Linecode=CABA06_3_3,Length=0.038226000,Units=km
new line.TR12140106 bus1=BMT8733940B.1.2.3,bus2=BMT8733939B.1.2.3,Phases=3,Linecode=CABA06_3_3,Length=0.036140000,Units=km
new line.TR12140107 bus1=BMT8733939B.1.2.3,bus2=BMT163455551.1.2.3,Phases=3,Linecode=CABA06_3_3,Length=0.036070000,Units=km
new line.TR12140110 bus1=BMT163455551.1.2.3,bus2=BMT163455553.1.2.3,Phases=3,Linecode=CABA06_3_3,Length=0.037137000,Units=km
new line.TR12140116 bus1=BMT149325308.1.2.3,bus2=BMT8733942B.1.2.3,Phases=3,Linecode=CABA06_3_3,Length=0.035029000,Units=km
new line.TR12140117 bus1=BMT8733942B.1.2.3,bus2=BMT149325309.1.2.3,Phases=3,Linecode=CABA06_3_3,Length=0.037069000,Units=km
new line.TR12140118 bus1=BMT149325309.2,bus2=BMT8733945B.2,Phases=1,Linecode=CABA06_3_1,Length=0.034073000,Units=km
new line.TR12140119 bus1=BMT8733945B.2,bus2=BMT8733948B.2,Phases=1,Linecode=CABA06_3_1,Length=0.036070000,Units=km
new line.TR12140120 bus1=BMT8733948B.2,bus2=BMT149325310.2,Phases=1,Linecode=CABA06_3_1,Length=0.040129000,Units=km
new line.TR12140123 bus1=BMT149325310.2,bus2=BMT8733983B.2,Phases=1,Linecode=CAB103_3_1,Length=0.039866000,Units=km
new line.TR12140131 bus1=BMT8733983B.2,bus2=BMT149325311.2,Phases=1,Linecode=CAB103_3_1,Length=0.039576000,Units=km
new line.TR12140167 bus1=BMT149165417.1.2.3,bus2=BMT8734016B.1.2.3,Phases=3,Linecode=CABA06_3_3,Length=0.031158000,Units=km
new line.TR12140168 bus1=BMT8734016B.1.2.3,bus2=BMT8734018B.1.2.3,Phases=3,Linecode=CABA06_3_3,Length=0.031158000,Units=km
new line.TR12140169 bus1=BMT8734018B.1.2.3,bus2=BMT163455555.1.2.3,Phases=3,Linecode=CABA06_3_3,Length=0.026183000,Units=km
new line.TR12140281 bus1=BMT163455553.1.2.3,bus2=BMT8734140B.1.2.3,Phases=3,Linecode=CABA06_3_3,Length=0.030079000,Units=km
new line.TR12140282 bus1=BMT8734140B.1.2.3,bus2=BMT8734141B.1.2.3,Phases=3,Linecode=CABA06_3_3,Length=0.028030000,Units=km
new line.TR12140283 bus1=BMT8734141B.1.2.3,bus2=BMT8018926B.1.2.3,Phases=3,Linecode=CABA06_3_3,Length=0.029081000,Units=km
new line.TR1117640 bus1=BMT167180854.2,bus2=BMT3221364B.2,Phases=1,Linecode=CAB202_3_1,Length=0.126708000,Units=km
new line.TR1117647 bus1=BMT167180854.1.2.3,bus2=BMT4851965B.1.2.3,Phases=3,Linecode=CAB204_3_3,Length=0.140146000,Units=km
new line.TR1117654 bus1=BMT121873182.1.2.3,bus2=BMT1825641B.1.2.3,Phases=3,Linecode=CAB204_3_3,Length=0.123860000,Units=km
new line.TR1117661 bus1=BMT121873686.1,bus2=BMT4851972B.1,Phases=1,Linecode=CAB202_3_1,Length=0.124505000,Units=km
new line.TR1117668 bus1=BMT1825641B.1.2.3,bus2=BMT4851993B.1.2.3,Phases=3,Linecode=CAB204_3_3,Length=0.108270000,Units=km
new line.TR1117675 bus1=BMT121873693.1,bus2=BMT4696250B.1,Phases=1,Linecode=CAB202_3_1,Length=0.094912000,Units=km
new line.TR1117682 bus1=BMT121873693.1,bus2=BMT4851979B.1,Phases=1,Linecode=CAB202_3_1,Length=0.104828000,Units=km
new line.TR1117689 bus1=BMT121873693.1,bus2=BMT4851986B.1,Phases=1,Linecode=CAB202_3_1,Length=0.105802000,Units=km
new line.TR1117696 bus1=BMT167180852.1,bus2=BMT4852063B.1,Phases=1,Linecode=CAB202_3_1,Length=0.086041000,Units=km
new line.TR1117703 bus1=BMT167180852.1.2.3,bus2=BMT4852070B.1.2.3,Phases=3,Linecode=CAB204_3_3,Length=0.147792000,Units=km
new line.TR1117710 bus1=BMT167180849.2,bus2=BMT167180851.2,Phases=1,Linecode=CAB102_3_1,Length=0.022813000,Units=km
new line.TR1117717 bus1=BMT167180849.1.2.3,bus2=BMT4850740B.1.2.3,Phases=3,Linecode=CAB204_3_3,Length=0.129366000,Units=km
new line.TR1117724 bus1=BMT167180846.2,bus2=BMT167180847.2,Phases=1,Linecode=CAB102_3_1,Length=0.054840000,Units=km
new line.TR1117731 bus1=BMT167180846.1.2.3,bus2=BMT4850754B.1.2.3,Phases=3,Linecode=CAB204_3_3,Length=0.127445000,Units=km
new line.TR1117738 bus1=BMT121873238.1.2.3,bus2=BMT4877452B.1.2.3,Phases=3,Linecode=CAB204_3_3,Length=0.087967000,Units=km
new line.TR1117745 bus1=BMT121873238.1,bus2=BMT121873252.1,Phases=1,Linecode=CAB202_3_1,Length=0.040328000,Units=km
new line.TR1117752 bus1=BMT121873238.3,bus2=BMT121873259.3,Phases=1,Linecode=CAB202_3_1,Length=0.018256000,Units=km
new line.TR1117759 bus1=BMT169549296.1,bus2=BMT4850789B.1,Phases=1,Linecode=CAB202_3_1,Length=0.106048000,Units=km
new line.TR1117766 bus1=BMT169549297.1,bus2=BMT169549299.1,Phases=1,Linecode=CAB202_3_1,Length=0.127193000,Units=km
new line.TR1117773 bus1=BMT169549297.1,bus2=BMT1825697B.1,Phases=1,Linecode=CAB202_3_1,Length=0.121482000,Units=km
new line.TR1117780 bus1=BMT1825697B.1,bus2=BMT169549300.1,Phases=1,Linecode=CAB202_3_1,Length=0.066600000,Units=km
new line.TR1117787 bus1=BMT169549300.1,bus2=BMT169549301.1,Phases=1,Linecode=CAB103_3_1,Length=0.072562000,Units=km
new line.TR1117794 bus1=BMT169549300.1,bus2=BMT169549302.1,Phases=1,Linecode=CAB202_3_1,Length=0.010300000,Units=km
new line.TR1117801 bus1=BMT169549303.1,bus2=BMT169549304.1,Phases=1,Linecode=CAB202_3_1,Length=0.089574000,Units=km
new line.TR1117808 bus1=BMT169549303.1,bus2=BMT169549305.1,Phases=1,Linecode=CAB103_3_1,Length=0.030013000,Units=km
new line.TR1117815 bus1=BMT169549306.1,bus2=BMT169549307.1,Phases=1,Linecode=CAB103_3_1,Length=0.033135000,Units=km
new line.TR1117822 bus1=BMT162741445.3,bus2=BMT162741446.3,Phases=1,Linecode=CAB102_3_1,Length=0.056609000,Units=km
new line.TR12165315 bus1=BMT165267800.1.2.3,bus2=BMT8762651B.1.2.3,Phases=3,Linecode=CABA06_3_3,Length=0.039221000,Units=km
new line.TR12165316 bus1=BMT8762651B.1.2.3,bus2=BMT8762656B.1.2.3,Phases=3,Linecode=CABA06_3_3,Length=0.039677000,Units=km
new line.TR12165319 bus1=BMT8762656B.1.2.3,bus2=BMT8762660B.1.2.3,Phases=3,Linecode=CABA06_3_3,Length=0.023611000,Units=km
new line.TR12165322 bus1=BMT165267804.1.2.3,bus2=BMT165267806.1.2.3,Phases=3,Linecode=CABA06_3_3,Length=0.038616000,Units=km