new load.3009000701M1 bus1=BMT124254757.1.2.3.0,Phases=3,kv=13.8,kW=119.55114,pf=0.92,Vminpu=0.93,Vmaxpu=1.5,model=8,zipv=[0.5,0,0.5,1,0,0,0],daily=A4-3,status=variable
new load.3009000704M1 bus1=BMT124254386.1.2.3.0,Phases=3,kv=13.8,kW=112.18182,pf=0.92,Vminpu=0.93,Vmaxpu=1.5,model=8,zipv=[0.5,0,0.5,1,0,0,0],daily=A4-2,status=variable
new load.3009001808M1 bus1=BMT150346404.1.2.3.0,Phases=3,kv=13.8,kW=169.78914,pf=0.92,Vminpu=0.93,Vmaxpu=1.5,model=8,zipv=[0.5,0,0.5,1,0,0,0],daily=A4-6,status=variable
new load.3009001812M1 bus1=BMT124288140.1.2.3.0,Phases=3,kv=13.8,kW=34.7296,pf=0.92,Vminpu=0.93,Vmaxpu=1.5,model=8,zipv=[0.5,0,0.5,1,0,0,0],daily=A4-6,status=variable
new load.3009001818M1 bus1=BMT124289645.1.2.3.0,Phases=3,kv=13.8,kW=43.62274,pf=0.92,Vminpu=0.93,Vmaxpu=1.5,model=8,zipv=[0.5,0,0.5,1,0,0,0],daily=A4-5,status=variable
new load.3009001820M1 bus1=BMT127017986.1.2.3.0,Phases=3,kv=13.8,kW=258.69008,pf=0.92,Vminpu=0.93,Vmaxpu=1.5,model=8,zipv=[0.5,0,0.5,1,0,0,0],daily=A4-7,status=variable
new load.3009001837M1 bus1=BMT124247932.1.2.3.0,Phases=3,kv=13.8,kW=51.21622,pf=0.92,Vminpu=0.93,Vmaxpu=1.5,model=8,zipv=[0.5,0,0.5,1,0,0,0],daily=A4-4,status=variable
new load.3009001895M1 bus1=BMT127017377.1.2.3.0,Phases=3,kv=13.8,kW=285.9206,pf=0.92,Vminpu=0.93,Vmaxpu=1.5,model=8,zipv=[0.5,0,0.5,1,0,0,0],daily=A4-7,status=variable
new load.3009006718M1 bus1=BMT124254659.1.2.3.0,Phases=3,kv=13.8,kW=6.38458,pf=0.92,Vminpu=0.93,Vmaxpu=1.5,model=8,zipv=[0.5,0,0.5,1,0,0,0],daily=A4-1,status=variable
new load.3009006719M1 bus1=BMT150347976.1.2.3.0,Phases=3,kv=13.8,kW=20.19272,pf=0.92,Vminpu=0.93,Vmaxpu=1.5,model=8,zipv=[0.5,0,0.5,1,0,0,0],daily=A4-2,status=variable
new load.3009006722M1 bus1=BMT150345031.1.2.3.0,Phases=3,kv=13.8,kW=8.97454,pf=0.92,Vminpu=0.93,Vmaxpu=1.5,model=8,zipv=[0.5,0,0.5,1,0,0,0],daily=A4-2,status=variable
new load.3009009521M1 bus1=BMT150345050.1.2.3.0,Phases=3,kv=13.8,kW=100.32996,pf=0.92,Vminpu=0.93,Vmaxpu=1.5,model=8,zipv=[0.5,0,0.5,1,0,0,0],daily=A4-6,status=variable
new load.3009010216M1 bus1=BMT148093096.1.2.3.0,Phases=3,kv=13.8,kW=166.4527,pf=0.92,Vminpu=0.93,Vmaxpu=1.5,model=8,zipv=[0.5,0,0.5,1,0,0,0],daily=A4-4,status=variable
new load.3009010934M1 bus1=BMT124249339.1.2.3.0,Phases=3,kv=13.8,kW=8.97454,pf=0.92,Vminpu=0.93,Vmaxpu=1.5,model=8,zipv=[0.5,0,0.5,1,0,0,0],daily=A4-2,status=variable
new load.3009011170M1 bus1=BMT166077534.1.2.3.0,Phases=3,kv=13.8,kW=609.6974,pf=0.92,Vminpu=0.93,Vmaxpu=1.5,model=8,zipv=[0.5,0,0.5,1,0,0,0],daily=A4-6,status=variable
new load.3009012573M1 bus1=BMT155517410.1.2.3.0,Phases=3,kv=13.8,kW=18.8765,pf=0.92,Vminpu=0.93,Vmaxpu=1.5,model=8,zipv=[0.5,0,0.5,1,0,0,0],daily=A4-3,status=variable
new load.3009012935M1 bus1=BMT124264396.1.2.3.0,Phases=3,kv=13.8,kW=11.17302,pf=0.92,Vminpu=0.93,Vmaxpu=1.5,model=8,zipv=[0.5,0,0.5,1,0,0,0],daily=A4-1,status=variable
new load.3009013017M1 bus1=BMT127019120.1.2.3.0,Phases=3,kv=13.8,kW=106.70044,pf=0.92,Vminpu=0.93,Vmaxpu=1.5,model=8,zipv=[0.5,0,0.5,1,0,0,0],daily=A4-4,status=variable
new load.3009014068M1 bus1=BMT150345048.1.2.3.0,Phases=3,kv=13.8,kW=302.93968,pf=0.92,Vminpu=0.93,Vmaxpu=1.5,model=8,zipv=[0.5,0,0.5,1,0,0,0],daily=A4-7,status=variable
new load.3009014069M1 bus1=BMT124262072.1.2.3.0,Phases=3,kv=13.8,kW=29.08182,pf=0.92,Vminpu=0.93,Vmaxpu=1.5,model=8,zipv=[0.5,0,0.5,1,0,0,0],daily=A4-5,status=variable
new load.3009014437M1 bus1=BMT127017972.1.2.3.0,Phases=3,kv=13.8,kW=3.1923,pf=0.92,Vminpu=0.93,Vmaxpu=1.5,model=8,zipv=[0.5,0,0.5,1,0,0,0],daily=A4-1,status=variable
new load.3009014844M1 bus1=BMT170605307.1.2.3.0,Phases=3,kv=13.8,kW=607.58128,pf=0.92,Vminpu=0.93,Vmaxpu=1.5,model=8,zipv=[0.5,0,0.5,1,0,0,0],daily=A4-7,status=variable
new load.3009015222M1 bus1=BMT124251936.1.2.3.0,Phases=3,kv=13.8,kW=62.82182,pf=0.92,Vminpu=0.93,Vmaxpu=1.5,model=8,zipv=[0.5,0,0.5,1,0,0,0],daily=A4-2,status=variable
new load.3009015485M1 bus1=BMT124268351.1.2.3.0,Phases=3,kv=13.8,kW=1.59614,pf=0.92,Vminpu=0.93,Vmaxpu=1.5,model=8,zipv=[0.5,0,0.5,1,0,0,0],daily=A4-1,status=variable
new load.3009015619M1 bus1=BMT142862808.1.2.3.0,Phases=3,kv=13.8,kW=11.21818,pf=0.92,Vminpu=0.93,Vmaxpu=1.5,model=8,zipv=[0.5,0,0.5,1,0,0,0],daily=A4-2,status=variable
new load.3009016059M1 bus1=BMT169258003.1.2.3.0,Phases=3,kv=13.8,kW=142.77724,pf=0.92,Vminpu=0.93,Vmaxpu=1.5,model=8,zipv=[0.5,0,0.5,1,0,0,0],daily=A4-6,status=variable
new load.3009016423M1 bus1=BMT124252538.1.2.3.0,Phases=3,kv=13.8,kW=109.0642,pf=0.92,Vminpu=0.93,Vmaxpu=1.5,model=8,zipv=[0.5,0,0.5,1,0,0,0],daily=A4-3,status=variable
new load.3009016608M1 bus1=BMT124255968.1.2.3.0,Phases=3,kv=13.8,kW=3.1923,pf=0.92,Vminpu=0.93,Vmaxpu=1.5,model=8,zipv=[0.5,0,0.5,1,0,0,0],daily=A4-1,status=variable
new load.3009017115M1 bus1=BMT148092117.1.2.3.0,Phases=3,kv=13.8,kW=13.46182,pf=0.92,Vminpu=0.93,Vmaxpu=1.5,model=8,zipv=[0.5,0,0.5,1,0,0,0],daily=A4-2,status=variable
new load.3009018280M1 bus1=BMT127019134.1.2.3.0,Phases=3,kv=13.8,kW=149.56368,pf=0.92,Vminpu=0.93,Vmaxpu=1.5,model=8,zipv=[0.5,0,0.5,1,0,0,0],daily=A4-5,status=variable
new load.3009018850M1 bus1=BMT127017412.1.2.3.0,Phases=3,kv=13.8,kW=3.1923,pf=0.92,Vminpu=0.93,Vmaxpu=1.5,model=8,zipv=[0.5,0,0.5,1,0,0,0],daily=A4-1,status=variable
new load.3009018851M1 bus1=BMT127017426.1.2.3.0,Phases=3,kv=13.8,kW=95.55458,pf=0.92,Vminpu=0.93,Vmaxpu=1.5,model=8,zipv=[0.5,0,0.5,1,0,0,0],daily=A4-5,status=variable
new load.3009018852M1 bus1=BMT169587529.1.2.3.0,Phases=3,kv=13.8,kW=92.61226,pf=0.92,Vminpu=0.93,Vmaxpu=1.5,model=8,zipv=[0.5,0,0.5,1,0,0,0],daily=A4-6,status=variable
new load.3009019017M1 bus1=BMT124287965.1.2.3.0,Phases=3,kv=13.8,kW=136.98898,pf=0.92,Vminpu=0.93,Vmaxpu=1.5,model=8,zipv=[0.5,0,0.5,1,0,0,0],daily=A4-6,status=variable
new load.3009019519M1 bus1=BMT150347749.1.2.3.0,Phases=3,kv=13.8,kW=114.25004,pf=0.92,Vminpu=0.93,Vmaxpu=1.5,model=8,zipv=[0.5,0,0.5,1,0,0,0],daily=A4-5,status=variable
new load.3009019765M1 bus1=BMT132703561.1.2.3.0,Phases=3,kv=13.8,kW=132.30856,pf=0.92,Vminpu=0.93,Vmaxpu=1.5,model=8,zipv=[0.5,0,0.5,1,0,0,0],daily=A4-4,status=variable
new load.3009021342M1 bus1=BMT142862759.1.2.3.0,Phases=3,kv=13.8,kW=41.94776,pf=0.92,Vminpu=0.93,Vmaxpu=1.5,model=8,zipv=[0.5,0,0.5,1,0,0,0],daily=A4-3,status=variable
new load.3009021406M1 bus1=BMT124287650.1.2.3.0,Phases=3,kv=13.8,kW=39.85038,pf=0.92,Vminpu=0.93,Vmaxpu=1.5,model=8,zipv=[0.5,0,0.5,1,0,0,0],daily=A4-3,status=variable
new load.3009021651M1 bus1=BMT124255170.1.2.3.0,Phases=3,kv=13.8,kW=89.74546,pf=0.92,Vminpu=0.93,Vmaxpu=1.5,model=8,zipv=[0.5,0,0.5,1,0,0,0],daily=A4-2,status=variable
new load.3009021687M1 bus1=BMT150347731.1.2.3.0,Phases=3,kv=13.8,kW=145.40914,pf=0.92,Vminpu=0.93,Vmaxpu=1.5,model=8,zipv=[0.5,0,0.5,1,0,0,0],daily=A4-5,status=variable
new load.3010001245M1 bus1=BMT124287678.1.2.3.0,Phases=3,kv=13.8,kW=28.94134,pf=0.92,Vminpu=0.93,Vmaxpu=1.5,model=8,zipv=[0.5,0,0.5,1,0,0,0],daily=A4-6,status=variable
new load.3010162801M1 bus1=BMT142856053.1.2.3.0,Phases=3,kv=13.8,kW=119.5045,pf=0.92,Vminpu=0.93,Vmaxpu=1.5,model=8,zipv=[0.5,0,0.5,1,0,0,0],daily=A4-4,status=variable
new load.3010375701M1 bus1=BMT154011834.1.2.3.0,Phases=3,kv=13.8,kW=75.50598,pf=0.92,Vminpu=0.93,Vmaxpu=1.5,model=8,zipv=[0.5,0,0.5,1,0,0,0],daily=A4-3,status=variable
new load.3010399359M1 bus1=BMT124288546.1.2.3.0,Phases=3,kv=13.8,kW=31.41092,pf=0.92,Vminpu=0.93,Vmaxpu=1.5,model=8,zipv=[0.5,0,0.5,1,0,0,0],daily=A4-2,status=variable
new load.3010599336M1 bus1=BMT124289491.1.2.3.0,Phases=3,kv=13.8,kW=6.38458,pf=0.92,Vminpu=0.93,Vmaxpu=1.5,model=8,zipv=[0.5,0,0.5,1,0,0,0],daily=A4-1,status=variable
new load.3010615603M1 bus1=BMT124269947.1.2.3.0,Phases=3,kv=13.8,kW=64.02026,pf=0.92,Vminpu=0.93,Vmaxpu=1.5,model=8,zipv=[0.5,0,0.5,1,0,0,0],daily=A4-4,status=variable
new load.3010624582M1 bus1=BMT124290583.1.2.3.0,Phases=3,kv=13.8,kW=64.02026,pf=0.92,Vminpu=0.93,Vmaxpu=1.5,model=8,zipv=[0.5,0,0.5,1,0,0,0],daily=A4-4,status=variable
new load.3010896802M1 bus1=BMT124256402.1.2.3.0,Phases=3,kv=13.8,kW=81.79814,pf=0.92,Vminpu=0.93,Vmaxpu=1.5,model=8,zipv=[0.5,0,0.5,1,0,0,0],daily=A4-3,status=variable
new load.3010984852M1 bus1=BMT124287664.1.2.3.0,Phases=3,kv=13.8,kW=25.16866,pf=0.92,Vminpu=0.93,Vmaxpu=1.5,model=8,zipv=[0.5,0,0.5,1,0,0,0],daily=A4-3,status=variable
new load.3011104962M1 bus1=BMT167010726.1.2.3.0,Phases=3,kv=13.8,kW=99.70912,pf=0.92,Vminpu=0.93,Vmaxpu=1.5,model=8,zipv=[0.5,0,0.5,1,0,0,0],daily=A4-5,status=variable
new load.3011507788M1 bus1=BMT150499744.1.2.3.0,Phases=3,kv=13.8,kW=122.55912,pf=0.92,Vminpu=0.93,Vmaxpu=1.5,model=8,zipv=[0.5,0,0.5,1,0,0,0],daily=A4-5,status=variable
new load.3011595744M1 bus1=BMT131802654.1.2.3.0,Phases=3,kv=13.8,kW=12.76918,pf=0.92,Vminpu=0.93,Vmaxpu=1.5,model=8,zipv=[0.5,0,0.5,1,0,0,0],daily=A4-1,status=variable
new load.3012204477M1 bus1=BMT162891040.1.2.3.0,Phases=3,kv=13.8,kW=216.09528,pf=0.92,Vminpu=0.93,Vmaxpu=1.5,model=8,zipv=[0.5,0,0.5,1,0,0,0],daily=A4-6,status=variable
new load.3012375936M1 bus1=BMT151352075.1.2.3.0,Phases=3,kv=13.8,kW=52.43472,pf=0.92,Vminpu=0.93,Vmaxpu=1.5,model=8,zipv=[0.5,0,0.5,1,0,0,0],daily=A4-3,status=variable
new load.3012589695M1 bus1=BMT153612033.1.2.3.0,Phases=3,kv=13.8,kW=33.55822,pf=0.92,Vminpu=0.93,Vmaxpu=1.5,model=8,zipv=[0.5,0,0.5,1,0,0,0],daily=A4-3,status=variable
new load.3012589704M1 bus1=BMT153608663.1.2.3.0,Phases=3,kv=13.8,kW=37.753,pf=0.92,Vminpu=0.93,Vmaxpu=1.5,model=8,zipv=[0.5,0,0.5,1,0,0,0],daily=A4-3,status=variable
new load.3012852880M1 bus1=BMT165329725.1.2.3.0,Phases=3,kv=13.8,kW=24.68,pf=0.92,Vminpu=0.93,Vmaxpu=1.5,model=8,zipv=[0.5,0,0.5,1,0,0,0],daily=A4-2,status=variable
new load.3012855434M1 bus1=BMT157811790.1.2.3.0,Phases=3,kv=13.8,kW=49.85456,pf=0.92,Vminpu=0.93,Vmaxpu=1.5,model=8,zipv=[0.5,0,0.5,1,0,0,0],daily=A4-5,status=variable
new load.3012855443M1 bus1=BMT157812082.1.2.3.0,Phases=3,kv=13.8,kW=25.16866,pf=0.92,Vminpu=0.93,Vmaxpu=1.5,model=8,zipv=[0.5,0,0.5,1,0,0,0],daily=A4-3,status=variable
new load.3012949242M1 bus1=BMT157370012.1.2.3.0,Phases=3,kv=13.8,kW=148.06602,pf=0.92,Vminpu=0.93,Vmaxpu=1.5,model=8,zipv=[0.5,0,0.5,1,0,0,0],daily=A4-7,status=variable
new load.3013193449M1 bus1=BMT162163094.1.2.3.0,Phases=3,kv=13.8,kW=1344.5076,pf=0.92,Vminpu=0.93,Vmaxpu=1.5,model=8,zipv=[0.5,0,0.5,1,0,0,0],daily=A4-7,status=variable
new load.3013214175M1 bus1=BMT150345041.1.2.3.0,Phases=3,kv=13.8,kW=283.82318,pf=0.92,Vminpu=0.93,Vmaxpu=1.5,model=8,zipv=[0.5,0,0.5,1,0,0,0],daily=A4-4,status=variable
new load.3013452345M1 bus1=BMT150347373.1.2.3.0,Phases=3,kv=13.8,kW=93.4773,pf=0.92,Vminpu=0.93,Vmaxpu=1.5,model=8,zipv=[0.5,0,0.5,1,0,0,0],daily=A4-5,status=variable
new load.3013480437M1 bus1=BMT166558549.1.2.3.0,Phases=3,kv=13.8,kW=55.48424,pf=0.92,Vminpu=0.93,Vmaxpu=1.5,model=8,zipv=[0.5,0,0.5,1,0,0,0],daily=A4-4,status=variable
new load.3013480520M1 bus1=BMT171362991.1.2.3.0,Phases=3,kv=13.8,kW=58.16366,pf=0.92,Vminpu=0.93,Vmaxpu=1.5,model=8,zipv=[0.5,0,0.5,1,0,0,0],daily=A4-5,status=variable
new load.3013910043M1 bus1=BMT124254680.1.2.3.0,Phases=3,kv=13.8,kW=211.88188,pf=0.92,Vminpu=0.93,Vmaxpu=1.5,model=8,zipv=[0.5,0,0.5,1,0,0,0],daily=A4-5,status=variable
