new transformer.1012738 Phases=1,Windings=3,Buses=[BMT124267623.1 BBT87441253.1.0 BBT87441253.0.2],Conns=[wye wye wye],kvs=[7.967 0.12 0.12],kvas=[10.000000000 10.000000000 10.000000000],Taps=[1,1.000000000,1.000000000],%loadloss=1.800000000,%noloadloss=0.450000000
new transformer.1012794 Phases=1,Windings=3,Buses=[BMT124267910.1 BBT87460552.1.0 BBT87460552.0.2],Conns=[wye wye wye],kvs=[7.967 0.12 0.12],kvas=[5.000000000 5.000000000 5.000000000],Taps=[1,1.000000000,1.000000000],%loadloss=1.900000000,%noloadloss=0.600000000
new transformer.1013116 Phases=1,Windings=3,Buses=[BMT138429001.1 BBT87634649.1.0 BBT87634649.0.2],Conns=[wye wye wye],kvs=[7.967 0.12 0.12],kvas=[5.000000000 5.000000000 5.000000000],Taps=[1,1.000000000,1.000000000],%loadloss=1.900000000,%noloadloss=0.600000000
new transformer.1013123 Phases=1,Windings=3,Buses=[BMT138429015.1 BBT87634698.1.0 BBT87634698.0.2],Conns=[wye wye wye],kvs=[7.967 0.12 0.12],kvas=[5.000000000 5.000000000 5.000000000],Taps=[1,1.000000000,1.000000000],%loadloss=1.900000000,%noloadloss=0.600000000
new transformer.1013130 Phases=1,Windings=3,Buses=[BMT138429008.1 BBT87647907.1.0 BBT87647907.0.2],Conns=[wye wye wye],kvs=[7.967 0.12 0.12],kvas=[5.000000000 5.000000000 5.000000000],Taps=[1,1.000000000,1.000000000],%loadloss=1.900000000,%noloadloss=0.600000000
new transformer.1013137 Phases=1,Windings=3,Buses=[BMT124267497.1 BBT87648614.1.0 BBT87648614.0.2],Conns=[wye wye wye],kvs=[7.967 0.12 0.12],kvas=[5.000000000 5.000000000 5.000000000],Taps=[1,1.000000000,1.000000000],%loadloss=1.900000000,%noloadloss=0.600000000
new transformer.1013144 Phases=1,Windings=3,Buses=[BMT124267392.1 BBT87648880.1.0 BBT87648880.0.2],Conns=[wye wye wye],kvs=[7.967 0.12 0.12],kvas=[15.000000000 15.000000000 15.000000000],Taps=[1,1.000000000,1.000000000],%loadloss=1.600000000,%noloadloss=0.400000000
new transformer.1013151 Phases=1,Windings=3,Buses=[BMT124267378.1 BBT87649083.1.0 BBT87649083.0.2],Conns=[wye wye wye],kvs=[7.967 0.12 0.12],kvas=[5.000000000 5.000000000 5.000000000],Taps=[1,1.000000000,1.000000000],%loadloss=1.900000000,%noloadloss=0.600000000
new transformer.1013158 Phases=1,Windings=3,Buses=[BMT124267364.1 BBT87649321.1.0 BBT87649321.0.2],Conns=[wye wye wye],kvs=[7.967 0.12 0.12],kvas=[35.000000000 35.000000000 35.000000000],Taps=[1,1.000000000,1.000000000],%loadloss=1.293000000,%noloadloss=0.342857000
new transformer.1013165 Phases=1,Windings=3,Buses=[BMT124267336.1 BBT87649629.1.0 BBT87649629.0.2],Conns=[wye wye wye],kvs=[7.967 0.12 0.12],kvas=[5.000000000 5.000000000 5.000000000],Taps=[1,1.000000000,1.000000000],%loadloss=1.900000000,%noloadloss=0.600000000
new transformer.1013172 Phases=1,Windings=3,Buses=[BMT153200789.1 BBT87649720.1.0 BBT87649720.0.2],Conns=[wye wye wye],kvs=[7.967 0.12 0.12],kvas=[5.000000000 5.000000000 5.000000000],Taps=[1,1.000000000,1.000000000],%loadloss=1.900000000,%noloadloss=0.600000000
new transformer.1013179 Phases=1,Windings=3,Buses=[BMT167949086.1 BBT87649818.1.0 BBT87649818.0.2],Conns=[wye wye wye],kvs=[7.967 0.12 0.12],kvas=[5.000000000 5.000000000 5.000000000],Taps=[1,1.000000000,1.000000000],%loadloss=1.900000000,%noloadloss=0.600000000
new transformer.1013186 Phases=1,Windings=3,Buses=[BMT160127274.1 BBT87649965.1.0 BBT87649965.0.2],Conns=[wye wye wye],kvs=[7.967 0.12 0.12],kvas=[5.000000000 5.000000000 5.000000000],Taps=[1,1.000000000,1.000000000],%loadloss=1.900000000,%noloadloss=0.600000000
new transformer.1013193 Phases=1,Windings=3,Buses=[BMT124267406.1 BBT87650028.1.0 BBT87650028.0.2],Conns=[wye wye wye],kvs=[7.967 0.12 0.12],kvas=[10.000000000 10.000000000 10.000000000],Taps=[1,1.000000000,1.000000000],%loadloss=1.800000000,%noloadloss=0.450000000
new transformer.1013200 Phases=1,Windings=3,Buses=[BMT124268183.1 BBT87650154.1.0 BBT87650154.0.2],Conns=[wye wye wye],kvs=[7.967 0.12 0.12],kvas=[5.000000000 5.000000000 5.000000000],Taps=[1,1.000000000,1.000000000],%loadloss=1.900000000,%noloadloss=0.600000000
new transformer.1013214 Phases=1,Windings=3,Buses=[BMT124268190.1 BBT87651645.1.0 BBT87651645.0.2],Conns=[wye wye wye],kvs=[7.967 0.12 0.12],kvas=[5.000000000 5.000000000 5.000000000],Taps=[1,1.000000000,1.000000000],%loadloss=1.900000000,%noloadloss=0.600000000
new transformer.1013221 Phases=1,Windings=3,Buses=[BMT165321240.1 BBT87652142.1.0 BBT87652142.0.2],Conns=[wye wye wye],kvs=[7.967 0.12 0.12],kvas=[5.000000000 5.000000000 5.000000000],Taps=[1,1.000000000,1.000000000],%loadloss=1.900000000,%noloadloss=0.600000000
new transformer.1013228 Phases=1,Windings=3,Buses=[BMT165321239.1 BBT87654599.1.0 BBT87654599.0.2],Conns=[wye wye wye],kvs=[7.967 0.12 0.12],kvas=[5.000000000 5.000000000 5.000000000],Taps=[1,1.000000000,1.000000000],%loadloss=1.900000000,%noloadloss=0.600000000
new transformer.1013235 Phases=1,Windings=3,Buses=[BMT124268162.1 BBT87655299.1.0 BBT87655299.0.2],Conns=[wye wye wye],kvs=[7.967 0.12 0.12],kvas=[5.000000000 5.000000000 5.000000000],Taps=[1,1.000000000,1.000000000],%loadloss=1.900000000,%noloadloss=0.600000000
new transformer.1013242 Phases=1,Windings=3,Buses=[BMT124268148.1 BBT87655922.1.0 BBT87655922.0.2],Conns=[wye wye wye],kvs=[7.967 0.12 0.12],kvas=[5.000000000 5.000000000 5.000000000],Taps=[1,1.000000000,1.000000000],%loadloss=1.900000000,%noloadloss=0.600000000
new transformer.1013249 Phases=1,Windings=3,Buses=[BMT124267518.1 BBT87656650.1.0 BBT87656650.0.2],Conns=[wye wye wye],kvs=[7.967 0.12 0.12],kvas=[5.000000000 5.000000000 5.000000000],Taps=[1,1.000000000,1.000000000],%loadloss=1.900000000,%noloadloss=0.600000000
new transformer.1013298 Phases=1,Windings=3,Buses=[BMT124267532.1 BBT87676159.1.0 BBT87676159.0.2],Conns=[wye wye wye],kvs=[7.967 0.12 0.12],kvas=[5.000000000 5.000000000 5.000000000],Taps=[1,1.000000000,1.000000000],%loadloss=1.900000000,%noloadloss=0.600000000
new transformer.1013305 Phases=1,Windings=3,Buses=[BMT124268120.1 BBT87677650.1.0 BBT87677650.0.2],Conns=[wye wye wye],kvs=[7.967 0.12 0.12],kvas=[15.000000000 15.000000000 15.000000000],Taps=[1,1.000000000,1.000000000],%loadloss=1.600000000,%noloadloss=0.400000000
new transformer.1013319 Phases=1,Windings=3,Buses=[BMT124268085.1 BBT87679855.1.0 BBT87679855.0.2],Conns=[wye wye wye],kvs=[7.967 0.12 0.12],kvas=[10.000000000 10.000000000 10.000000000],Taps=[1,1.000000000,1.000000000],%loadloss=1.800000000,%noloadloss=0.450000000
new transformer.1013662 Phases=1,Windings=3,Buses=[BMT124267553.1 BBT87847652.1.0 BBT87847652.0.2],Conns=[wye wye wye],kvs=[7.967 0.12 0.12],kvas=[5.000000000 5.000000000 5.000000000],Taps=[1,1.000000000,1.000000000],%loadloss=1.900000000,%noloadloss=0.600000000
new transformer.1013669 Phases=1,Windings=3,Buses=[BMT124267560.1 BBT87847918.1.0 BBT87847918.0.2],Conns=[wye wye wye],kvs=[7.967 0.12 0.12],kvas=[5.000000000 5.000000000 5.000000000],Taps=[1,1.000000000,1.000000000],%loadloss=1.900000000,%noloadloss=0.600000000
new transformer.1013676 Phases=1,Windings=3,Buses=[BMT124267588.1 BBT87848086.1.0 BBT87848086.0.2],Conns=[wye wye wye],kvs=[7.967 0.12 0.12],kvas=[5.000000000 5.000000000 5.000000000],Taps=[1,1.000000000,1.000000000],%loadloss=1.900000000,%noloadloss=0.600000000
new transformer.1013697 Phases=1,Windings=3,Buses=[BMT124267602.1 BBT87848345.1.0 BBT87848345.0.2],Conns=[wye wye wye],kvs=[7.967 0.12 0.12],kvas=[5.000000000 5.000000000 5.000000000],Taps=[1,1.000000000,1.000000000],%loadloss=1.900000000,%noloadloss=0.600000000
new transformer.1013704 Phases=1,Windings=3,Buses=[BMT124268064.1 BBT87848611.1.0 BBT87848611.0.2],Conns=[wye wye wye],kvs=[7.967 0.12 0.12],kvas=[5.000000000 5.000000000 5.000000000],Taps=[1,1.000000000,1.000000000],%loadloss=1.900000000,%noloadloss=0.600000000
new transformer.1013718 Phases=1,Windings=3,Buses=[BMT124268029.1 BBT87848996.1.0 BBT87848996.0.2],Conns=[wye wye wye],kvs=[7.967 0.12 0.12],kvas=[5.000000000 5.000000000 5.000000000],Taps=[1,1.000000000,1.000000000],%loadloss=1.900000000,%noloadloss=0.600000000
new transformer.1013732 Phases=1,Windings=3,Buses=[BMT124268043.1 BBT87849276.1.0 BBT87849276.0.2],Conns=[wye wye wye],kvs=[7.967 0.12 0.12],kvas=[5.000000000 5.000000000 5.000000000],Taps=[1,1.000000000,1.000000000],%loadloss=1.900000000,%noloadloss=0.600000000
new transformer.1013739 Phases=1,Windings=3,Buses=[BMT124268057.1 BBT87849885.1.0 BBT87849885.0.2],Conns=[wye wye wye],kvs=[7.967 0.12 0.12],kvas=[5.000000000 5.000000000 5.000000000],Taps=[1,1.000000000,1.000000000],%loadloss=1.900000000,%noloadloss=0.600000000
new transformer.1013753 Phases=1,Windings=3,Buses=[BMT124267980.1 BBT87850473.1.0 BBT87850473.0.2],Conns=[wye wye wye],kvs=[7.967 0.12 0.12],kvas=[5.000000000 5.000000000 5.000000000],Taps=[1,1.000000000,1.000000000],%loadloss=1.900000000,%noloadloss=0.600000000
new transformer.1013760 Phases=1,Windings=3,Buses=[BMT124268008.1 BBT87850886.1.0 BBT87850886.0.2],Conns=[wye wye wye],kvs=[7.967 0.12 0.12],kvas=[5.000000000 5.000000000 5.000000000],Taps=[1,1.000000000,1.000000000],%loadloss=1.900000000,%noloadloss=0.600000000
new transformer.1013788 Phases=1,Windings=3,Buses=[BMT124267917.1 BBT87853518.1.0 BBT87853518.0.2],Conns=[wye wye wye],kvs=[7.967 0.12 0.12],kvas=[5.000000000 5.000000000 5.000000000],Taps=[1,1.000000000,1.000000000],%loadloss=1.900000000,%noloadloss=0.600000000
new transformer.1013795 Phases=1,Windings=3,Buses=[BMT124267931.1 BBT87853805.1.0 BBT87853805.0.2],Conns=[wye wye wye],kvs=[7.967 0.12 0.12],kvas=[5.000000000 5.000000000 5.000000000],Taps=[1,1.000000000,1.000000000],%loadloss=1.900000000,%noloadloss=0.600000000
new transformer.1013802 Phases=1,Windings=3,Buses=[BMT124267945.1 BBT87854316.1.0 BBT87854316.0.2],Conns=[wye wye wye],kvs=[7.967 0.12 0.12],kvas=[10.000000000 10.000000000 10.000000000],Taps=[1,1.000000000,1.000000000],%loadloss=1.800000000,%noloadloss=0.450000000
new transformer.1013816 Phases=1,Windings=3,Buses=[BMT124267973.1 BBT87855555.1.0 BBT87855555.0.2],Conns=[wye wye wye],kvs=[7.967 0.12 0.12],kvas=[5.000000000 5.000000000 5.000000000],Taps=[1,1.000000000,1.000000000],%loadloss=1.900000000,%noloadloss=0.600000000
new transformer.1013823 Phases=1,Windings=3,Buses=[BMT124268106.1 BBT87856668.1.0 BBT87856668.0.2],Conns=[wye wye wye],kvs=[7.967 0.12 0.12],kvas=[10.000000000 10.000000000 10.000000000],Taps=[1,1.000000000,1.000000000],%loadloss=1.800000000,%noloadloss=0.450000000
new transformer.1013830 Phases=1,Windings=3,Buses=[BMT124268134.1 BBT87858271.1.0 BBT87858271.0.2],Conns=[wye wye wye],kvs=[7.967 0.12 0.12],kvas=[5.000000000 5.000000000 5.000000000],Taps=[1,1.000000000,1.000000000],%loadloss=1.900000000,%noloadloss=0.600000000
new transformer.1013844 Phases=1,Windings=3,Buses=[BMT124267756.1 BBT87866958.1.0 BBT87866958.0.2],Conns=[wye wye wye],kvs=[7.967 0.12 0.12],kvas=[5.000000000 5.000000000 5.000000000],Taps=[1,1.000000000,1.000000000],%loadloss=1.900000000,%noloadloss=0.600000000
new transformer.1013865 Phases=1,Windings=3,Buses=[BMT124267875.1 BBT87867812.1.0 BBT87867812.0.2],Conns=[wye wye wye],kvs=[7.967 0.12 0.12],kvas=[5.000000000 5.000000000 5.000000000],Taps=[1,1.000000000,1.000000000],%loadloss=1.900000000,%noloadloss=0.600000000
new transformer.1013872 Phases=1,Windings=3,Buses=[BMT124267658.1 BBT87868386.1.0 BBT87868386.0.2],Conns=[wye wye wye],kvs=[7.967 0.12 0.12],kvas=[5.000000000 5.000000000 5.000000000],Taps=[1,1.000000000,1.000000000],%loadloss=1.900000000,%noloadloss=0.600000000
new transformer.1013879 Phases=1,Windings=3,Buses=[BMT124267861.1 BBT87868638.1.0 BBT87868638.0.2],Conns=[wye wye wye],kvs=[7.967 0.12 0.12],kvas=[5.000000000 5.000000000 5.000000000],Taps=[1,1.000000000,1.000000000],%loadloss=1.900000000,%noloadloss=0.600000000
new transformer.1013886 Phases=1,Windings=3,Buses=[BMT124267840.1 BBT87868890.1.0 BBT87868890.0.2],Conns=[wye wye wye],kvs=[7.967 0.12 0.12],kvas=[5.000000000 5.000000000 5.000000000],Taps=[1,1.000000000,1.000000000],%loadloss=1.900000000,%noloadloss=0.600000000
new transformer.1013893 Phases=1,Windings=3,Buses=[BMT124267854.1 BBT87869632.1.0 BBT87869632.0.2],Conns=[wye wye wye],kvs=[7.967 0.12 0.12],kvas=[5.000000000 5.000000000 5.000000000],Taps=[1,1.000000000,1.000000000],%loadloss=1.900000000,%noloadloss=0.600000000
new transformer.1013907 Phases=1,Windings=3,Buses=[BMT124267847.1 BBT87871179.1.0 BBT87871179.0.2],Conns=[wye wye wye],kvs=[7.967 0.12 0.12],kvas=[5.000000000 5.000000000 5.000000000],Taps=[1,1.000000000,1.000000000],%loadloss=1.900000000,%noloadloss=0.600000000
new transformer.1013914 Phases=1,Windings=3,Buses=[BMT124267672.1 BBT87872159.1.0 BBT87872159.0.2],Conns=[wye wye wye],kvs=[7.967 0.12 0.12],kvas=[5.000000000 5.000000000 5.000000000],Taps=[1,1.000000000,1.000000000],%loadloss=1.900000000,%noloadloss=0.600000000
new transformer.1013921 Phases=1,Windings=3,Buses=[BMT124267686.1 BBT87872579.1.0 BBT87872579.0.2],Conns=[wye wye wye],kvs=[7.967 0.12 0.12],kvas=[10.000000000 10.000000000 10.000000000],Taps=[1,1.000000000,1.000000000],%loadloss=1.800000000,%noloadloss=0.450000000
new transformer.1013935 Phases=1,Windings=3,Buses=[BMT124267700.1 BBT87872950.1.0 BBT87872950.0.2],Conns=[wye wye wye],kvs=[7.967 0.12 0.12],kvas=[5.000000000 5.000000000 5.000000000],Taps=[1,1.000000000,1.000000000],%loadloss=1.900000000,%noloadloss=0.600000000
new transformer.1013949 Phases=1,Windings=3,Buses=[BMT124267707.1 BBT87873181.1.0 BBT87873181.0.2],Conns=[wye wye wye],kvs=[7.967 0.12 0.12],kvas=[5.000000000 5.000000000 5.000000000],Taps=[1,1.000000000,1.000000000],%loadloss=1.900000000,%noloadloss=0.600000000
new transformer.1013956 Phases=1,Windings=3,Buses=[BMT124267721.1 BBT87875043.1.0 BBT87875043.0.2],Conns=[wye wye wye],kvs=[7.967 0.12 0.12],kvas=[10.000000000 10.000000000 10.000000000],Taps=[1,1.000000000,1.000000000],%loadloss=1.800000000,%noloadloss=0.450000000
new transformer.1013963 Phases=1,Windings=3,Buses=[BMT160674065.1 BBT87877829.1.0 BBT87877829.0.2],Conns=[wye wye wye],kvs=[7.967 0.12 0.12],kvas=[5.000000000 5.000000000 5.000000000],Taps=[1,1.000000000,1.000000000],%loadloss=1.900000000,%noloadloss=0.600000000
new transformer.1013970 Phases=1,Windings=3,Buses=[BMT124267728.1 BBT87879432.1.0 BBT87879432.0.2],Conns=[wye wye wye],kvs=[7.967 0.12 0.12],kvas=[5.000000000 5.000000000 5.000000000],Taps=[1,1.000000000,1.000000000],%loadloss=1.900000000,%noloadloss=0.600000000
new transformer.1013977 Phases=1,Windings=3,Buses=[BMT124267749.1 BBT87879852.1.0 BBT87879852.0.2],Conns=[wye wye wye],kvs=[7.967 0.12 0.12],kvas=[5.000000000 5.000000000 5.000000000],Taps=[1,1.000000000,1.000000000],%loadloss=1.900000000,%noloadloss=0.600000000
new transformer.1013984 Phases=1,Windings=3,Buses=[BMT160674062.1 BBT87880132.1.0 BBT87880132.0.2],Conns=[wye wye wye],kvs=[7.967 0.12 0.12],kvas=[10.000000000 10.000000000 10.000000000],Taps=[1,1.000000000,1.000000000],%loadloss=1.800000000,%noloadloss=0.450000000
new transformer.1013998 Phases=1,Windings=3,Buses=[BMT160674064.1 BBT87880293.1.0 BBT87880293.0.2],Conns=[wye wye wye],kvs=[7.967 0.12 0.12],kvas=[5.000000000 5.000000000 5.000000000],Taps=[1,1.000000000,1.000000000],%loadloss=1.900000000,%noloadloss=0.600000000
new transformer.1014005 Phases=1,Windings=3,Buses=[BMT167949084.1 BBT87880391.1.0 BBT87880391.0.2],Conns=[wye wye wye],kvs=[7.967 0.12 0.12],kvas=[5.000000000 5.000000000 5.000000000],Taps=[1,1.000000000,1.000000000],%loadloss=1.900000000,%noloadloss=0.600000000
new transformer.1054248 Phases=3,Windings=2,Buses=[BMT142863494.1.2.3 BBT119082205.1.2.3.0],Conns=[delta wye],kvs=[13.8 0.22],kvas=[75.000000000 75.000000000],Taps=[1,1.000000000],%loadloss=1.340000000,%noloadloss=0.340000000
new transformer.1055928 Phases=3,Windings=2,Buses=[BMT158337819.1.2.3 BBT127256826.1.2.3.0],Conns=[delta wye],kvs=[13.8 0.22],kvas=[45.000000000 45.000000000],Taps=[1,1.000000000],%loadloss=1.522000000,%noloadloss=0.377777000
new transformer.1066694 Phases=1,Windings=3,Buses=[BMT131781808.2 BBT131779043.1.0 BBT131779043.0.2],Conns=[wye wye wye],kvs=[7.967 0.12 0.12],kvas=[5.000000000 5.000000000 5.000000000],Taps=[1,1.000000000,1.000000000],%loadloss=1.900000000,%noloadloss=0.600000000
new transformer.1011828 Phases=3,Windings=2,Buses=[BMT124247995.1.2.3 BBT87086318.1.2.3.0],Conns=[delta wye],kvs=[13.8 0.22],kvas=[15.000000000 15.000000000],Taps=[1,1.000000000],%loadloss=1.967000000,%noloadloss=0.500000000
new transformer.1065203 Phases=1,Windings=3,Buses=[BMT172020386.3 BBT131113112.1.0 BBT131113112.0.2],Conns=[wye wye wye],kvs=[7.967 0.12 0.12],kvas=[5.000000000 5.000000000 5.000000000],Taps=[1,1.000000000,1.000000000],%loadloss=1.900000000,%noloadloss=0.600000000
new transformer.1065924 Phases=1,Windings=3,Buses=[BMT167718562.2 BBT131501864.1.0 BBT131501864.0.2],Conns=[wye wye wye],kvs=[7.967 0.12 0.12],kvas=[35.000000000 35.000000000 35.000000000],Taps=[1,1.000000000,1.000000000],%loadloss=1.293000000,%noloadloss=0.342857000
new transformer.1092125 Phases=3,Windings=2,Buses=[BMT142851258.1.2.3 BBT139592240.1.2.3.0],Conns=[delta wye],kvs=[13.8 0.22],kvas=[30.000000000 30.000000000],Taps=[1,1.000000000],%loadloss=1.667000000,%noloadloss=0.433333000
new transformer.1093021 Phases=1,Windings=3,Buses=[BMT163461906.1 BBT139830338.1.0 BBT139830338.0.2],Conns=[wye wye wye],kvs=[7.967 0.12 0.12],kvas=[15.000000000 15.000000000 15.000000000],Taps=[1,1.000000000,1.000000000],%loadloss=1.600000000,%noloadloss=0.400000000
new transformer.1102758 Phases=1,Windings=3,Buses=[BMT166969092.1 BBT142307750.1.0 BBT142307750.0.2],Conns=[wye wye wye],kvs=[7.967 0.12 0.12],kvas=[10.000000000 10.000000000 10.000000000],Taps=[1,1.000000000,1.000000000],%loadloss=1.800000000,%noloadloss=0.450000000
new transformer.1102982 Phases=3,Windings=2,Buses=[BMT167351182.1.2.3 BBT142365220.1.2.3.0],Conns=[delta wye],kvs=[13.8 0.22],kvas=[75.000000000 75.000000000],Taps=[1,1.000000000],%loadloss=1.340000000,%noloadloss=0.340000000
new transformer.1103087 Phases=1,Windings=3,Buses=[BMT142408389.2 BBT142407164.1.0 BBT142407164.0.2],Conns=[wye wye wye],kvs=[7.967 0.12 0.12],kvas=[5.000000000 5.000000000 5.000000000],Taps=[1,1.000000000,1.000000000],%loadloss=1.900000000,%noloadloss=0.600000000
new transformer.1115141 Phases=1,Windings=3,Buses=[BMT162229300.3 BBT145556317.1.0 BBT145556317.0.2],Conns=[wye wye wye],kvs=[7.967 0.12 0.12],kvas=[5.000000000 5.000000000 5.000000000],Taps=[1,1.000000000,1.000000000],%loadloss=1.900000000,%noloadloss=0.600000000
new transformer.1115974 Phases=1,Windings=3,Buses=[BMT170893188.2 BBT145792063.1.0 BBT145792063.0.2],Conns=[wye wye wye],kvs=[7.967 0.12 0.12],kvas=[15.000000000 15.000000000 15.000000000],Taps=[1,1.000000000,1.000000000],%loadloss=1.600000000,%noloadloss=0.400000000
new transformer.1390260 Phases=1,Windings=3,Buses=[BMT148074554.1 BBT148074555.1.0 BBT148074555.0.2],Conns=[wye wye wye],kvs=[7.967 0.12 0.12],kvas=[5.000000000 5.000000000 5.000000000],Taps=[1,1.000000000,1.000000000],%loadloss=1.900000000,%noloadloss=0.600000000
new transformer.1390311 Phases=1,Windings=3,Buses=[BMT162926491.1 BBT148085542.1.0 BBT148085542.0.2],Conns=[wye wye wye],kvs=[7.967 0.12 0.12],kvas=[5.000000000 5.000000000 5.000000000],Taps=[1,1.000000000,1.000000000],%loadloss=1.900000000,%noloadloss=0.600000000
new transformer.1390331 Phases=3,Windings=2,Buses=[BMT172420244.1.2.3 BBT148087283.1.2.3.0],Conns=[delta wye],kvs=[13.8 0.22],kvas=[45.000000000 45.000000000],Taps=[1,1.000000000],%loadloss=1.522000000,%noloadloss=0.377777000
new transformer.1390360 Phases=1,Windings=3,Buses=[BMT165279947.3 BBT148091811.1.0 BBT148091811.0.2],Conns=[wye wye wye],kvs=[7.967 0.12 0.12],kvas=[5.000000000 5.000000000 5.000000000],Taps=[1,1.000000000,1.000000000],%loadloss=1.900000000,%noloadloss=0.600000000
new transformer.139453 Phases=1,Windings=3,Buses=[BMT155192156.2 BBT578843.1.0 BBT578843.0.2],Conns=[wye wye wye],kvs=[7.967 0.12 0.12],kvas=[35.000000000 35.000000000 35.000000000],Taps=[1,1.000000000,1.000000000],%loadloss=1.293000000,%noloadloss=0.342857000
new transformer.139460 Phases=1,Windings=3,Buses=[BMT167180853.1 BBT578857.1.0 BBT578857.0.2],Conns=[wye wye wye],kvs=[7.967 0.12 0.12],kvas=[5.000000000 5.000000000 5.000000000],Taps=[1,1.000000000,1.000000000],%loadloss=1.900000000,%noloadloss=0.600000000
new transformer.139467 Phases=1,Windings=3,Buses=[BMT169549304.1 BBT578871.1.0 BBT578871.0.2],Conns=[wye wye wye],kvs=[7.967 0.12 0.12],kvas=[10.000000000 10.000000000 10.000000000],Taps=[1,1.000000000,1.000000000],%loadloss=1.800000000,%noloadloss=0.450000000
new transformer.1394736 Phases=1,Windings=3,Buses=[BMT165290704.2 BBT149145698.1.0 BBT149145698.0.2],Conns=[wye wye wye],kvs=[7.967 0.12 0.12],kvas=[35.000000000 35.000000000 35.000000000],Taps=[1,1.000000000,1.000000000],%loadloss=1.293000000,%noloadloss=0.342857000
new transformer.139474 Phases=1,Windings=3,Buses=[BMT167180847.2 BBT578885.1.0 BBT578885.0.2],Conns=[wye wye wye],kvs=[7.967 0.12 0.12],kvas=[5.000000000 5.000000000 5.000000000],Taps=[1,1.000000000,1.000000000],%loadloss=1.900000000,%noloadloss=0.600000000
new transformer.1394784 Phases=1,Windings=3,Buses=[BMT161344619.1 BBT149154838.1.0 BBT149154838.0.2],Conns=[wye wye wye],kvs=[7.967 0.12 0.12],kvas=[5.000000000 5.000000000 5.000000000],Taps=[1,1.000000000,1.000000000],%loadloss=1.900000000,%noloadloss=0.600000000
new transformer.1394798 Phases=3,Windings=2,Buses=[BMT161507376.1.2.3 BBT149156735.1.2.3.0],Conns=[delta wye],kvs=[13.8 0.22],kvas=[30.000000000 30.000000000],Taps=[1,1.000000000],%loadloss=1.667000000,%noloadloss=0.433333000
new transformer.1394824 Phases=3,Windings=2,Buses=[BMT172590154.1.2.3 BBT149161507.1.2.3.0],Conns=[delta wye],kvs=[13.8 0.22],kvas=[75.000000000 75.000000000],Taps=[1,1.000000000],%loadloss=1.340000000,%noloadloss=0.340000000
new transformer.1394832 Phases=1,Windings=3,Buses=[BMT163111269.1 BBT149163935.1.0 BBT149163935.0.2],Conns=[wye wye wye],kvs=[7.967 0.12 0.12],kvas=[5.000000000 5.000000000 5.000000000],Taps=[1,1.000000000,1.000000000],%loadloss=1.900000000,%noloadloss=0.600000000
new transformer.1394834 Phases=3,Windings=2,Buses=[BMT163455551.1.2.3 BBT149164691.1.2.3.0],Conns=[delta wye],kvs=[13.8 0.22],kvas=[30.000000000 30.000000000],Taps=[1,1.000000000],%loadloss=1.667000000,%noloadloss=0.433333000
new transformer.1394839 Phases=3,Windings=2,Buses=[BMT149325309.1.2.3 BBT149166555.1.2.3.0],Conns=[delta wye],kvs=[13.8 0.22],kvas=[30.000000000 30.000000000],Taps=[1,1.000000000],%loadloss=1.667000000,%noloadloss=0.433333000
new transformer.1394847 Phases=3,Windings=2,Buses=[BMT163455554.1.2.3 BBT149167450.1.2.3.0],Conns=[delta wye],kvs=[13.8 0.22],kvas=[30.000000000 30.000000000],Taps=[1,1.000000000],%loadloss=1.667000000,%noloadloss=0.433333000
new transformer.139488 Phases=1,Windings=3,Buses=[BMT166787720.1 BBT579011.1.0 BBT579011.0.2],Conns=[wye wye wye],kvs=[7.967 0.12 0.12],kvas=[10.000000000 10.000000000 10.000000000],Taps=[1,1.000000000,1.000000000],%loadloss=1.800000000,%noloadloss=0.450000000
new transformer.139495 Phases=1,Windings=3,Buses=[BMT166787729.3 BBT579025.1.0 BBT579025.0.2],Conns=[wye wye wye],kvs=[7.967 0.12 0.12],kvas=[5.000000000 5.000000000 5.000000000],Taps=[1,1.000000000,1.000000000],%loadloss=1.900000000,%noloadloss=0.600000000
new transformer.1394980 Phases=1,Windings=3,Buses=[BMT170852642.3 BBT149202494.1.0 BBT149202494.0.2],Conns=[wye wye wye],kvs=[7.967 0.12 0.12],kvas=[15.000000000 15.000000000 15.000000000],Taps=[1,1.000000000,1.000000000],%loadloss=1.600000000,%noloadloss=0.400000000
new transformer.1066771 Phases=1,Windings=3,Buses=[BMT131833671.2 BBT131833678.1.0 BBT131833678.0.2],Conns=[wye wye wye],kvs=[7.967 0.12 0.12],kvas=[5.000000000 5.000000000 5.000000000],Taps=[1,1.000000000,1.000000000],%loadloss=1.900000000,%noloadloss=0.600000000
new transformer.1066806 Phases=1,Windings=3,Buses=[BMT131847034.2 BBT131847041.1.0 BBT131847041.0.2],Conns=[wye wye wye],kvs=[7.967 0.12 0.12],kvas=[5.000000000 5.000000000 5.000000000],Taps=[1,1.000000000,1.000000000],%loadloss=1.900000000,%noloadloss=0.600000000
new transformer.1066841 Phases=1,Windings=3,Buses=[BMT131849463.2 BBT131849533.1.0 BBT131849533.0.2],Conns=[wye wye wye],kvs=[7.967 0.12 0.12],kvas=[5.000000000 5.000000000 5.000000000],Taps=[1,1.000000000,1.000000000],%loadloss=1.900000000,%noloadloss=0.600000000
new transformer.1066911 Phases=1,Windings=3,Buses=[BMT163614770.2 BBT131870127.1.0 BBT131870127.0.2],Conns=[wye wye wye],kvs=[7.967 0.12 0.12],kvas=[15.000000000 15.000000000 15.000000000],Taps=[1,1.000000000,1.000000000],%loadloss=1.600000000,%noloadloss=0.400000000
new transformer.1066960 Phases=1,Windings=3,Buses=[BMT163614772.2 BBT131883735.1.0 BBT131883735.0.2],Conns=[wye wye wye],kvs=[7.967 0.12 0.12],kvas=[15.000000000 15.000000000 15.000000000],Taps=[1,1.000000000,1.000000000],%loadloss=1.600000000,%noloadloss=0.400000000
new transformer.1067506 Phases=3,Windings=2,Buses=[BMT132231558.1.2.3 BBT132231628.1.2.3.0],Conns=[delta wye],kvs=[13.8 0.22],kvas=[75.000000000 75.000000000],Taps=[1,1.000000000],%loadloss=1.340000000,%noloadloss=0.340000000
new transformer.1104088 Phases=1,Windings=3,Buses=[BMT142691014.1 BBT142683454.1.0 BBT142683454.0.2],Conns=[wye wye wye],kvs=[7.967 0.12 0.12],kvas=[35.000000000 35.000000000 35.000000000],Taps=[1,1.000000000,1.000000000],%loadloss=1.293000000,%noloadloss=0.342857000
new transformer.1104690 Phases=3,Windings=2,Buses=[BMT165302365.1.2.3 BBT142877690.1.2.3.0],Conns=[delta wye],kvs=[13.8 0.22],kvas=[45.000000000 45.000000000],Taps=[1,1.000000000],%loadloss=1.711000000,%noloadloss=0.444444000
new transformer.1104718 Phases=3,Windings=2,Buses=[BMT143821661.1.2.3 BBT142884004.1.2.3.0],Conns=[delta wye],kvs=[13.8 0.22],kvas=[30.000000000 30.000000000],Taps=[1,1.000000000],%loadloss=1.850000000,%noloadloss=0.483333000
new transformer.1104732 Phases=3,Windings=2,Buses=[BMT143821654.1.2.3 BBT142885334.1.2.3.0],Conns=[delta wye],kvs=[13.8 0.22],kvas=[45.000000000 45.000000000],Taps=[1,1.000000000],%loadloss=1.711000000,%noloadloss=0.444444000
new transformer.1104746 Phases=1,Windings=3,Buses=[BMT146883538.3 BBT142885838.1.0 BBT142885838.0.2],Conns=[wye wye wye],kvs=[7.967 0.12 0.12],kvas=[10.000000000 10.000000000 10.000000000],Taps=[1,1.000000000,1.000000000],%loadloss=0.000000000,%noloadloss=0.550000000
new transformer.1104760 Phases=3,Windings=2,Buses=[BMT146883545.1.2.3 BBT142886328.1.2.3.0],Conns=[delta wye],kvs=[13.8 0.22],kvas=[75.000000000 75.000000000],Taps=[1,1.000000000],%loadloss=1.533000000,%noloadloss=0.373333000
new transformer.1104900 Phases=3,Windings=2,Buses=[BMT144063847.1.2.3 BBT142909855.1.2.3.0],Conns=[delta wye],kvs=[13.8 0.22],kvas=[75.000000000 75.000000000],Taps=[1,1.000000000],%loadloss=1.533000000,%noloadloss=0.373333000
new transformer.1104928 Phases=1,Windings=3,Buses=[BMT144063840.1 BBT142918094.1.0 BBT142918094.0.2],Conns=[wye wye wye],kvs=[7.967 0.12 0.12],kvas=[10.000000000 10.000000000 10.000000000],Taps=[1,1.000000000,1.000000000],%loadloss=0.000000000,%noloadloss=0.550000000
new transformer.1104984 Phases=1,Windings=3,Buses=[BMT165926426.1 BBT142929602.1.0 BBT142929602.0.2],Conns=[wye wye wye],kvs=[7.967 0.12 0.12],kvas=[10.000000000 10.000000000 10.000000000],Taps=[1,1.000000000,1.000000000],%loadloss=0.000000000,%noloadloss=0.550000000
new transformer.1105054 Phases=1,Windings=3,Buses=[BMT165926427.3 BBT142941019.1.0 BBT142941019.0.2],Conns=[wye wye wye],kvs=[7.967 0.12 0.12],kvas=[15.000000000 15.000000000 15.000000000],Taps=[1,1.000000000,1.000000000],%loadloss=0.000000000,%noloadloss=0.500000000
new transformer.1105089 Phases=1,Windings=3,Buses=[BMT142946045.1 BBT142945562.1.0 BBT142945562.0.2],Conns=[wye wye wye],kvs=[7.967 0.12 0.12],kvas=[10.000000000 10.000000000 10.000000000],Taps=[1,1.000000000,1.000000000],%loadloss=0.000000000,%noloadloss=0.550000000
new transformer.1105103 Phases=3,Windings=2,Buses=[BMT147770886.1.2.3 BBT142946325.1.2.3.0],Conns=[delta wye],kvs=[13.8 0.22],kvas=[45.000000000 45.000000000],Taps=[1,1.000000000],%loadloss=1.711000000,%noloadloss=0.444444000
new transformer.1105131 Phases=1,Windings=3,Buses=[BMT151214080.3 BBT142949664.1.0 BBT142949664.0.2],Conns=[wye wye wye],kvs=[7.967 0.12 0.12],kvas=[10.000000000 10.000000000 10.000000000],Taps=[1,1.000000000,1.000000000],%loadloss=0.000000000,%noloadloss=0.550000000
new transformer.1105138 Phases=1,Windings=3,Buses=[BMT142953220.3 BBT142953227.1.0 BBT142953227.0.2],Conns=[wye wye wye],kvs=[7.967 0.12 0.12],kvas=[10.000000000 10.000000000 10.000000000],Taps=[1,1.000000000,1.000000000],%loadloss=0.000000000,%noloadloss=0.550000000
new transformer.1105159 Phases=3,Windings=2,Buses=[BMT146685872.1.2.3 BBT142958106.1.2.3.0],Conns=[delta wye],kvs=[13.8 0.22],kvas=[45.000000000 45.000000000],Taps=[1,1.000000000],%loadloss=1.711000000,%noloadloss=0.444444000
new transformer.1395957 Phases=1,Windings=3,Buses=[BMT166487695.2 BBT149409769.1.0 BBT149409769.0.2],Conns=[wye wye wye],kvs=[7.967 0.12 0.12],kvas=[15.000000000 15.000000000 15.000000000],Taps=[1,1.000000000,1.000000000],%loadloss=1.600000000,%noloadloss=0.400000000
new transformer.1395973 Phases=1,Windings=3,Buses=[BMT149412234.2 BBT149412235.1.0 BBT149412235.0.2],Conns=[wye wye wye],kvs=[7.967 0.12 0.12],kvas=[15.000000000 15.000000000 15.000000000],Taps=[1,1.000000000,1.000000000],%loadloss=1.600000000,%noloadloss=0.400000000
new transformer.1395978 Phases=1,Windings=3,Buses=[BMT166487696.2 BBT149413260.1.0 BBT149413260.0.2],Conns=[wye wye wye],kvs=[7.967 0.12 0.12],kvas=[35.000000000 35.000000000 35.000000000],Taps=[1,1.000000000,1.000000000],%loadloss=1.293000000,%noloadloss=0.342857000
new transformer.139614 Phases=1,Windings=3,Buses=[BMT151465964.1 BBT579256.1.0 BBT579256.0.2],Conns=[wye wye wye],kvs=[7.967 0.12 0.12],kvas=[5.000000000 5.000000000 5.000000000],Taps=[1,1.000000000,1.000000000],%loadloss=1.900000000,%noloadloss=0.600000000
new transformer.139621 Phases=1,Windings=3,Buses=[BMT151465965.3 BBT579270.1.0 BBT579270.0.2],Conns=[wye wye wye],kvs=[7.967 0.12 0.12],kvas=[15.000000000 15.000000000 15.000000000],Taps=[1,1.000000000,1.000000000],%loadloss=1.600000000,%noloadloss=0.400000000