new line.10005680 bus1=BBT145193619.1.2.3.0,bus2=BBT1275084.1.2.3.0,Phases=3,Linecode=BT805_BT805_4_3_4,Length=0.018796000,Units=km
new line.10005715 bus1=BBT145194529.1.2.3.0,bus2=BBT145194536.1.2.3.0,Phases=3,Linecode=BT514_BT514_7_3_1,Length=0.000501000,Units=km
new line.10006779 bus1=BBT145233351.1.2.3.0,bus2=BBT145233358.1.2.3.0,Phases=3,Linecode=BT513_BT513_7_3_1,Length=0.000501000,Units=km
new line.10010692 bus1=BBT145369004.1.2.3.0,bus2=BBT145369011.1.2.3.0,Phases=3,Linecode=BT518_BT518_7_3_1,Length=0.000501000,Units=km
new line.10010699 bus1=BBT145369207.1.2.3.0,bus2=BBT145369214.1.2.3.0,Phases=3,Linecode=BT518_BT518_7_3_1,Length=0.000501000,Units=km
new line.10010706 bus1=BBT145369627.1.2.3.0,bus2=BBT145369634.1.2.3.0,Phases=3,Linecode=BT518_BT518_7_3_1,Length=0.000501000,Units=km
new line.10010720 bus1=BBT145369970.1.2.3.0,bus2=BBT145369977.1.2.3.0,Phases=3,Linecode=BT518_BT518_7_3_1,Length=0.000501000,Units=km
new line.10010741 bus1=BBT145369977.1.2.3.0,bus2=BBT145370187.1.2.3.0,Phases=3,Linecode=BT803_BT803_4_3_4,Length=0.039462000,Units=km
new line.10010748 bus1=BBT145369977.1.2.3.0,bus2=BBT145370201.1.2.3.0,Phases=3,Linecode=BT803_BT803_4_3_4,Length=0.037231000,Units=km
new line.10010762 bus1=BBT145370201.1.2.3.0,bus2=BBT145370271.1.2.3.0,Phases=3,Linecode=BT803_BT803_4_3_4,Length=0.040328000,Units=km
new line.10010769 bus1=BBT145370187.1.2.3.0,bus2=BBT145370278.1.2.3.0,Phases=3,Linecode=BT810_BT810_4_3_4,Length=0.037592000,Units=km
new line.10010776 bus1=BBT145370278.1.2.3.0,bus2=BBT145370348.1.2.3.0,Phases=3,Linecode=BT810_BT810_4_3_4,Length=0.037592000,Units=km
new line.10010783 bus1=BBT145370348.1.2.3.0,bus2=BBT145370355.1.2.3.0,Phases=3,Linecode=BT810_BT810_4_3_4,Length=0.037592000,Units=km
new line.10010790 bus1=BBT145370201.1.2.3.0,bus2=BBT145370418.1.2.3.0,Phases=3,Linecode=BT810_BT810_4_3_4,Length=0.035862000,Units=km
new line.10010797 bus1=BBT145370418.1.2.3.0,bus2=BBT145370425.1.2.3.0,Phases=3,Linecode=BT810_BT810_4_3_4,Length=0.035862000,Units=km
new line.10010804 bus1=BBT145370425.1.2.3.0,bus2=BBT145370439.1.2.3.0,Phases=3,Linecode=BT810_BT810_4_3_4,Length=0.035862000,Units=km
new line.10010825 bus1=BBT145369634.1.2.3.0,bus2=BBT145370523.1.2.3.0,Phases=3,Linecode=BT803_BT803_4_3_4,Length=0.040328000,Units=km
new line.10010832 bus1=BBT145370523.1.2.3.0,bus2=BBT145370530.1.2.3.0,Phases=3,Linecode=BT803_BT803_4_3_4,Length=0.037605000,Units=km
new line.10010839 bus1=BBT145370523.1.2.3.0,bus2=BBT145370537.1.2.3.0,Phases=3,Linecode=BT810_BT810_4_3_4,Length=0.035356000,Units=km
new line.10010846 bus1=BBT145370537.1.2.3.0,bus2=BBT145370544.1.2.3.0,Phases=3,Linecode=BT810_BT810_4_3_4,Length=0.035356000,Units=km
new line.10010853 bus1=BBT145370544.1.2.3.0,bus2=BBT145370572.1.2.3.0,Phases=3,Linecode=BT810_BT810_4_3_4,Length=0.036264000,Units=km
new line.10010860 bus1=BBT145369634.1.2.3.0,bus2=BBT145370579.1.2.3.0,Phases=3,Linecode=BT803_BT803_4_3_4,Length=0.038965000,Units=km
new line.10010867 bus1=BBT145370579.1.2.3.0,bus2=BBT145370621.1.2.3.0,Phases=3,Linecode=BT803_BT803_4_3_4,Length=0.036730000,Units=km
new line.10010888 bus1=BBT145370579.1.2.3.0,bus2=BBT145370656.1.2.3.0,Phases=3,Linecode=BT810_BT810_4_3_4,Length=0.035370000,Units=km
new line.10010895 bus1=BBT145370656.1.2.3.0,bus2=BBT145370663.1.2.3.0,Phases=3,Linecode=BT810_BT810_4_3_4,Length=0.033135000,Units=km
new line.10010902 bus1=BBT145370663.1.2.3.0,bus2=BBT145370670.1.2.3.0,Phases=3,Linecode=BT810_BT810_4_3_4,Length=0.035370000,Units=km
new line.10010930 bus1=BBT145369214.1.2.3.0,bus2=BBT145370866.1.2.3.0,Phases=3,Linecode=BT803_BT803_4_3_4,Length=0.040328000,Units=km
new line.10010958 bus1=BBT145370866.1.2.3.0,bus2=BBT145370943.1.2.3.0,Phases=3,Linecode=BT810_BT810_4_3_4,Length=0.035862000,Units=km
new line.10010965 bus1=BBT145370866.1.2.3.0,bus2=BBT145370950.1.2.3.0,Phases=3,Linecode=BT810_BT810_4_3_4,Length=0.039016000,Units=km
new line.10010972 bus1=BBT145370950.1.2.3.0,bus2=BBT145370957.1.2.3.0,Phases=3,Linecode=BT810_BT810_4_3_4,Length=0.039016000,Units=km
new line.10010986 bus1=BBT145369214.1.2.3.0,bus2=BBT145371090.1.2.3.0,Phases=3,Linecode=BT803_BT803_4_3_4,Length=0.042562000,Units=km
new line.10010993 bus1=BBT145371090.1.2.3.0,bus2=BBT145371097.1.2.3.0,Phases=3,Linecode=BT803_BT803_4_3_4,Length=0.043584000,Units=km
new line.10011000 bus1=BBT145371090.1.2.3.0,bus2=BBT145371104.1.2.3.0,Phases=3,Linecode=BT810_BT810_4_3_4,Length=0.034453000,Units=km
new line.10011007 bus1=BBT145371104.1.2.3.0,bus2=BBT145371111.1.2.3.0,Phases=3,Linecode=BT810_BT810_4_3_4,Length=0.033120000,Units=km
new line.10011014 bus1=BBT145371111.1.2.3.0,bus2=BBT145371118.1.2.3.0,Phases=3,Linecode=BT810_BT810_4_3_4,Length=0.032709000,Units=km
new line.10011021 bus1=BBT145370957.1.2.3.0,bus2=BBT145371125.1.2.3.0,Phases=3,Linecode=BT810_BT810_4_3_4,Length=0.032029000,Units=km
new line.10011028 bus1=BBT145371125.1.2.3.0,bus2=BBT145371132.1.2.3.0,Phases=3,Linecode=BT810_BT810_4_3_4,Length=0.028472000,Units=km
new line.10011035 bus1=BBT145371118.1.2.3.0,bus2=BBT145371139.1.2.3.0,Phases=3,Linecode=BT810_BT810_4_3_4,Length=0.027742000,Units=km
new line.10011042 bus1=BBT145371090.1.2.3.0,bus2=BBT145371146.1.2.3.0,Phases=3,Linecode=BT810_BT810_4_3_4,Length=0.035356000,Units=km
new line.10011049 bus1=BBT145371118.1.2.3.0,bus2=BBT145371153.1.2.3.0,Phases=3,Linecode=BT810_BT810_4_3_4,Length=0.050270000,Units=km
new line.10011231 bus1=BBT145369011.1.2.3.0,bus2=BBT145374765.1.2.3.0,Phases=3,Linecode=BT803_BT803_4_3_4,Length=0.031794000,Units=km
new line.10011238 bus1=BBT145369011.1.2.3.0,bus2=BBT145374779.1.2.3.0,Phases=3,Linecode=BT803_BT803_4_3_4,Length=0.032216000,Units=km
new line.10011245 bus1=BBT145374765.1.2.3.0,bus2=BBT145374786.1.2.3.0,Phases=3,Linecode=BT810_BT810_4_3_4,Length=0.045295000,Units=km
new line.10011252 bus1=BBT145374765.1.2.3.0,bus2=BBT145374793.1.2.3.0,Phases=3,Linecode=BT810_BT810_4_3_4,Length=0.033135000,Units=km
new line.10011259 bus1=BBT145374793.1.2.3.0,bus2=BBT145374800.1.2.3.0,Phases=3,Linecode=BT810_BT810_4_3_4,Length=0.033135000,Units=km
new line.10011266 bus1=BBT145374800.1.2.3.0,bus2=BBT145374807.1.2.3.0,Phases=3,Linecode=BT810_BT810_4_3_4,Length=0.033135000,Units=km
new line.10011273 bus1=BBT145374807.1.2.3.0,bus2=BBT145374814.1.2.3.0,Phases=3,Linecode=BT810_BT810_4_3_4,Length=0.045812000,Units=km
new line.10011280 bus1=BBT145374779.1.2.3.0,bus2=BBT145375962.1.2.3.0,Phases=3,Linecode=BT803_BT803_4_3_4,Length=0.030426000,Units=km
new line.10011287 bus1=BBT145375962.1.2.3.0,bus2=BBT145375969.1.2.3.0,Phases=3,Linecode=BT803_BT803_4_3_4,Length=0.030426000,Units=km
new line.10011294 bus1=BBT145375969.1.2.3.0,bus2=BBT145375976.1.2.3.0,Phases=3,Linecode=BT803_BT803_4_3_4,Length=0.030426000,Units=km
new line.10011301 bus1=BBT145375976.1.2.3.0,bus2=BBT145376025.1.2.3.0,Phases=3,Linecode=BT803_BT803_4_3_4,Length=0.031318000,Units=km
new line.10011308 bus1=BBT145376025.1.2.3.0,bus2=BBT145376032.1.2.3.0,Phases=3,Linecode=BT810_BT810_4_3_4,Length=0.033150000,Units=km
new line.10011315 bus1=BBT145374807.1.2.3.0,bus2=BBT145376039.1.2.3.0,Phases=3,Linecode=BT810_BT810_4_3_4,Length=0.033074000,Units=km
new line.10011322 bus1=BBT145374779.1.2.3.0,bus2=BBT145376046.1.2.3.0,Phases=3,Linecode=BT803_BT803_4_3_4,Length=0.036250000,Units=km
new line.1170938 bus1=BBT1266236.1.2.3.0,bus2=BBT1266229.1.2.3.0,Phases=3,Linecode=BT107_BT106_7_3_1,Length=0.030096000,Units=km
new line.1170945 bus1=BBT1266250.1.2.3.0,bus2=BBT1266236.1.2.3.0,Phases=3,Linecode=BT107_BT106_7_3_1,Length=0.028172000,Units=km
new line.1170952 bus1=BBT1266257.1.2.3.0,bus2=BBT1266243.1.2.3.0,Phases=3,Linecode=BT107_BT106_7_3_1,Length=0.035186000,Units=km
new line.1170959 bus1=BBT1266264.1.2.3.0,bus2=BBT1266348.1.2.3.0,Phases=3,Linecode=BT107_BT106_7_3_1,Length=0.026937000,Units=km
new line.1170966 bus1=BBT1266271.1.2.3.0,bus2=BBT1266341.1.2.3.0,Phases=3,Linecode=BT108_BT108_7_3_1,Length=0.029745000,Units=km
new line.1170973 bus1=BBT1266278.1.2.3.0,bus2=BBT1266271.1.2.3.0,Phases=3,Linecode=BT108_BT108_7_3_1,Length=0.034219000,Units=km
new line.1170980 bus1=BBT1266222.1.2.3.0,bus2=BBT1266278.1.2.3.0,Phases=3,Linecode=BT308_BT308_7_3_1,Length=0.000501000,Units=km
new line.1170987 bus1=BBT1266278.1.2.3.0,bus2=BBT1266285.1.2.3.0,Phases=3,Linecode=BT108_BT108_7_3_1,Length=0.032999000,Units=km
new line.1170994 bus1=BBT1266285.1.2.3.0,bus2=BBT1266334.1.2.3.0,Phases=3,Linecode=BT108_BT108_7_3_1,Length=0.027670000,Units=km
new line.1171001 bus1=BBT1266299.1.2.3.0,bus2=BBT1266292.1.2.3.0,Phases=3,Linecode=BT107_BT106_7_3_1,Length=0.034219000,Units=km
new line.1171008 bus1=BBT1266306.1.2.3.0,bus2=BBT1266320.1.2.3.0,Phases=3,Linecode=BT107_BT107_7_3_1,Length=0.036416000,Units=km
new line.1171015 bus1=BBT1266313.1.2.3.0,bus2=BBT1266327.1.2.3.0,Phases=3,Linecode=BT107_BT106_7_3_1,Length=0.028172000,Units=km
new line.1171022 bus1=BBT1266334.1.2.3.0,bus2=BBT1266299.1.2.3.0,Phases=3,Linecode=BT107_BT106_7_3_1,Length=0.007074000,Units=km
new line.1171029 bus1=BBT1266334.1.2.3.0,bus2=BBT1266306.1.2.3.0,Phases=3,Linecode=BT107_BT106_7_3_1,Length=0.005834000,Units=km
new line.1171036 bus1=BBT1266334.1.2.3.0,bus2=BBT1266313.1.2.3.0,Phases=3,Linecode=BT107_BT106_7_3_1,Length=0.020889000,Units=km
new line.1171043 bus1=BBT1266341.1.2.3.0,bus2=BBT1266250.1.2.3.0,Phases=3,Linecode=BT108_BT108_7_3_1,Length=0.006086000,Units=km
new line.1171050 bus1=BBT1266341.1.2.3.0,bus2=BBT1266257.1.2.3.0,Phases=3,Linecode=BT107_BT106_7_3_1,Length=0.007619000,Units=km
new line.1171057 bus1=BBT1266341.1.2.3.0,bus2=BBT1266264.1.2.3.0,Phases=3,Linecode=BT107_BT106_7_3_1,Length=0.017472000,Units=km
new line.1171064 bus1=BBT1266369.1.2.3.0,bus2=BBT1266362.1.2.3.0,Phases=3,Linecode=BT803_BT803_4_3_4,Length=0.038095000,Units=km
new line.1171071 bus1=BBT1266376.1.2.3.0,bus2=BBT1266369.1.2.3.0,Phases=3,Linecode=BT803_BT803_4_3_4,Length=0.031398000,Units=km
new line.1171078 bus1=BBT1266383.1.2.3.0,bus2=BBT1266376.1.2.3.0,Phases=3,Linecode=BT803_BT803_4_3_4,Length=0.038487000,Units=km
new line.1171085 bus1=BBT1266390.1.2.3.0,bus2=BBT1266383.1.2.3.0,Phases=3,Linecode=BT803_BT803_4_3_4,Length=0.034900000,Units=km
new line.1171092 bus1=BBT1266397.1.2.3.0,bus2=BBT1266390.1.2.3.0,Phases=3,Linecode=BT803_BT803_4_3_4,Length=0.034900000,Units=km
new line.1171099 bus1=BBT1266404.1.2.3.0,bus2=BBT1266397.1.2.3.0,Phases=3,Linecode=BT803_BT803_4_3_4,Length=0.036730000,Units=km
new line.1171106 bus1=BBT1266355.1.2.3.0,bus2=BBT1266404.1.2.3.0,Phases=3,Linecode=BT518_BT518_7_3_1,Length=0.000501000,Units=km
new line.1171113 bus1=BBT1266404.1.2.3.0,bus2=BBT1266411.1.2.3.0,Phases=3,Linecode=BT803_BT803_4_3_4,Length=0.034453000,Units=km
new line.1171120 bus1=BBT1266411.1.2.3.0,bus2=BBT1266418.1.2.3.0,Phases=3,Linecode=BT803_BT803_4_3_4,Length=0.037605000,Units=km
new line.1171127 bus1=BBT1266418.1.2.3.0,bus2=BBT1266425.1.2.3.0,Phases=3,Linecode=BT803_BT803_4_3_4,Length=0.035370000,Units=km
new line.1171134 bus1=BBT1266425.1.2.3.0,bus2=BBT1266432.1.2.3.0,Phases=3,Linecode=BT107_BT106_7_3_1,Length=0.035792000,Units=km
new line.1171141 bus1=BBT1266432.1.2.3.0,bus2=BBT1266439.1.2.3.0,Phases=3,Linecode=BT107_BT106_7_3_1,Length=0.031778000,Units=km
new line.1171148 bus1=BBT1266439.1.2.3.0,bus2=BBT1266446.1.2.3.0,Phases=3,Linecode=BT107_BT106_7_3_1,Length=0.039374000,Units=km
new line.1171155 bus1=BBT1266446.1.2.3.0,bus2=BBT1266453.1.2.3.0,Phases=3,Linecode=BT107_BT106_7_3_1,Length=0.029542000,Units=km
new line.1171169 bus1=BBT1266481.1.2.3.0,bus2=BBT1266467.1.2.3.0,Phases=3,Linecode=BT805_BT805_4_3_4,Length=0.028665000,Units=km
new line.1171176 bus1=BBT1266488.1.2.3.0,bus2=BBT1266474.1.2.3.0,Phases=3,Linecode=BT803_BT803_4_3_4,Length=0.027796000,Units=km
new line.1171183 bus1=BBT1266488.1.2.3.0,bus2=BBT1266481.1.2.3.0,Phases=3,Linecode=BT805_BT805_4_3_4,Length=0.027306000,Units=km
new line.1171190 bus1=BBT1266488.1.2.3.0,bus2=BBT1266502.1.2.3.0,Phases=3,Linecode=BT803_BT803_4_3_4,Length=0.012212000,Units=km
new line.1171197 bus1=BBT1266495.1.2.3.0,bus2=BBT1266488.1.2.3.0,Phases=3,Linecode=BT805_BT805_4_3_4,Length=0.005002000,Units=km
new line.1171204 bus1=BBT1266502.1.2.3.0,bus2=BBT1266530.1.2.3.0,Phases=3,Linecode=BT803_BT803_4_3_4,Length=0.031919000,Units=km
new line.1171211 bus1=BBT1266509.1.2.3.0,bus2=BBT1266495.1.2.3.0,Phases=3,Linecode=BT805_BT805_4_3_4,Length=0.034146000,Units=km
new line.1171218 bus1=BBT1266460.1.2.3.0,bus2=BBT1266509.1.2.3.0,Phases=3,Linecode=BT513_BT513_7_3_1,Length=0.000501000,Units=km
new line.1171225 bus1=BBT1266509.1.2.3.0,bus2=BBT1266523.1.2.3.0,Phases=3,Linecode=BT803_BT803_4_3_4,Length=0.028314000,Units=km
new line.1171232 bus1=BBT1266523.1.2.3.0,bus2=BBT1266537.1.2.3.0,Phases=3,Linecode=BT803_BT803_4_3_4,Length=0.029167000,Units=km
new line.1171246 bus1=BBT1266537.1.2.3.0,bus2=BBT1266544.1.2.3.0,Phases=3,Linecode=BT803_BT803_4_3_4,Length=0.005002000,Units=km
new line.1171253 bus1=BBT1266544.1.2.3.0,bus2=BBT1266516.1.2.3.0,Phases=3,Linecode=BT803_BT803_4_3_4,Length=0.035525000,Units=km
new line.1171260 bus1=BBT1266544.1.2.3.0,bus2=BBT1266551.1.2.3.0,Phases=3,Linecode=BT803_BT803_4_3_4,Length=0.006328000,Units=km
new line.1171267 bus1=BBT1266544.1.2.3.0,bus2=BBT1266558.1.2.3.0,Phases=3,Linecode=BT803_BT803_4_3_4,Length=0.034900000,Units=km
new line.1171281 bus1=BBT1267027.1.2.3.0,bus2=BBT1267034.1.2.3.0,Phases=3,Linecode=BT107_BT106_7_3_1,Length=0.036512000,Units=km
new line.1171288 bus1=BBT1266579.1.2.3.0,bus2=BBT5599467.1.2.3.0,Phases=3,Linecode=BT810_BT810_4_3_4,Length=0.040266000,Units=km
new line.1171295 bus1=BBT1266593.1.2.3.0,bus2=BBT1266572.1.2.3.0,Phases=3,Linecode=BT108_BT107_7_3_1,Length=0.035862000,Units=km
new line.1171309 bus1=BBT1266593.1.2.3.0,bus2=BBT1266579.1.2.3.0,Phases=3,Linecode=BT810_BT810_4_3_4,Length=0.036703000,Units=km
new line.1171316 bus1=BBT1266593.1.2.3.0,bus2=BBT1266607.1.2.3.0,Phases=3,Linecode=BT107_BT106_7_3_1,Length=0.026088000,Units=km
new line.1171323 bus1=BBT1266607.1.2.3.0,bus2=BBT1266600.1.2.3.0,Phases=3,Linecode=BT107_BT106_7_3_1,Length=0.029012000,Units=km
new line.1171330 bus1=BBT1266614.1.2.0,bus2=BBT1266586.1.2.0,Phases=2,Linecode=BT106_BT106_7_2_1,Length=0.026937000,Units=km
new line.1171337 bus1=BBT1266621.1.2.3.0,bus2=BBT1266635.1.2.3.0,Phases=3,Linecode=BT809_BT809_4_3_4,Length=0.016286000,Units=km
new line.1171344 bus1=BBT1266621.1.2.3.0,bus2=BBT1266642.1.2.3.0,Phases=3,Linecode=BT809_BT809_4_3_4,Length=0.030096000,Units=km
new line.1171351 bus1=BBT1266628.1.2.3.0,bus2=BBT1266593.1.2.3.0,Phases=3,Linecode=BT108_BT107_7_3_1,Length=0.016131000,Units=km
new line.1171358 bus1=BBT1266628.1.2.0,bus2=BBT1266614.1.2.0,Phases=2,Linecode=BT106_BT106_7_2_1,Length=0.016650000,Units=km
new line.1171365 bus1=BBT1266628.1.2.3.0,bus2=BBT1266621.1.2.3.0,Phases=3,Linecode=BT809_BT809_4_3_4,Length=0.005102000,Units=km
new line.1165394 bus1=BBT1260832.1.2.0,bus2=BBT1260874.1.2.0,Phases=2,Linecode=BT801_BT801_4_2_3,Length=0.039677000,Units=km
new line.1165401 bus1=BBT1260839.1.2.0,bus2=BBT1260846.1.2.0,Phases=2,Linecode=BT801_BT801_4_2_3,Length=0.032463000,Units=km
new line.1165408 bus1=BBT1260839.1.2.0,bus2=BBT1260860.1.2.0,Phases=2,Linecode=BT801_BT801_4_2_3,Length=0.040241000,Units=km
new line.1165415 bus1=BBT1260902.1.2.0,bus2=BBT152478385.1.2.0,Phases=2,Linecode=BT801_BT801_4_2_3,Length=0.035624000,Units=km
new line.1165422 bus1=BBT1260846.1.2.0,bus2=BBT1260867.1.2.0,Phases=2,Linecode=BT801_BT801_4_2_3,Length=0.038849000,Units=km
new line.1165429 bus1=BBT1260853.1.2.0,bus2=BBT1260839.1.2.0,Phases=2,Linecode=BT807_BT807_4_2_3,Length=0.029694000,Units=km
new line.1165436 bus1=BBT1260825.1.2.0,bus2=BBT1260853.1.2.0,Phases=2,Linecode=BT807_BT807_4_2_3,Length=0.000501000,Units=km
new line.1165443 bus1=BBT1260853.1.2.0,bus2=BBT1260881.1.2.0,Phases=2,Linecode=BT807_BT807_4_2_3,Length=0.029423000,Units=km
new line.1165450 bus1=BBT1260860.1.2.0,bus2=BBT1260832.1.2.0,Phases=2,Linecode=BT801_BT801_4_2_3,Length=0.040241000,Units=km
new line.1165457 bus1=BBT1260881.1.2.0,bus2=BBT1260888.1.2.0,Phases=2,Linecode=BT807_BT807_4_2_3,Length=0.030012000,Units=km
new line.1165464 bus1=BBT1260888.1.2.0,bus2=BBT1260895.1.2.0,Phases=2,Linecode=BT801_BT801_4_2_3,Length=0.040821000,Units=km
new line.1165471 bus1=BBT1260909.1.2.0,bus2=BBT1260902.1.2.0,Phases=2,Linecode=BT801_BT801_4_2_3,Length=0.034424000,Units=km
new line.1165478 bus1=BBT1260916.1.2.0,bus2=BBT1260909.1.2.0,Phases=2,Linecode=BT801_BT801_4_2_3,Length=0.031636000,Units=km
new line.1165485 bus1=BBT1260923.1.2.0,bus2=BBT1260916.1.2.0,Phases=2,Linecode=BT803_BT803_4_2_4,Length=0.046419000,Units=km
new line.1165541 bus1=BBT1260986.1.2.0,bus2=BBT1260979.1.2.0,Phases=2,Linecode=BT807_BT807_4_2_3,Length=0.043029000,Units=km
new line.1165548 bus1=BBT1260993.1.2.0,bus2=BBT1260986.1.2.0,Phases=2,Linecode=BT807_BT807_4_2_3,Length=0.035525000,Units=km
new line.1165555 bus1=BBT1260993.1.2.0,bus2=BBT1261000.1.2.0,Phases=2,Linecode=BT801_BT801_4_2_3,Length=0.040821000,Units=km
new line.1165562 bus1=BBT1261000.1.2.0,bus2=BBT1261007.1.2.0,Phases=2,Linecode=BT801_BT801_4_2_3,Length=0.039677000,Units=km
new line.1165569 bus1=BBT1261007.1.2.0,bus2=BBT1261014.1.2.0,Phases=2,Linecode=BT801_BT801_4_2_3,Length=0.033029000,Units=km
new line.1165576 bus1=BBT3185839.1.2.0,bus2=BBT149202852.1.2.0,Phases=2,Linecode=BT808_BT808_4_2_3,Length=0.038849000,Units=km
new line.1165583 bus1=BBT1260972.1.2.0,bus2=BBT1261021.1.2.0,Phases=2,Linecode=BT308_BT308_7_2_1,Length=0.000501000,Units=km
new line.1165590 bus1=BBT1261021.1.2.0,bus2=BBT1261028.1.2.0,Phases=2,Linecode=BT807_BT807_4_2_3,Length=0.027471000,Units=km
new line.1165597 bus1=BBT1261021.1.2.0,bus2=BBT1261035.1.2.0,Phases=2,Linecode=BT807_BT807_4_2_3,Length=0.035242000,Units=km
new line.1165604 bus1=BBT1261028.1.2.0,bus2=BBT1261042.1.2.0,Phases=2,Linecode=BT801_BT801_4_2_3,Length=0.043029000,Units=km
new line.1165611 bus1=BBT1261035.1.2.0,bus2=BBT1260993.1.2.0,Phases=2,Linecode=BT807_BT807_4_2_3,Length=0.037218000,Units=km
new line.1165618 bus1=BBT1261049.1.2.0,bus2=BBT1261056.1.2.0,Phases=2,Linecode=BT518_BT518_7_2_1,Length=0.000501000,Units=km
new line.1165625 bus1=BBT1261056.1.2.0,bus2=BBT1261063.1.2.0,Phases=2,Linecode=BT803_BT803_4_2_4,Length=0.034554000,Units=km
new line.1165632 bus1=BBT1261056.1.2.0,bus2=BBT1261077.1.2.0,Phases=2,Linecode=BT803_BT803_4_2_4,Length=0.035129000,Units=km
new line.1165639 bus1=BBT1261063.1.2.0,bus2=BBT1261070.1.2.0,Phases=2,Linecode=BT803_BT803_4_2_4,Length=0.033629000,Units=km
new line.1165646 bus1=BBT1261077.1.2.0,bus2=BBT1261084.1.2.0,Phases=2,Linecode=BT803_BT803_4_2_4,Length=0.034554000,Units=km
new line.1166066 bus1=BBT1261469.1.2.3.0,bus2=BBT1261476.1.2.3.0,Phases=3,Linecode=BT508_BT508_7_3_1,Length=0.000501000,Units=km
new line.1166073 bus1=BBT1261476.1.2.3.0,bus2=BBT1261483.1.2.3.0,Phases=3,Linecode=BT803_BT803_4_3_4,Length=0.026260000,Units=km
new line.1166080 bus1=BBT1261476.1.2.3.0,bus2=BBT1261532.1.2.3.0,Phases=3,Linecode=BT803_BT803_4_3_4,Length=0.028172000,Units=km
new line.1166087 bus1=BBT1261483.1.2.3.0,bus2=BBT1261490.1.2.3.0,Phases=3,Linecode=BT803_BT803_4_3_4,Length=0.032770000,Units=km
new line.1166094 bus1=BBT1261483.1.2.3.0,bus2=BBT1261567.1.2.3.0,Phases=3,Linecode=BT809_BT809_4_3_4,Length=0.037659000,Units=km
new line.1166101 bus1=BBT1261490.1.2.3.0,bus2=BBT1261497.1.2.3.0,Phases=3,Linecode=BT803_BT803_4_3_4,Length=0.036154000,Units=km
new line.1166108 bus1=BBT1261497.1.2.3.0,bus2=BBT1261504.1.2.3.0,Phases=3,Linecode=BT803_BT803_4_3_4,Length=0.035455000,Units=km
new line.1166115 bus1=BBT1261504.1.2.3.0,bus2=BBT1261511.1.2.3.0,Phases=3,Linecode=BT809_BT809_4_3_4,Length=0.035455000,Units=km
new line.1166122 bus1=BBT1261511.1.2.3.0,bus2=BBT1261518.1.2.3.0,Phases=3,Linecode=BT809_BT809_4_3_4,Length=0.025972000,Units=km
new line.1166129 bus1=BBT1261511.1.2.3.0,bus2=BBT1261525.1.2.3.0,Phases=3,Linecode=BT809_BT809_4_3_4,Length=0.037379000,Units=km
new line.1166136 bus1=BBT1261532.1.2.3.0,bus2=BBT1261539.1.2.3.0,Phases=3,Linecode=BT803_BT803_4_3_4,Length=0.030377000,Units=km
new line.1166143 bus1=BBT1261539.1.2.3.0,bus2=BBT1261546.1.2.3.0,Phases=3,Linecode=BT803_BT803_4_3_4,Length=0.036154000,Units=km
new line.1166150 bus1=BBT1261546.1.2.3.0,bus2=BBT1261553.1.2.3.0,Phases=3,Linecode=BT803_BT803_4_3_4,Length=0.037379000,Units=km
new line.1166157 bus1=BBT2247776.1.2.3.0,bus2=BBT165792400.1.2.3.0,Phases=3,Linecode=BT809_BT809_4_3_4,Length=0.035455000,Units=km
new line.1166164 bus1=BBT1261567.1.2.3.0,bus2=BBT1261574.1.2.3.0,Phases=3,Linecode=BT809_BT809_4_3_4,Length=0.033540000,Units=km
new line.1166171 bus1=BBT1261574.1.2.3.0,bus2=BBT1261581.1.2.3.0,Phases=3,Linecode=BT809_BT809_4_3_4,Length=0.031334000,Units=km
new line.1166178 bus1=BBT1261574.1.2.3.0,bus2=BBT1261595.1.2.3.0,Phases=3,Linecode=BT809_BT809_4_3_4,Length=0.027904000,Units=km
new line.1166185 bus1=BBT1261581.1.2.3.0,bus2=BBT1261588.1.2.3.0,Phases=3,Linecode=BT809_BT809_4_3_4,Length=0.034219000,Units=km
new line.1166192 bus1=BBT1261602.1.2.3.0,bus2=BBT165792404.1.2.3.0,Phases=3,Linecode=BT809_BT809_4_3_4,Length=0.029133000,Units=km
new line.1166199 bus1=BBT1261609.1.2.3.0,bus2=BBT1261602.1.2.3.0,Phases=3,Linecode=BT809_BT809_4_3_4,Length=0.031334000,Units=km
new line.1166206 bus1=BBT2247776.1.2.3.0,bus2=BBT1261609.1.2.3.0,Phases=3,Linecode=BT809_BT809_4_3_4,Length=0.031061000,Units=km
new line.1166213 bus1=BBT1261623.1.2.0,bus2=BBT1261630.1.2.0,Phases=2,Linecode=BT807_BT807_4_2_3,Length=0.041502000,Units=km
new line.1166220 bus1=BBT1261623.1.2.0,bus2=BBT1261707.1.2.0,Phases=2,Linecode=BT801_BT801_4_2_3,Length=0.041127000,Units=km
new line.1166227 bus1=BBT1261630.1.2.0,bus2=BBT1261637.1.2.0,Phases=2,Linecode=BT807_BT807_4_2_3,Length=0.032029000,Units=km
new line.1166234 bus1=BBT1261637.1.2.0,bus2=BBT1261651.1.2.0,Phases=2,Linecode=BT801_BT801_4_2_3,Length=0.034219000,Units=km
new line.1166241 bus1=BBT1261644.1.2.0,bus2=BBT1261623.1.2.0,Phases=2,Linecode=BT807_BT807_4_2_3,Length=0.040538000,Units=km
new line.1166248 bus1=BBT1261616.1.2.0,bus2=BBT1261644.1.2.0,Phases=2,Linecode=BT508_BT508_7_2_1,Length=0.000501000,Units=km
new line.1166255 bus1=BBT1261644.1.2.0,bus2=BBT1261672.1.2.0,Phases=2,Linecode=BT807_BT807_4_2_3,Length=0.039310000,Units=km
new line.1166262 bus1=BBT1261651.1.2.0,bus2=BBT1261658.1.2.0,Phases=2,Linecode=BT801_BT801_4_2_3,Length=0.033540000,Units=km
new line.10059440 bus1=BBT146851163.1.2.3.0,bus2=BBT1308425.1.2.3.0,Phases=3,Linecode=BT518_BT518_7_3_1,Length=0.000501000,Units=km
new line.10086488 bus1=BBT1352420.1.2.3.0,bus2=BBT147493679.1.2.3.0,Phases=3,Linecode=BT803_BT803_4_3_4,Length=0.030079000,Units=km
new line.10096302 bus1=BBT1280292.1.2.3.0,bus2=BBT147775457.1.2.3.0,Phases=3,Linecode=BT803_BT803_4_3_4,Length=0.044572000,Units=km
new line.10097821 bus1=BBT1378383.1.2.3.0,bus2=BBT147828475.1.2.3.0,Phases=3,Linecode=BT803_BT803_4_3_4,Length=0.032571000,Units=km
new line.10098598 bus1=BBT147863139.1.2.3.0,bus2=BBT1269337.1.2.3.0,Phases=3,Linecode=BT518_BT518_7_3_1,Length=0.000501000,Units=km
new line.10098633 bus1=BBT6010759.1.2.3.0,bus2=BBT147866548.1.2.3.0,Phases=3,Linecode=BT803_BT803_4_3_4,Length=0.036635000,Units=km
new line.10098640 bus1=BBT6010752.1.2.3.0,bus2=BBT147866751.1.2.3.0,Phases=3,Linecode=BT803_BT803_4_3_4,Length=0.037231000,Units=km
new line.10098647 bus1=BBT147866548.1.2.3.0,bus2=BBT147866954.1.2.3.0,Phases=3,Linecode=BT803_BT803_4_3_4,Length=0.038343000,Units=km
new line.10100061 bus1=BBT147895325.1.2.3.0,bus2=BBT147895479.1.2.3.0,Phases=3,Linecode=BT803_BT803_4_3_4,Length=0.037231000,Units=km
new line.1176335 bus1=BBT1271801.1.2.3.0,bus2=BBT1271822.1.2.3.0,Phases=3,Linecode=BT809_BT809_4_3_4,Length=0.039828000,Units=km
new line.1176342 bus1=BBT1271815.1.2.3.0,bus2=BBT1271829.1.2.3.0,Phases=3,Linecode=BT809_BT809_4_3_4,Length=0.029627000,Units=km
new line.1176356 bus1=BBT1271850.1.2.3.0,bus2=BBT1271843.1.2.3.0,Phases=3,Linecode=BT810_BT810_4_3_4,Length=0.037123000,Units=km
new line.1176363 bus1=BBT1271857.1.2.3.0,bus2=BBT1271850.1.2.3.0,Phases=3,Linecode=BT810_BT810_4_3_4,Length=0.032029000,Units=km
new line.1176370 bus1=BBT2252088.1.2.3.0,bus2=BBT1271871.1.2.3.0,Phases=3,Linecode=BT803_BT803_4_3_4,Length=0.028804000,Units=km
new line.1176377 bus1=BBT1271878.1.2.3.0,bus2=BBT1271864.1.2.3.0,Phases=3,Linecode=BT805_BT805_4_3_4,Length=0.032770000,Units=km
new line.1176384 bus1=BBT1271885.1.2.3.0,bus2=BBT1271857.1.2.3.0,Phases=3,Linecode=BT810_BT810_4_3_4,Length=0.036703000,Units=km
new line.1176391 bus1=BBT1271885.1.2.3.0,bus2=BBT1271878.1.2.3.0,Phases=3,Linecode=BT805_BT805_4_3_4,Length=0.032262000,Units=km
new line.1176398 bus1=BBT1271871.1.2.3.0,bus2=BBT167011540.1.2.3.0,Phases=3,Linecode=BT803_BT803_4_3_4,Length=0.035862000,Units=km
new line.1176405 bus1=BBT1271899.1.2.3.0,bus2=BBT1271885.1.2.3.0,Phases=3,Linecode=BT805_BT805_4_3_4,Length=0.034146000,Units=km
new line.1176412 bus1=BBT1271836.1.2.3.0,bus2=BBT1271899.1.2.3.0,Phases=3,Linecode=BT513_BT513_7_3_1,Length=0.000501000,Units=km
new line.1176419 bus1=BBT1271899.1.2.3.0,bus2=BBT1271906.1.2.3.0,Phases=3,Linecode=BT805_BT805_4_3_4,Length=0.011185000,Units=km
new line.1176426 bus1=BBT1271906.1.2.3.0,bus2=BBT1271892.1.2.3.0,Phases=3,Linecode=BT805_BT805_4_3_4,Length=0.015818000,Units=km
new line.1176433 bus1=BBT1271906.1.2.3.0,bus2=BBT1271913.1.2.3.0,Phases=3,Linecode=BT805_BT805_4_3_4,Length=0.018365000,Units=km
new line.1176440 bus1=BBT1271906.1.2.3.0,bus2=BBT1271920.1.2.3.0,Phases=3,Linecode=BT805_BT805_4_3_4,Length=0.018796000,Units=km
new line.1176447 bus1=BBT1271913.1.2.3.0,bus2=BBT1271927.1.2.3.0,Phases=3,Linecode=BT805_BT805_4_3_4,Length=0.030012000,Units=km
new line.1176454 bus1=BBT1271948.1.2.3.0,bus2=BBT1271941.1.2.3.0,Phases=3,Linecode=BT108_BT108_7_3_1,Length=0.033255000,Units=km
new line.1176461 bus1=BBT1271955.1.2.3.0,bus2=BBT1271948.1.2.3.0,Phases=3,Linecode=BT108_BT108_7_3_1,Length=0.030884000,Units=km
new line.1176468 bus1=BBT1271934.1.2.3.0,bus2=BBT1271955.1.2.3.0,Phases=3,Linecode=BT307_BT307_7_3_1,Length=0.000501000,Units=km
new line.1176475 bus1=BBT1271955.1.2.3.0,bus2=BBT1271962.1.2.3.0,Phases=3,Linecode=BT108_BT108_7_3_1,Length=0.042172000,Units=km
new line.1176482 bus1=BBT1271962.1.2.3.0,bus2=BBT1271969.1.2.3.0,Phases=3,Linecode=BT108_BT108_7_3_1,Length=0.019807000,Units=km
new line.1176489 bus1=BBT1271990.1.2.3.0,bus2=BBT1271983.1.2.3.0,Phases=3,Linecode=BT106_BT106_7_3_1,Length=0.034554000,Units=km
new line.1176496 bus1=BBT1271997.1.2.3.0,bus2=BBT1271990.1.2.3.0,Phases=3,Linecode=BT106_BT106_7_3_1,Length=0.037712000,Units=km
new line.1176503 bus1=BBT1272004.1.2.3.0,bus2=BBT1271997.1.2.3.0,Phases=3,Linecode=BT107_BT107_7_3_1,Length=0.034900000,Units=km
new line.1176510 bus1=BBT1272011.1.2.3.0,bus2=BBT1272004.1.2.3.0,Phases=3,Linecode=BT107_BT107_7_3_1,Length=0.036264000,Units=km
new line.1176517 bus1=BBT1272018.1.2.3.0,bus2=BBT1272011.1.2.3.0,Phases=3,Linecode=BT108_BT107_7_3_1,Length=0.035356000,Units=km
new line.1176524 bus1=BBT1272025.1.2.3.0,bus2=BBT1272018.1.2.3.0,Phases=3,Linecode=BT108_BT107_7_3_1,Length=0.035862000,Units=km
new line.1176531 bus1=BBT1271976.1.2.3.0,bus2=BBT1272025.1.2.3.0,Phases=3,Linecode=BT521_BT521_7_3_1,Length=0.000501000,Units=km
new line.1176538 bus1=BBT1272025.1.2.3.0,bus2=BBT1272032.1.2.3.0,Phases=3,Linecode=BT108_BT107_7_3_1,Length=0.035356000,Units=km
new line.1176545 bus1=BBT1272032.1.2.3.0,bus2=BBT1272039.1.2.3.0,Phases=3,Linecode=BT108_BT107_7_3_1,Length=0.037712000,Units=km
new line.1176552 bus1=BBT1272032.1.2.3.0,bus2=BBT1272053.1.2.3.0,Phases=3,Linecode=BT108_BT107_7_3_1,Length=0.030884000,Units=km
new line.1176559 bus1=BBT1272039.1.2.3.0,bus2=BBT1272046.1.2.3.0,Phases=3,Linecode=BT108_BT107_7_3_1,Length=0.040328000,Units=km
new line.1176566 bus1=BBT1272046.1.2.3.0,bus2=BBT1272060.1.2.3.0,Phases=3,Linecode=BT106_BT106_7_3_1,Length=0.033120000,Units=km
new line.1176573 bus1=BBT1272053.1.2.3.0,bus2=BBT1272074.1.2.3.0,Phases=3,Linecode=BT107_BT107_7_3_1,Length=0.036785000,Units=km
new line.1176580 bus1=BBT1272060.1.2.3.0,bus2=BBT1272067.1.2.3.0,Phases=3,Linecode=BT106_BT106_7_3_1,Length=0.034029000,Units=km
new line.1176587 bus1=BBT1272067.1.2.3.0,bus2=BBT1272081.1.2.3.0,Phases=3,Linecode=BT106_BT106_7_3_1,Length=0.039941000,Units=km
new line.1176594 bus1=BBT1272074.1.2.3.0,bus2=BBT1272095.1.2.3.0,Phases=3,Linecode=BT809_BT809_4_3_4,Length=0.035356000,Units=km
new line.1176608 bus1=BBT119486630.1.2.3.0,bus2=BBT172617510.1.2.3.0,Phases=3,Linecode=BT803_BT803_4_3_4,Length=0.043342000,Units=km
new line.1176615 bus1=BBT1272123.1.2.3.0,bus2=BBT1272116.1.2.3.0,Phases=3,Linecode=BT107_BT106_7_3_1,Length=0.027796000,Units=km
new line.1176622 bus1=BBT1272144.1.2.3.0,bus2=BBT1272123.1.2.3.0,Phases=3,Linecode=BT107_BT106_7_3_1,Length=0.032770000,Units=km
new line.1176629 bus1=BBT1272151.1.2.3.0,bus2=BBT1272137.1.2.3.0,Phases=3,Linecode=BT108_BT107_7_3_1,Length=0.028665000,Units=km
new line.1176636 bus1=BBT1272151.1.2.3.0,bus2=BBT1272144.1.2.3.0,Phases=3,Linecode=BT107_BT106_7_3_1,Length=0.023031000,Units=km
new line.1176643 bus1=BBT1272151.1.2.3.0,bus2=BBT1272165.1.2.3.0,Phases=3,Linecode=BT107_BT106_7_3_1,Length=0.009853000,Units=km
new line.1176650 bus1=BBT1272158.1.2.3.0,bus2=BBT1272130.1.2.3.0,Phases=3,Linecode=BT107_BT106_7_3_1,Length=0.029627000,Units=km
new line.1176657 bus1=BBT1272172.1.2.3.0,bus2=BBT1272151.1.2.3.0,Phases=3,Linecode=BT108_BT107_7_3_1,Length=0.005002000,Units=km
new line.1176664 bus1=BBT1272179.1.2.3.0,bus2=BBT1272172.1.2.3.0,Phases=3,Linecode=BT108_BT107_7_3_1,Length=0.029694000,Units=km
new line.1176671 bus1=BBT1272186.1.2.3.0,bus2=BBT1272158.1.2.3.0,Phases=3,Linecode=BT107_BT106_7_3_1,Length=0.031794000,Units=km
new line.1176678 bus1=BBT1272193.1.2.3.0,bus2=BBT1272179.1.2.3.0,Phases=3,Linecode=BT108_BT107_7_3_1,Length=0.030029000,Units=km
new line.1171372 bus1=BBT1266642.1.2.3.0,bus2=BBT1266705.1.2.3.0,Phases=3,Linecode=BT809_BT809_4_3_4,Length=0.033255000,Units=km
new line.1171379 bus1=BBT1266649.1.2.3.0,bus2=BBT1266628.1.2.3.0,Phases=3,Linecode=BT805_BT805_4_3_4,Length=0.034146000,Units=km
new line.1171386 bus1=BBT1266565.1.2.3.0,bus2=BBT1266649.1.2.3.0,Phases=3,Linecode=BT513_BT513_7_3_1,Length=0.000501000,Units=km