! manter este comentario para compatibilidade do C#
new circuit.alimSRS10 bus1=BMT166719754.1.2.3,basekv=13.800000000,pu=1.040000000