new line.RML10035325 bus1=BBT4463242.1.2.0,bus2=RML1060035325.1.2.0,Phases=2,Linecode=CABBTG05_4_2,Length=0.017000000,Units=km
new line.RML10035380 bus1=BBT1645539.1.2.0,bus2=RML1060035380.1.2.0,Phases=2,Linecode=CABBTG05_4_2,Length=0.017000000,Units=km
new line.RML10035405 bus1=BBT2805796.1.2.0,bus2=RML1060035405.1.2.0,Phases=2,Linecode=CABBTG05_4_2,Length=0.017000000,Units=km
new line.RML10035407 bus1=BBT2805761.1.2.0,bus2=RML1060035407.1.2.0,Phases=2,Linecode=CABBTG05_4_2,Length=0.017000000,Units=km
new line.RML10035420 bus1=BBT2805761.1.2.0,bus2=RML1060035420.1.2.0,Phases=2,Linecode=CABBTG05_4_2,Length=0.017000000,Units=km
new line.RML10035570 bus1=BBT4145232.1.2.0,bus2=RML1060035570.1.2.0,Phases=2,Linecode=CABBTG05_4_2,Length=0.017000000,Units=km
new line.RML10035573 bus1=BBT4145232.1.2.0,bus2=RML1060035573.1.2.0,Phases=2,Linecode=CABBTG05_4_2,Length=0.017000000,Units=km
new line.RML10035575 bus1=BBT4145225.1.2.0,bus2=RML1060035575.1.2.0,Phases=2,Linecode=CABBTG05_4_2,Length=0.017000000,Units=km
new line.RML10035581 bus1=BBT133024245.1.2.0,bus2=RML1060035581.1.2.0,Phases=2,Linecode=CABBTG05_4_2,Length=0.017000000,Units=km
new line.RML10035582 bus1=BBT3128181.1.2.0,bus2=RML1060035582.1.2.0,Phases=2,Linecode=CABBTG05_4_2,Length=0.017000000,Units=km
new line.RML10035586 bus1=BBT3611279.1.2.0,bus2=RML1060035586.1.2.0,Phases=2,Linecode=CABBTG05_4_2,Length=0.017000000,Units=km
new line.RML10035595 bus1=BBT101240241.1.2.0,bus2=RML1060035595.1.2.0,Phases=2,Linecode=CABBTG04_4_2,Length=0.017000000,Units=km
new line.RML10035600 bus1=BBT4909324.1.2.0,bus2=RML1060035600.1.2.0,Phases=2,Linecode=CABBTG04_4_2,Length=0.017000000,Units=km
new line.RML10035605 bus1=BBT3263869.1.0,bus2=RML1060035605.1.0,Phases=1,Linecode=CABBTG02_4_1,Length=0.017000000,Units=km
new line.RML10047054 bus1=BBT136312796.2.3.0,bus2=RML1060047054.2.3.0,Phases=2,Linecode=CABBTG04_4_2,Length=0.017000000,Units=km
new line.RML10047055 bus1=BBT136312796.2.3.0,bus2=RML1060047055.2.3.0,Phases=2,Linecode=CABBTG04_4_2,Length=0.017000000,Units=km
new line.RML10047065 bus1=BBT136015275.1.2.0,bus2=RML1060047065.1.2.0,Phases=2,Linecode=CABBTG05_4_2,Length=0.017000000,Units=km
new line.RML10048532 bus1=BBT3831919.1.0,bus2=RML1060048532.1.0,Phases=1,Linecode=CABBTG02_4_1,Length=0.017000000,Units=km
new line.RML10048534 bus1=BBT1749482.1.2.0,bus2=RML1060048534.1.2.0,Phases=2,Linecode=CABBTG05_4_2,Length=0.017000000,Units=km
new line.RML10048535 bus1=BBT136312803.2.3.0,bus2=RML1060048535.2.3.0,Phases=2,Linecode=CABBTG05_4_2,Length=0.017000000,Units=km
new line.RML10085706 bus1=BBT2788247.1.2.0,bus2=RML1060085706.1.2.0,Phases=2,Linecode=CABBTG05_4_2,Length=0.017000000,Units=km
new line.RML10085784 bus1=BBT2676114.1.2.0,bus2=RML1060085784.1.2.0,Phases=2,Linecode=CABBTG05_4_2,Length=0.017000000,Units=km
new line.RML10085846 bus1=BBT1750140.1.2.0,bus2=RML1060085846.1.2.0,Phases=2,Linecode=CABBTG05_4_2,Length=0.017000000,Units=km
new line.RML10086915 bus1=BBT4909324.1.0,bus2=RML1060086915.1.0,Phases=1,Linecode=CABBTG02_4_1,Length=0.017000000,Units=km
new line.RML10087127 bus1=BBT85831484.1.2.0,bus2=RML1060087127.1.2.0,Phases=2,Linecode=CABBTG05_4_2,Length=0.017000000,Units=km
new line.RML10089254 bus1=BBT145889531.1.2.0,bus2=RML1060089254.1.2.0,Phases=2,Linecode=CABBTG05_4_2,Length=0.017000000,Units=km
new line.RML10089308 bus1=BBT132796066.1.0,bus2=RML1060089308.1.0,Phases=1,Linecode=CABBTG02_4_1,Length=0.017000000,Units=km
new line.RML10091848 bus1=BBT134721717.1.2.0,bus2=RML1060091848.1.2.0,Phases=2,Linecode=CABBTG05_4_2,Length=0.017000000,Units=km
new line.RML10091854 bus1=BBT134721717.1.0,bus2=RML1060091854.1.0,Phases=1,Linecode=CABBTG02_4_1,Length=0.017000000,Units=km
new line.RML10091857 bus1=BBT134721717.2.0,bus2=RML1060091857.2.0,Phases=1,Linecode=CABBTG02_4_1,Length=0.017000000,Units=km
new line.RML10091955 bus1=BBT4647951.1.2.0,bus2=RML1060091955.1.2.0,Phases=2,Linecode=CABBTG04_4_2,Length=0.017000000,Units=km
new line.RML10100649 bus1=BBT3077389.1.2.0,bus2=RML1060100649.1.2.0,Phases=2,Linecode=CABBTG04_4_2,Length=0.017000000,Units=km
new line.RML10101927 bus1=BBT3130575.1.0,bus2=RML1060101927.1.0,Phases=1,Linecode=CABBTG02_4_1,Length=0.017000000,Units=km
new line.RML10102977 bus1=BBT1677802.1.0,bus2=RML1060102977.1.0,Phases=1,Linecode=CABBTG02_4_1,Length=0.017000000,Units=km
new line.RML10105410 bus1=BBT1678537.1.2.3.0,bus2=RML1060105410.1.2.3.0,Phases=3,Linecode=CABBTG06_4_3,Length=0.017000000,Units=km
new line.RML10105417 bus1=BBT2614976.1.0,bus2=RML1060105417.1.0,Phases=1,Linecode=CABBTG02_4_1,Length=0.017000000,Units=km
new line.RML10105421 bus1=BBT2993697.1.0,bus2=RML1060105421.1.0,Phases=1,Linecode=CABBTG02_4_1,Length=0.017000000,Units=km
new line.RML10105780 bus1=BBT136312803.3.0,bus2=RML1060105780.3.0,Phases=1,Linecode=CABBTG02_4_1,Length=0.017000000,Units=km
new line.RML10105885 bus1=BBT2614850.1.2.0,bus2=RML1060105885.1.2.0,Phases=2,Linecode=CABBTG05_4_2,Length=0.017000000,Units=km
new line.RML10105886 bus1=BBT1676199.1.0,bus2=RML1060105886.1.0,Phases=1,Linecode=CABBTG02_4_1,Length=0.017000000,Units=km
new line.RML10105888 bus1=BBT1676199.1.2.0,bus2=RML1060105888.1.2.0,Phases=2,Linecode=CABBTG05_4_2,Length=0.017000000,Units=km
new line.RML10106168 bus1=BBT1734558.3.0,bus2=RML1060106168.3.0,Phases=1,Linecode=CABBTG02_4_1,Length=0.017000000,Units=km
new line.RML10108661 bus1=BBT149536817.1.2.0,bus2=RML1060108661.1.2.0,Phases=2,Linecode=CABBT807_4_2,Length=0.017000000,Units=km
new line.RML10112119 bus1=BBT1749342.1.3.0,bus2=RML1060112119.1.3.0,Phases=2,Linecode=CABBTG05_4_2,Length=0.017000000,Units=km
new line.RML10113242 bus1=BBT61314943.2.0,bus2=RML1060113242.2.0,Phases=1,Linecode=CABBTG02_4_1,Length=0.017000000,Units=km
new line.RML10120384 bus1=BBT2993704.1.2.0,bus2=RML1060120384.1.2.0,Phases=2,Linecode=CABBTG05_4_2,Length=0.017000000,Units=km
new line.RML10138849 bus1=BBT3129644.1.2.3.0,bus2=RML1060138849.1.2.3.0,Phases=3,Linecode=CABBTG06_4_3,Length=0.017000000,Units=km
new line.RML10139597 bus1=BBT1677074.1.2.3.0,bus2=RML1060139597.1.2.3.0,Phases=3,Linecode=CABBTG06_4_3,Length=0.017000000,Units=km
new line.RML10142162 bus1=BBT1680315.1.2.3.0,bus2=RML1060142162.1.2.3.0,Phases=3,Linecode=CABBTG06_4_3,Length=0.017000000,Units=km
new line.RML10143299 bus1=BBT2811165.1.2.0,bus2=RML1060143299.1.2.0,Phases=2,Linecode=CABBTG05_4_2,Length=0.017000000,Units=km
new line.RML10146319 bus1=BBT149815413.1.2.0,bus2=RML1060146319.1.2.0,Phases=2,Linecode=CABBTG05_4_2,Length=0.017000000,Units=km
new line.RML10147991 bus1=BBT1679811.1.2.0,bus2=RML1060147991.1.2.0,Phases=2,Linecode=CABBTG05_4_2,Length=0.017000000,Units=km
new line.RML10148336 bus1=BBT1679587.3.0,bus2=RML1060148336.3.0,Phases=1,Linecode=CABBTG02_4_1,Length=0.017000000,Units=km
new line.RML10148339 bus1=BBT1678726.1.0,bus2=RML1060148339.1.0,Phases=1,Linecode=CABBTG01_4_1,Length=0.017000000,Units=km
new line.RML10148343 bus1=BBT1757588.2.0,bus2=RML1060148343.2.0,Phases=1,Linecode=CABBTG02_4_1,Length=0.017000000,Units=km
new line.RML10148348 bus1=BBT1678103.2.0,bus2=RML1060148348.2.0,Phases=1,Linecode=CABBTG02_4_1,Length=0.017000000,Units=km
new line.RML10148352 bus1=BBT1698669.1.2.0,bus2=RML1060148352.1.2.0,Phases=2,Linecode=CABBTG13_4_2,Length=0.017000000,Units=km
new line.RML10170356 bus1=BBT148657745.1.2.0,bus2=RML1060170356.1.2.0,Phases=2,Linecode=CABBTG05_4_2,Length=0.017000000,Units=km
new line.RML10173916 bus1=BBT1740102.1.0,bus2=RML1060173916.1.0,Phases=1,Linecode=CABBTG02_4_1,Length=0.017000000,Units=km
new line.RML10173917 bus1=BBT2788261.1.2.0,bus2=RML1060173917.1.2.0,Phases=2,Linecode=CABBTG05_4_2,Length=0.017000000,Units=km
new line.RML10173920 bus1=BBT2788261.1.2.0,bus2=RML1060173920.1.2.0,Phases=2,Linecode=CABBTG05_4_2,Length=0.017000000,Units=km
new line.RML10173923 bus1=BBT1676339.1.0,bus2=RML1060173923.1.0,Phases=1,Linecode=CABBTG02_4_1,Length=0.017000000,Units=km
new line.RML10173928 bus1=BBT1749328.1.2.0,bus2=RML1060173928.1.2.0,Phases=2,Linecode=CABBTG05_4_2,Length=0.017000000,Units=km
new line.RML10173930 bus1=BBT2993704.1.2.3.0,bus2=RML1060173930.1.2.3.0,Phases=3,Linecode=CABBTG06_4_3,Length=0.017000000,Units=km
new line.RML10173933 bus1=BBT1749342.1.2.0,bus2=RML1060173933.1.2.0,Phases=2,Linecode=CABBTG05_4_2,Length=0.017000000,Units=km
new line.RML10173937 bus1=BBT1675569.1.2.0,bus2=RML1060173937.1.2.0,Phases=2,Linecode=CABBTG05_4_2,Length=0.017000000,Units=km
new line.RML10174815 bus1=BBT1679783.1.2.0,bus2=RML1060174815.1.2.0,Phases=2,Linecode=CABBTG05_4_2,Length=0.017000000,Units=km
new line.RML10183417 bus1=BBT2668792.1.2.3.0,bus2=RML1060183417.1.2.3.0,Phases=3,Linecode=CABBTG12_4_3,Length=0.017000000,Units=km
new line.RML10185300 bus1=BBT150288108.1.2.3.0,bus2=RML1060185300.1.2.3.0,Phases=3,Linecode=CABBT813_4_3,Length=0.017000000,Units=km
new line.RML10187875 bus1=BBT150288108.1.2.3.0,bus2=RML1060187875.1.2.3.0,Phases=3,Linecode=CABBTG11_4_3,Length=0.017000000,Units=km
new line.RML10190545 bus1=BBT1749552.1.2.0,bus2=RML1060190545.1.2.0,Phases=2,Linecode=CABBTG05_4_2,Length=0.017000000,Units=km
new line.RML10190547 bus1=BBT1677648.1.2.0,bus2=RML1060190547.1.2.0,Phases=2,Linecode=CABBTG05_4_2,Length=0.017000000,Units=km
new line.RML10196852 bus1=BBT1749573.1.0,bus2=RML1060196852.1.0,Phases=1,Linecode=CABBTG02_4_1,Length=0.017000000,Units=km
new line.RML10204462 bus1=BBT1753913.1.2.0,bus2=RML1060204462.1.2.0,Phases=2,Linecode=CABBTG05_4_2,Length=0.017000000,Units=km
new line.RML10204591 bus1=BBT1679125.3.0,bus2=RML1060204591.3.0,Phases=1,Linecode=CABBTG02_4_1,Length=0.017000000,Units=km
new line.RML10204835 bus1=BBT2788268.1.0,bus2=RML1060204835.1.0,Phases=1,Linecode=CABBTG02_4_1,Length=0.017000000,Units=km
new line.RML10207117 bus1=BBT4647951.1.0,bus2=RML1060207117.1.0,Phases=1,Linecode=CABBTG02_4_1,Length=0.017000000,Units=km
new line.RML10211988 bus1=BBT107455982.1.0,bus2=RML1060211988.1.0,Phases=1,Linecode=CABBTG02_4_1,Length=0.017000000,Units=km
new line.RML10216231 bus1=BBT4394138.1.2.0,bus2=RML1060216231.1.2.0,Phases=2,Linecode=CABBTG05_4_2,Length=0.017000000,Units=km
new line.RML10217267 bus1=BBT144757764.1.0,bus2=RML1060217267.1.0,Phases=1,Linecode=CABBTG02_4_1,Length=0.017000000,Units=km
new line.RML10217268 bus1=BBT1749531.1.2.3.0,bus2=RML1060217268.1.2.3.0,Phases=3,Linecode=CABBTG06_4_3,Length=0.017000000,Units=km
new line.RML10217269 bus1=BBT144758072.2.3.0,bus2=RML1060217269.2.3.0,Phases=2,Linecode=CABBTG05_4_2,Length=0.017000000,Units=km
new line.RML10217270 bus1=BBT144758219.2.3.0,bus2=RML1060217270.2.3.0,Phases=2,Linecode=CABBTG05_4_2,Length=0.017000000,Units=km
new line.RML10217271 bus1=BBT144758254.1.2.0,bus2=RML1060217271.1.2.0,Phases=2,Linecode=CABBTG05_4_2,Length=0.017000000,Units=km
new line.RML10217272 bus1=BBT2750895.2.3.0,bus2=RML1060217272.2.3.0,Phases=2,Linecode=CABBTG05_4_2,Length=0.017000000,Units=km
new line.RML10220230 bus1=BBT1675814.1.2.0,bus2=RML1060220230.1.2.0,Phases=2,Linecode=CABBTG05_4_2,Length=0.017000000,Units=km
new line.RML10220715 bus1=BBT1680364.1.2.3.0,bus2=RML1060220715.1.2.3.0,Phases=3,Linecode=CABBTG10_4_3,Length=0.017000000,Units=km
new line.RML10225640 bus1=BBT1680763.1.2.0,bus2=RML1060225640.1.2.0,Phases=2,Linecode=CABBTG05_4_2,Length=0.017000000,Units=km
new line.RML10225691 bus1=BBT2788156.1.2.0,bus2=RML1060225691.1.2.0,Phases=2,Linecode=CABBTG05_4_2,Length=0.017000000,Units=km
new line.RML10226059 bus1=BBT1681855.1.2.3.0,bus2=RML1060226059.1.2.3.0,Phases=3,Linecode=CABBTG06_4_3,Length=0.017000000,Units=km
new line.RML10228501 bus1=BBT96938083.1.2.0,bus2=RML1060228501.1.2.0,Phases=2,Linecode=CABBTG05_4_2,Length=0.017000000,Units=km
new line.RML10228509 bus1=BBT1680119.1.2.3.0,bus2=RML1060228509.1.2.3.0,Phases=3,Linecode=CABBTG06_4_3,Length=0.017000000,Units=km
new line.RML10228551 bus1=BBT4145232.1.2.0,bus2=RML1060228551.1.2.0,Phases=2,Linecode=CABBTG05_4_2,Length=0.017000000,Units=km
new line.RML10228790 bus1=BBT1682128.1.2.3.0,bus2=RML1060228790.1.2.3.0,Phases=3,Linecode=CABBTG06_4_3,Length=0.017000000,Units=km
new line.RML10229216 bus1=BBT1645819.1.2.0,bus2=RML1060229216.1.2.0,Phases=2,Linecode=CABBTG05_4_2,Length=0.017000000,Units=km
new line.RML10231165 bus1=BBT1679293.2.0,bus2=RML1060231165.2.0,Phases=1,Linecode=CABBTG01_4_1,Length=0.017000000,Units=km
new line.RML10231169 bus1=BBT1749370.1.2.0,bus2=RML1060231169.1.2.0,Phases=2,Linecode=CABBTG04_4_2,Length=0.017000000,Units=km
new line.RML10231175 bus1=BBT1676339.1.2.0,bus2=RML1060231175.1.2.0,Phases=2,Linecode=CABBTG04_4_2,Length=0.017000000,Units=km
new line.RML10231184 bus1=BBT1680735.1.0,bus2=RML1060231184.1.0,Phases=1,Linecode=CABBTG02_4_1,Length=0.017000000,Units=km
new line.RML10231185 bus1=BBT1676339.1.2.0,bus2=RML1060231185.1.2.0,Phases=2,Linecode=CABBTG05_4_2,Length=0.017000000,Units=km
new line.RML10231220 bus1=BBT1749496.1.0,bus2=RML1060231220.1.0,Phases=1,Linecode=CABBTG02_4_1,Length=0.017000000,Units=km
new line.RML10231223 bus1=BBT2614913.1.2.0,bus2=RML1060231223.1.2.0,Phases=2,Linecode=CABBTG05_4_2,Length=0.017000000,Units=km
new line.RML10231255 bus1=BBT96938083.1.0,bus2=RML1060231255.1.0,Phases=1,Linecode=CABBTG02_4_1,Length=0.017000000,Units=km
new line.RML10231259 bus1=BBT1676339.1.2.0,bus2=RML1060231259.1.2.0,Phases=2,Linecode=CABBTG05_4_2,Length=0.017000000,Units=km
new line.RML10231260 bus1=BBT1681379.1.2.0,bus2=RML1060231260.1.2.0,Phases=2,Linecode=CABBTG05_4_2,Length=0.017000000,Units=km
new line.RML10231264 bus1=BBT1754053.1.2.0,bus2=RML1060231264.1.2.0,Phases=2,Linecode=CABBTG05_4_2,Length=0.017000000,Units=km
new line.RML10231324 bus1=BBT4030852.2.3.0,bus2=RML1060231324.2.3.0,Phases=2,Linecode=CABBTG05_4_2,Length=0.017000000,Units=km
new line.RML10231328 bus1=BBT1749573.1.0,bus2=RML1060231328.1.0,Phases=1,Linecode=CABBTG02_4_1,Length=0.017000000,Units=km
new line.RML10231345 bus1=BBT1680595.1.2.0,bus2=RML1060231345.1.2.0,Phases=2,Linecode=CABBTG05_4_2,Length=0.017000000,Units=km
new line.RML10231355 bus1=BBT3221309.2.0,bus2=RML1060231355.2.0,Phases=1,Linecode=CABBTG02_4_1,Length=0.017000000,Units=km
new line.RML10231447 bus1=BBT1676353.2.3.0,bus2=RML1060231447.2.3.0,Phases=2,Linecode=CABBTG05_4_2,Length=0.017000000,Units=km
new line.RML10231450 bus1=BBT2993641.2.3.0,bus2=RML1060231450.2.3.0,Phases=2,Linecode=CABBTG05_4_2,Length=0.017000000,Units=km
new line.RML10231454 bus1=BBT3221309.3.0,bus2=RML1060231454.3.0,Phases=1,Linecode=CABBTG02_4_1,Length=0.017000000,Units=km
new line.RML10231456 bus1=BBT1679342.2.0,bus2=RML1060231456.2.0,Phases=1,Linecode=CABBTG02_4_1,Length=0.017000000,Units=km
new line.RML10231467 bus1=BBT136312796.1.3.0,bus2=RML1060231467.1.3.0,Phases=2,Linecode=CABBTG05_4_2,Length=0.017000000,Units=km
new line.RML10231470 bus1=BBT3831919.1.0,bus2=RML1060231470.1.0,Phases=1,Linecode=CABBTG02_4_1,Length=0.017000000,Units=km
new line.RML10231474 bus1=BBT3831919.2.0,bus2=RML1060231474.2.0,Phases=1,Linecode=CABBTG02_4_1,Length=0.017000000,Units=km
new line.RML10231478 bus1=BBT136312803.2.3.0,bus2=RML1060231478.2.3.0,Phases=2,Linecode=CABBTG05_4_2,Length=0.017000000,Units=km
new line.RML10231482 bus1=BBT136015275.1.2.0,bus2=RML1060231482.1.2.0,Phases=2,Linecode=CABBTG05_4_2,Length=0.017000000,Units=km
new line.RML10231484 bus1=BBT136015275.1.2.0,bus2=RML1060231484.1.2.0,Phases=2,Linecode=CABBTG05_4_2,Length=0.017000000,Units=km
new line.RML10231486 bus1=BBT1749461.1.2.0,bus2=RML1060231486.1.2.0,Phases=2,Linecode=CABBTG05_4_2,Length=0.017000000,Units=km
new line.RML10231487 bus1=BBT1749454.2.0,bus2=RML1060231487.2.0,Phases=1,Linecode=CABBTG02_4_1,Length=0.017000000,Units=km
new line.RML10231488 bus1=BBT3077389.2.3.0,bus2=RML1060231488.2.3.0,Phases=2,Linecode=CABBTG05_4_2,Length=0.017000000,Units=km
new line.RML10231493 bus1=BBT3221316.1.0,bus2=RML1060231493.1.0,Phases=1,Linecode=CABBTG02_4_1,Length=0.017000000,Units=km
new line.RML10231618 bus1=BBT3077410.1.2.0,bus2=RML1060231618.1.2.0,Phases=2,Linecode=CABBTG05_4_2,Length=0.017000000,Units=km
new line.RML10231621 bus1=BBT3221316.1.2.0,bus2=RML1060231621.1.2.0,Phases=2,Linecode=CABBTG05_4_2,Length=0.017000000,Units=km
new line.RML10231636 bus1=BBT2993662.1.2.0,bus2=RML1060231636.1.2.0,Phases=2,Linecode=CABBTG04_4_2,Length=0.017000000,Units=km
new line.RML10231641 bus1=BBT147936583.1.3.0,bus2=RML1060231641.1.3.0,Phases=2,Linecode=CABBTG04_4_2,Length=0.017000000,Units=km
new line.RML10231644 bus1=BBT1681855.1.0,bus2=RML1060231644.1.0,Phases=1,Linecode=CABBTG01_4_1,Length=0.017000000,Units=km
new line.RML10231650 bus1=BBT1679370.1.3.0,bus2=RML1060231650.1.3.0,Phases=2,Linecode=CABBTG13_4_2,Length=0.017000000,Units=km
new line.RML10231658 bus1=BBT1677284.2.3.0,bus2=RML1060231658.2.3.0,Phases=2,Linecode=CABBTG05_4_2,Length=0.017000000,Units=km
new line.RML10231659 bus1=BBT1680203.2.3.0,bus2=RML1060231659.2.3.0,Phases=2,Linecode=CABBTG05_4_2,Length=0.017000000,Units=km
new line.RML10231662 bus1=BBT3831919.1.0,bus2=RML1060231662.1.0,Phases=1,Linecode=CABBTG02_4_1,Length=0.017000000,Units=km
new line.RML10231665 bus1=BBT1749552.1.0,bus2=RML1060231665.1.0,Phases=1,Linecode=CABBTG02_4_1,Length=0.017000000,Units=km
new line.RML10231669 bus1=BBT1681925.2.3.0,bus2=RML1060231669.2.3.0,Phases=2,Linecode=CABBTG05_4_2,Length=0.017000000,Units=km
new line.RML10231673 bus1=BBT1680245.1.0,bus2=RML1060231673.1.0,Phases=1,Linecode=CABBTG02_4_1,Length=0.017000000,Units=km
new line.RML10231678 bus1=BBT1749468.1.2.0,bus2=RML1060231678.1.2.0,Phases=2,Linecode=CABBTG05_4_2,Length=0.017000000,Units=km
new line.RML10231691 bus1=BBT2993669.1.3.0,bus2=RML1060231691.1.3.0,Phases=2,Linecode=CABBTG05_4_2,Length=0.017000000,Units=km
new line.RML10231696 bus1=BBT1680756.1.0,bus2=RML1060231696.1.0,Phases=1,Linecode=CABBTG02_4_1,Length=0.017000000,Units=km
new line.RML10231862 bus1=BBT1734502.2.3.0,bus2=RML1060231862.2.3.0,Phases=2,Linecode=CABBTG05_4_2,Length=0.017000000,Units=km
new line.RML10231871 bus1=BBT1679377.2.3.0,bus2=RML1060231871.2.3.0,Phases=2,Linecode=CABBTG05_4_2,Length=0.017000000,Units=km
new line.RML10231877 bus1=BBT2615032.1.0,bus2=RML1060231877.1.0,Phases=1,Linecode=CABBTG01_4_1,Length=0.017000000,Units=km
new line.RML10231883 bus1=BBT1734537.1.0,bus2=RML1060231883.1.0,Phases=1,Linecode=CABBTG01_4_1,Length=0.017000000,Units=km
new line.RML10231887 bus1=BBT3130127.1.2.0,bus2=RML1060231887.1.2.0,Phases=2,Linecode=CABBTG05_4_2,Length=0.017000000,Units=km
new line.RML10231894 bus1=BBT3221302.2.3.0,bus2=RML1060231894.2.3.0,Phases=2,Linecode=CABBTG04_4_2,Length=0.017000000,Units=km
new line.RML10231896 bus1=BBT2750895.3.0,bus2=RML1060231896.3.0,Phases=1,Linecode=CABBTG02_4_1,Length=0.017000000,Units=km
new line.RML10231917 bus1=BBT1681925.1.2.0,bus2=RML1060231917.1.2.0,Phases=2,Linecode=CABBTG05_4_2,Length=0.017000000,Units=km
new line.RML10231922 bus1=BBT1678502.1.2.0,bus2=RML1060231922.1.2.0,Phases=2,Linecode=CABBTG05_4_2,Length=0.017000000,Units=km
new line.RML10231930 bus1=BBT1734502.1.2.0,bus2=RML1060231930.1.2.0,Phases=2,Linecode=CABBTG05_4_2,Length=0.017000000,Units=km
new line.RML10231936 bus1=BBT1676353.1.2.0,bus2=RML1060231936.1.2.0,Phases=2,Linecode=CABBTG04_4_2,Length=0.017000000,Units=km
new line.RML10231942 bus1=BBT1734558.1.2.0,bus2=RML1060231942.1.2.0,Phases=2,Linecode=CABBTG04_4_2,Length=0.017000000,Units=km
new line.RML10231947 bus1=BBT2993592.1.2.0,bus2=RML1060231947.1.2.0,Phases=2,Linecode=CABBTG04_4_2,Length=0.017000000,Units=km
new line.RML10231954 bus1=BBT4394145.1.2.0,bus2=RML1060231954.1.2.0,Phases=2,Linecode=CABBTG05_4_2,Length=0.017000000,Units=km
new line.RML10231963 bus1=BBT3077417.1.2.3.0,bus2=RML1060231963.1.2.3.0,Phases=3,Linecode=CABBTG06_4_3,Length=0.017000000,Units=km
new line.RML10231981 bus1=BBT1681785.1.2.0,bus2=RML1060231981.1.2.0,Phases=2,Linecode=CABBTG05_4_2,Length=0.017000000,Units=km
new line.RML10231992 bus1=BBT1749538.1.0,bus2=RML1060231992.1.0,Phases=1,Linecode=CABBTG02_4_1,Length=0.017000000,Units=km
new line.RML10232036 bus1=BBT2993620.1.2.0,bus2=RML1060232036.1.2.0,Phases=2,Linecode=CABBTG13_4_2,Length=0.017000000,Units=km
new line.RML10232040 bus1=BBT1749531.2.3.0,bus2=RML1060232040.2.3.0,Phases=2,Linecode=CABBTG13_4_2,Length=0.017000000,Units=km
new line.RML10232050 bus1=BBT1680763.2.0,bus2=RML1060232050.2.0,Phases=1,Linecode=CABBTG02_4_1,Length=0.017000000,Units=km
new line.RML10232053 bus1=BBT2615011.1.2.0,bus2=RML1060232053.1.2.0,Phases=2,Linecode=CABBTG05_4_2,Length=0.017000000,Units=km
new line.RML10232056 bus1=BBT2993620.2.3.0,bus2=RML1060232056.2.3.0,Phases=2,Linecode=CABBTG05_4_2,Length=0.017000000,Units=km
new line.RML10232065 bus1=BBT2993620.1.0,bus2=RML1060232065.1.0,Phases=1,Linecode=CABBTG01_4_1,Length=0.017000000,Units=km
new line.RML10232888 bus1=BBT1645903.1.0,bus2=RML1060232888.1.0,Phases=1,Linecode=CABBTG02_4_1,Length=0.017000000,Units=km
new line.RML10234414 bus1=BBT144758226.1.0,bus2=RML1060234414.1.0,Phases=1,Linecode=CABBTG02_4_1,Length=0.017000000,Units=km
new line.RML10234422 bus1=BBT4247502.3.0,bus2=RML1060234422.3.0,Phases=1,Linecode=CABBTG02_4_1,Length=0.017000000,Units=km
new line.RML10234439 bus1=BBT4247502.1.0,bus2=RML1060234439.1.0,Phases=1,Linecode=CABBTG02_4_1,Length=0.017000000,Units=km
new line.RML10234828 bus1=BBT1680448.1.2.0,bus2=RML1060234828.1.2.0,Phases=2,Linecode=CABBTG05_4_2,Length=0.017000000,Units=km
new line.RML10236299 bus1=BBT1651209.1.2.0,bus2=RML1060236299.1.2.0,Phases=2,Linecode=CABBTG05_4_2,Length=0.017000000,Units=km
new line.RML10237226 bus1=BBT1680833.1.0,bus2=RML1060237226.1.0,Phases=1,Linecode=CABBTG02_4_1,Length=0.013000000,Units=km
new line.RML10237452 bus1=BBT1676227.1.2.0,bus2=RML1060237452.1.2.0,Phases=2,Linecode=CABBTG05_4_2,Length=0.017000000,Units=km
new line.RML10241837 bus1=BBT1677767.1.0,bus2=RML1060241837.1.0,Phases=1,Linecode=CABBTG02_4_1,Length=0.017000000,Units=km
new line.RML10258500 bus1=BBT1676346.1.2.3.0,bus2=RML1060258500.1.2.3.0,Phases=3,Linecode=CABBTG06_4_3,Length=0.017000000,Units=km
new line.RML10259465 bus1=BBT4145232.1.2.0,bus2=RML1060259465.1.2.0,Phases=2,Linecode=CABBTG05_4_2,Length=0.017000000,Units=km
new line.RML10266696 bus1=BBT2811151.1.2.0,bus2=RML1060266696.1.2.0,Phases=2,Linecode=CABBTG05_4_2,Length=0.017000000,Units=km
new line.RML10266708 bus1=BBT2811151.1.3.0,bus2=RML1060266708.1.3.0,Phases=2,Linecode=CABBTG05_4_2,Length=0.017000000,Units=km
new line.RML10266712 bus1=BBT2788114.1.2.0,bus2=RML1060266712.1.2.0,Phases=2,Linecode=CABBTG05_4_2,Length=0.017000000,Units=km
new line.RML10266714 bus1=BBT10943415.1.2.0,bus2=RML1060266714.1.2.0,Phases=2,Linecode=CABBTG05_4_2,Length=0.017000000,Units=km
new line.RML10278336 bus1=BBT1749482.1.2.0,bus2=RML1060278336.1.2.0,Phases=2,Linecode=CABBTG05_4_2,Length=0.017000000,Units=km
new line.RML10278340 bus1=BBT2951704.1.2.0,bus2=RML1060278340.1.2.0,Phases=2,Linecode=CABBTG05_4_2,Length=0.017000000,Units=km
new line.RML10278358 bus1=BBT1749405.1.2.0,bus2=RML1060278358.1.2.0,Phases=2,Linecode=CABBTG05_4_2,Length=0.017000000,Units=km
new line.RML10278376 bus1=BBT2933427.1.2.0,bus2=RML1060278376.1.2.0,Phases=2,Linecode=CABBTG05_4_2,Length=0.017000000,Units=km
new line.RML10278381 bus1=BBT1734495.2.3.0,bus2=RML1060278381.2.3.0,Phases=2,Linecode=CABBTG05_4_2,Length=0.017000000,Units=km
new line.RML10278393 bus1=BBT4642855.1.2.0,bus2=RML1060278393.1.2.0,Phases=2,Linecode=CABBTG05_4_2,Length=0.017000000,Units=km
new line.RML10278394 bus1=BBT1728342.1.2.0,bus2=RML1060278394.1.2.0,Phases=2,Linecode=CABBTG05_4_2,Length=0.017000000,Units=km
new line.RML10278598 bus1=BBT1749608.2.3.0,bus2=RML1060278598.2.3.0,Phases=2,Linecode=CABBTG05_4_2,Length=0.017000000,Units=km
new line.RML10287404 bus1=BBT1748159.1.2.0,bus2=RML1060287404.1.2.0,Phases=2,Linecode=CABBTG05_4_2,Length=0.017000000,Units=km
new line.RML10287632 bus1=BBT1698571.1.0,bus2=RML1060287632.1.0,Phases=1,Linecode=CABBTG02_4_1,Length=0.017000000,Units=km
new line.RML10287642 bus1=BBT1750308.1.2.0,bus2=RML1060287642.1.2.0,Phases=2,Linecode=CABBTG05_4_2,Length=0.017000000,Units=km
new line.RML10287694 bus1=BBT2754836.2.0,bus2=RML1060287694.2.0,Phases=1,Linecode=CABBTG02_4_1,Length=0.017000000,Units=km
new line.RML10287732 bus1=BBT2692501.1.2.0,bus2=RML1060287732.1.2.0,Phases=2,Linecode=CABBTG05_4_2,Length=0.017000000,Units=km
new line.RML10287747 bus1=BBT1727964.1.2.0,bus2=RML1060287747.1.2.0,Phases=2,Linecode=CABBTG05_4_2,Length=0.017000000,Units=km
new line.RML10287772 bus1=BBT2805754.2.0,bus2=RML1060287772.2.0,Phases=1,Linecode=CABBTG02_4_1,Length=0.017000000,Units=km
new line.RML10287791 bus1=BBT1645539.1.0,bus2=RML1060287791.1.0,Phases=1,Linecode=CABBTG02_4_1,Length=0.017000000,Units=km
new line.RML10287794 bus1=BBT1645539.1.2.0,bus2=RML1060287794.1.2.0,Phases=2,Linecode=CABBTG05_4_2,Length=0.017000000,Units=km
new line.RML10287849 bus1=BBT1682394.1.0,bus2=RML1060287849.1.0,Phases=1,Linecode=CABBTG02_4_1,Length=0.017000000,Units=km
new line.RML10287851 bus1=BBT2735278.1.2.0,bus2=RML1060287851.1.2.0,Phases=2,Linecode=CABBTG05_4_2,Length=0.017000000,Units=km
new line.RML10287859 bus1=BBT1776845.1.2.0,bus2=RML1060287859.1.2.0,Phases=2,Linecode=CABBTG05_4_2,Length=0.017000000,Units=km
new line.RML10287862 bus1=BBT1682828.1.2.0,bus2=RML1060287862.1.2.0,Phases=2,Linecode=CABBTG05_4_2,Length=0.017000000,Units=km
new line.RML10287913 bus1=BBT1675716.1.2.0,bus2=RML1060287913.1.2.0,Phases=2,Linecode=CABBTG05_4_2,Length=0.017000000,Units=km
new line.RML10287919 bus1=BBT1711304.1.2.0,bus2=RML1060287919.1.2.0,Phases=2,Linecode=CABBTG05_4_2,Length=0.017000000,Units=km
new line.RML10287923 bus1=BBT2735278.1.2.0,bus2=RML1060287923.1.2.0,Phases=2,Linecode=CABBTG05_4_2,Length=0.017000000,Units=km
new line.RML10287929 bus1=BBT2973971.1.0,bus2=RML1060287929.1.0,Phases=1,Linecode=CABBTG02_4_1,Length=0.017000000,Units=km
new line.RML10287932 bus1=BBT1675695.1.2.0,bus2=RML1060287932.1.2.0,Phases=2,Linecode=CABBTG05_4_2,Length=0.017000000,Units=km
new line.RML10287937 bus1=BBT2678991.1.2.0,bus2=RML1060287937.1.2.0,Phases=2,Linecode=CABBTG05_4_2,Length=0.017000000,Units=km
new line.RML10291409 bus1=BBT1776845.1.2.0,bus2=RML1060291409.1.2.0,Phases=2,Linecode=CABBTG05_4_2,Length=0.017000000,Units=km
new line.RML10291413 bus1=BBT1682338.1.2.0,bus2=RML1060291413.1.2.0,Phases=2,Linecode=CABBTG05_4_2,Length=0.017000000,Units=km
new line.RML10291444 bus1=BBT2735327.1.2.0,bus2=RML1060291444.1.2.0,Phases=2,Linecode=CABBTG05_4_2,Length=0.017000000,Units=km
new line.RML10291448 bus1=BBT1749461.1.3.0,bus2=RML1060291448.1.3.0,Phases=2,Linecode=CABBTG05_4_2,Length=0.017000000,Units=km
new line.RML10295887 bus1=BBT1749482.2.3.0,bus2=RML1060295887.2.3.0,Phases=2,Linecode=CABBTG05_4_2,Length=0.017000000,Units=km
new line.RML10296349 bus1=BBT1749328.3.0,bus2=RML1060296349.3.0,Phases=1,Linecode=CABBTG02_4_1,Length=0.017000000,Units=km
new line.RML10300714 bus1=BBT149918349.1.0,bus2=RML1060300714.1.0,Phases=1,Linecode=CABBTG02_4_1,Length=0.017000000,Units=km
new line.RML10302830 bus1=BBT1793526.1.2.0,bus2=RML1060302830.1.2.0,Phases=2,Linecode=CABBTG05_4_2,Length=0.017000000,Units=km
new line.RML10309187 bus1=BBT1682149.1.2.0,bus2=RML1060309187.1.2.0,Phases=2,Linecode=CABBTG13_4_2,Length=0.017000000,Units=km
new line.RML10309190 bus1=BBT2767268.1.2.0,bus2=RML1060309190.1.2.0,Phases=2,Linecode=CABBTG13_4_2,Length=0.017000000,Units=km
new line.RML10314611 bus1=BBT2933427.1.2.3.0,bus2=RML1060314611.1.2.3.0,Phases=3,Linecode=CABBTG06_4_3,Length=0.017000000,Units=km
new line.RML10316368 bus1=BBT1680742.1.2.0,bus2=RML1060316368.1.2.0,Phases=2,Linecode=CABBTG05_4_2,Length=0.017000000,Units=km
new line.RML10316391 bus1=BBT2993718.1.2.0,bus2=RML1060316391.1.2.0,Phases=2,Linecode=CABBTG05_4_2,Length=0.017000000,Units=km
new line.RML10316398 bus1=BBT2614843.1.2.0,bus2=RML1060316398.1.2.0,Phases=2,Linecode=CABBTG05_4_2,Length=0.017000000,Units=km
new line.RML10316403 bus1=BBT2993571.1.2.0,bus2=RML1060316403.1.2.0,Phases=2,Linecode=CABBTG05_4_2,Length=0.017000000,Units=km
new line.RML10316406 bus1=BBT147936583.1.0,bus2=RML1060316406.1.0,Phases=1,Linecode=CABBTG02_4_1,Length=0.017000000,Units=km
new line.RML10316418 bus1=BBT2993571.1.2.0,bus2=RML1060316418.1.2.0,Phases=2,Linecode=CABBTG05_4_2,Length=0.017000000,Units=km
new line.RML10316429 bus1=BBT1677627.1.2.0,bus2=RML1060316429.1.2.0,Phases=2,Linecode=CABBTG05_4_2,Length=0.017000000,Units=km
new line.RML10316432 bus1=BBT1749328.1.3.0,bus2=RML1060316432.1.3.0,Phases=2,Linecode=CABBTG05_4_2,Length=0.017000000,Units=km
new line.RML10316439 bus1=BBT2614927.1.2.0,bus2=RML1060316439.1.2.0,Phases=2,Linecode=CABBTG05_4_2,Length=0.017000000,Units=km
new line.RML10316441 bus1=BBT1677067.1.2.0,bus2=RML1060316441.1.2.0,Phases=2,Linecode=CABBTG05_4_2,Length=0.017000000,Units=km
new line.RML10316443 bus1=BBT1681904.1.2.0,bus2=RML1060316443.1.2.0,Phases=2,Linecode=CABBTG05_4_2,Length=0.017000000,Units=km
new line.RML10319421 bus1=BBT152228204.1.2.0,bus2=RML1060319421.1.2.0,Phases=2,Linecode=CABBT807_4_2,Length=0.022000000,Units=km
new line.RML10319582 bus1=BBT144758261.1.0,bus2=RML1060319582.1.0,Phases=1,Linecode=CABBTG02_4_1,Length=0.017000000,Units=km
new line.RML10319583 bus1=BBT144758254.3.0,bus2=RML1060319583.3.0,Phases=1,Linecode=CABBTG02_4_1,Length=0.017000000,Units=km
new line.RML10319586 bus1=BBT144758254.1.0,bus2=RML1060319586.1.0,Phases=1,Linecode=CABBTG02_4_1,Length=0.017000000,Units=km
new line.RML10319588 bus1=BBT144757631.2.0,bus2=RML1060319588.2.0,Phases=1,Linecode=CABBTG02_4_1,Length=0.017000000,Units=km
new line.RML10319593 bus1=BBT144758226.1.0,bus2=RML1060319593.1.0,Phases=1,Linecode=CABBTG02_4_1,Length=0.017000000,Units=km
new line.RML10319597 bus1=BBT144758226.2.0,bus2=RML1060319597.2.0,Phases=1,Linecode=CABBTG02_4_1,Length=0.017000000,Units=km
new line.RML10319599 bus1=BBT144758219.1.0,bus2=RML1060319599.1.0,Phases=1,Linecode=CABBTG02_4_1,Length=0.017000000,Units=km
new line.RML10319601 bus1=BBT144758219.3.0,bus2=RML1060319601.3.0,Phases=1,Linecode=CABBTG02_4_1,Length=0.017000000,Units=km
new line.RML10319604 bus1=BBT144758219.1.0,bus2=RML1060319604.1.0,Phases=1,Linecode=CABBTG02_4_1,Length=0.017000000,Units=km
new line.RML10319611 bus1=BBT144758219.2.0,bus2=RML1060319611.2.0,Phases=1,Linecode=CABBTG02_4_1,Length=0.017000000,Units=km