new line.1441293 bus1=BBT1645210.1.2.0,bus2=BBT1645217.1.2.0,Phases=2,Linecode=BT307_BT307_7_2_1,Length=0.000501000,Units=km
new line.1441321 bus1=BBT1645252.1.2.0,bus2=BBT1645259.1.2.0,Phases=2,Linecode=BT307_BT307_7_2_1,Length=0.000501000,Units=km
new line.1441328 bus1=BBT1645266.1.2.0,bus2=BBT1645273.1.2.0,Phases=2,Linecode=BT308_BT308_7_2_1,Length=0.000501000,Units=km
new line.1441335 bus1=BBT1645280.1.2.0,bus2=BBT1645287.1.2.0,Phases=2,Linecode=BT307_BT307_7_2_1,Length=0.000501000,Units=km
new line.1441349 bus1=BBT1645308.1.2.0,bus2=BBT1645315.1.2.0,Phases=2,Linecode=BT304_BT304_7_2_1,Length=0.000501000,Units=km
new line.1441377 bus1=BBT1645364.1.2.0,bus2=BBT1645371.1.2.0,Phases=2,Linecode=BT518_BT518_7_2_1,Length=0.000501000,Units=km
new line.1441384 bus1=BBT1645371.1.2.0,bus2=BBT3611279.1.2.0,Phases=2,Linecode=BT814_BT814_4_2_3,Length=0.043118000,Units=km
new line.1441391 bus1=BBT1645378.1.2.0,bus2=BBT1645385.1.2.0,Phases=2,Linecode=BT316_BT316_7_2_1,Length=0.000501000,Units=km
new line.1441412 bus1=BBT1645420.1.2.0,bus2=BBT1645427.1.2.0,Phases=2,Linecode=BT518_BT518_7_2_1,Length=0.000501000,Units=km
new line.1441419 bus1=BBT1645427.1.2.0,bus2=BBT3248994.1.2.0,Phases=2,Linecode=BT106_BT106_7_2_1,Length=0.076346000,Units=km
new line.1441426 bus1=BBT1645434.1.2.0,bus2=BBT1645441.1.2.0,Phases=2,Linecode=BT304_BT304_7_2_1,Length=0.000501000,Units=km
new line.1441454 bus1=BBT1645476.1.2.0,bus2=BBT1645483.1.2.0,Phases=2,Linecode=BT304_BT304_7_2_1,Length=0.000501000,Units=km
new line.1441475 bus1=BBT1645504.1.2.0,bus2=BBT1645511.1.2.0,Phases=2,Linecode=BT518_BT518_7_2_1,Length=0.000501000,Units=km
new line.1441482 bus1=BBT1645518.1.2.0,bus2=BBT1645525.1.2.0,Phases=2,Linecode=BT304_BT304_7_2_1,Length=0.000501000,Units=km
new line.1441489 bus1=BBT1645532.1.2.0,bus2=BBT1645539.1.2.0,Phases=2,Linecode=BT513_BT513_7_2_1,Length=0.000501000,Units=km
new line.1441496 bus1=BBT1645539.1.2.0,bus2=BBT2755039.1.2.0,Phases=2,Linecode=BT807_BT807_4_2_3,Length=0.040867000,Units=km
new line.1441503 bus1=BBT1645539.1.2.0,bus2=BBT2755018.1.2.0,Phases=2,Linecode=BT807_BT807_4_2_3,Length=0.028081000,Units=km
new line.1441510 bus1=BBT1645546.1.2.0,bus2=BBT1645553.1.2.0,Phases=2,Linecode=BT317_BT317_7_2_1,Length=0.000501000,Units=km
new line.1441517 bus1=BBT1645560.1.2.0,bus2=BBT1645567.1.2.0,Phases=2,Linecode=BT304_BT304_7_2_1,Length=0.000501000,Units=km
new line.1441524 bus1=BBT1645574.1.2.0,bus2=BBT1645581.1.2.0,Phases=2,Linecode=BT304_BT304_7_2_1,Length=0.000501000,Units=km
new line.1441531 bus1=BBT1645588.1.2.0,bus2=BBT1645595.1.2.0,Phases=2,Linecode=BT518_BT518_7_2_1,Length=0.000501000,Units=km
new line.1441538 bus1=BBT1645595.1.2.0,bus2=BBT2755137.1.2.0,Phases=2,Linecode=BT108_BT107_7_2_1,Length=0.035452000,Units=km
new line.1441545 bus1=BBT1645595.1.2.0,bus2=BBT2755088.1.2.0,Phases=2,Linecode=BT107_BT107_7_2_1,Length=0.033253000,Units=km
new line.1441552 bus1=BBT1645602.1.2.0,bus2=BBT1645609.1.2.0,Phases=2,Linecode=BT307_BT307_7_2_1,Length=0.000501000,Units=km
new line.1441559 bus1=BBT1645616.1.2.0,bus2=BBT1645623.1.2.0,Phases=2,Linecode=BT304_BT304_7_2_1,Length=0.000501000,Units=km
new line.1441566 bus1=BBT1645630.1.2.0,bus2=BBT1645637.1.2.0,Phases=2,Linecode=BT304_BT304_7_2_1,Length=0.000501000,Units=km
new line.1441573 bus1=BBT1645644.1.2.0,bus2=BBT1645651.1.2.0,Phases=2,Linecode=BT304_BT304_7_2_1,Length=0.000501000,Units=km
new line.1441580 bus1=BBT1645658.1.2.0,bus2=BBT1645665.1.2.0,Phases=2,Linecode=BT304_BT304_7_2_1,Length=0.000501000,Units=km
new line.1441594 bus1=BBT1645686.1.2.0,bus2=BBT1645693.1.2.0,Phases=2,Linecode=BT308_BT308_7_2_1,Length=0.000501000,Units=km
new line.1441601 bus1=BBT1645700.1.2.0,bus2=BBT1645707.1.2.0,Phases=2,Linecode=BT304_BT304_7_2_1,Length=0.000501000,Units=km
new line.1441608 bus1=BBT1645714.1.2.0,bus2=BBT1645721.1.2.0,Phases=2,Linecode=BT304_BT304_7_2_1,Length=0.000501000,Units=km
new line.1441615 bus1=BBT1645728.1.2.0,bus2=BBT1645735.1.2.0,Phases=2,Linecode=BT317_BT317_7_2_1,Length=0.000501000,Units=km
new line.1441622 bus1=BBT1645742.1.2.0,bus2=BBT1645749.1.2.0,Phases=2,Linecode=BT317_BT317_7_2_1,Length=0.000501000,Units=km
new line.1441629 bus1=BBT1645756.1.2.0,bus2=BBT1645763.1.2.0,Phases=2,Linecode=BT307_BT307_7_2_1,Length=0.000501000,Units=km
new line.1441636 bus1=BBT1645763.1.2.0,bus2=BBT2805719.1.2.0,Phases=2,Linecode=BT108_BT107_7_2_1,Length=0.059155000,Units=km
new line.1441643 bus1=BBT1645763.1.2.0,bus2=BBT2805705.1.2.0,Phases=2,Linecode=BT108_BT107_7_2_1,Length=0.059113000,Units=km
new line.1441650 bus1=BBT1645770.1.2.0,bus2=BBT1645777.1.2.0,Phases=2,Linecode=BT307_BT307_7_2_1,Length=0.000501000,Units=km
new line.1441664 bus1=BBT1645784.1.2.0,bus2=BBT1645791.1.2.0,Phases=2,Linecode=BT304_BT304_7_2_1,Length=0.000501000,Units=km
new line.1441671 bus1=BBT1645798.1.2.0,bus2=BBT1645805.1.2.0,Phases=2,Linecode=BT307_BT307_7_2_1,Length=0.000501000,Units=km
new line.1441678 bus1=BBT1645812.1.2.0,bus2=BBT1645819.1.2.0,Phases=2,Linecode=BT304_BT304_7_2_1,Length=0.000501000,Units=km
new line.1441685 bus1=BBT1645826.1.2.0,bus2=BBT1645833.1.2.0,Phases=2,Linecode=BT309_BT309_7_2_1,Length=0.000501000,Units=km
new line.1441692 bus1=BBT1645840.1.2.0,bus2=BBT1645847.1.2.0,Phases=2,Linecode=BT307_BT307_7_2_1,Length=0.000501000,Units=km
new line.1441699 bus1=BBT1645847.1.2.0,bus2=BBT2736209.1.2.0,Phases=2,Linecode=BT107_BT106_7_2_1,Length=0.044287000,Units=km
new line.1441706 bus1=BBT1645847.1.2.0,bus2=BBT2736230.1.2.0,Phases=2,Linecode=BT107_BT106_7_2_1,Length=0.040038000,Units=km
new line.1441713 bus1=BBT1645854.1.2.0,bus2=BBT1645861.1.2.0,Phases=2,Linecode=BT518_BT518_7_2_1,Length=0.000501000,Units=km
new line.1441727 bus1=BBT1645868.1.2.0,bus2=BBT1645875.1.2.0,Phases=2,Linecode=BT304_BT304_7_2_1,Length=0.000501000,Units=km
new line.1441734 bus1=BBT1645882.1.2.0,bus2=BBT1645889.1.2.0,Phases=2,Linecode=BT316_BT316_7_2_1,Length=0.000501000,Units=km
new line.1441741 bus1=BBT1645896.1.2.0,bus2=BBT1645903.1.2.0,Phases=2,Linecode=BT518_BT518_7_2_1,Length=0.000501000,Units=km
new line.1441748 bus1=BBT1645910.1.2.0,bus2=BBT1645917.1.2.0,Phases=2,Linecode=BT304_BT304_7_2_1,Length=0.000501000,Units=km
new line.1441755 bus1=BBT1645924.1.2.0,bus2=BBT1645931.1.2.0,Phases=2,Linecode=BT513_BT513_7_2_1,Length=0.000501000,Units=km
new line.1441762 bus1=BBT1645938.1.2.3.0,bus2=BBT1645945.1.2.3.0,Phases=3,Linecode=BT307_BT307_7_3_1,Length=0.000501000,Units=km
new line.1441769 bus1=BBT1645952.1.2.0,bus2=BBT1645959.1.2.0,Phases=2,Linecode=BT304_BT304_7_2_1,Length=0.000501000,Units=km
new line.1441776 bus1=BBT1645966.1.2.0,bus2=BBT1645973.1.2.0,Phases=2,Linecode=BT304_BT304_7_2_1,Length=0.000501000,Units=km
new line.1441783 bus1=BBT1645980.1.2.0,bus2=BBT1645987.1.2.0,Phases=2,Linecode=BT305_BT305_7_2_1,Length=0.000501000,Units=km
new line.1441790 bus1=BBT1645994.1.2.0,bus2=BBT1646001.1.2.0,Phases=2,Linecode=BT304_BT304_7_2_1,Length=0.000501000,Units=km
new line.1441797 bus1=BBT1646008.1.2.0,bus2=BBT1646015.1.2.0,Phases=2,Linecode=BT304_BT304_7_2_1,Length=0.000501000,Units=km
new line.1441804 bus1=BBT1646022.1.2.0,bus2=BBT1646029.1.2.0,Phases=2,Linecode=BT316_BT316_7_2_1,Length=0.000501000,Units=km
new line.1441818 bus1=BBT1646036.1.2.0,bus2=BBT1646043.1.2.0,Phases=2,Linecode=BT304_BT304_7_2_1,Length=0.000501000,Units=km
new line.1441825 bus1=BBT1646050.1.2.0,bus2=BBT1646057.1.2.0,Phases=2,Linecode=BT316_BT316_7_2_1,Length=0.000501000,Units=km
new line.1444674 bus1=BBT1649312.1.2.0,bus2=BBT1649319.1.2.0,Phases=2,Linecode=BT310_BT310_7_2_1,Length=0.000501000,Units=km
new line.1445535 bus1=BBT1650208.1.2.3.0,bus2=BBT1650215.1.2.3.0,Phases=3,Linecode=BT307_BT307_7_3_1,Length=0.000501000,Units=km
new line.1446312 bus1=BBT1793946.1.2.3.0,bus2=BBT1793953.1.2.3.0,Phases=3,Linecode=BT803_BT803_4_3_4,Length=0.027010000,Units=km
new line.1446599 bus1=BBT1651195.1.2.3.0,bus2=BBT1651202.1.2.3.0,Phases=3,Linecode=BT108_BT108_7_3_1,Length=0.034217000,Units=km
new line.1446613 bus1=BBT1651202.1.2.3.0,bus2=BBT1651209.1.2.3.0,Phases=3,Linecode=BT108_BT108_7_3_1,Length=0.032214000,Units=km
new line.1446620 bus1=BBT1651209.1.2.3.0,bus2=BBT1651216.1.2.3.0,Phases=3,Linecode=BT108_BT108_7_3_1,Length=0.038432000,Units=km
new line.1446998 bus1=BBT1651615.1.2.3.0,bus2=BBT1651608.1.2.3.0,Phases=3,Linecode=BT809_BT809_4_3_4,Length=0.025307000,Units=km
new line.1447005 bus1=BBT1651622.1.2.3.0,bus2=BBT1651615.1.2.3.0,Phases=3,Linecode=BT809_BT809_4_3_4,Length=0.033850000,Units=km
new line.1447012 bus1=BBT1651629.1.2.3.0,bus2=BBT1651622.1.2.3.0,Phases=3,Linecode=BT107_BT107_7_3_1,Length=0.027741000,Units=km
new line.1447019 bus1=BBT1651636.1.2.3.0,bus2=BBT1651629.1.2.3.0,Phases=3,Linecode=BT107_BT107_7_3_1,Length=0.026410000,Units=km
new line.1447026 bus1=BBT1651601.1.2.3.0,bus2=BBT1651636.1.2.3.0,Phases=3,Linecode=BT518_BT518_7_3_1,Length=0.000501000,Units=km
new line.1447033 bus1=BBT1651636.1.2.3.0,bus2=BBT1651643.1.2.3.0,Phases=3,Linecode=BT107_BT107_7_3_1,Length=0.027323000,Units=km
new line.1447040 bus1=BBT1651643.1.2.3.0,bus2=BBT1651650.1.2.3.0,Phases=3,Linecode=BT107_BT107_7_3_1,Length=0.033253000,Units=km
new line.1447054 bus1=BBT1651671.1.2.0,bus2=BBT1651678.1.2.0,Phases=2,Linecode=BT107_BT107_7_2_1,Length=0.012654000,Units=km
new line.1447061 bus1=BBT1652595.1.2.3.0,bus2=BBT1652609.1.2.3.0,Phases=3,Linecode=BT107_BT107_7_3_1,Length=0.040536000,Units=km
new line.1447068 bus1=BBT1651692.1.2.0,bus2=BBT1651664.1.2.0,Phases=2,Linecode=BT807_BT807_4_2_3,Length=0.030094000,Units=km
new line.1447075 bus1=BBT1651692.1.2.0,bus2=BBT1651713.1.2.0,Phases=2,Linecode=BT807_BT807_4_2_3,Length=0.012046000,Units=km
new line.1447082 bus1=BBT1651699.1.2.0,bus2=BBT1651671.1.2.0,Phases=2,Linecode=BT108_BT107_7_2_1,Length=0.030686000,Units=km
new line.1447089 bus1=BBT1651699.1.2.0,bus2=BBT1651692.1.2.0,Phases=2,Linecode=BT108_BT107_7_2_1,Length=0.024009000,Units=km
new line.1447096 bus1=BBT1651657.1.2.0,bus2=BBT1651699.1.2.0,Phases=2,Linecode=BT518_BT518_7_2_1,Length=0.000501000,Units=km
new line.1447103 bus1=BBT1651706.1.2.0,bus2=BBT1651685.1.2.0,Phases=2,Linecode=BT107_BT106_7_2_1,Length=0.022812000,Units=km
new line.1447117 bus1=BBT155924568.1.2.0,bus2=BBT1651727.1.2.0,Phases=2,Linecode=BT107_BT106_7_2_1,Length=0.013459000,Units=km
new line.1447124 bus1=BBT1651727.1.2.0,bus2=BBT1651706.1.2.0,Phases=2,Linecode=BT107_BT106_7_2_1,Length=0.021268000,Units=km
new line.1447131 bus1=BBT155924568.1.2.0,bus2=BBT1651734.1.2.0,Phases=2,Linecode=BT107_BT106_7_2_1,Length=0.023609000,Units=km
new line.1447138 bus1=BBT1651755.1.2.3.0,bus2=BBT1651748.1.2.3.0,Phases=3,Linecode=BT108_BT108_7_3_1,Length=0.034217000,Units=km
new line.1447145 bus1=BBT1651741.1.2.3.0,bus2=BBT1651755.1.2.3.0,Phases=3,Linecode=BT514_BT514_7_3_1,Length=0.000501000,Units=km
new line.1447152 bus1=BBT1651755.1.2.3.0,bus2=BBT1651762.1.2.3.0,Phases=3,Linecode=BT108_BT108_7_3_1,Length=0.033027000,Units=km
new line.1447159 bus1=BBT1651762.1.2.3.0,bus2=BBT1651769.1.2.3.0,Phases=3,Linecode=BT108_BT108_7_3_1,Length=0.035817000,Units=km
new line.1447166 bus1=BBT1651769.1.2.3.0,bus2=BBT1651776.1.2.3.0,Phases=3,Linecode=BT108_BT108_7_3_1,Length=0.035817000,Units=km
new line.1447173 bus1=BBT1651776.1.2.3.0,bus2=BBT1651783.1.2.3.0,Phases=3,Linecode=BT108_BT108_7_3_1,Length=0.028855000,Units=km
new line.1447180 bus1=BBT1651783.1.2.3.0,bus2=BBT1651790.1.2.3.0,Phases=3,Linecode=BT108_BT108_7_3_1,Length=0.022834000,Units=km
new line.1469650 bus1=BBT1676640.1.2.3.0,bus2=BBT1676633.1.2.3.0,Phases=3,Linecode=BT810_BT810_4_3_4,Length=0.031411000,Units=km
new line.1469657 bus1=BBT1676640.1.2.3.0,bus2=BBT1676668.1.2.3.0,Phases=3,Linecode=BT810_BT810_4_3_4,Length=0.029165000,Units=km
new line.1469664 bus1=BBT1676647.1.2.3.0,bus2=BBT1676640.1.2.3.0,Phases=3,Linecode=BT810_BT810_4_3_4,Length=0.020623000,Units=km
new line.1469671 bus1=BBT1676654.1.2.3.0,bus2=BBT1676647.1.2.3.0,Phases=3,Linecode=BT810_BT810_4_3_4,Length=0.030686000,Units=km
new line.1469678 bus1=BBT1676668.1.2.3.0,bus2=BBT1676682.1.2.3.0,Phases=3,Linecode=BT810_BT810_4_3_4,Length=0.029284000,Units=km
new line.1469685 bus1=BBT1676675.1.2.3.0,bus2=BBT1676661.1.2.3.0,Phases=3,Linecode=BT810_BT810_4_3_4,Length=0.025008000,Units=km
new line.1469692 bus1=BBT1676619.1.2.3.0,bus2=BBT1676675.1.2.3.0,Phases=3,Linecode=BT518_BT518_7_3_1,Length=0.000501000,Units=km
new line.1469699 bus1=BBT1676675.1.2.3.0,bus2=BBT1676696.1.2.3.0,Phases=3,Linecode=BT810_BT810_4_3_4,Length=0.026935000,Units=km
new line.1469706 bus1=BBT1676682.1.2.3.0,bus2=BBT1676703.1.2.3.0,Phases=3,Linecode=BT810_BT810_4_3_4,Length=0.033253000,Units=km
new line.1469713 bus1=BBT1676689.1.2.3.0,bus2=BBT3130806.1.2.3.0,Phases=3,Linecode=BT810_BT810_4_3_4,Length=0.029843000,Units=km
new line.1469720 bus1=BBT1676696.1.2.3.0,bus2=BBT1676689.1.2.3.0,Phases=3,Linecode=BT810_BT810_4_3_4,Length=0.029742000,Units=km
new line.1469727 bus1=BBT1676703.1.2.3.0,bus2=BBT1676710.1.2.3.0,Phases=3,Linecode=BT810_BT810_4_3_4,Length=0.034377000,Units=km
new line.1469734 bus1=BBT1676717.1.2.0,bus2=BBT1676724.1.2.0,Phases=2,Linecode=BT304_BT304_7_2_1,Length=0.000501000,Units=km
new line.1469748 bus1=BBT1676745.1.2.3.0,bus2=BBT1676752.1.2.3.0,Phases=3,Linecode=BT307_BT307_7_3_1,Length=0.000501000,Units=km
new line.1469755 bus1=BBT1676759.1.2.0,bus2=BBT1676766.1.2.0,Phases=2,Linecode=BT317_BT317_7_2_1,Length=0.000501000,Units=km
new line.1469769 bus1=BBT1676780.1.2.0,bus2=BBT1676787.1.2.0,Phases=2,Linecode=BT304_BT304_7_2_1,Length=0.000501000,Units=km
new line.1469776 bus1=BBT1676794.1.2.0,bus2=BBT1676801.1.2.0,Phases=2,Linecode=BT513_BT513_7_2_1,Length=0.000501000,Units=km
new line.1469783 bus1=BBT1676808.1.2.0,bus2=BBT1676815.1.2.0,Phases=2,Linecode=BT304_BT304_7_2_1,Length=0.000501000,Units=km
new line.1469790 bus1=BBT1676822.1.2.3.0,bus2=BBT1676829.1.2.3.0,Phases=3,Linecode=BT518_BT518_7_3_1,Length=0.000501000,Units=km
new line.1469797 bus1=BBT1676829.1.2.3.0,bus2=BBT1676836.1.2.3.0,Phases=3,Linecode=BT108_BT107_7_3_1,Length=0.026636000,Units=km
new line.1469804 bus1=BBT1676829.1.2.3.0,bus2=BBT1676892.1.2.3.0,Phases=3,Linecode=BT108_BT107_7_3_1,Length=0.026181000,Units=km
new line.1469811 bus1=BBT1676836.1.2.3.0,bus2=BBT1676843.1.2.3.0,Phases=3,Linecode=BT108_BT107_7_3_1,Length=0.035859000,Units=km
new line.1469818 bus1=BBT1676836.1.2.3.0,bus2=BBT1676850.1.2.3.0,Phases=3,Linecode=BT107_BT107_7_3_1,Length=0.029421000,Units=km
new line.1469825 bus1=BBT1676843.1.2.3.0,bus2=BBT1676857.1.2.3.0,Phases=3,Linecode=BT108_BT107_7_3_1,Length=0.041739000,Units=km
new line.1469832 bus1=BBT1676850.1.2.3.0,bus2=BBT1676864.1.2.3.0,Phases=3,Linecode=BT107_BT107_7_3_1,Length=0.026636000,Units=km
new line.1469839 bus1=BBT1676857.1.2.3.0,bus2=BBT1676871.1.2.3.0,Phases=3,Linecode=BT108_BT107_7_3_1,Length=0.030027000,Units=km
new line.1469846 bus1=BBT1676864.1.2.3.0,bus2=BBT3775849.1.2.3.0,Phases=3,Linecode=BT810_BT810_4_3_4,Length=0.025247000,Units=km
new line.1441832 bus1=BBT1646064.1.2.0,bus2=BBT1646071.1.2.0,Phases=2,Linecode=BT304_BT304_7_2_1,Length=0.000501000,Units=km
new line.1441839 bus1=BBT1646078.1.2.0,bus2=BBT1646085.1.2.0,Phases=2,Linecode=BT305_BT305_7_2_1,Length=0.000501000,Units=km
new line.1441846 bus1=BBT1646092.1.2.0,bus2=BBT1646099.1.2.0,Phases=2,Linecode=BT304_BT304_7_2_1,Length=0.000501000,Units=km
new line.1441853 bus1=BBT1646106.1.2.0,bus2=BBT1646113.1.2.0,Phases=2,Linecode=BT304_BT304_7_2_1,Length=0.000501000,Units=km
new line.1441867 bus1=BBT1646120.1.2.0,bus2=BBT1646127.1.2.0,Phases=2,Linecode=BT316_BT316_7_2_1,Length=0.000501000,Units=km
new line.1441874 bus1=BBT1646134.1.2.0,bus2=BBT1646141.1.2.0,Phases=2,Linecode=BT316_BT316_7_2_1,Length=0.000501000,Units=km
new line.1441881 bus1=BBT1646148.1.2.0,bus2=BBT1646155.1.2.0,Phases=2,Linecode=BT304_BT304_7_2_1,Length=0.000501000,Units=km
new line.1441888 bus1=BBT1646162.1.2.0,bus2=BBT1646169.1.2.0,Phases=2,Linecode=BT317_BT317_7_2_1,Length=0.000501000,Units=km
new line.1441902 bus1=BBT1646190.1.2.0,bus2=BBT1646197.1.2.0,Phases=2,Linecode=BT316_BT316_7_2_1,Length=0.000501000,Units=km
new line.1441930 bus1=BBT1646246.1.2.0,bus2=BBT1646253.1.2.0,Phases=2,Linecode=BT304_BT304_7_2_1,Length=0.000501000,Units=km
new line.1441944 bus1=BBT1646274.1.2.0,bus2=BBT1646281.1.2.0,Phases=2,Linecode=BT316_BT316_7_2_1,Length=0.000501000,Units=km
new line.1441951 bus1=BBT1646288.1.2.0,bus2=BBT1646295.1.2.0,Phases=2,Linecode=BT317_BT317_7_2_1,Length=0.000501000,Units=km
new line.1441958 bus1=BBT1646302.1.2.0,bus2=BBT1646309.1.2.0,Phases=2,Linecode=BT307_BT307_7_2_1,Length=0.000501000,Units=km
new line.1441965 bus1=BBT1646316.1.2.0,bus2=BBT1646323.1.2.0,Phases=2,Linecode=BT304_BT304_7_2_1,Length=0.000501000,Units=km
new line.1441972 bus1=BBT1646330.1.2.0,bus2=BBT1646337.1.2.0,Phases=2,Linecode=BT518_BT518_7_2_1,Length=0.000501000,Units=km
new line.1441979 bus1=BBT1646344.1.2.0,bus2=BBT1646351.1.2.0,Phases=2,Linecode=BT304_BT304_7_2_1,Length=0.000501000,Units=km
new line.1441986 bus1=BBT1646358.1.2.0,bus2=BBT1646365.1.2.0,Phases=2,Linecode=BT304_BT304_7_2_1,Length=0.000501000,Units=km
new line.1441993 bus1=BBT1646365.2.0,bus2=BBT2833558.2.0,Phases=1,Linecode=BT106_BT106_7_1_1,Length=0.055345000,Units=km
new line.1442007 bus1=BBT1646386.1.2.0,bus2=BBT1646393.1.2.0,Phases=2,Linecode=BT304_BT304_7_2_1,Length=0.000501000,Units=km
new line.1442014 bus1=BBT1646400.1.2.0,bus2=BBT1646407.1.2.0,Phases=2,Linecode=BT513_BT513_7_2_1,Length=0.000501000,Units=km
new line.1442028 bus1=BBT1646428.1.2.0,bus2=BBT1646435.1.2.0,Phases=2,Linecode=BT518_BT518_7_2_1,Length=0.000501000,Units=km
new line.1442035 bus1=BBT1646442.1.2.0,bus2=BBT1646449.1.2.0,Phases=2,Linecode=BT316_BT316_7_2_1,Length=0.000501000,Units=km
new line.1442056 bus1=BBT1646456.1.2.0,bus2=BBT1646463.1.2.0,Phases=2,Linecode=BT304_BT304_7_2_1,Length=0.000501000,Units=km
new line.1442070 bus1=BBT1646470.1.2.0,bus2=BBT1646477.1.2.0,Phases=2,Linecode=BT307_BT307_7_2_1,Length=0.000501000,Units=km
new line.1442084 bus1=BBT1646498.1.2.0,bus2=BBT1646505.1.2.0,Phases=2,Linecode=BT316_BT316_7_2_1,Length=0.000501000,Units=km
new line.1442098 bus1=BBT1646526.1.2.0,bus2=BBT1646533.1.2.0,Phases=2,Linecode=BT304_BT304_7_2_1,Length=0.000501000,Units=km
new line.1442133 bus1=BBT1646568.1.2.0,bus2=BBT1646575.1.2.0,Phases=2,Linecode=BT304_BT304_7_2_1,Length=0.000501000,Units=km
new line.1442147 bus1=BBT1646596.1.2.3.0,bus2=BBT1646603.1.2.3.0,Phases=3,Linecode=BT308_BT308_7_3_1,Length=0.000501000,Units=km
new line.1442154 bus1=BBT1646610.1.2.0,bus2=BBT1646617.1.2.0,Phases=2,Linecode=BT007_BT007_7_2_1,Length=0.000501000,Units=km
new line.1442161 bus1=BBT1646617.1.2.0,bus2=BBT2804697.1.2.0,Phases=2,Linecode=BT807_BT807_4_2_3,Length=0.026028000,Units=km
new line.1442168 bus1=BBT1646617.1.2.0,bus2=BBT2804704.1.2.0,Phases=2,Linecode=BT807_BT807_4_2_3,Length=0.029010000,Units=km
new line.1442203 bus1=BBT1646680.1.2.0,bus2=BBT1646687.1.2.0,Phases=2,Linecode=BT316_BT316_7_2_1,Length=0.000501000,Units=km
new line.1442231 bus1=BBT1646736.1.2.3.0,bus2=BBT1646743.1.2.3.0,Phases=3,Linecode=BT509_BT509_7_3_1,Length=0.000501000,Units=km
new line.1442252 bus1=BBT1646778.1.2.0,bus2=BBT1646785.1.2.0,Phases=2,Linecode=BT505_BT505_7_2_1,Length=0.000501000,Units=km
new line.1442336 bus1=BBT1646918.1.2.0,bus2=BBT1646925.1.2.0,Phases=2,Linecode=BT513_BT513_7_2_1,Length=0.000501000,Units=km
new line.1442343 bus1=BBT1646932.1.2.0,bus2=BBT1646939.1.2.0,Phases=2,Linecode=BT505_BT505_7_2_1,Length=0.000501000,Units=km
new line.1443449 bus1=BBT1648052.1.2.0,bus2=BBT1648059.1.2.0,Phases=2,Linecode=BT316_BT316_7_2_1,Length=0.000501000,Units=km
new line.1472884 bus1=BBT1679909.1.2.3.0,bus2=BBT1679930.1.2.3.0,Phases=3,Linecode=BT108_BT107_7_3_1,Length=0.013346000,Units=km
new line.1472891 bus1=BBT1679916.1.2.3.0,bus2=BBT1679909.1.2.3.0,Phases=3,Linecode=BT108_BT107_7_3_1,Length=0.019242000,Units=km
new line.1472898 bus1=BBT1679923.1.2.3.0,bus2=BBT1679888.1.2.3.0,Phases=3,Linecode=BT107_BT107_7_3_1,Length=0.035522000,Units=km
new line.1472905 bus1=BBT1679923.1.2.3.0,bus2=BBT1679916.1.2.3.0,Phases=3,Linecode=BT108_BT107_7_3_1,Length=0.036687000,Units=km
new line.1472912 bus1=BBT1679860.1.2.3.0,bus2=BBT1679923.1.2.3.0,Phases=3,Linecode=BT513_BT513_7_3_1,Length=0.000501000,Units=km
new line.1472919 bus1=BBT1679923.1.2.3.0,bus2=BBT1679937.1.2.3.0,Phases=3,Linecode=BT108_BT107_7_3_1,Length=0.043431000,Units=km
new line.1472926 bus1=BBT1679930.1.2.3.0,bus2=BBT1679944.1.2.3.0,Phases=3,Linecode=BT106_BT106_7_3_1,Length=0.024339000,Units=km
new line.1472933 bus1=BBT1679937.1.2.3.0,bus2=BBT1679972.1.2.3.0,Phases=3,Linecode=BT809_BT809_4_3_4,Length=0.038484000,Units=km
new line.1472940 bus1=BBT1679944.1.2.3.0,bus2=BBT1679951.1.2.3.0,Phases=3,Linecode=BT107_BT107_7_3_1,Length=0.025970000,Units=km
new line.1472947 bus1=BBT1679951.1.2.3.0,bus2=BBT1679958.1.2.3.0,Phases=3,Linecode=BT803_BT803_4_3_4,Length=0.042769000,Units=km
new line.1472954 bus1=BBT1679951.1.2.3.0,bus2=BBT1679965.1.2.3.0,Phases=3,Linecode=BT107_BT107_7_3_1,Length=0.030276000,Units=km
new line.1472961 bus1=BBT1679993.1.2.3.0,bus2=BBT1679986.1.2.3.0,Phases=3,Linecode=BT107_BT107_7_3_1,Length=0.039026000,Units=km
new line.1472968 bus1=BBT1680014.1.2.3.0,bus2=BBT1680007.1.2.3.0,Phases=3,Linecode=BT108_BT107_7_3_1,Length=0.037868000,Units=km
new line.1472975 bus1=BBT1680014.1.2.3.0,bus2=BBT1679993.1.2.3.0,Phases=3,Linecode=BT107_BT107_7_3_1,Length=0.035240000,Units=km
new line.1472982 bus1=BBT1680014.1.2.3.0,bus2=BBT1680049.1.2.3.0,Phases=3,Linecode=BT107_BT107_7_3_1,Length=0.031586000,Units=km
new line.1472989 bus1=BBT1680021.1.2.3.0,bus2=BBT1680014.1.2.3.0,Phases=3,Linecode=BT108_BT107_7_3_1,Length=0.033253000,Units=km
new line.1472996 bus1=BBT1679979.1.2.3.0,bus2=BBT1680021.1.2.3.0,Phases=3,Linecode=BT513_BT513_7_3_1,Length=0.000501000,Units=km
new line.1473003 bus1=BBT1680021.1.2.3.0,bus2=BBT1680028.1.2.3.0,Phases=3,Linecode=BT108_BT107_7_3_1,Length=0.038484000,Units=km
new line.1473010 bus1=BBT1680028.1.2.3.0,bus2=BBT1680000.1.2.3.0,Phases=3,Linecode=BT106_BT106_7_3_1,Length=0.035522000,Units=km
new line.1473017 bus1=BBT1680028.1.2.3.0,bus2=BBT1680035.1.2.3.0,Phases=3,Linecode=BT107_BT107_7_3_1,Length=0.008606000,Units=km
new line.1473024 bus1=BBT1680028.1.2.3.0,bus2=BBT1680042.1.2.3.0,Phases=3,Linecode=BT108_BT107_7_3_1,Length=0.028453000,Units=km
new line.1473031 bus1=BBT1680035.1.2.3.0,bus2=BBT1680056.1.2.3.0,Phases=3,Linecode=BT107_BT107_7_3_1,Length=0.028645000,Units=km
new line.1469853 bus1=BBT1676871.1.2.3.0,bus2=BBT1676878.1.2.3.0,Phases=3,Linecode=BT108_BT107_7_3_1,Length=0.045203000,Units=km
new line.1469860 bus1=BBT1676878.1.2.3.0,bus2=BBT1676885.1.2.3.0,Phases=3,Linecode=BT108_BT107_7_3_1,Length=0.032026000,Units=km
new line.1469867 bus1=BBT1676892.1.2.3.0,bus2=BBT1676899.1.2.3.0,Phases=3,Linecode=BT108_BT107_7_3_1,Length=0.025464000,Units=km
new line.1469874 bus1=BBT1676892.1.2.3.0,bus2=BBT1676941.1.2.3.0,Phases=3,Linecode=BT803_BT803_4_3_4,Length=0.036890000,Units=km
new line.1469881 bus1=BBT1676899.1.2.3.0,bus2=BBT1676906.1.2.3.0,Phases=3,Linecode=BT108_BT107_7_3_1,Length=0.025464000,Units=km
new line.1469888 bus1=BBT1676906.1.2.3.0,bus2=BBT1676913.1.2.3.0,Phases=3,Linecode=BT810_BT810_4_3_4,Length=0.033026000,Units=km
new line.1469895 bus1=BBT1676920.1.2.3.0,bus2=BBT167626320.1.2.3.0,Phases=3,Linecode=BT803_BT803_4_3_4,Length=0.034070000,Units=km
new line.1469902 bus1=BBT1676913.1.2.3.0,bus2=BBT2940364.1.2.3.0,Phases=3,Linecode=BT809_BT809_4_3_4,Length=0.029692000,Units=km
new line.1469909 bus1=BBT1676920.1.2.3.0,bus2=BBT1676927.1.2.3.0,Phases=3,Linecode=BT803_BT803_4_3_4,Length=0.031838000,Units=km
new line.1469916 bus1=BBT1676927.1.2.3.0,bus2=BBT1676934.1.2.3.0,Phases=3,Linecode=BT803_BT803_4_3_4,Length=0.038846000,Units=km
new line.1469923 bus1=BBT1676941.1.2.0,bus2=BBT3831905.1.2.0,Phases=2,Linecode=BT808_BT808_4_2_3,Length=0.038223000,Units=km
new line.1469930 bus1=BBT1676948.1.2.3.0,bus2=BBT1676955.1.2.3.0,Phases=3,Linecode=BT307_BT307_7_3_1,Length=0.000501000,Units=km
new line.1469937 bus1=BBT1676976.1.2.3.0,bus2=BBT1676983.1.2.3.0,Phases=3,Linecode=BT803_BT803_4_3_4,Length=0.026636000,Units=km
new line.1469944 bus1=BBT1676976.1.2.3.0,bus2=BBT2615025.1.2.3.0,Phases=3,Linecode=BT810_BT810_4_3_4,Length=0.044298000,Units=km
new line.1469951 bus1=BBT1676983.1.2.3.0,bus2=BBT1676990.1.2.3.0,Phases=3,Linecode=BT803_BT803_4_3_4,Length=0.030010000,Units=km
new line.1469958 bus1=BBT1676983.1.2.3.0,bus2=BBT2615032.1.2.3.0,Phases=3,Linecode=BT810_BT810_4_3_4,Length=0.036509000,Units=km
new line.1469965 bus1=BBT1676990.1.2.3.0,bus2=BBT1676997.1.2.3.0,Phases=3,Linecode=BT810_BT810_4_3_4,Length=0.030604000,Units=km
new line.1469972 bus1=BBT1676990.1.2.3.0,bus2=BBT2614787.1.2.3.0,Phases=3,Linecode=BT803_BT803_4_3_4,Length=0.036137000,Units=km
new line.1469979 bus1=BBT1676997.1.2.3.0,bus2=BBT1677004.1.2.3.0,Phases=3,Linecode=BT810_BT810_4_3_4,Length=0.032996000,Units=km
new line.1469986 bus1=BBT2614787.1.2.3.0,bus2=BBT2615046.1.2.3.0,Phases=3,Linecode=BT810_BT810_4_3_4,Length=0.031267000,Units=km
new line.1469993 bus1=BBT1677018.1.2.3.0,bus2=BBT1677011.1.2.3.0,Phases=3,Linecode=BT810_BT810_4_3_4,Length=0.028311000,Units=km
new line.1470007 bus1=BBT1677032.1.2.3.0,bus2=BBT1677018.1.2.3.0,Phases=3,Linecode=BT810_BT810_4_3_4,Length=0.031917000,Units=km
new line.1470014 bus1=BBT1677039.1.2.0,bus2=BBT1677025.1.2.0,Phases=2,Linecode=BT106_BT106_7_2_1,Length=0.031331000,Units=km
new line.1470021 bus1=BBT1677046.1.2.0,bus2=BBT1677039.1.2.0,Phases=2,Linecode=BT106_BT106_7_2_1,Length=0.031059000,Units=km
new line.1470028 bus1=BBT1677053.1.2.3.0,bus2=BBT1677032.1.2.3.0,Phases=3,Linecode=BT810_BT810_4_3_4,Length=0.049261000,Units=km
new line.1470035 bus1=BBT1677060.1.2.0,bus2=BBT1677046.1.2.0,Phases=2,Linecode=BT106_BT106_7_2_1,Length=0.031027000,Units=km
new line.1470042 bus1=BBT1677060.1.2.3.0,bus2=BBT1677053.1.2.3.0,Phases=3,Linecode=BT810_BT810_4_3_4,Length=0.026692000,Units=km
new line.1470049 bus1=BBT1677067.1.2.3.0,bus2=BBT1677060.1.2.3.0,Phases=3,Linecode=BT108_BT107_7_3_1,Length=0.027866000,Units=km
new line.1470056 bus1=BBT1677074.1.2.3.0,bus2=BBT1677067.1.2.3.0,Phases=3,Linecode=BT108_BT107_7_3_1,Length=0.029165000,Units=km
new line.1470063 bus1=BBT1676962.1.2.3.0,bus2=BBT1677074.1.2.3.0,Phases=3,Linecode=BT518_BT518_7_3_1,Length=0.000501000,Units=km
new line.1470070 bus1=BBT1677074.1.2.3.0,bus2=BBT1677081.1.2.3.0,Phases=3,Linecode=BT108_BT107_7_3_1,Length=0.031395000,Units=km
new line.1470077 bus1=BBT1677081.1.2.3.0,bus2=BBT1677095.1.2.3.0,Phases=3,Linecode=BT108_BT107_7_3_1,Length=0.028802000,Units=km
new line.1470084 bus1=BBT1677088.1.2.3.0,bus2=BBT75197763.1.2.3.0,Phases=3,Linecode=BT803_BT803_4_3_4,Length=0.034940000,Units=km
new line.1470091 bus1=BBT1677095.1.2.3.0,bus2=BBT1677102.1.2.3.0,Phases=3,Linecode=BT106_BT106_7_3_1,Length=0.028435000,Units=km
new line.1470098 bus1=BBT1677102.1.2.3.0,bus2=BBT1677109.1.2.3.0,Phases=3,Linecode=BT106_BT106_7_3_1,Length=0.030424000,Units=km
new line.1470105 bus1=BBT1677109.1.2.3.0,bus2=BBT1677116.1.2.3.0,Phases=3,Linecode=BT106_BT106_7_3_1,Length=0.035480000,Units=km
new line.1470112 bus1=BBT1677123.1.2.0,bus2=BBT1677130.1.2.0,Phases=2,Linecode=BT307_BT307_7_2_1,Length=0.000501000,Units=km
new line.1470119 bus1=BBT1677137.1.2.3.0,bus2=BBT1677088.1.2.3.0,Phases=3,Linecode=BT514_BT514_7_3_1,Length=0.000501000,Units=km
new line.1470126 bus1=BBT75213401.1.2.3.0,bus2=BBT1677144.1.2.3.0,Phases=3,Linecode=BT803_BT803_4_3_4,Length=0.030816000,Units=km
new line.1470133 bus1=BBT1677088.1.2.3.0,bus2=BBT75199338.1.2.3.0,Phases=3,Linecode=BT803_BT803_4_3_4,Length=0.024524000,Units=km
new line.1470147 bus1=BBT1740144.1.2.3.0,bus2=BBT1740151.1.2.3.0,Phases=3,Linecode=BT314_BT314_7_3_1,Length=0.000501000,Units=km
new line.1470154 bus1=BBT1677165.1.2.3.0,bus2=BBT1677172.1.2.3.0,Phases=3,Linecode=BT307_BT307_7_3_1,Length=0.000501000,Units=km
new line.1470161 bus1=BBT1677193.1.2.3.0,bus2=BBT1749363.1.2.3.0,Phases=3,Linecode=BT803_BT803_4_3_4,Length=0.040867000,Units=km
new line.1470168 bus1=BBT1677207.1.2.3.0,bus2=BBT1677186.1.2.3.0,Phases=3,Linecode=BT810_BT810_4_3_4,Length=0.031027000,Units=km
new line.1470175 bus1=BBT1677207.1.2.3.0,bus2=BBT1677200.1.2.3.0,Phases=3,Linecode=BT803_BT803_4_3_4,Length=0.020255000,Units=km
new line.1470182 bus1=BBT1677214.1.2.3.0,bus2=BBT1677207.1.2.3.0,Phases=3,Linecode=BT803_BT803_4_3_4,Length=0.020255000,Units=km
new line.1470189 bus1=BBT1677221.1.2.3.0,bus2=BBT1677228.1.2.3.0,Phases=3,Linecode=BT803_BT803_4_3_4,Length=0.046026000,Units=km
new line.1470196 bus1=BBT1677228.1.2.3.0,bus2=BBT1677235.1.2.3.0,Phases=3,Linecode=BT803_BT803_4_3_4,Length=0.035012000,Units=km
new line.1470203 bus1=BBT1677235.1.2.3.0,bus2=BBT1677256.1.2.3.0,Phases=3,Linecode=BT803_BT803_4_3_4,Length=0.047185000,Units=km
new line.1470210 bus1=BBT1677235.1.2.3.0,bus2=BBT3775856.1.2.3.0,Phases=3,Linecode=BT810_BT810_4_3_4,Length=0.017470000,Units=km
new line.1470217 bus1=BBT1677193.1.2.3.0,bus2=BBT1677242.1.2.3.0,Phases=3,Linecode=BT803_BT803_4_3_4,Length=0.028170000,Units=km
new line.1470224 bus1=BBT1677242.1.2.3.0,bus2=BBT1677214.1.2.3.0,Phases=3,Linecode=BT803_BT803_4_3_4,Length=0.037960000,Units=km
new line.1470231 bus1=BBT1677249.1.2.3.0,bus2=BBT1677221.1.2.3.0,Phases=3,Linecode=BT803_BT803_4_3_4,Length=0.027212000,Units=km
new line.1470238 bus1=BBT1677249.1.2.3.0,bus2=BBT1677298.1.2.3.0,Phases=3,Linecode=BT107_BT107_7_3_1,Length=0.041014000,Units=km
new line.1470252 bus1=BBT1677263.1.2.3.0,bus2=BBT1677249.1.2.3.0,Phases=3,Linecode=BT803_BT803_4_3_4,Length=0.030686000,Units=km
new line.1470259 bus1=BBT1677179.1.2.3.0,bus2=BBT1677263.1.2.3.0,Phases=3,Linecode=BT518_BT518_7_3_1,Length=0.000501000,Units=km
new line.1470266 bus1=BBT1677263.1.2.3.0,bus2=BBT1677277.1.2.3.0,Phases=3,Linecode=BT803_BT803_4_3_4,Length=0.038910000,Units=km
new line.1470273 bus1=BBT1677270.1.2.3.0,bus2=BBT1677354.1.2.3.0,Phases=3,Linecode=BT810_BT810_4_3_4,Length=0.035747000,Units=km
new line.1473038 bus1=BBT1680049.1.2.3.0,bus2=BBT1680063.1.2.3.0,Phases=3,Linecode=BT107_BT107_7_3_1,Length=0.033388000,Units=km
new line.1473045 bus1=BBT1680056.1.2.3.0,bus2=BBT1680077.1.2.3.0,Phases=3,Linecode=BT107_BT107_7_3_1,Length=0.032768000,Units=km