new line.CTR13280 bus1=BMT98289305.1,bus2=BMT98289333.1,Phases=1,LineCode=tieSwitch1,Length=0.001,Units=km,switch=T !numEQ 160760
new line.CTR132910 bus1=BMT162580869.1.2.3,bus2=BMT162579957.1.2.3,Phases=3,LineCode=tieSwitch,Length=0.001,Units=km,switch=T !numEQ 161656
open line.CTR132910 term=1
new line.CTR142794 bus1=BMT98294737.3,bus2=BMT164807869.3,Phases=1,LineCode=tieSwitch1,Length=0.001,Units=km,switch=T !numEQ 134568
new line.CTR142892 bus1=BMT162580846.1.2.3,bus2=BMT162580847.1.2.3,Phases=3,LineCode=tieSwitch,Length=0.001,Units=km,switch=T !numEQ 161654
new line.CTR143312 bus1=BMT98292133.1.2.3,bus2=BMT170738178.1.2.3,Phases=3,LineCode=tieSwitch,Length=0.001,Units=km,switch=T !numEQ 161273
new line.CTR152006 bus1=BMT98289767.1,bus2=BMT98289963.1,Phases=1,LineCode=tieSwitch1,Length=0.001,Units=km,switch=T !numEQ 105534
new line.CTR164480 bus1=BMT162580874.1.2.3,bus2=BMT165091406.1.2.3,Phases=3,LineCode=tieSwitch,Length=0.001,Units=km,switch=T !numEQ 161417
new line.CTR164494 bus1=BMT162579969.1,bus2=BMT165092006.1,Phases=1,LineCode=tieSwitch1,Length=0.001,Units=km,switch=T !numEQ 130980
new line.CTR164606 bus1=BMT98289746.2,bus2=BMT167571107.2,Phases=1,LineCode=tieSwitch1,Length=0.001,Units=km,switch=T !numEQ 161271
new line.CTR164676 bus1=BMT162579887.1.2.3,bus2=BMT162579888.1.2.3,Phases=3,LineCode=tieSwitch,Length=0.001,Units=km,switch=T !numEQ 161660
open line.CTR164676 term=1
new line.CTR164690 bus1=BMT162579871.1.2.3,bus2=BMT162579883.1.2.3,Phases=3,LineCode=tieSwitch,Length=0.001,Units=km,switch=T !numEQ 37707
new line.CTR164704 bus1=BMT162579898.1.2.3,bus2=BMT164628028.1.2.3,Phases=3,LineCode=tieSwitch,Length=0.001,Units=km,switch=T !numEQ 161662
new line.CTR164718 bus1=BMT162580827.1.2.3,bus2=BMT162579908.1.2.3,Phases=3,LineCode=tieSwitch,Length=0.001,Units=km,switch=T !numEQ 161663
open line.CTR164718 term=1
new line.CTR164921 bus1=BMT162580729.1.2.3,bus2=BMT169688573.1.2.3,Phases=3,LineCode=tieSwitch,Length=0.001,Units=km,switch=T !numEQ 161639
new line.CTR16514 bus1=BMT162580821.1.2.3,bus2=BMT162580824.1.2.3,Phases=3,LineCode=tieSwitch,Length=0.001,Units=km,switch=T !numEQ 161664
new line.CTR193656220 bus1=BMT2389066586.1.2.3,bus2=BMT2193656915.1.2.3,Phases=3,LineCode=tieSwitch,Length=0.001,Units=km,switch=T !numEQ 
new line.CTR193656238 bus1=BMT2193656953.1.2.3,bus2=BMT2389066585.1.2.3,Phases=3,LineCode=tieSwitch,Length=0.001,Units=km,switch=T !numEQ 
new line.CTR193656280 bus1=BMT2193656879.1.2.3,bus2=BMT2389066590.1.2.3,Phases=3,LineCode=tieSwitch,Length=0.001,Units=km,switch=T !numEQ 
new line.CTR193656294 bus1=BMT2193656867.1.2.3,bus2=BMT2389066588.1.2.3,Phases=3,LineCode=tieSwitch,Length=0.001,Units=km,switch=T !numEQ 
new line.CTR193656308 bus1=BMT2193656855.1.2.3,bus2=BMT2389066587.1.2.3,Phases=3,LineCode=tieSwitch,Length=0.001,Units=km,switch=T !numEQ 
new line.CTR193656322 bus1=BMT2193656841.1.2.3,bus2=BMT2389066589.1.2.3,Phases=3,LineCode=tieSwitch,Length=0.001,Units=km,switch=T !numEQ 
new line.CTR193656708 bus1=BMT2193655991.1.2.3,bus2=BMT2389066586.1.2.3,Phases=3,LineCode=tieSwitch,Length=0.001,Units=km,switch=T !numEQ 
new line.CTR193656724 bus1=BMT2389066585.1.2.3,bus2=BMT2193656070.1.2.3,Phases=3,LineCode=tieSwitch,Length=0.001,Units=km,switch=T !numEQ 
new line.CTR193656736 bus1=BMT2389066590.1.2.3,bus2=BMT2193656136.1.2.3,Phases=3,LineCode=tieSwitch,Length=0.001,Units=km,switch=T !numEQ 
new line.CTR193656748 bus1=BMT2389066588.1.2.3,bus2=BMT2193656154.1.2.3,Phases=3,LineCode=tieSwitch,Length=0.001,Units=km,switch=T !numEQ 
new line.CTR193656760 bus1=BMT2389066587.1.2.3,bus2=BMT2193656169.1.2.3,Phases=3,LineCode=tieSwitch,Length=0.001,Units=km,switch=T !numEQ 
new line.CTR193656772 bus1=BMT2389066589.1.2.3,bus2=BMT2193655991.1.2.3,Phases=3,LineCode=tieSwitch,Length=0.001,Units=km,switch=T !numEQ 
new line.CTR193656838 bus1=BMT2384119265.1.2.3,bus2=BMT2193656841.1.2.3,Phases=3,LineCode=tieSwitch,Length=0.001,Units=km,switch=T !numEQ 
new line.CTR193656854 bus1=BMT2384119289.1.2.3,bus2=BMT2193656855.1.2.3,Phases=3,LineCode=tieSwitch,Length=0.001,Units=km,switch=T !numEQ 
new line.CTR193656866 bus1=BMT2384119301.1.2.3,bus2=BMT2193656867.1.2.3,Phases=3,LineCode=tieSwitch,Length=0.001,Units=km,switch=T !numEQ 
new line.CTR193656878 bus1=BMT2384119313.1.2.3,bus2=BMT2193656879.1.2.3,Phases=3,LineCode=tieSwitch,Length=0.001,Units=km,switch=T !numEQ 
new line.CTR193656914 bus1=BMT2193656915.1.2.3,bus2=BMT2384119337.1.2.3,Phases=3,LineCode=tieSwitch,Length=0.001,Units=km,switch=T !numEQ 
new line.CTR193656926 bus1=BMT2384119325.1.2.3,bus2=BMT2193656953.1.2.3,Phases=3,LineCode=tieSwitch,Length=0.001,Units=km,switch=T !numEQ 
new line.CTR20924 bus1=BMT162580375.1,bus2=BMT162580512.1,Phases=1,LineCode=tieSwitch1,Length=0.001,Units=km,switch=T !numEQ 161855
new line.CTR33734 bus1=BMT162580814.1.2.3,bus2=BMT162580816.1.2.3,Phases=3,LineCode=tieSwitch,Length=0.001,Units=km,switch=T !numEQ 161661
new line.CTR36898 bus1=BMT162580986.1.2.3,bus2=BMT162580987.1.2.3,Phases=3,LineCode=tieSwitch,Length=0.001,Units=km,switch=T !numEQ 107885
new line.CTR42932 bus1=BMT150439131.1.2.3,bus2=BMT163772214.1.2.3,Phases=3,LineCode=tieSwitch,Length=0.001,Units=km,switch=T !numEQ 127340
new line.CTR42988 bus1=BMT162580262.1.2.3,bus2=BMT162580263.1.2.3,Phases=3,LineCode=tieSwitch,Length=0.001,Units=km,switch=T !numEQ 124511
open line.CTR42988 term=1
new line.CTR43044 bus1=BMT98293309.1.2.3,bus2=BMT171589282.1.2.3,Phases=3,LineCode=tieSwitch,Length=0.001,Units=km,switch=T !numEQ 36526
new line.CTR43114 bus1=BMT98293932.1.2.3,bus2=BMT164243801.1.2.3,Phases=3,LineCode=tieSwitch,Length=0.001,Units=km,switch=T !numEQ 36529
new line.CTR48007 bus1=BMT98295199.2,bus2=BMT98295325.2,Phases=1,LineCode=tieSwitch1,Length=0.001,Units=km,switch=T !numEQ 143757
new line.CTR48056 bus1=BMT165081810.1.2.3,bus2=BMT3919345.1.2.3,Phases=3,LineCode=tieSwitch,Length=0.001,Units=km,switch=T !numEQ 161266
open line.CTR48056 term=1
new line.CTR518974 bus1=BMT98289102.1.2.3,bus2=BMT150338827.1.2.3,Phases=3,LineCode=tieSwitch,Length=0.001,Units=km,switch=T !numEQ 140634
new line.CTR521998 bus1=BMT162580666.1.2.3,bus2=BMT168404911.1.2.3,Phases=3,LineCode=tieSwitch,Length=0.001,Units=km,switch=T !numEQ 161640
new line.CTR555892 bus1=BMT98303095.1.2.3,bus2=BMT98303123.1.2.3,Phases=3,LineCode=tieSwitch,Length=0.001,Units=km,switch=T !numEQ 131275
new line.CTR559616 bus1=BMT98287688.1.2.3,bus2=BMT98287828.1.2.3,Phases=3,LineCode=tieSwitch,Length=0.001,Units=km,switch=T !numEQ 36199
new line.CTR587406 bus1=BMT162581043.1.2.3,bus2=BMT162581044.1.2.3,Phases=3,LineCode=tieSwitch,Length=0.001,Units=km,switch=T !numEQ 107881
new line.CTR59109 bus1=BMT98300274.2,bus2=BMT170304051.2,Phases=1,LineCode=tieSwitch1,Length=0.001,Units=km,switch=T !numEQ 112452
new line.CTR624891 bus1=BMT162581041.1.2.3,bus2=BMT162581046.1.2.3,Phases=3,LineCode=tieSwitch,Length=0.001,Units=km,switch=T !numEQ 162804
new line.CTR625353 bus1=BMT98300533.1.2.3,bus2=BMT98300540.1.2.3,Phases=3,LineCode=tieSwitch,Length=0.001,Units=km,switch=T !numEQ 159896
new line.CTR626137 bus1=BMT169549262.1.2.3,bus2=BMT137640162.1.2.3,Phases=3,LineCode=tieSwitch,Length=0.001,Units=km,switch=T !numEQ 36517
new line.CTR699140 bus1=BMT162580904.1.2.3,bus2=BMT162580905.1.2.3,Phases=3,LineCode=tieSwitch,Length=0.001,Units=km,switch=T !numEQ 163474
new line.CTR73018 bus1=BMT98298237.3,bus2=BMT171819811.3,Phases=1,LineCode=tieSwitch1,Length=0.001,Units=km,switch=T !numEQ 34447
new line.CTR730213 bus1=BMT162580253.1,bus2=BMT162580323.1,Phases=1,LineCode=tieSwitch1,Length=0.001,Units=km,switch=T !numEQ 210777
new line.CTR73032 bus1=BMT98297726.2,bus2=BMT152573958.2,Phases=1,LineCode=tieSwitch1,Length=0.001,Units=km,switch=T !numEQ 34448
new line.CTR121962 bus1=BMT162580354.2,bus2=BMT162580361.2,Phases=1,LineCode=tieSwitch1,Length=0.001,Units=km,switch=T !numEQ 34313
new line.CTR143760 bus1=BMT98289179.1.2.3,bus2=BMT150338831.1.2.3,Phases=3,LineCode=tieSwitch,Length=0.001,Units=km,switch=T !numEQ 162089
new line.CTR145202 bus1=BMT162580406.1.2.3,bus2=BMT162580443.1.2.3,Phases=3,LineCode=tieSwitch,Length=0.001,Units=km,switch=T !numEQ 105502
new line.CTR171410 bus1=BMT98290740.1.2.3,bus2=BMT161234457.1.2.3,Phases=3,LineCode=tieSwitch,Length=0.001,Units=km,switch=T !numEQ 147188
new line.CTR171452 bus1=BMT98289613.1.2.3,bus2=BMT98290299.1.2.3,Phases=3,LineCode=tieSwitch,Length=0.001,Units=km,switch=T !numEQ 147186
new line.CTR171830 bus1=BMT98303536.3,bus2=BMT166978328.3,Phases=1,LineCode=tieSwitch1,Length=0.001,Units=km,switch=T !numEQ 143751
new line.CTR27448 bus1=BMT162580866.1,bus2=BMT162581019.1,Phases=1,LineCode=tieSwitch1,Length=0.001,Units=km,switch=T !numEQ 118879
new line.CTR38732 bus1=BMT163772335.1.2.3,bus2=BMT2346620.1.2.3,Phases=3,LineCode=tieSwitch,Length=0.001,Units=km,switch=T !numEQ 36197
new line.CTR41406 bus1=BMT98300897.3,bus2=BMT172166045.3,Phases=1,LineCode=tieSwitch1,Length=0.001,Units=km,switch=T !numEQ 163428
new line.CTR50100 bus1=BMT98292154.1.2.3,bus2=BMT98292175.1.2.3,Phases=3,LineCode=tieSwitch,Length=0.001,Units=km,switch=T !numEQ 161272
new line.CTR50226 bus1=BMT98299182.1,bus2=BMT98299245.1,Phases=1,LineCode=tieSwitch1,Length=0.001,Units=km,switch=T !numEQ 161549
new line.CTR50352 bus1=BMT162581026.1.2.3,bus2=BMT162581031.1.2.3,Phases=3,LineCode=tieSwitch,Length=0.001,Units=km,switch=T !numEQ 161386
new line.CTR50429 bus1=BMT98296340.2,bus2=BMT152573888.2,Phases=1,LineCode=tieSwitch1,Length=0.001,Units=km,switch=T !numEQ 161574
new line.CTR537188 bus1=BMT98289445.1.2.3,bus2=BMT163488156.1.2.3,Phases=3,LineCode=tieSwitch,Length=0.001,Units=km,switch=T !numEQ 36502
new line.CTR538952 bus1=BMT98300820.3,bus2=BMT98300855.3,Phases=1,LineCode=tieSwitch1,Length=0.001,Units=km,switch=T !numEQ 136729
new line.CTR539225 bus1=BMT162580626.1.2.3,bus2=BMT162580633.1.2.3,Phases=3,LineCode=tieSwitch,Length=0.001,Units=km,switch=T !numEQ 107871
new line.CTR539239 bus1=BMT162579943.1.2.3,bus2=BMT162580643.1.2.3,Phases=3,LineCode=tieSwitch,Length=0.001,Units=km,switch=T !numEQ 107874
new line.CTR539512 bus1=BMT98303046.1.2.3,bus2=BMT149088698.1.2.3,Phases=3,LineCode=tieSwitch,Length=0.001,Units=km,switch=T !numEQ 105529
new line.CTR567722 bus1=BMT162580408.1.2.3,bus2=BMT162580441.1.2.3,Phases=3,LineCode=tieSwitch,Length=0.001,Units=km,switch=T !numEQ 134515
new line.CTR568639 bus1=BMT164666167.1.2.3,bus2=BMT164891808.1.2.3,Phases=3,LineCode=tieSwitch,Length=0.001,Units=km,switch=T !numEQ 259670
new line.CTR569829 bus1=BMT98294310.1,bus2=BMT98294450.1,Phases=1,LineCode=tieSwitch1,Length=0.001,Units=km,switch=T !numEQ 35410
new line.CTR570179 bus1=BMT98303480.3,bus2=BMT168005301.3,Phases=1,LineCode=tieSwitch1,Length=0.001,Units=km,switch=T !numEQ 163083
new line.CTR608833 bus1=BMT164187061.1.2.3,bus2=BMT172619651.1.2.3,Phases=3,LineCode=tieSwitch,Length=0.001,Units=km,switch=T !numEQ 36538
new line.CTR63162 bus1=BMT162580530.1.2.3,bus2=BMT162580532.1.2.3,Phases=3,LineCode=tieSwitch,Length=0.001,Units=km,switch=T !numEQ 107869
new line.CTR655719 bus1=BMT98293183.1.2.3,bus2=BMT98293190.1.2.3,Phases=3,LineCode=tieSwitch,Length=0.001,Units=km,switch=T !numEQ 36522
new line.CTR655733 bus1=BMT166642948.1.2.3,bus2=BMT168394871.1.2.3,Phases=3,LineCode=tieSwitch,Length=0.001,Units=km,switch=T !numEQ 36561
new line.CTR655761 bus1=BMT162580235.1,bus2=BMT170729137.1,Phases=1,LineCode=tieSwitch1,Length=0.001,Units=km,switch=T !numEQ 36566
new line.CTR655775 bus1=BMT162579971.1.2.3,bus2=BMT172348600.1.2.3,Phases=3,LineCode=tieSwitch,Length=0.001,Units=km,switch=T !numEQ 36568
new line.CTR655789 bus1=BMT98290901.1.2.3,bus2=BMT165628847.1.2.3,Phases=3,LineCode=tieSwitch,Length=0.001,Units=km,switch=T !numEQ 36570
new line.CTR655887 bus1=BMT98293323.1.2.3,bus2=BMT160872147.1.2.3,Phases=3,LineCode=tieSwitch,Length=0.001,Units=km,switch=T !numEQ 36525
new line.CTR655929 bus1=BMT98296452.2,bus2=BMT152574131.2,Phases=1,LineCode=tieSwitch1,Length=0.001,Units=km,switch=T !numEQ 34445
new line.CTR655971 bus1=BMT172511728.1.2.3,bus2=BMT2026552.1.2.3,Phases=3,LineCode=tieSwitch,Length=0.001,Units=km,switch=T !numEQ 36533
open line.CTR655971 term=1
new line.CTR656167 bus1=BMT98289606.1.2.3,bus2=BMT98290250.1.2.3,Phases=3,LineCode=tieSwitch,Length=0.001,Units=km,switch=T !numEQ 36505
new line.CTR656685 bus1=BMT98286946.2,bus2=BMT165402447.2,Phases=1,LineCode=tieSwitch1,Length=0.001,Units=km,switch=T !numEQ 36546
new line.CTR657273 bus1=BMT162579872.1.2.3,bus2=BMT162579873.1.2.3,Phases=3,LineCode=tieSwitch,Length=0.001,Units=km,switch=T !numEQ 35414
new line.CTR657378 bus1=BMT98293316.1.2.3,bus2=BMT155405134.1.2.3,Phases=3,LineCode=tieSwitch,Length=0.001,Units=km,switch=T !numEQ 36551
new line.CTR657427 bus1=BMT98297061.2,bus2=BMT161038666.2,Phases=1,LineCode=tieSwitch1,Length=0.001,Units=km,switch=T !numEQ 304416
new line.CTR657441 bus1=BMT162579983.1,bus2=BMT162989422.1,Phases=1,LineCode=tieSwitch1,Length=0.001,Units=km,switch=T !numEQ 35381
new line.CTR657455 bus1=BMT162580543.1,bus2=BMT162580561.1,Phases=1,LineCode=tieSwitch1,Length=0.001,Units=km,switch=T !numEQ 35383
new line.CTR657469 bus1=BMT98294996.2,bus2=BMT161287806.2,Phases=1,LineCode=tieSwitch1,Length=0.001,Units=km,switch=T !numEQ 35384
new line.CTR657539 bus1=BMT98296606.2,bus2=BMT152574049.2,Phases=1,LineCode=tieSwitch1,Length=0.001,Units=km,switch=T !numEQ 35393
new line.CTR658967 bus1=BMT98291055.1.2.3,bus2=BMT160517787.1.2.3,Phases=3,LineCode=tieSwitch,Length=0.001,Units=km,switch=T !numEQ 37694
new line.CTR659961 bus1=BMT166467855.1.2.3,bus2=BMT22597710.1.2.3,Phases=3,LineCode=tieSwitch,Length=0.001,Units=km,switch=T !numEQ 161985
open line.CTR659961 term=1
new line.CTR660731 bus1=BMT98292168.1.2.3,bus2=BMT98289718.1.2.3,Phases=3,LineCode=tieSwitch,Length=0.001,Units=km,switch=T !numEQ 161267
open line.CTR660731 term=1
new line.CTR74278 bus1=BMT98286701.1.2.3,bus2=BMT166463111.1.2.3,Phases=3,LineCode=tieSwitch,Length=0.001,Units=km,switch=T !numEQ 34783
new line.CTR74306 bus1=BMT98287716.1.2.3,bus2=BMT98287723.1.2.3,Phases=3,LineCode=tieSwitch,Length=0.001,Units=km,switch=T !numEQ 34394
new line.CTR74320 bus1=BMT98286736.2,bus2=BMT164669517.2,Phases=1,LineCode=tieSwitch1,Length=0.001,Units=km,switch=T !numEQ 34782
new line.CTR74334 bus1=BMT98292049.1.2.3,bus2=BMT171195646.1.2.3,Phases=3,LineCode=tieSwitch,Length=0.001,Units=km,switch=T !numEQ 34785
new line.CTR74348 bus1=BMT98290628.1.2.3,bus2=BMT98292490.1.2.3,Phases=3,LineCode=tieSwitch,Length=0.001,Units=km,switch=T !numEQ 34786
new line.CTR119617 bus1=BMT98294149.1.2.3,bus2=BMT168393204.1.2.3,Phases=3,LineCode=tieSwitch,Length=0.001,Units=km,switch=T !numEQ 126622
new line.CTR134352 bus1=BMT162580358.1.2.3,bus2=BMT162580359.1.2.3,Phases=3,LineCode=tieSwitch,Length=0.001,Units=km,switch=T !numEQ 76191
new line.CTR168666 bus1=BMT162580230.1.2.3,bus2=BMT162580232.1.2.3,Phases=3,LineCode=tieSwitch,Length=0.001,Units=km,switch=T !numEQ 162958
new line.CTR168680 bus1=BMT162580233.2,bus2=BMT164663929.2,Phases=1,LineCode=tieSwitch1,Length=0.001,Units=km,switch=T !numEQ 162472
new line.CTR36142 bus1=BMT165091414.1.2.3,bus2=BMT162580228.1.2.3,Phases=3,LineCode=tieSwitch,Length=0.001,Units=km,switch=T !numEQ 161420
open line.CTR36142 term=1
new line.CTR45326 bus1=BMT162580630.1.2.3,bus2=BMT162580631.1.2.3,Phases=3,LineCode=tieSwitch,Length=0.001,Units=km,switch=T !numEQ 107872
new line.CTR45340 bus1=BMT162580008.1.2.3,bus2=BMT162580114.1.2.3,Phases=3,LineCode=tieSwitch,Length=0.001,Units=km,switch=T !numEQ 107870
new line.CTR515418 bus1=BMT169287763.1.2.3,bus2=BMT162580389.1.2.3,Phases=3,LineCode=tieSwitch,Length=0.001,Units=km,switch=T !numEQ 34799
new line.CTR517014 bus1=BMT150439431.3,bus2=BMT165502969.3,Phases=1,LineCode=tieSwitch1,Length=0.001,Units=km,switch=T !numEQ 36194
new line.CTR517336 bus1=BMT98300743.3,bus2=BMT98300883.3,Phases=1,LineCode=tieSwitch1,Length=0.001,Units=km,switch=T !numEQ 159892
new line.CTR574561 bus1=BMT98297600.2,bus2=BMT171413864.2,Phases=1,LineCode=tieSwitch1,Length=0.001,Units=km,switch=T !numEQ 37450
new line.CTR574645 bus1=BMT163097005.1.2.3,bus2=BMT162580288.1.2.3,Phases=3,LineCode=tieSwitch,Length=0.001,Units=km,switch=T !numEQ 34301
open line.CTR574645 term=1
new line.CTR574687 bus1=BMT163097006.1.2.3,bus2=BMT162580290.1.2.3,Phases=3,LineCode=tieSwitch,Length=0.001,Units=km,switch=T !numEQ 320633
open line.CTR574687 term=1
new line.CTR574715 bus1=BMT98294632.1.2.3,bus2=BMT152312229.1.2.3,Phases=3,LineCode=tieSwitch,Length=0.001,Units=km,switch=T !numEQ 34319
new line.CTR574729 bus1=BMT98287653.3,bus2=BMT98287940.3,Phases=1,LineCode=tieSwitch1,Length=0.001,Units=km,switch=T !numEQ 36925
new line.CTR574757 bus1=BMT171667845.1.2.3,bus2=BMT98287436.1.2.3,Phases=3,LineCode=tieSwitch,Length=0.001,Units=km,switch=T !numEQ 36547
new line.CTR575107 bus1=BMT98300008.1,bus2=BMT161454302.1,Phases=1,LineCode=tieSwitch1,Length=0.001,Units=km,switch=T !numEQ 34393
new line.CTR575135 bus1=BMT162579985.2,bus2=BMT162580212.2,Phases=1,LineCode=tieSwitch1,Length=0.001,Units=km,switch=T !numEQ 34465
new line.CTR575282 bus1=BMT98296571.2,bus2=BMT152574104.2,Phases=1,LineCode=tieSwitch1,Length=0.001,Units=km,switch=T !numEQ 34441
new line.CTR575296 bus1=BMT98296529.2,bus2=BMT152574116.2,Phases=1,LineCode=tieSwitch1,Length=0.001,Units=km,switch=T !numEQ 34442
new line.CTR575310 bus1=BMT98297698.2,bus2=BMT152573946.2,Phases=1,LineCode=tieSwitch1,Length=0.001,Units=km,switch=T !numEQ 34443
new line.CTR575324 bus1=BMT162580709.3,bus2=BMT162580712.3,Phases=1,LineCode=tieSwitch1,Length=0.001,Units=km,switch=T !numEQ 34470
new line.CTR575387 bus1=BMT98296067.1,bus2=BMT98300113.1,Phases=1,LineCode=tieSwitch1,Length=0.001,Units=km,switch=T !numEQ 34475
new line.CTR575422 bus1=BMT98296774.2,bus2=BMT171278181.2,Phases=1,LineCode=tieSwitch1,Length=0.001,Units=km,switch=T !numEQ 34478
new line.CTR575436 bus1=BMT98296739.2,bus2=BMT167792829.2,Phases=1,LineCode=tieSwitch1,Length=0.001,Units=km,switch=T !numEQ 34479
new line.CTR575695 bus1=BMT169940240.1.2.3,bus2=BMT162580424.1.2.3,Phases=3,LineCode=tieSwitch,Length=0.001,Units=km,switch=T !numEQ 34581
new line.CTR575940 bus1=BMT162580131.2,bus2=BMT162580136.2,Phases=1,LineCode=tieSwitch1,Length=0.001,Units=km,switch=T !numEQ 34647
new line.CTR575961 bus1=BMT98289221.2,bus2=BMT167359122.2,Phases=1,LineCode=tieSwitch1,Length=0.001,Units=km,switch=T !numEQ 34648
new line.CTR575975 bus1=BMT98291636.3,bus2=BMT160510457.3,Phases=1,LineCode=tieSwitch1,Length=0.001,Units=km,switch=T !numEQ 34649
new line.CTR575989 bus1=BMT98289641.1.2.3,bus2=BMT172493356.1.2.3,Phases=3,LineCode=tieSwitch,Length=0.001,Units=km,switch=T !numEQ 36506
new line.CTR576003 bus1=BMT162580883.1,bus2=BMT164839842.1,Phases=1,LineCode=tieSwitch1,Length=0.001,Units=km,switch=T !numEQ 34316
new line.CTR576101 bus1=BMT98289711.1,bus2=BMT98290194.1,Phases=1,LineCode=tieSwitch1,Length=0.001,Units=km,switch=T !numEQ 34659
new line.CTR576822 bus1=BMT98292756.1.2.3,bus2=BMT98293092.1.2.3,Phases=3,LineCode=tieSwitch,Length=0.001,Units=km,switch=T !numEQ 36518
new line.CTR577207 bus1=BMT98294681.1.2.3,bus2=BMT172454447.1.2.3,Phases=3,LineCode=tieSwitch,Length=0.001,Units=km,switch=T !numEQ 118009
new line.CTR577221 bus1=BMT98295962.1.2.3,bus2=BMT168453907.1.2.3,Phases=3,LineCode=tieSwitch,Length=0.001,Units=km,switch=T !numEQ 34932
new line.CTR577641 bus1=BMT98293106.1.2.3,bus2=BMT98293134.1.2.3,Phases=3,LineCode=tieSwitch,Length=0.001,Units=km,switch=T !numEQ 36519
new line.CTR577669 bus1=BMT162580093.2,bus2=BMT169538516.2,Phases=1,LineCode=tieSwitch1,Length=0.001,Units=km,switch=T !numEQ 126839
new line.CTR578656 bus1=BMT98294709.1,bus2=BMT161383465.1,Phases=1,LineCode=tieSwitch1,Length=0.001,Units=km,switch=T !numEQ 35385
new line.CTR578670 bus1=BMT98298951.1,bus2=BMT98299819.1,Phases=1,LineCode=tieSwitch1,Length=0.001,Units=km,switch=T !numEQ 35387
new line.CTR578698 bus1=BMT98299084.1,bus2=BMT171845739.1,Phases=1,LineCode=tieSwitch1,Length=0.001,Units=km,switch=T !numEQ 35392
new line.CTR642237 bus1=BMT162580525.1.2.3,bus2=BMT163685923.1.2.3,Phases=3,LineCode=tieSwitch,Length=0.001,Units=km,switch=T !numEQ 126842
new line.CTR644015 bus1=BMT98294688.1.2.3,bus2=BMT149187848.1.2.3,Phases=3,LineCode=tieSwitch,Length=0.001,Units=km,switch=T !numEQ 36862
new line.CTR644029 bus1=BMT98296172.1.2.3,bus2=BMT158500430.1.2.3,Phases=3,LineCode=tieSwitch,Length=0.001,Units=km,switch=T !numEQ 36864
new line.CTR644057 bus1=BMT98298986.1,bus2=BMT168182725.1,Phases=1,LineCode=tieSwitch1,Length=0.001,Units=km,switch=T !numEQ 36867
new line.CTR644071 bus1=BMT98298937.1,bus2=BMT156662319.1,Phases=1,LineCode=tieSwitch1,Length=0.001,Units=km,switch=T !numEQ 36869
new line.CTR71100 bus1=BMT162580156.2,bus2=BMT162580192.2,Phases=1,LineCode=tieSwitch1,Length=0.001,Units=km,switch=T !numEQ 126838
new line.CTR711306 bus1=BMT98300687.3,bus2=BMT98300953.3,Phases=1,LineCode=tieSwitch1,Length=0.001,Units=km,switch=T !numEQ 210761
new line.CTR712167 bus1=BMT98303382.3,bus2=BMT165172932.3,Phases=1,LineCode=tieSwitch1,Length=0.001,Units=km,switch=T !numEQ 198510
new line.CTR713448 bus1=BMT162580544.1,bus2=BMT171018937.1,Phases=1,LineCode=tieSwitch1,Length=0.001,Units=km,switch=T !numEQ 198128
new line.CTR109348 bus1=BMT172351106.1.2.3,bus2=BMT2403159.1.2.3,Phases=3,LineCode=tieSwitch,Length=0.001,Units=km,switch=T !numEQ 36560
open line.CTR109348 term=1
new line.CTR120310 bus1=BMT162580688.3,bus2=BMT162580691.3,Phases=1,LineCode=tieSwitch1,Length=0.001,Units=km,switch=T !numEQ 37204
new line.CTR120506 bus1=BMT162580005.2,bus2=BMT162580083.2,Phases=1,LineCode=tieSwitch1,Length=0.001,Units=km,switch=T !numEQ 159728
new line.CTR120674 bus1=BMT98292791.1.2.3,bus2=BMT148383233.1.2.3,Phases=3,LineCode=tieSwitch,Length=0.001,Units=km,switch=T !numEQ 76126
new line.CTR159454 bus1=BMT98290264.1.2.3,bus2=BMT98290285.1.2.3,Phases=3,LineCode=tieSwitch,Length=0.001,Units=km,switch=T !numEQ 163408
new line.CTR45872 bus1=BMT162579891.1.2.3,bus2=BMT162580762.1.2.3,Phases=3,LineCode=tieSwitch,Length=0.001,Units=km,switch=T !numEQ 34323
new line.CTR45907 bus1=BMT162580444.1.2.3,bus2=BMT162580445.1.2.3,Phases=3,LineCode=tieSwitch,Length=0.001,Units=km,switch=T !numEQ 105503
new line.CTR510028 bus1=BMT98291510.1.2.3,bus2=BMT98291713.1.2.3,Phases=3,LineCode=tieSwitch,Length=0.001,Units=km,switch=T !numEQ 117997
new line.CTR511162 bus1=BMT162580819.1.2.3,bus2=BMT162580822.1.2.3,Phases=3,LineCode=tieSwitch,Length=0.001,Units=km,switch=T !numEQ 107884
new line.CTR511176 bus1=BMT98292812.1.2.3,bus2=BMT98292994.1.2.3,Phases=3,LineCode=tieSwitch,Length=0.001,Units=km,switch=T !numEQ 107883
new line.CTR511190 bus1=BMT98290481.1.2.3,bus2=BMT150338835.1.2.3,Phases=3,LineCode=tieSwitch,Length=0.001,Units=km,switch=T !numEQ 107879
new line.CTR511197 bus1=BMT98292875.1.2.3,bus2=BMT98292896.1.2.3,Phases=3,LineCode=tieSwitch,Length=0.001,Units=km,switch=T !numEQ 107882
new line.CTR511211 bus1=BMT98300995.1.2.3,bus2=BMT98301002.1.2.3,Phases=3,LineCode=tieSwitch,Length=0.001,Units=km,switch=T !numEQ 107886
new line.CTR511225 bus1=BMT98290705.1.2.3,bus2=BMT150338837.1.2.3,Phases=3,LineCode=tieSwitch,Length=0.001,Units=km,switch=T !numEQ 107880
new line.CTR511974 bus1=BMT162579932.1,bus2=BMT162580652.1,Phases=1,LineCode=tieSwitch1,Length=0.001,Units=km,switch=T !numEQ 118878
new line.CTR512002 bus1=BMT162579911.1.2.3,bus2=BMT163910380.1.2.3,Phases=3,LineCode=tieSwitch,Length=0.001,Units=km,switch=T !numEQ 107889
new line.CTR512016 bus1=BMT162579914.1.2.3,bus2=BMT162580756.1.2.3,Phases=3,LineCode=tieSwitch,Length=0.001,Units=km,switch=T !numEQ 118877
new line.CTR513395 bus1=BMT98298944.3,bus2=BMT172305110.3,Phases=1,LineCode=tieSwitch1,Length=0.001,Units=km,switch=T !numEQ 126851
new line.CTR578789 bus1=BMT162579885.1.2.3,bus2=BMT162579886.1.2.3,Phases=3,LineCode=tieSwitch,Length=0.001,Units=km,switch=T !numEQ 35413
new line.CTR579083 bus1=BMT162580000.1.2.3,bus2=BMT162580127.1.2.3,Phases=3,LineCode=tieSwitch,Length=0.001,Units=km,switch=T !numEQ 131293
new line.CTR579265 bus1=BMT98294863.2,bus2=BMT98295465.2,Phases=1,LineCode=tieSwitch1,Length=0.001,Units=km,switch=T !numEQ 34399
new line.CTR579503 bus1=BMT98294002.1.2.3,bus2=BMT172511718.1.2.3,Phases=3,LineCode=tieSwitch,Length=0.001,Units=km,switch=T !numEQ 36532
new line.CTR579559 bus1=BMT169549263.1.2.3,bus2=BMT79226506.1.2.3,Phases=3,LineCode=tieSwitch,Length=0.001,Units=km,switch=T !numEQ 36520
open line.CTR579559 term=1
new line.CTR579587 bus1=BMT98291076.3,bus2=BMT98291083.3,Phases=1,LineCode=tieSwitch1,Length=0.001,Units=km,switch=T !numEQ 36535
new line.CTR579594 bus1=BMT162579935.1.2.3,bus2=BMT162579937.1.2.3,Phases=3,LineCode=tieSwitch,Length=0.001,Units=km,switch=T !numEQ 36537
new line.CTR579608 bus1=BMT162580249.1.2.3,bus2=BMT165089630.1.2.3,Phases=3,LineCode=tieSwitch,Length=0.001,Units=km,switch=T !numEQ 36539
new line.CTR580119 bus1=BMT98287702.1.2.3,bus2=BMT156632004.1.2.3,Phases=3,LineCode=tieSwitch,Length=0.001,Units=km,switch=T !numEQ 36743
new line.CTR580343 bus1=BMT98293512.1.2.3,bus2=BMT98293897.1.2.3,Phases=3,LineCode=tieSwitch,Length=0.001,Units=km,switch=T !numEQ 128952
new line.CTR580525 bus1=BMT98296074.1.2.3,bus2=BMT158503546.1.2.3,Phases=3,LineCode=tieSwitch,Length=0.001,Units=km,switch=T !numEQ 36868
new line.CTR580679 bus1=BMT162579933.2,bus2=BMT162580649.2,Phases=1,LineCode=tieSwitch1,Length=0.001,Units=km,switch=T !numEQ 36918
new line.CTR581309 bus1=BMT98287415.1.2.3,bus2=BMT171909847.1.2.3,Phases=3,LineCode=tieSwitch,Length=0.001,Units=km,switch=T !numEQ 37213
new line.CTR581827 bus1=BMT98293169.1.2.3,bus2=BMT171733801.1.2.3,Phases=3,LineCode=tieSwitch,Length=0.001,Units=km,switch=T !numEQ 37449
new line.CTR582415 bus1=BMT98292546.1.2.3,bus2=BMT152549514.1.2.3,Phases=3,LineCode=tieSwitch,Length=0.001,Units=km,switch=T !numEQ 37698
new line.CTR582429 bus1=BMT162579890.1.2.3,bus2=BMT2026223.1.2.3,Phases=3,LineCode=tieSwitch,Length=0.001,Units=km,switch=T !numEQ 37699
open line.CTR582429 term=1
new line.CTR582485 bus1=BMT162580257.1.2.3,bus2=BMT162580258.1.2.3,Phases=3,LineCode=tieSwitch,Length=0.001,Units=km,switch=T !numEQ 37708
new line.CTR582499 bus1=BMT98294338.1,bus2=BMT98294345.1,Phases=1,LineCode=tieSwitch1,Length=0.001,Units=km,switch=T !numEQ 37709
new line.CTR582513 bus1=BMT98294527.3,bus2=BMT98294583.3,Phases=1,LineCode=tieSwitch1,Length=0.001,Units=km,switch=T !numEQ 37711
new line.CTR582527 bus1=BMT123088149.2,bus2=BMT123089647.2,Phases=1,LineCode=tieSwitch1,Length=0.001,Units=km,switch=T !numEQ 37713
new line.CTR582541 bus1=BMT98294044.1.2.3,bus2=BMT98294051.1.2.3,Phases=3,LineCode=tieSwitch,Length=0.001,Units=km,switch=T !numEQ 37714
new line.CTR645009 bus1=BMT98292630.1.2.3,bus2=BMT98301016.1.2.3,Phases=3,LineCode=tieSwitch,Length=0.001,Units=km,switch=T !numEQ 147178
new line.CTR646017 bus1=BMT98288969.1.2.3,bus2=BMT98289165.1.2.3,Phases=3,LineCode=tieSwitch,Length=0.001,Units=km,switch=T !numEQ 107860
new line.CTR703046 bus1=BMT98299462.1,bus2=BMT168456025.1,Phases=1,LineCode=tieSwitch1,Length=0.001,Units=km,switch=T !numEQ 163368
new line.CTR704299 bus1=BMT98297782.2,bus2=BMT152573974.2,Phases=1,LineCode=tieSwitch1,Length=0.001,Units=km,switch=T !numEQ 197837
new line.CTR705426 bus1=BMT162580888.1.2.3,bus2=BMT168227266.1.2.3,Phases=3,LineCode=tieSwitch,Length=0.001,Units=km,switch=T !numEQ 163477
new line.CTR707190 bus1=BMT162580597.1,bus2=BMT162580605.1,Phases=1,LineCode=tieSwitch1,Length=0.001,Units=km,switch=T !numEQ 197834
new line.CTR785940 bus1=BMT163690457.1.2.3,bus2=BMT168344842.1.2.3,Phases=3,LineCode=tieSwitch,Length=0.001,Units=km,switch=T !numEQ 290184
new line.CTR786038 bus1=BMT105699526.1.2.3,bus2=BMT105703950.1.2.3,Phases=3,LineCode=tieSwitch,Length=0.001,Units=km,switch=T !numEQ 290180
new line.CTR787214 bus1=BMT106226213.1.2.3,bus2=BMT173122648.1.2.3,Phases=3,LineCode=tieSwitch,Length=0.001,Units=km,switch=T !numEQ 289928
new line.CTR787228 bus1=BMT106228054.1.2.3,bus2=BMT106228068.1.2.3,Phases=3,LineCode=tieSwitch,Length=0.001,Units=km,switch=T !numEQ 289798
new line.CTR106072 bus1=BMT98293946.1.2.3,bus2=BMT172091006.1.2.3,Phases=3,LineCode=tieSwitch,Length=0.001,Units=km,switch=T !numEQ 36536
new line.CTR141464 bus1=BMT98293421.1.2.3,bus2=BMT162802235.1.2.3,Phases=3,LineCode=tieSwitch,Length=0.001,Units=km,switch=T !numEQ 36922
new line.CTR141786 bus1=BMT98293176.1.2.3,bus2=BMT98300631.1.2.3,Phases=3,LineCode=tieSwitch,Length=0.001,Units=km,switch=T !numEQ 36855
new line.CTR141800 bus1=BMT98296025.1.2.3,bus2=BMT166128203.1.2.3,Phases=3,LineCode=tieSwitch,Length=0.001,Units=km,switch=T !numEQ 36863
new line.CTR141814 bus1=BMT162579974.2,bus2=BMT170970258.2,Phases=1,LineCode=tieSwitch1,Length=0.001,Units=km,switch=T !numEQ 36859
new line.CTR141884 bus1=BMT98293568.1.2.3,bus2=BMT98293610.1.2.3,Phases=3,LineCode=tieSwitch,Length=0.001,Units=km,switch=T !numEQ 128951
new line.CTR152804 bus1=BMT162580017.2,bus2=BMT164602983.2,Phases=1,LineCode=tieSwitch1,Length=0.001,Units=km,switch=T !numEQ 34307
new line.CTR153700 bus1=BMT98287450.1.2.3,bus2=BMT98287457.1.2.3,Phases=3,LineCode=tieSwitch,Length=0.001,Units=km,switch=T !numEQ 36543
new line.CTR166300 bus1=BMT162580854.1.2.3,bus2=BMT162581025.1.2.3,Phases=3,LineCode=tieSwitch,Length=0.001,Units=km,switch=T !numEQ 162803
new line.CTR17928 bus1=BMT98286596.1.2.3,bus2=BMT166467853.1.2.3,Phases=3,LineCode=tieSwitch,Length=0.001,Units=km,switch=T !numEQ 161984
new line.CTR18530 bus1=BMT163488160.1.2.3,bus2=BMT2026377.1.2.3,Phases=3,LineCode=tieSwitch,Length=0.001,Units=km,switch=T !numEQ 37717
open line.CTR18530 term=1
new line.CTR19748 bus1=BMT162579977.1.2.3,bus2=BMT165090843.1.2.3,Phases=3,LineCode=tieSwitch,Length=0.001,Units=km,switch=T !numEQ 161421
new line.CTR19804 bus1=BMT98286498.1.2.3,bus2=BMT165103288.1.2.3,Phases=3,LineCode=tieSwitch,Length=0.001,Units=km,switch=T !numEQ 161644
new line.CTR2563 bus1=BMT98299959.1,bus2=BMT98300078.1,Phases=1,LineCode=tieSwitch1,Length=0.001,Units=km,switch=T !numEQ 197914
new line.CTR39369 bus1=BMT162580933.1,bus2=BMT171251912.1,Phases=1,LineCode=tieSwitch1,Length=0.001,Units=km,switch=T !numEQ 130982