new load.3009005403M1 bus1=BMT162580823.1.2.3.0,Phases=3,kv=13.8,kW=17.9491,pf=0.92,Vminpu=0.93,Vmaxpu=1.5,model=8,zipv=[0.5,0,0.5,1,0,0,0],daily=A4-2,status=variable
new load.3009006838M1 bus1=BMT162580638.1.2.3.0,Phases=3,kv=13.8,kW=386.37284,pf=0.92,Vminpu=0.93,Vmaxpu=1.5,model=8,zipv=[0.5,0,0.5,1,0,0,0],daily=A4-5,status=variable
new load.3009008024M1 bus1=BMT150338838.1.2.3.0,Phases=3,kv=13.8,kW=11.17302,pf=0.92,Vminpu=0.93,Vmaxpu=1.5,model=8,zipv=[0.5,0,0.5,1,0,0,0],daily=A4-1,status=variable
new load.3009008042M1 bus1=BMT162580339.1.2.3.0,Phases=3,kv=13.8,kW=81.09234,pf=0.92,Vminpu=0.93,Vmaxpu=1.5,model=8,zipv=[0.5,0,0.5,1,0,0,0],daily=A4-4,status=variable
new load.3009008557M1 bus1=BMT162580274.1.2.3.0,Phases=3,kv=13.8,kW=183.52476,pf=0.92,Vminpu=0.93,Vmaxpu=1.5,model=8,zipv=[0.5,0,0.5,1,0,0,0],daily=A4-4,status=variable
new load.3009009314M1 bus1=BMT98288010.1.2.3.0,Phases=3,kv=13.8,kW=101.7864,pf=0.92,Vminpu=0.93,Vmaxpu=1.5,model=8,zipv=[0.5,0,0.5,1,0,0,0],daily=A4-5,status=variable
new load.3009010060M1 bus1=BMT162580535.1.2.3.0,Phases=3,kv=13.8,kW=241.67098,pf=0.92,Vminpu=0.93,Vmaxpu=1.5,model=8,zipv=[0.5,0,0.5,1,0,0,0],daily=A4-7,status=variable
new load.3009010061M1 bus1=BMT162580322.1.2.3.0,Phases=3,kv=13.8,kW=150.49492,pf=0.92,Vminpu=0.93,Vmaxpu=1.5,model=8,zipv=[0.5,0,0.5,1,0,0,0],daily=A4-6,status=variable
new load.3009011912M1 bus1=BMT98292903.1.2.3.0,Phases=3,kv=13.8,kW=22.43636,pf=0.92,Vminpu=0.93,Vmaxpu=1.5,model=8,zipv=[0.5,0,0.5,1,0,0,0],daily=A4-2,status=variable
new load.3009013562M1 bus1=BMT150338834.1.2.3.0,Phases=3,kv=13.8,kW=7.98074,pf=0.92,Vminpu=0.93,Vmaxpu=1.5,model=8,zipv=[0.5,0,0.5,1,0,0,0],daily=A4-1,status=variable
new load.3009013579M1 bus1=BMT162580988.1.2.3.0,Phases=3,kv=13.8,kW=429.99558,pf=0.92,Vminpu=0.93,Vmaxpu=1.5,model=8,zipv=[0.5,0,0.5,1,0,0,0],daily=A4-5,status=variable
new load.3009014184M1 bus1=BMT150338836.1.2.3.0,Phases=3,kv=13.8,kW=3.1923,pf=0.92,Vminpu=0.93,Vmaxpu=1.5,model=8,zipv=[0.5,0,0.5,1,0,0,0],daily=A4-1,status=variable
new load.3009016207M1 bus1=BMT162580648.1.2.3.0,Phases=3,kv=13.8,kW=36.27816,pf=0.92,Vminpu=0.93,Vmaxpu=1.5,model=8,zipv=[0.5,0,0.5,1,0,0,0],daily=A4-4,status=variable
new load.3009016707M1 bus1=BMT98286820.1.2.3.0,Phases=3,kv=13.8,kW=52.43472,pf=0.92,Vminpu=0.93,Vmaxpu=1.5,model=8,zipv=[0.5,0,0.5,1,0,0,0],daily=A4-3,status=variable
new load.3009017480M1 bus1=BMT98291720.1.2.3.0,Phases=3,kv=13.8,kW=37.753,pf=0.92,Vminpu=0.93,Vmaxpu=1.5,model=8,zipv=[0.5,0,0.5,1,0,0,0],daily=A4-3,status=variable
new load.3009017774M1 bus1=BMT162580634.1.2.3.0,Phases=3,kv=13.8,kW=7.71768,pf=0.92,Vminpu=0.93,Vmaxpu=1.5,model=8,zipv=[0.5,0,0.5,1,0,0,0],daily=A4-6,status=variable
new load.3009019219M1 bus1=BMT162581024.1.2.3.0,Phases=3,kv=13.8,kW=67.3091,pf=0.92,Vminpu=0.93,Vmaxpu=1.5,model=8,zipv=[0.5,0,0.5,1,0,0,0],daily=A4-2,status=variable
new load.3009019713M1 bus1=BMT162580442.1.2.3.0,Phases=3,kv=13.8,kW=52.43472,pf=0.92,Vminpu=0.93,Vmaxpu=1.5,model=8,zipv=[0.5,0,0.5,1,0,0,0],daily=A4-3,status=variable
new load.3009019772M1 bus1=BMT162581045.1.2.3.0,Phases=3,kv=13.8,kW=15.70546,pf=0.92,Vminpu=0.93,Vmaxpu=1.5,model=8,zipv=[0.5,0,0.5,1,0,0,0],daily=A4-2,status=variable
new load.3009019876M1 bus1=BMT162580446.1.2.3.0,Phases=3,kv=13.8,kW=6.23182,pf=0.92,Vminpu=0.93,Vmaxpu=1.5,model=8,zipv=[0.5,0,0.5,1,0,0,0],daily=A4-5,status=variable
new load.3009020005M1 bus1=BMT98293001.1.2.3.0,Phases=3,kv=13.8,kW=3.1923,pf=0.92,Vminpu=0.93,Vmaxpu=1.5,model=8,zipv=[0.5,0,0.5,1,0,0,0],daily=A4-1,status=variable
new load.3009020170M1 bus1=BMT162580115.1.2.3.0,Phases=3,kv=13.8,kW=69.55274,pf=0.92,Vminpu=0.93,Vmaxpu=1.5,model=8,zipv=[0.5,0,0.5,1,0,0,0],daily=A4-2,status=variable
new load.3009020459M1 bus1=BMT162580646.1.2.3.0,Phases=3,kv=13.8,kW=122.55912,pf=0.92,Vminpu=0.93,Vmaxpu=1.5,model=8,zipv=[0.5,0,0.5,1,0,0,0],daily=A4-5,status=variable
new load.3009021206M1 bus1=BMT98300547.1.2.3.0,Phases=3,kv=13.8,kW=29.16728,pf=0.92,Vminpu=0.93,Vmaxpu=1.5,model=8,zipv=[0.5,0,0.5,1,0,0,0],daily=A4-2,status=variable
new load.3010000503M1 bus1=BMT162581032.1.2.3.0,Phases=3,kv=13.8,kW=23.07128,pf=0.92,Vminpu=0.93,Vmaxpu=1.5,model=8,zipv=[0.5,0,0.5,1,0,0,0],daily=A4-3,status=variable
new load.3010000887M1 bus1=BMT98290425.1.2.3.0,Phases=3,kv=13.8,kW=19.20608,pf=0.92,Vminpu=0.93,Vmaxpu=1.5,model=8,zipv=[0.5,0,0.5,1,0,0,0],daily=A4-4,status=variable
new load.3010002004M1 bus1=BMT162580642.1.2.3.0,Phases=3,kv=13.8,kW=29.16728,pf=0.92,Vminpu=0.93,Vmaxpu=1.5,model=8,zipv=[0.5,0,0.5,1,0,0,0],daily=A4-2,status=variable
new load.3010070603M1 bus1=BMT162580761.1.2.3.0,Phases=3,kv=13.8,kW=812.28672,pf=0.92,Vminpu=0.93,Vmaxpu=1.5,model=8,zipv=[0.5,0,0.5,1,0,0,0],daily=A4-6,status=variable
new load.3010341622M1 bus1=BMT162581047.1.2.3.0,Phases=3,kv=13.8,kW=13.46182,pf=0.92,Vminpu=0.93,Vmaxpu=1.5,model=8,zipv=[0.5,0,0.5,1,0,0,0],daily=A4-2,status=variable
new load.3010499490M1 bus1=BMT155730975.1.2.3.0,Phases=3,kv=13.8,kW=83.09094,pf=0.92,Vminpu=0.93,Vmaxpu=1.5,model=8,zipv=[0.5,0,0.5,1,0,0,0],daily=A4-5,status=variable
new load.3010513628M1 bus1=BMT98290292.1.2.3.0,Phases=3,kv=13.8,kW=49.36,pf=0.92,Vminpu=0.93,Vmaxpu=1.5,model=8,zipv=[0.5,0,0.5,1,0,0,0],daily=A4-2,status=variable
new load.3010576325M1 bus1=BMT162580906.1.2.3.0,Phases=3,kv=13.8,kW=2346.93164,pf=0.92,Vminpu=0.93,Vmaxpu=1.5,model=8,zipv=[0.5,0,0.5,1,0,0,0],daily=A4-7,status=variable
new load.3010807773M1 bus1=BMT162580990.1.2.3.0,Phases=3,kv=13.8,kW=177.50684,pf=0.92,Vminpu=0.93,Vmaxpu=1.5,model=8,zipv=[0.5,0,0.5,1,0,0,0],daily=A4-6,status=variable
new load.3011043884M1 bus1=BMT98292420.1.2.3.0,Phases=3,kv=13.8,kW=81.79814,pf=0.92,Vminpu=0.93,Vmaxpu=1.5,model=8,zipv=[0.5,0,0.5,1,0,0,0],daily=A4-3,status=variable
new load.3011154769M1 bus1=BMT98292987.1.2.3.0,Phases=3,kv=13.8,kW=3.1923,pf=0.92,Vminpu=0.93,Vmaxpu=1.5,model=8,zipv=[0.5,0,0.5,1,0,0,0],daily=A4-1,status=variable
new load.3011184273M1 bus1=BMT162580632.1.2.3.0,Phases=3,kv=13.8,kW=4.48728,pf=0.92,Vminpu=0.93,Vmaxpu=1.5,model=8,zipv=[0.5,0,0.5,1,0,0,0],daily=A4-2,status=variable
new load.3011508786M1 bus1=BMT162580341.1.2.3.0,Phases=3,kv=13.8,kW=62.3182,pf=0.92,Vminpu=0.93,Vmaxpu=1.5,model=8,zipv=[0.5,0,0.5,1,0,0,0],daily=A4-5,status=variable
new load.3011529250M1 bus1=BMT162580360.1.2.3.0,Phases=3,kv=13.8,kW=735.10982,pf=0.92,Vminpu=0.93,Vmaxpu=1.5,model=8,zipv=[0.5,0,0.5,1,0,0,0],daily=A4-6,status=variable
new load.3011546605M1 bus1=BMT105703957.1.2.3.0,Phases=3,kv=13.8,kW=11.21818,pf=0.92,Vminpu=0.93,Vmaxpu=1.5,model=8,zipv=[0.5,0,0.5,1,0,0,0],daily=A4-2,status=variable
new load.3011577786M1 bus1=BMT164931546.1.2.3.0,Phases=3,kv=13.8,kW=835.637,pf=0.92,Vminpu=0.93,Vmaxpu=1.5,model=8,zipv=[0.5,0,0.5,1,0,0,0],daily=A4-7,status=variable
new load.3011948297M1 bus1=BMT162580623.1.2.3.0,Phases=3,kv=13.8,kW=16.7791,pf=0.92,Vminpu=0.93,Vmaxpu=1.5,model=8,zipv=[0.5,0,0.5,1,0,0,0],daily=A4-3,status=variable
new load.3012215702M1 bus1=BMT163685921.1.2.3.0,Phases=3,kv=13.8,kW=106.96682,pf=0.92,Vminpu=0.93,Vmaxpu=1.5,model=8,zipv=[0.5,0,0.5,1,0,0,0],daily=A4-3,status=variable
new load.3012222859M1 bus1=BMT150158831.1.2.3.0,Phases=3,kv=13.8,kW=104.56644,pf=0.92,Vminpu=0.93,Vmaxpu=1.5,model=8,zipv=[0.5,0,0.5,1,0,0,0],daily=A4-4,status=variable
new load.3012593892M1 bus1=BMT155793153.1.2.3.0,Phases=3,kv=13.8,kW=171.98586,pf=0.92,Vminpu=0.93,Vmaxpu=1.5,model=8,zipv=[0.5,0,0.5,1,0,0,0],daily=A4-3,status=variable
new load.3012662370M1 bus1=BMT162580474.1.2.3.0,Phases=3,kv=13.8,kW=139.17732,pf=0.92,Vminpu=0.93,Vmaxpu=1.5,model=8,zipv=[0.5,0,0.5,1,0,0,0],daily=A4-5,status=variable
new load.3012750082M1 bus1=BMT162580128.1.2.3.0,Phases=3,kv=13.8,kW=2.09738,pf=0.92,Vminpu=0.93,Vmaxpu=1.5,model=8,zipv=[0.5,0,0.5,1,0,0,0],daily=A4-3,status=variable
new load.3012802775M1 bus1=BMT156684075.1.2.3.0,Phases=3,kv=13.8,kW=78.52728,pf=0.92,Vminpu=0.93,Vmaxpu=1.5,model=8,zipv=[0.5,0,0.5,1,0,0,0],daily=A4-2,status=variable
new load.3013011932M1 bus1=BMT165495007.1.2.3.0,Phases=3,kv=13.8,kW=627.0622,pf=0.92,Vminpu=0.93,Vmaxpu=1.5,model=8,zipv=[0.5,0,0.5,1,0,0,0],daily=A4-6,status=variable
new load.3013021498M1 bus1=BMT162580621.1.2.3.0,Phases=3,kv=13.8,kW=18.8765,pf=0.92,Vminpu=0.93,Vmaxpu=1.5,model=8,zipv=[0.5,0,0.5,1,0,0,0],daily=A4-3,status=variable
new load.3013023876M1 bus1=BMT98289039.1.2.3.0,Phases=3,kv=13.8,kW=260.39198,pf=0.92,Vminpu=0.93,Vmaxpu=1.5,model=8,zipv=[0.5,0,0.5,1,0,0,0],daily=A4-7,status=variable
new load.3013028330M1 bus1=BMT157628925.1.2.3.0,Phases=3,kv=13.8,kW=8.38956,pf=0.92,Vminpu=0.93,Vmaxpu=1.5,model=8,zipv=[0.5,0,0.5,1,0,0,0],daily=A4-3,status=variable
new load.3013124331M1 bus1=BMT98288227.1.2.3.0,Phases=3,kv=13.8,kW=1877.20492,pf=0.92,Vminpu=0.93,Vmaxpu=1.5,model=8,zipv=[0.5,0,0.5,1,0,0,0],daily=A4-7,status=variable
new load.3013228235M1 bus1=BMT169688575.1.2.3.0,Phases=3,kv=13.8,kW=41.94776,pf=0.92,Vminpu=0.93,Vmaxpu=1.5,model=8,zipv=[0.5,0,0.5,1,0,0,0],daily=A4-3,status=variable
new load.3013247127M1 bus1=BMT165984083.1.2.3.0,Phases=3,kv=13.8,kW=91.90306,pf=0.92,Vminpu=0.93,Vmaxpu=1.5,model=8,zipv=[0.5,0,0.5,1,0,0,0],daily=A4-7,status=variable
new load.3013301714M1 bus1=BMT150338842.1.2.3.0,Phases=3,kv=13.8,kW=71.79636,pf=0.92,Vminpu=0.93,Vmaxpu=1.5,model=8,zipv=[0.5,0,0.5,1,0,0,0],daily=A4-2,status=variable
