new line.11366636 bus1=BBT2746432.1.2.3.0,bus2=BBT2746439.1.2.3.0,Phases=3,Linecode=BT509_BT509_7_3_1,Length=0.000501000,Units=km
new line.11659558 bus1=BBT2798008.1.2.0,bus2=BBT2798015.1.2.0,Phases=2,Linecode=BT513_BT513_7_2_1,Length=0.000501000,Units=km
new line.11670744 bus1=BBT2800185.1.2.0,bus2=BBT2800192.1.2.0,Phases=2,Linecode=BT316_BT316_7_2_1,Length=0.000501000,Units=km
new line.11672445 bus1=BBT2800360.1.2.0,bus2=BBT2800367.1.2.0,Phases=2,Linecode=BT304_BT304_7_2_1,Length=0.000501000,Units=km
new line.11672452 bus1=BBT2800367.1.2.0,bus2=BBT2800374.1.2.0,Phases=2,Linecode=BT808_BT808_4_2_3,Length=0.038912000,Units=km
new line.11672473 bus1=BBT2800374.1.2.0,bus2=BBT2800381.1.2.0,Phases=2,Linecode=BT808_BT808_4_2_3,Length=0.045624000,Units=km
new line.11683442 bus1=BBT2801508.1.2.0,bus2=BBT2801515.1.2.0,Phases=2,Linecode=BT304_BT304_7_2_1,Length=0.000501000,Units=km
new line.11683596 bus1=BBT2801536.1.2.0,bus2=BBT2801543.1.2.0,Phases=2,Linecode=BT316_BT316_7_2_1,Length=0.000501000,Units=km
new line.11683939 bus1=BBT2801739.1.2.0,bus2=BBT2801746.1.2.0,Phases=2,Linecode=BT316_BT316_7_2_1,Length=0.000501000,Units=km
new line.11684009 bus1=BBT2801788.1.2.0,bus2=BBT2801795.1.2.0,Phases=2,Linecode=BT316_BT316_7_2_1,Length=0.000501000,Units=km
new line.11702804 bus1=BBT2804616.1.2.0,bus2=BBT2804623.1.2.0,Phases=2,Linecode=BT518_BT518_7_2_1,Length=0.000501000,Units=km
new line.11702811 bus1=BBT2804623.1.2.0,bus2=BBT2804630.1.2.0,Phases=2,Linecode=BT808_BT808_4_2_3,Length=0.048111000,Units=km
new line.12406437 bus1=BBT2940087.1.2.3.0,bus2=BBT2940094.1.2.3.0,Phases=3,Linecode=BT313_BT313_7_3_1,Length=0.000501000,Units=km
new line.12411344 bus1=BBT2941452.1.2.0,bus2=BBT2941459.1.2.0,Phases=2,Linecode=BT518_BT518_7_2_1,Length=0.000501000,Units=km
new line.12411834 bus1=BBT2942523.1.2.3.0,bus2=BBT2942530.1.2.3.0,Phases=3,Linecode=BT803_BT803_4_3_4,Length=0.044198000,Units=km
new line.12411848 bus1=BBT2942530.1.2.3.0,bus2=BBT2942593.1.2.3.0,Phases=3,Linecode=BT803_BT803_4_3_4,Length=0.045194000,Units=km
new line.12411904 bus1=BBT2941641.1.2.3.0,bus2=BBT1575535.1.2.3.0,Phases=3,Linecode=BT107_BT106_7_3_1,Length=0.018035000,Units=km
new line.12411911 bus1=BBT2941641.1.2.3.0,bus2=BBT2942936.1.2.3.0,Phases=3,Linecode=BT808_BT808_4_3_3,Length=0.032075000,Units=km
new line.12412002 bus1=BBT2942887.1.2.0,bus2=BBT3628558.1.2.0,Phases=2,Linecode=BT808_BT808_4_2_3,Length=0.042123000,Units=km
new line.12412051 bus1=BBT2942894.1.2.0,bus2=BBT2942901.1.2.0,Phases=2,Linecode=BT807_BT807_4_2_3,Length=0.028028000,Units=km
new line.12412058 bus1=BBT2942894.1.2.0,bus2=BBT2942922.1.2.0,Phases=2,Linecode=BT807_BT807_4_2_3,Length=0.032028000,Units=km
new line.12413423 bus1=BBT2942614.1.2.0,bus2=BBT2942642.1.2.0,Phases=2,Linecode=BT808_BT808_4_2_3,Length=0.035070000,Units=km
new line.12413430 bus1=BBT2942614.1.2.0,bus2=BBT2942635.1.2.0,Phases=2,Linecode=BT808_BT808_4_2_3,Length=0.030078000,Units=km
new line.12413479 bus1=BBT2942453.1.2.0,bus2=BBT2942481.1.2.0,Phases=2,Linecode=BT807_BT807_4_2_3,Length=0.029080000,Units=km
new line.12413486 bus1=BBT2942453.1.2.0,bus2=BBT2942488.1.2.0,Phases=2,Linecode=BT807_BT807_4_2_3,Length=0.034072000,Units=km
new line.12413507 bus1=BBT2942488.1.2.0,bus2=BBT2942495.1.2.0,Phases=2,Linecode=BT807_BT807_4_2_3,Length=0.041064000,Units=km
new line.12413549 bus1=BBT2942873.1.2.0,bus2=BBT2942894.1.2.0,Phases=2,Linecode=BT807_BT807_4_2_3,Length=0.042123000,Units=km
new line.12413584 bus1=BBT2942446.1.2.0,bus2=BBT2942873.1.2.0,Phases=2,Linecode=BT807_BT807_4_2_3,Length=0.046115000,Units=km
new line.12413591 bus1=BBT2942439.1.2.0,bus2=BBT2942446.1.2.0,Phases=2,Linecode=BT513_BT513_7_2_1,Length=0.000501000,Units=km
new line.12413598 bus1=BBT2942446.1.2.0,bus2=BBT2942880.1.2.0,Phases=2,Linecode=BT807_BT807_4_2_3,Length=0.044119000,Units=km
new line.12413619 bus1=BBT2942880.1.2.0,bus2=BBT2942887.1.2.0,Phases=2,Linecode=BT807_BT807_4_2_3,Length=0.036138000,Units=km
new line.12413626 bus1=BBT2942880.1.2.0,bus2=BBT2942908.1.2.0,Phases=2,Linecode=BT808_BT808_4_2_3,Length=0.035070000,Units=km
new line.12413633 bus1=BBT2942880.1.2.0,bus2=BBT2942915.1.2.0,Phases=2,Linecode=BT807_BT807_4_2_3,Length=0.027029000,Units=km
new line.12413647 bus1=BBT2942516.1.2.0,bus2=BBT3628530.1.2.0,Phases=2,Linecode=BT808_BT808_4_2_3,Length=0.035142000,Units=km
new line.12413815 bus1=BBT2942418.1.2.0,bus2=BBT2942453.1.2.0,Phases=2,Linecode=BT807_BT807_4_2_3,Length=0.042123000,Units=km
new line.12413822 bus1=BBT2942411.1.2.0,bus2=BBT2942418.1.2.0,Phases=2,Linecode=BT513_BT513_7_2_1,Length=0.000501000,Units=km
new line.12413829 bus1=BBT2942418.1.2.0,bus2=BBT2942460.1.2.0,Phases=2,Linecode=BT807_BT807_4_2_3,Length=0.029080000,Units=km
new line.12413857 bus1=BBT2942460.1.2.0,bus2=BBT2942467.1.2.0,Phases=2,Linecode=BT807_BT807_4_2_3,Length=0.030161000,Units=km
new line.12413864 bus1=BBT2942460.1.2.0,bus2=BBT2942502.1.2.0,Phases=2,Linecode=BT808_BT808_4_2_3,Length=0.040065000,Units=km
new line.12413885 bus1=BBT2942467.1.2.0,bus2=BBT2942474.1.2.0,Phases=2,Linecode=BT807_BT807_4_2_3,Length=0.031076000,Units=km
new line.12413927 bus1=BBT2942474.1.2.0,bus2=BBT2942516.1.2.0,Phases=2,Linecode=BT807_BT807_4_2_3,Length=0.035142000,Units=km
new line.12413934 bus1=BBT2942474.1.2.0,bus2=BBT2942509.1.2.0,Phases=2,Linecode=BT807_BT807_4_2_3,Length=0.033073000,Units=km
new line.12414025 bus1=BBT2942621.1.2.0,bus2=BBT2942628.1.2.0,Phases=2,Linecode=BT807_BT807_4_2_3,Length=0.034072000,Units=km
new line.12414039 bus1=BBT2942621.1.2.0,bus2=BBT2942810.1.2.0,Phases=2,Linecode=BT808_BT808_4_2_3,Length=0.035142000,Units=km
new line.12414081 bus1=BBT2942628.1.2.0,bus2=BBT3628544.1.2.0,Phases=2,Linecode=BT808_BT808_4_2_3,Length=0.035070000,Units=km
new line.12414116 bus1=BBT2942607.1.2.0,bus2=BBT2942614.1.2.0,Phases=2,Linecode=BT807_BT807_4_2_3,Length=0.042206000,Units=km
new line.12414151 bus1=BBT2942432.1.2.0,bus2=BBT2942621.1.2.0,Phases=2,Linecode=BT807_BT807_4_2_3,Length=0.045194000,Units=km
new line.12414158 bus1=BBT2942432.1.2.0,bus2=BBT2942607.1.2.0,Phases=2,Linecode=BT807_BT807_4_2_3,Length=0.045194000,Units=km
new line.12414165 bus1=BBT2942425.1.2.0,bus2=BBT2942432.1.2.0,Phases=2,Linecode=BT513_BT513_7_2_1,Length=0.000501000,Units=km
new line.12414221 bus1=BBT2942992.1.2.3.0,bus2=BBT1575493.1.2.3.0,Phases=3,Linecode=BT108_BT107_7_3_1,Length=0.012005000,Units=km
new line.12414228 bus1=BBT2942992.1.2.3.0,bus2=BBT2942999.1.2.3.0,Phases=3,Linecode=BT810_BT810_4_3_4,Length=0.033073000,Units=km
new line.12414305 bus1=BBT2943006.1.2.3.0,bus2=BBT2943013.1.2.3.0,Phases=3,Linecode=BT810_BT810_4_3_4,Length=0.031076000,Units=km
new line.12414312 bus1=BBT2943006.1.2.3.0,bus2=BBT2943027.1.2.3.0,Phases=3,Linecode=BT810_BT810_4_3_4,Length=0.034027000,Units=km
new line.12414319 bus1=BBT2943006.1.2.3.0,bus2=BBT2943020.1.2.3.0,Phases=3,Linecode=BT810_BT810_4_3_4,Length=0.037135000,Units=km
new line.12414333 bus1=BBT2942292.1.2.0,bus2=BBT2942306.1.2.0,Phases=2,Linecode=BT807_BT807_4_2_3,Length=0.029080000,Units=km
new line.12414340 bus1=BBT2942292.1.2.0,bus2=BBT2942348.1.2.0,Phases=2,Linecode=BT808_BT808_4_2_3,Length=0.034072000,Units=km
new line.12414361 bus1=BBT2942999.1.2.3.0,bus2=BBT2943006.1.2.3.0,Phases=3,Linecode=BT810_BT810_4_3_4,Length=0.033149000,Units=km
new line.12414396 bus1=BBT2942313.1.2.0,bus2=BBT2942334.1.2.0,Phases=2,Linecode=BT807_BT807_4_2_3,Length=0.023204000,Units=km
new line.11005394 bus1=BBT2699497.1.2.3.0,bus2=BBT1577586.1.2.3.0,Phases=3,Linecode=BT805_BT805_4_3_4,Length=0.009904000,Units=km
new line.11458399 bus1=BBT2760922.1.2.0,bus2=BBT2760929.1.2.0,Phases=2,Linecode=BT316_BT316_7_2_1,Length=0.000501000,Units=km
new line.11458546 bus1=BBT2760936.1.2.0,bus2=BBT2760943.1.2.0,Phases=2,Linecode=BT521_BT521_7_2_1,Length=0.000501000,Units=km
new line.11464062 bus1=BBT3509026.1.2.3.0,bus2=BBT3509033.1.2.3.0,Phases=3,Linecode=BT810_BT810_4_3_4,Length=0.030376000,Units=km
new line.11464090 bus1=BBT2762231.1.2.0,bus2=BBT2762238.1.2.0,Phases=2,Linecode=BT808_BT808_4_2_3,Length=0.039978000,Units=km
new line.11464118 bus1=BBT2762224.1.2.0,bus2=BBT2762231.1.2.0,Phases=2,Linecode=BT808_BT808_4_2_3,Length=0.039978000,Units=km
new line.11464132 bus1=BBT2762224.1.2.0,bus2=BBT152245814.1.2.0,Phases=2,Linecode=BT808_BT808_4_2_3,Length=0.026936000,Units=km
new line.11464167 bus1=BBT152245745.1.2.0,bus2=BBT2762217.1.2.0,Phases=2,Linecode=BT808_BT808_4_2_3,Length=0.026936000,Units=km
new line.11464174 bus1=BBT152245745.1.2.0,bus2=BBT2762210.1.2.0,Phases=2,Linecode=BT808_BT808_4_2_3,Length=0.025564000,Units=km
new line.11464209 bus1=BBT152245708.1.2.0,bus2=BBT2762168.1.2.0,Phases=2,Linecode=BT807_BT807_4_2_3,Length=0.026430000,Units=km
new line.11464251 bus1=BBT2762175.1.2.0,bus2=BBT152246011.1.2.0,Phases=2,Linecode=BT803_BT803_4_2_4,Length=0.026087000,Units=km
new line.11464265 bus1=BBT2762175.1.2.0,bus2=BBT2762182.1.2.0,Phases=2,Linecode=BT807_BT807_4_2_3,Length=0.039978000,Units=km
new line.11464286 bus1=BBT2762105.1.2.0,bus2=BBT2762112.1.2.0,Phases=2,Linecode=BT807_BT807_4_2_3,Length=0.039978000,Units=km
new line.11464300 bus1=BBT2762098.1.2.0,bus2=BBT2762105.1.2.0,Phases=2,Linecode=BT807_BT807_4_2_3,Length=0.036373000,Units=km
new line.11464321 bus1=BBT2762070.1.2.0,bus2=BBT2762098.1.2.0,Phases=2,Linecode=BT807_BT807_4_2_3,Length=0.038602000,Units=km
new line.11464328 bus1=BBT2762063.1.2.0,bus2=BBT2762070.1.2.0,Phases=2,Linecode=BT518_BT518_7_2_1,Length=0.000501000,Units=km
new line.11464335 bus1=BBT2762070.1.2.0,bus2=BBT2762091.1.2.0,Phases=2,Linecode=BT807_BT807_4_2_3,Length=0.034999000,Units=km
new line.11464356 bus1=BBT2762091.1.2.0,bus2=BBT2762245.1.2.0,Phases=2,Linecode=BT807_BT807_4_2_3,Length=0.026936000,Units=km
new line.11464363 bus1=BBT2762091.1.2.0,bus2=BBT2762259.1.2.0,Phases=2,Linecode=BT807_BT807_4_2_3,Length=0.022481000,Units=km
new line.11464391 bus1=BBT2762245.1.2.0,bus2=BBT2762252.1.2.0,Phases=2,Linecode=BT807_BT807_4_2_3,Length=0.024708000,Units=km
new line.11464405 bus1=BBT2762140.1.2.0,bus2=BBT2762147.1.2.0,Phases=2,Linecode=BT807_BT807_4_2_3,Length=0.026430000,Units=km
new line.11464419 bus1=BBT2762126.1.2.0,bus2=BBT2762133.1.2.0,Phases=2,Linecode=BT807_BT807_4_2_3,Length=0.039978000,Units=km
new line.11464454 bus1=BBT2762084.1.2.0,bus2=BBT2762126.1.2.0,Phases=2,Linecode=BT807_BT807_4_2_3,Length=0.035524000,Units=km
new line.11464461 bus1=BBT2762077.1.2.0,bus2=BBT2762084.1.2.0,Phases=2,Linecode=BT513_BT513_7_2_1,Length=0.000501000,Units=km
new line.11464468 bus1=BBT2762084.1.2.0,bus2=BBT2762119.1.2.0,Phases=2,Linecode=BT807_BT807_4_2_3,Length=0.038602000,Units=km
new line.11464489 bus1=BBT2762119.1.2.0,bus2=BBT2762140.1.2.0,Phases=2,Linecode=BT807_BT807_4_2_3,Length=0.034999000,Units=km
new line.11464510 bus1=BBT2762147.1.2.0,bus2=BBT2762154.1.2.0,Phases=2,Linecode=BT807_BT807_4_2_3,Length=0.026087000,Units=km
new line.11464531 bus1=BBT2762154.1.2.0,bus2=BBT2762161.1.2.0,Phases=2,Linecode=BT807_BT807_4_2_3,Length=0.033628000,Units=km
new line.11464538 bus1=BBT2762154.1.2.0,bus2=BBT2762196.1.2.0,Phases=2,Linecode=BT807_BT807_4_2_3,Length=0.034999000,Units=km
new line.11464587 bus1=BBT2762182.1.2.0,bus2=BBT2762189.1.2.0,Phases=2,Linecode=BT807_BT807_4_2_3,Length=0.036373000,Units=km
new line.11464608 bus1=BBT2762196.1.2.0,bus2=BBT2762203.1.2.0,Phases=2,Linecode=BT807_BT807_4_2_3,Length=0.037750000,Units=km
new line.11464636 bus1=BBT2762259.1.2.0,bus2=BBT2762266.1.2.0,Phases=2,Linecode=BT807_BT807_4_2_3,Length=0.030540000,Units=km
new line.11464664 bus1=BBT2762266.1.2.0,bus2=BBT2762273.1.2.0,Phases=2,Linecode=BT808_BT808_4_2_3,Length=0.039978000,Units=km
new line.11464678 bus1=BBT2762273.1.2.0,bus2=BBT3751737.1.2.0,Phases=2,Linecode=BT808_BT808_4_2_3,Length=0.036906000,Units=km
new line.11914638 bus1=BBT2839385.1.2.0,bus2=BBT2839392.1.2.0,Phases=2,Linecode=BT316_BT316_7_2_1,Length=0.000501000,Units=km
new line.12852596 bus1=BBT3072212.1.2.0,bus2=BBT3072219.1.2.0,Phases=2,Linecode=BT316_BT316_7_2_1,Length=0.000501000,Units=km
new line.12854409 bus1=BBT3072366.1.2.0,bus2=BBT3072373.1.2.0,Phases=2,Linecode=BT316_BT316_7_2_1,Length=0.000501000,Units=km
new line.12867128 bus1=BBT3078302.1.2.0,bus2=BBT3078309.1.2.0,Phases=2,Linecode=BT316_BT316_7_2_1,Length=0.000501000,Units=km
new line.12885384 bus1=BBT3087542.1.2.0,bus2=BBT3087549.1.2.0,Phases=2,Linecode=BT505_BT505_7_2_1,Length=0.000501000,Units=km
new line.12897060 bus1=BBT3100352.1.2.0,bus2=BBT3100359.1.2.0,Phases=2,Linecode=BT307_BT307_7_2_1,Length=0.000501000,Units=km
new line.13354055 bus1=BBT3628530.1.2.0,bus2=BBT3628537.1.2.0,Phases=2,Linecode=BT808_BT808_4_2_3,Length=0.038133000,Units=km
new line.13354083 bus1=BBT3628537.1.2.0,bus2=BBT3628572.1.2.0,Phases=2,Linecode=BT808_BT808_4_2_3,Length=0.026087000,Units=km
new line.13354111 bus1=BBT3628544.1.2.0,bus2=BBT3628551.1.2.0,Phases=2,Linecode=BT808_BT808_4_2_3,Length=0.038027000,Units=km
new line.13354139 bus1=BBT3628551.1.2.0,bus2=BBT3628579.1.2.0,Phases=2,Linecode=BT808_BT808_4_2_3,Length=0.027084000,Units=km
new line.13354146 bus1=BBT3628551.1.2.0,bus2=BBT4520932.1.2.0,Phases=2,Linecode=BT808_BT808_4_2_3,Length=0.043028000,Units=km
new line.13354160 bus1=BBT3628558.1.2.0,bus2=BBT3628565.1.2.0,Phases=2,Linecode=BT808_BT808_4_2_3,Length=0.042123000,Units=km
new line.13354181 bus1=BBT3628565.1.2.0,bus2=BBT3628586.1.2.0,Phases=2,Linecode=BT808_BT808_4_2_3,Length=0.027084000,Units=km
new line.13354195 bus1=BBT3628593.1.2.0,bus2=BBT3628600.1.2.0,Phases=2,Linecode=BT808_BT808_4_2_3,Length=0.032028000,Units=km
new line.13354209 bus1=BBT3628600.1.2.0,bus2=BBT3628607.1.2.0,Phases=2,Linecode=BT808_BT808_4_2_3,Length=0.028171000,Units=km
new line.13354307 bus1=BBT3628621.1.2.0,bus2=BBT3628628.1.2.0,Phases=2,Linecode=BT808_BT808_4_2_3,Length=0.039714000,Units=km
new line.13354335 bus1=BBT3628628.1.2.0,bus2=BBT3628635.1.2.0,Phases=2,Linecode=BT808_BT808_4_2_3,Length=0.039714000,Units=km
new line.13356680 bus1=BBT3632863.1.2.3.0,bus2=BBT3632870.1.2.3.0,Phases=3,Linecode=BT514_BT514_7_3_1,Length=0.000501000,Units=km
new line.13359697 bus1=BBT3638351.1.2.3.0,bus2=BBT1417888.1.2.3.0,Phases=3,Linecode=BT803_BT803_4_3_4,Length=0.026936000,Units=km
new line.13363183 bus1=BBT3642278.1.2.3.0,bus2=BBT1671659.1.2.3.0,Phases=3,Linecode=BT107_BT107_7_3_1,Length=0.005834000,Units=km
new line.13363225 bus1=BBT3642285.1.2.3.0,bus2=BBT3642292.1.2.3.0,Phases=3,Linecode=BT514_BT514_7_3_1,Length=0.000501000,Units=km
new line.13368566 bus1=BBT3719376.1.2.3.0,bus2=BBT1677105.1.2.3.0,Phases=3,Linecode=BT106_BT106_7_3_1,Length=0.024175000,Units=km
new line.13374838 bus1=BBT3733859.1.2.0,bus2=BBT3733866.1.2.0,Phases=2,Linecode=BT304_BT304_7_2_1,Length=0.000501000,Units=km
new line.10281804 bus1=BBT2596023.1.2.0,bus2=BBT2596030.1.2.0,Phases=2,Linecode=BT307_BT307_7_2_1,Length=0.000501000,Units=km
new line.10288587 bus1=BBT2597395.1.2.0,bus2=BBT2597402.1.2.0,Phases=2,Linecode=BT316_BT316_7_2_1,Length=0.000501000,Units=km
new line.11081113 bus1=BBT2708331.1.2.3.0,bus2=BBT2708338.1.2.3.0,Phases=3,Linecode=BT314_BT314_7_3_1,Length=0.000501000,Units=km
new line.12647041 bus1=BBT2997858.1.2.0,bus2=BBT2997865.1.2.0,Phases=2,Linecode=BT316_BT316_7_2_1,Length=0.000501000,Units=km
new line.12647111 bus1=BBT2997949.1.2.0,bus2=BBT2997956.1.2.0,Phases=2,Linecode=BT316_BT316_7_2_1,Length=0.000501000,Units=km
new line.12647314 bus1=BBT2998131.1.2.0,bus2=BBT2998138.1.2.0,Phases=2,Linecode=BT513_BT513_7_2_1,Length=0.000501000,Units=km
new line.12647384 bus1=BBT2998173.1.2.0,bus2=BBT2998180.1.2.0,Phases=2,Linecode=BT316_BT316_7_2_1,Length=0.000501000,Units=km
new line.12647510 bus1=BBT2998215.1.2.0,bus2=BBT2998222.1.2.0,Phases=2,Linecode=BT316_BT316_7_2_1,Length=0.000501000,Units=km
new line.12647741 bus1=BBT2998250.1.2.0,bus2=BBT2998257.1.2.0,Phases=2,Linecode=BT316_BT316_7_2_1,Length=0.000501000,Units=km
new line.12974298 bus1=BBT3139643.1.2.0,bus2=BBT3139650.1.2.0,Phases=2,Linecode=BT316_BT316_7_2_1,Length=0.000501000,Units=km
new line.12979317 bus1=BBT3141085.1.2.0,bus2=BBT3141092.1.2.0,Phases=2,Linecode=BT316_BT316_7_2_1,Length=0.000501000,Units=km
new line.13394844 bus1=BBT3773395.1.2.0,bus2=BBT2547296.1.2.0,Phases=2,Linecode=BT808_BT808_4_2_3,Length=0.015562000,Units=km
new line.13395516 bus1=BBT3814681.1.2.0,bus2=BBT3814688.1.2.0,Phases=2,Linecode=BT316_BT316_7_2_1,Length=0.000501000,Units=km
new line.13401830 bus1=BBT3844732.1.2.3.0,bus2=BBT1416803.1.2.3.0,Phases=3,Linecode=BT107_BT108_7_3_1,Length=0.033028000,Units=km
new line.13401837 bus1=BBT3844732.1.2.3.0,bus2=BBT3844739.1.2.3.0,Phases=3,Linecode=BT107_BT108_7_3_1,Length=0.007214000,Units=km
new line.13418462 bus1=BBT3897260.1.2.0,bus2=BBT3897253.1.2.0,Phases=2,Linecode=BT808_BT808_4_2_3,Length=0.041355000,Units=km
new line.13418469 bus1=BBT3897260.1.2.0,bus2=BBT3897204.1.2.0,Phases=2,Linecode=BT808_BT808_4_2_3,Length=0.036633000,Units=km
new line.13418490 bus1=BBT3897099.1.2.0,bus2=BBT3897106.1.2.0,Phases=2,Linecode=BT808_BT808_4_2_3,Length=0.036373000,Units=km
new line.13418497 bus1=BBT3897099.1.2.0,bus2=BBT3897120.1.2.0,Phases=2,Linecode=BT807_BT807_4_2_3,Length=0.037229000,Units=km
new line.13418525 bus1=BBT3897106.1.2.0,bus2=BBT3897113.1.2.0,Phases=2,Linecode=BT808_BT808_4_2_3,Length=0.037229000,Units=km
new line.13418567 bus1=BBT3897141.1.2.0,bus2=BBT3897162.1.2.0,Phases=2,Linecode=BT808_BT808_4_2_3,Length=0.036373000,Units=km
new line.13418574 bus1=BBT3897141.1.2.0,bus2=BBT3897148.1.2.0,Phases=2,Linecode=BT807_BT807_4_2_3,Length=0.034999000,Units=km
new line.13418602 bus1=BBT3897162.1.2.0,bus2=BBT3897197.1.2.0,Phases=2,Linecode=BT808_BT808_4_2_3,Length=0.037229000,Units=km
new line.13418637 bus1=BBT3897253.1.2.0,bus2=BBT3897267.1.2.0,Phases=2,Linecode=BT808_BT808_4_2_3,Length=0.037750000,Units=km
new line.13418672 bus1=BBT3897085.1.2.0,bus2=BBT3897092.1.2.0,Phases=2,Linecode=BT808_BT808_4_2_3,Length=0.036373000,Units=km
new line.13418714 bus1=BBT3897155.1.2.0,bus2=BBT3897169.1.2.0,Phases=2,Linecode=BT808_BT808_4_2_3,Length=0.043582000,Units=km
new line.13418735 bus1=BBT3897169.1.2.0,bus2=BBT3897176.1.2.0,Phases=2,Linecode=BT808_BT808_4_2_3,Length=0.039977000,Units=km
new line.13418749 bus1=BBT3897176.1.2.0,bus2=BBT3897183.1.2.0,Phases=2,Linecode=BT808_BT808_4_2_3,Length=0.037750000,Units=km
new line.13418777 bus1=BBT3897183.1.2.0,bus2=BBT3897190.1.2.0,Phases=2,Linecode=BT808_BT808_4_2_3,Length=0.026087000,Units=km
new line.13418805 bus1=BBT3897071.1.2.0,bus2=BBT3897078.1.2.0,Phases=2,Linecode=BT808_BT808_4_2_3,Length=0.028855000,Units=km
new line.13418861 bus1=BBT3897057.1.2.0,bus2=BBT3897064.1.2.0,Phases=2,Linecode=BT808_BT808_4_2_3,Length=0.039977000,Units=km
new line.13418889 bus1=BBT3897064.1.2.0,bus2=BBT3897071.1.2.0,Phases=2,Linecode=BT808_BT808_4_2_3,Length=0.034683000,Units=km
new line.13418910 bus1=BBT3897148.1.2.0,bus2=BBT3897155.1.2.0,Phases=2,Linecode=BT807_BT807_4_2_3,Length=0.030540000,Units=km
new line.13418959 bus1=BBT3897211.1.2.0,bus2=BBT3897246.1.2.0,Phases=2,Linecode=BT808_BT808_4_2_3,Length=0.030817000,Units=km
new line.13418987 bus1=BBT3897246.1.2.0,bus2=BBT3897260.1.2.0,Phases=2,Linecode=BT808_BT808_4_2_3,Length=0.031076000,Units=km
new line.13419008 bus1=BBT3897239.1.2.0,bus2=BBT3897211.1.2.0,Phases=2,Linecode=BT808_BT808_4_2_3,Length=0.038093000,Units=km
new line.13419029 bus1=BBT3897232.1.2.0,bus2=BBT3897239.1.2.0,Phases=2,Linecode=BT808_BT808_4_2_3,Length=0.038602000,Units=km
new line.13419043 bus1=BBT3897225.1.2.0,bus2=BBT3897232.1.2.0,Phases=2,Linecode=BT808_BT808_4_2_3,Length=0.037229000,Units=km
new line.13419071 bus1=BBT3897218.1.2.0,bus2=BBT3897225.1.2.0,Phases=2,Linecode=BT808_BT808_4_2_3,Length=0.038093000,Units=km
new line.13419113 bus1=BBT3897316.1.2.0,bus2=BBT3897323.1.2.0,Phases=2,Linecode=BT808_BT808_4_2_3,Length=0.037229000,Units=km
new line.13419127 bus1=BBT3897302.1.2.0,bus2=BBT3897316.1.2.0,Phases=2,Linecode=BT808_BT808_4_2_3,Length=0.039827000,Units=km
new line.13419134 bus1=BBT3897302.1.2.0,bus2=BBT3897309.1.2.0,Phases=2,Linecode=BT807_BT807_4_2_3,Length=0.036633000,Units=km
new line.13419176 bus1=BBT3897134.1.2.0,bus2=BBT3897141.1.2.0,Phases=2,Linecode=BT807_BT807_4_2_3,Length=0.031076000,Units=km
new line.13419183 bus1=BBT3897134.1.2.0,bus2=BBT3897218.1.2.0,Phases=2,Linecode=BT807_BT807_4_2_3,Length=0.033850000,Units=km
new line.13419190 bus1=BBT3897127.1.2.0,bus2=BBT3897134.1.2.0,Phases=2,Linecode=BT518_BT518_7_2_1,Length=0.000501000,Units=km
new line.13419211 bus1=BBT3897386.1.2.0,bus2=BBT3897407.1.2.0,Phases=2,Linecode=BT808_BT808_4_2_3,Length=0.036905000,Units=km
new line.13419218 bus1=BBT3897386.1.2.0,bus2=BBT3897393.1.2.0,Phases=2,Linecode=BT808_BT808_4_2_3,Length=0.037750000,Units=km
new line.13419246 bus1=BBT3897295.1.2.0,bus2=BBT3897302.1.2.0,Phases=2,Linecode=BT807_BT807_4_2_3,Length=0.026430000,Units=km
new line.13419281 bus1=BBT3897288.1.2.0,bus2=BBT3897295.1.2.0,Phases=2,Linecode=BT807_BT807_4_2_3,Length=0.030540000,Units=km
new line.13419288 bus1=BBT3897288.1.2.0,bus2=BBT3897344.1.2.0,Phases=2,Linecode=BT808_BT808_4_2_3,Length=0.037750000,Units=km
new line.13419295 bus1=BBT3897288.1.2.0,bus2=BBT3897330.1.2.0,Phases=2,Linecode=BT808_BT808_4_2_3,Length=0.037229000,Units=km
new line.13419316 bus1=BBT3897281.1.2.0,bus2=BBT3897386.1.2.0,Phases=2,Linecode=BT807_BT807_4_2_3,Length=0.026637000,Units=km
new line.13419323 bus1=BBT3897281.1.2.0,bus2=BBT3897288.1.2.0,Phases=2,Linecode=BT807_BT807_4_2_3,Length=0.026087000,Units=km
new line.13419330 bus1=BBT3897274.1.2.0,bus2=BBT3897281.1.2.0,Phases=2,Linecode=BT518_BT518_7_2_1,Length=0.000501000,Units=km
new line.13419407 bus1=BBT3897358.1.2.0,bus2=BBT3897365.1.2.0,Phases=2,Linecode=BT808_BT808_4_2_3,Length=0.030244000,Units=km
new line.13419414 bus1=BBT3897358.1.2.0,bus2=BBT3897372.1.2.0,Phases=2,Linecode=BT808_BT808_4_2_3,Length=0.026637000,Units=km
new line.13419435 bus1=BBT3897372.1.2.0,bus2=BBT3897379.1.2.0,Phases=2,Linecode=BT808_BT808_4_2_3,Length=0.026637000,Units=km
new line.13419477 bus1=BBT3897414.1.2.0,bus2=BBT3897421.1.2.0,Phases=2,Linecode=BT808_BT808_4_2_3,Length=0.036373000,Units=km
new line.10938481 bus1=BBT2689004.1.2.0,bus2=BBT2689011.1.2.0,Phases=2,Linecode=BT304_BT304_7_2_1,Length=0.000501000,Units=km
new line.10938516 bus1=BBT2689081.1.2.0,bus2=BBT2689088.1.2.0,Phases=2,Linecode=BT316_BT316_7_2_1,Length=0.000501000,Units=km
new line.11716825 bus1=BBT2806870.1.2.0,bus2=BBT2806877.1.2.0,Phases=2,Linecode=BT316_BT316_7_2_1,Length=0.000501000,Units=km
new line.11737034 bus1=BBT2809446.1.2.0,bus2=BBT2809453.1.2.0,Phases=2,Linecode=BT316_BT316_7_2_1,Length=0.000501000,Units=km
new line.11737993 bus1=BBT2809677.1.2.0,bus2=BBT2809684.1.2.0,Phases=2,Linecode=BT316_BT316_7_2_1,Length=0.000501000,Units=km
new line.12739070 bus1=BBT3031255.1.2.0,bus2=BBT3031262.1.2.0,Phases=2,Linecode=BT316_BT316_7_2_1,Length=0.000501000,Units=km
new line.12754736 bus1=BBT3035196.1.2.0,bus2=BBT3035203.1.2.0,Phases=2,Linecode=BT316_BT316_7_2_1,Length=0.000501000,Units=km
new line.12758194 bus1=BBT3036183.1.2.0,bus2=BBT3036190.1.2.0,Phases=2,Linecode=BT316_BT316_7_2_1,Length=0.000501000,Units=km
new line.12762415 bus1=BBT3037702.1.2.0,bus2=BBT3037709.1.2.0,Phases=2,Linecode=BT521_BT521_7_2_1,Length=0.000501000,Units=km
new line.12763360 bus1=BBT3037968.1.2.0,bus2=BBT3037975.1.2.0,Phases=2,Linecode=BT518_BT518_7_2_1,Length=0.000501000,Units=km
new line.12763367 bus1=BBT3037975.1.2.0,bus2=BBT3037982.1.2.0,Phases=2,Linecode=BT808_BT808_4_2_3,Length=0.038615000,Units=km
new line.12763388 bus1=BBT3037982.1.2.0,bus2=BBT3037989.1.2.0,Phases=2,Linecode=BT808_BT808_4_2_3,Length=0.033851000,Units=km
new line.12773909 bus1=BBT3042455.1.2.3.0,bus2=BBT3042462.1.2.3.0,Phases=3,Linecode=BT810_BT810_4_3_4,Length=0.040277000,Units=km
new line.12773916 bus1=BBT3042455.1.3.0,bus2=BBT3042469.1.3.0,Phases=2,Linecode=BT808_BT808_4_2_3,Length=0.030817000,Units=km
new line.12773937 bus1=BBT3042469.1.3.0,bus2=BBT3042476.1.3.0,Phases=2,Linecode=BT808_BT808_4_2_3,Length=0.025720000,Units=km
new line.12773951 bus1=BBT3042476.1.3.0,bus2=BBT3042483.1.3.0,Phases=2,Linecode=BT808_BT808_4_2_3,Length=0.040040000,Units=km
new line.13008297 bus1=BBT3170464.1.2.0,bus2=BBT3170471.1.2.0,Phases=2,Linecode=BT518_BT518_7_2_1,Length=0.000501000,Units=km
new line.13030347 bus1=BBT3198688.1.2.0,bus2=BBT3198695.1.2.0,Phases=2,Linecode=BT316_BT316_7_2_1,Length=0.000501000,Units=km
new line.13042107 bus1=BBT3209307.1.2.0,bus2=BBT3209314.1.2.0,Phases=2,Linecode=BT316_BT316_7_2_1,Length=0.000501000,Units=km
new line.13042163 bus1=BBT3209321.1.2.0,bus2=BBT3209328.1.2.0,Phases=2,Linecode=BT316_BT316_7_2_1,Length=0.000501000,Units=km
new line.13048218 bus1=BBT3212247.1.2.0,bus2=BBT3212254.1.2.0,Phases=2,Linecode=BT316_BT316_7_2_1,Length=0.000501000,Units=km
new line.13449990 bus1=BBT3976990.1.2.0,bus2=BBT3976997.1.2.0,Phases=2,Linecode=BT808_BT808_4_2_3,Length=0.041319000,Units=km
new line.13450032 bus1=BBT3977004.2.3.0,bus2=BBT3977011.2.3.0,Phases=2,Linecode=BT808_BT808_4_2_3,Length=0.035369000,Units=km
new line.13450053 bus1=BBT3977011.2.3.0,bus2=BBT3977018.2.3.0,Phases=2,Linecode=BT808_BT808_4_2_3,Length=0.036359000,Units=km
new line.13450095 bus1=BBT3977018.2.3.0,bus2=BBT3977025.2.3.0,Phases=2,Linecode=BT808_BT808_4_2_3,Length=0.041319000,Units=km
new line.13450130 bus1=BBT3977900.1.2.0,bus2=BBT3977914.1.2.0,Phases=2,Linecode=BT808_BT808_4_2_3,Length=0.031269000,Units=km
new line.13450137 bus1=BBT3977900.1.2.0,bus2=BBT3977907.1.2.0,Phases=2,Linecode=BT808_BT808_4_2_3,Length=0.031157000,Units=km
new line.13450186 bus1=BBT3977893.1.2.0,bus2=BBT3977900.1.2.0,Phases=2,Linecode=BT808_BT808_4_2_3,Length=0.035241000,Units=km
new line.13450207 bus1=BBT3977879.1.2.0,bus2=BBT3977893.1.2.0,Phases=2,Linecode=BT808_BT808_4_2_3,Length=0.025089000,Units=km
new line.13450214 bus1=BBT3977879.1.2.0,bus2=BBT3977886.1.2.0,Phases=2,Linecode=BT808_BT808_4_2_3,Length=0.033073000,Units=km
new line.13450249 bus1=BBT3977438.1.2.0,bus2=BBT3977879.1.2.0,Phases=2,Linecode=BT807_BT807_4_2_3,Length=0.032074000,Units=km
new line.13450256 bus1=BBT3977431.1.2.0,bus2=BBT3977438.1.2.0,Phases=2,Linecode=BT513_BT513_7_2_1,Length=0.000501000,Units=km
new line.13450263 bus1=BBT3977438.1.2.0,bus2=BBT3977522.1.2.0,Phases=2,Linecode=BT807_BT807_4_2_3,Length=0.037068000,Units=km
new line.13450284 bus1=BBT3977865.1.2.0,bus2=BBT3977872.1.2.0,Phases=2,Linecode=BT808_BT808_4_2_3,Length=0.031157000,Units=km
new line.13450333 bus1=BBT3977858.1.2.0,bus2=BBT3977865.1.2.0,Phases=2,Linecode=BT808_BT808_4_2_3,Length=0.031157000,Units=km
new line.13450382 bus1=BBT3977543.1.2.0,bus2=BBT3977858.1.2.0,Phases=2,Linecode=BT808_BT808_4_2_3,Length=0.028454000,Units=km
new line.13450389 bus1=BBT3977543.1.2.0,bus2=BBT3977851.1.2.0,Phases=2,Linecode=BT808_BT808_4_2_3,Length=0.032400000,Units=km
new line.13450410 bus1=BBT3977200.1.2.3.0,bus2=BBT2446720.1.2.3.0,Phases=3,Linecode=BT810_BT810_4_3_4,Length=0.010202000,Units=km
new line.13450417 bus1=BBT3977200.1.2.3.0,bus2=BBT3977207.1.2.3.0,Phases=3,Linecode=BT810_BT810_4_3_4,Length=0.021386000,Units=km
new line.13450424 bus1=BBT3977200.1.2.3.0,bus2=BBT3977221.1.2.3.0,Phases=3,Linecode=BT810_BT810_4_3_4,Length=0.013158000,Units=km
new line.13450445 bus1=BBT3977207.1.2.3.0,bus2=BBT3977214.1.2.3.0,Phases=3,Linecode=BT810_BT810_4_3_4,Length=0.039638000,Units=km
new line.13450494 bus1=BBT3977522.1.2.0,bus2=BBT3977529.1.2.0,Phases=2,Linecode=BT807_BT807_4_2_3,Length=0.013044000,Units=km
new line.13450515 bus1=BBT3977536.1.2.0,bus2=BBT3977543.1.2.0,Phases=2,Linecode=BT807_BT807_4_2_3,Length=0.033133000,Units=km
new line.13450536 bus1=BBT3977529.1.2.0,bus2=BBT3977536.1.2.0,Phases=2,Linecode=BT807_BT807_4_2_3,Length=0.038963000,Units=km
new line.13462583 bus1=BBT4008994.1.2.3.0,bus2=BBT1578573.1.2.3.0,Phases=3,Linecode=BT108_BT108_7_3_1,Length=0.026029000,Units=km
new line.13462604 bus1=BBT4009022.1.2.0,bus2=BBT4009043.1.2.0,Phases=2,Linecode=BT807_BT807_4_2_3,Length=0.035241000,Units=km
new line.13462618 bus1=BBT4009029.1.2.0,bus2=BBT4037099.1.2.0,Phases=2,Linecode=BT808_BT808_4_2_3,Length=0.035241000,Units=km
new line.13462646 bus1=BBT4009036.1.2.0,bus2=BBT4009029.1.2.0,Phases=2,Linecode=BT807_BT807_4_2_3,Length=0.035241000,Units=km
new line.13462660 bus1=BBT4009043.1.2.0,bus2=BBT4009036.1.2.0,Phases=2,Linecode=BT807_BT807_4_2_3,Length=0.035142000,Units=km
new line.13462681 bus1=BBT4009050.1.2.0,bus2=BBT4009022.1.2.0,Phases=2,Linecode=BT807_BT807_4_2_3,Length=0.036138000,Units=km
new line.13463773 bus1=BBT4010933.1.2.0,bus2=BBT4010940.1.2.0,Phases=2,Linecode=BT304_BT304_7_2_1,Length=0.000501000,Units=km
new line.13474049 bus1=BBT4029707.1.2.0,bus2=BBT4029714.1.2.0,Phases=2,Linecode=BT307_BT307_7_2_1,Length=0.000501000,Units=km
new line.13476660 bus1=BBT4035027.1.2.3.0,bus2=BBT1529580.1.2.3.0,Phases=3,Linecode=BT803_BT803_4_3_4,Length=0.026010000,Units=km
new line.13476681 bus1=BBT4035034.1.2.3.0,bus2=BBT1544518.1.2.3.0,Phases=3,Linecode=BT803_BT803_4_3_4,Length=0.010634000,Units=km
new line.13476688 bus1=BBT4035034.1.2.3.0,bus2=BBT4035223.1.2.3.0,Phases=3,Linecode=BT810_BT810_4_3_4,Length=0.014566000,Units=km
new line.13476709 bus1=BBT4035041.1.2.3.0,bus2=BBT4035034.1.2.3.0,Phases=3,Linecode=BT803_BT803_4_3_4,Length=0.040512000,Units=km
new line.13476716 bus1=BBT4035041.1.2.3.0,bus2=BBT4035111.1.2.3.0,Phases=3,Linecode=BT810_BT810_4_3_4,Length=0.012733000,Units=km
new line.13476730 bus1=BBT4035111.1.2.3.0,bus2=BBT4035202.1.2.3.0,Phases=3,Linecode=BT810_BT810_4_3_4,Length=0.028873000,Units=km
new line.13476751 bus1=BBT4035223.1.2.3.0,bus2=BBT4035230.1.2.3.0,Phases=3,Linecode=BT810_BT810_4_3_4,Length=0.035916000,Units=km
new line.13476821 bus1=BBT4035202.1.2.3.0,bus2=BBT4035209.1.2.3.0,Phases=3,Linecode=BT810_BT810_4_3_4,Length=0.030028000,Units=km
new line.13476835 bus1=BBT4035230.1.2.3.0,bus2=BBT4035237.1.2.3.0,Phases=3,Linecode=BT810_BT810_4_3_4,Length=0.034028000,Units=km
new line.13476863 bus1=BBT4035237.1.2.3.0,bus2=BBT4035244.1.2.3.0,Phases=3,Linecode=BT810_BT810_4_3_4,Length=0.034379000,Units=km
new line.13476898 bus1=BBT4035209.1.2.3.0,bus2=BBT4035216.1.2.3.0,Phases=3,Linecode=BT810_BT810_4_3_4,Length=0.035369000,Units=km