new load.3011911210M1 bus1=RML1060050838.1.2.0,Phases=2,kv=0.24,kW=1.32552,pf=0.92,Vminpu=0.92,Vmaxpu=1.5,model=1,daily=RES4_11,status=variable
new load.3012058644M1 bus1=RML1060097492.2.0,Phases=1,kv=0.12,kW=0.55686,pf=0.92,Vminpu=0.92,Vmaxpu=1.5,model=1,daily=RES4_14,status=variable
new load.3011806781M1 bus1=RML1060052580.1.2.0,Phases=2,kv=0.24,kW=0.51196,pf=0.92,Vminpu=0.92,Vmaxpu=1.5,model=1,daily=RES1_7,status=variable
new load.3012494510M1 bus1=RML1060341089.3.0,Phases=1,kv=0.127,kW=0.55068,pf=0.92,Vminpu=0.92,Vmaxpu=1.5,model=1,daily=RES4_20,status=variable
new load.3012516363M1 bus1=RML1060338591.1.0,Phases=1,kv=0.127,kW=0.24352,pf=0.92,Vminpu=0.92,Vmaxpu=1.5,model=1,daily=RES2_27,status=variable
new load.3012570838M1 bus1=RML1060367929.1.0,Phases=1,kv=0.127,kW=0.43534,pf=0.92,Vminpu=0.92,Vmaxpu=1.5,model=1,daily=RES2_28,status=variable
new load.3013161197M1 bus1=RML1060626403.3.0,Phases=1,kv=0.127,kW=0.79602,pf=0.92,Vminpu=0.92,Vmaxpu=1.5,model=1,daily=RES2_7,status=variable
new load.3013168241M1 bus1=RML1060638267.1.0,Phases=1,kv=0.127,kW=1.1036,pf=0.92,Vminpu=0.92,Vmaxpu=1.5,model=1,daily=RES1_6,status=variable
new load.IP8173127M1 bus1=BBT152410096.1.3.0,Phases=2,kv=0.22,kW=0.1129,pf=0.92,Vminpu=0.92,Vmaxpu=1.5,model=1,daily=IP,status=variable
new load.IP8173128M1 bus1=BBT152393807.2.3.0,Phases=2,kv=0.22,kW=0.1129,pf=0.92,Vminpu=0.92,Vmaxpu=1.5,model=1,daily=IP,status=variable
new load.IP8173092M1 bus1=BBT152410111.1.3.0,Phases=2,kv=0.22,kW=0.1129,pf=0.92,Vminpu=0.92,Vmaxpu=1.5,model=1,daily=IP,status=variable
new load.IP8173093M1 bus1=BBT152410127.1.2.0,Phases=2,kv=0.22,kW=0.1129,pf=0.92,Vminpu=0.92,Vmaxpu=1.5,model=1,daily=IP,status=variable
new load.IP8173094M1 bus1=BBT152410213.2.3.0,Phases=2,kv=0.22,kW=0.1129,pf=0.92,Vminpu=0.92,Vmaxpu=1.5,model=1,daily=IP,status=variable
new load.IP8173108M1 bus1=BBT152409790.1.2.0,Phases=2,kv=0.22,kW=0.1129,pf=0.92,Vminpu=0.92,Vmaxpu=1.5,model=1,daily=IP,status=variable
new load.IP8173109M1 bus1=BBT152409765.2.3.0,Phases=2,kv=0.22,kW=0.1129,pf=0.92,Vminpu=0.92,Vmaxpu=1.5,model=1,daily=IP,status=variable
new load.IP8173125M1 bus1=BBT152410097.2.3.0,Phases=2,kv=0.22,kW=0.1129,pf=0.92,Vminpu=0.92,Vmaxpu=1.5,model=1,daily=IP,status=variable
new load.IP8172433M1 bus1=BBT152393811.2.3.0,Phases=2,kv=0.22,kW=0.1129,pf=0.92,Vminpu=0.92,Vmaxpu=1.5,model=1,daily=IP,status=variable
new load.IP8172434M1 bus1=BBT152393813.1.3.0,Phases=2,kv=0.22,kW=0.1129,pf=0.92,Vminpu=0.92,Vmaxpu=1.5,model=1,daily=IP,status=variable
new load.IP8172435M1 bus1=BBT152393815.1.2.0,Phases=2,kv=0.22,kW=0.1129,pf=0.92,Vminpu=0.92,Vmaxpu=1.5,model=1,daily=IP,status=variable
new load.IP8173088M1 bus1=BBT152409764.1.3.0,Phases=2,kv=0.22,kW=0.1129,pf=0.92,Vminpu=0.92,Vmaxpu=1.5,model=1,daily=IP,status=variable
new load.IP8173091M1 bus1=BBT152410348.1.3.0,Phases=2,kv=0.22,kW=0.1129,pf=0.92,Vminpu=0.92,Vmaxpu=1.5,model=1,daily=IP,status=variable
new load.3012902550M1 bus1=RML1060530249.1.2.0,Phases=2,kv=0.22,kW=0.6215,pf=0.92,Vminpu=0.92,Vmaxpu=1.5,model=1,daily=RES2_5,status=variable
new load.3012949943M1 bus1=RML1060532600.1.0,Phases=1,kv=0.127,kW=0.24076,pf=0.92,Vminpu=0.92,Vmaxpu=1.5,model=1,daily=RES2_5,status=variable
new load.3012949957M1 bus1=RML1060532600.1.0,Phases=1,kv=0.127,kW=0.93122,pf=0.92,Vminpu=0.92,Vmaxpu=1.5,model=1,daily=RES1_3,status=variable
new load.3012992423M1 bus1=RML1060545269.2.0,Phases=1,kv=0.127,kW=1.04462,pf=0.92,Vminpu=0.92,Vmaxpu=1.5,model=1,daily=RES2_6,status=variable
new load.3013048773M1 bus1=RML1060573179.1.2.0,Phases=2,kv=0.22,kW=0.82568,pf=0.92,Vminpu=0.92,Vmaxpu=1.5,model=1,daily=RES2_6,status=variable
new load.3011114158M1 bus1=RML1058740964.1.2.0,Phases=2,kv=0.24,kW=0.5733,pf=0.92,Vminpu=0.92,Vmaxpu=1.5,model=1,daily=RUR2_22,status=variable
new load.3011114159M1 bus1=RML1058740978.1.2.0,Phases=2,kv=0.24,kW=0.05748,pf=0.92,Vminpu=0.92,Vmaxpu=1.5,model=1,daily=RUR1_24,status=variable
new load.3011114175M1 bus1=RML1058740957.1.0,Phases=1,kv=0.12,kW=0.5174,pf=0.92,Vminpu=0.92,Vmaxpu=1.5,model=1,daily=RUR1_24,status=variable
new load.3011104859M1 bus1=RML1058737520.1.0,Phases=1,kv=0.12,kW=1.066,pf=0.92,Vminpu=0.92,Vmaxpu=1.5,model=1,daily=RUR2_22,status=variable
new load.3013232442M1 bus1=RML1060714022.1.2.3.0,Phases=3,kv=0.22,kW=1.89938,pf=0.92,Vminpu=0.92,Vmaxpu=1.5,model=1,daily=COM3_10,status=variable
new load.3013273341M1 bus1=RML1060817559.1.2.0,Phases=2,kv=0.24,kW=0.27612,pf=0.92,Vminpu=0.92,Vmaxpu=1.5,model=1,daily=RES1_8,status=variable
new load.3013628045M1 bus1=RML1060938291.1.0,Phases=1,kv=0.12,kW=0.69484,pf=0.92,Vminpu=0.92,Vmaxpu=1.5,model=1,daily=RES1_15,status=variable
new load.3013724856M1 bus1=RML1060973919.1.2.0,Phases=2,kv=0.24,kW=0.21254,pf=0.92,Vminpu=0.92,Vmaxpu=1.5,model=1,daily=RES3_19,status=variable
new load.3004336859M1 bus1=RML1052157515.1.2.0,Phases=2,kv=0.24,kW=0.00846,pf=0.92,Vminpu=0.92,Vmaxpu=1.5,model=1,daily=RUR1_26,status=variable
new load.3000249571M1 bus1=RML1052157529.1.2.0,Phases=2,kv=0.24,kW=0.18388,pf=0.92,Vminpu=0.92,Vmaxpu=1.5,model=1,daily=RUR1_11,status=variable
new load.3000248865M1 bus1=RML1052323352.1.2.3.0,Phases=3,kv=0.22,kW=1.26564,pf=0.92,Vminpu=0.92,Vmaxpu=1.5,model=1,daily=RES3_4,status=variable
new load.3000248866M1 bus1=RML1052323331.1.2.0,Phases=2,kv=0.22,kW=0.93886,pf=0.92,Vminpu=0.92,Vmaxpu=1.5,model=1,daily=COM2_5,status=variable
new load.3000248867M1 bus1=RML1052323338.1.2.0,Phases=2,kv=0.22,kW=1.61472,pf=0.92,Vminpu=0.92,Vmaxpu=1.5,model=1,daily=RES2_4,status=variable
new load.3000248868M1 bus1=RML1052323324.1.3.0,Phases=2,kv=0.22,kW=2.70046,pf=0.92,Vminpu=0.92,Vmaxpu=1.5,model=1,daily=RES4_6,status=variable
new load.3000248869M1 bus1=RML1052323296.3.0,Phases=1,kv=0.127,kW=1.81656,pf=0.92,Vminpu=0.92,Vmaxpu=1.5,model=1,daily=RES2_4,status=variable
new load.IP3811158M1 bus1=BBT2520864.2.3.0,Phases=2,kv=0.22,kW=0.1129,pf=0.92,Vminpu=0.92,Vmaxpu=1.5,model=1,daily=IP,status=variable
new load.IP7737780M1 bus1=BBT1548781.1.2.0,Phases=2,kv=0.22,kW=0.1317,pf=0.92,Vminpu=0.92,Vmaxpu=1.5,model=1,daily=IP,status=variable
new load.IP6690391M1 bus1=BBT1548795.1.2.0,Phases=2,kv=0.22,kW=0.16666,pf=0.92,Vminpu=0.92,Vmaxpu=1.5,model=1,daily=IP,status=variable
new load.IP923952M1 bus1=BBT1548760.1.2.0,Phases=2,kv=0.22,kW=0.1317,pf=0.92,Vminpu=0.92,Vmaxpu=1.5,model=1,daily=IP,status=variable
new load.IP923994M1 bus1=BBT1548795.1.2.0,Phases=2,kv=0.22,kW=0.16666,pf=0.92,Vminpu=0.92,Vmaxpu=1.5,model=1,daily=IP,status=variable
new load.IP924015M1 bus1=BBT1548802.2.3.0,Phases=2,kv=0.22,kW=0.16666,pf=0.92,Vminpu=0.92,Vmaxpu=1.5,model=1,daily=IP,status=variable
new load.IP924750M1 bus1=BBT1549649.2.3.0,Phases=2,kv=0.22,kW=0.1317,pf=0.92,Vminpu=0.92,Vmaxpu=1.5,model=1,daily=IP,status=variable
new load.IP3811116M1 bus1=BBT2520878.1.2.0,Phases=2,kv=0.22,kW=0.1129,pf=0.92,Vminpu=0.92,Vmaxpu=1.5,model=1,daily=IP,status=variable
new load.IP3811137M1 bus1=BBT2520871.1.3.0,Phases=2,kv=0.22,kW=0.1129,pf=0.92,Vminpu=0.92,Vmaxpu=1.5,model=1,daily=IP,status=variable
new load.IP1773619M1 bus1=BBT1548788.1.2.0,Phases=2,kv=0.22,kW=0.1317,pf=0.92,Vminpu=0.92,Vmaxpu=1.5,model=1,daily=IP,status=variable
new load.IP923847M1 bus1=BBT1548704.2.3.0,Phases=2,kv=0.22,kW=0.1317,pf=0.92,Vminpu=0.92,Vmaxpu=1.5,model=1,daily=IP,status=variable
new load.3011112085M1 bus1=RML1058716667.1.0,Phases=1,kv=0.12,kW=1.17134,pf=0.92,Vminpu=0.92,Vmaxpu=1.5,model=1,daily=RUR1_24,status=variable
new load.3011669978M1 bus1=RML1059641164.1.2.0,Phases=2,kv=0.24,kW=0.45662,pf=0.92,Vminpu=0.92,Vmaxpu=1.5,model=1,daily=RES2_6,status=variable
new load.3011667399M1 bus1=RML1059524103.1.2.0,Phases=2,kv=0.24,kW=1.51996,pf=0.92,Vminpu=0.92,Vmaxpu=1.5,model=1,daily=RUR3_7,status=variable
new load.3002222656M1 bus1=RML1052319698.1.2.3.0,Phases=3,kv=0.22,kW=0.07406,pf=0.92,Vminpu=0.92,Vmaxpu=1.5,model=1,daily=RES2_1,status=variable
new load.3002222657M1 bus1=RML1052319754.2.3.0,Phases=2,kv=0.22,kW=3.78422,pf=0.92,Vminpu=0.92,Vmaxpu=1.5,model=1,daily=RES3_1,status=variable
new load.3002222660M1 bus1=RML1052319740.1.0,Phases=1,kv=0.127,kW=5.22648,pf=0.92,Vminpu=0.92,Vmaxpu=1.5,model=1,daily=RES5_2,status=variable
new load.3002222662M1 bus1=RML1052385638.1.2.0,Phases=2,kv=0.22,kW=0.4382,pf=0.92,Vminpu=0.92,Vmaxpu=1.5,model=1,daily=RES2_1,status=variable
new load.3002222663M1 bus1=RML1052319768.3.0,Phases=1,kv=0.127,kW=0.85252,pf=0.92,Vminpu=0.92,Vmaxpu=1.5,model=1,daily=COM1_2,status=variable
new load.IP921390M1 bus1=BBT1546681.1.3.0,Phases=2,kv=0.22,kW=0.2688,pf=0.92,Vminpu=0.92,Vmaxpu=1.5,model=1,daily=IP,status=variable
new load.3013867124M1 bus1=RML1052319684.1.3.0,Phases=2,kv=0.22,kW=21.22456,pf=0.92,Vminpu=0.92,Vmaxpu=1.5,model=1,daily=RES6_15,status=variable
new load.3011796071M1 bus1=RML1060081488.1.2.3.0,Phases=3,kv=0.22,kW=0.6233,pf=0.92,Vminpu=0.92,Vmaxpu=1.5,model=1,daily=RES2_7,status=variable
new load.3011796072M1 bus1=RML1060081488.1.2.3.0,Phases=3,kv=0.22,kW=0.68828,pf=0.92,Vminpu=0.92,Vmaxpu=1.5,model=1,daily=RES1_6,status=variable
new load.3011796073M1 bus1=RML1060081488.1.2.3.0,Phases=3,kv=0.22,kW=0.60076,pf=0.92,Vminpu=0.92,Vmaxpu=1.5,model=1,daily=RES2_7,status=variable
new load.3011796074M1 bus1=RML1060081488.1.2.3.0,Phases=3,kv=0.22,kW=0.7968,pf=0.92,Vminpu=0.92,Vmaxpu=1.5,model=1,daily=RES3_8,status=variable
new load.IP1785421M1 bus1=BBT1546674.2.3.0,Phases=2,kv=0.22,kW=0.2688,pf=0.92,Vminpu=0.92,Vmaxpu=1.5,model=1,daily=IP,status=variable
new load.IP1786002M1 bus1=BBT1546667.2.3.0,Phases=2,kv=0.22,kW=0.2688,pf=0.92,Vminpu=0.92,Vmaxpu=1.5,model=1,daily=IP,status=variable
new load.3012380312M1 bus1=RML1060609165.1.2.3.0,Phases=3,kv=0.22,kW=0.3055,pf=0.92,Vminpu=0.92,Vmaxpu=1.5,model=1,daily=RES2_22,status=variable
new load.3012387873M1 bus1=RML1060666582.1.2.0,Phases=2,kv=0.22,kW=4.98012,pf=0.92,Vminpu=0.92,Vmaxpu=1.5,model=1,daily=COM3_21,status=variable
new load.3012387877M1 bus1=RML1060609165.1.2.3.0,Phases=3,kv=0.22,kW=0.2993,pf=0.92,Vminpu=0.92,Vmaxpu=1.5,model=1,daily=RES2_23,status=variable
new load.3012387878M1 bus1=RML1060609165.1.2.3.0,Phases=3,kv=0.22,kW=0.35506,pf=0.92,Vminpu=0.92,Vmaxpu=1.5,model=1,daily=COM1_22,status=variable
new load.3006491909M1 bus1=RML1052319761.1.2.3.0,Phases=3,kv=0.22,kW=0.3518,pf=0.92,Vminpu=0.92,Vmaxpu=1.5,model=1,daily=RES2_1,status=variable
new load.3006519578M1 bus1=RML1052319761.1.2.3.0,Phases=3,kv=0.22,kW=0.6172,pf=0.92,Vminpu=0.92,Vmaxpu=1.5,model=1,daily=RES2_1,status=variable
new load.3011468583M1 bus1=RML1052385638.1.2.0,Phases=2,kv=0.22,kW=0.22482,pf=0.92,Vminpu=0.92,Vmaxpu=1.5,model=1,daily=COM1_5,status=variable
new load.3010915140M1 bus1=RML1053271236.2.3.0,Phases=2,kv=0.22,kW=0.44256,pf=0.92,Vminpu=0.92,Vmaxpu=1.5,model=1,daily=COM1_21,status=variable
new load.3011637809M1 bus1=RML1059539790.1.0,Phases=1,kv=0.127,kW=0.1257,pf=0.92,Vminpu=0.92,Vmaxpu=1.5,model=1,daily=COM1_7,status=variable
new load.IP923868M1 bus1=BBT1548718.1.2.0,Phases=2,kv=0.22,kW=0.1317,pf=0.92,Vminpu=0.92,Vmaxpu=1.5,model=1,daily=IP,status=variable
new load.IP923889M1 bus1=BBT1548725.2.3.0,Phases=2,kv=0.22,kW=0.1317,pf=0.92,Vminpu=0.92,Vmaxpu=1.5,model=1,daily=IP,status=variable
new load.IP923910M1 bus1=BBT1548746.2.3.0,Phases=2,kv=0.22,kW=0.1317,pf=0.92,Vminpu=0.92,Vmaxpu=1.5,model=1,daily=IP,status=variable
new load.IP923931M1 bus1=BBT1548753.1.2.0,Phases=2,kv=0.22,kW=0.1317,pf=0.92,Vminpu=0.92,Vmaxpu=1.5,model=1,daily=IP,status=variable
new load.IP3637306M1 bus1=BBT2403747.1.2.0,Phases=2,kv=0.22,kW=0.2688,pf=0.92,Vminpu=0.92,Vmaxpu=1.5,model=1,daily=IP,status=variable
new load.IP1773304M1 bus1=BBT1548774.1.2.0,Phases=2,kv=0.22,kW=0.1317,pf=0.92,Vminpu=0.92,Vmaxpu=1.5,model=1,daily=IP,status=variable
new load.IP1773325M1 bus1=BBT122595916.2.3.0,Phases=2,kv=0.22,kW=0.1317,pf=0.92,Vminpu=0.92,Vmaxpu=1.5,model=1,daily=IP,status=variable
new load.IP1773367M1 bus1=BBT1548711.2.3.0,Phases=2,kv=0.22,kW=0.1317,pf=0.92,Vminpu=0.92,Vmaxpu=1.5,model=1,daily=IP,status=variable
new load.IP1773388M1 bus1=BBT1548711.1.2.0,Phases=2,kv=0.22,kW=0.1129,pf=0.92,Vminpu=0.92,Vmaxpu=1.5,model=1,daily=IP,status=variable
new load.IP1773598M1 bus1=BBT1548809.1.2.0,Phases=2,kv=0.22,kW=0.2688,pf=0.92,Vminpu=0.92,Vmaxpu=1.5,model=1,daily=IP,status=variable
new load.3011748948M1 bus1=RML1059698081.1.2.3.0,Phases=3,kv=0.22,kW=1.51376,pf=0.92,Vminpu=0.92,Vmaxpu=1.5,model=1,daily=RES3_7,status=variable
new load.3012855144M1 bus1=RML1060494890.2.3.0,Phases=2,kv=0.22,kW=0.63942,pf=0.92,Vminpu=0.92,Vmaxpu=1.5,model=1,daily=COM2_3,status=variable
new load.3012855163M1 bus1=RML1060494890.2.3.0,Phases=2,kv=0.22,kW=1.49118,pf=0.92,Vminpu=0.92,Vmaxpu=1.5,model=1,daily=RES5_6,status=variable
new load.IP3628444M1 bus1=BBT1548697.1.2.0,Phases=2,kv=0.22,kW=0.1317,pf=0.92,Vminpu=0.92,Vmaxpu=1.5,model=1,daily=IP,status=variable
new load.IP3637264M1 bus1=BBT2403747.1.2.0,Phases=2,kv=0.22,kW=0.2688,pf=0.92,Vminpu=0.92,Vmaxpu=1.5,model=1,daily=IP,status=variable
new load.IP3637285M1 bus1=BBT2403747.1.2.0,Phases=2,kv=0.22,kW=0.2688,pf=0.92,Vminpu=0.92,Vmaxpu=1.5,model=1,daily=IP,status=variable
new load.3011136850M1 bus1=RML1058409080.1.2.3.0,Phases=3,kv=0.22,kW=0.74394,pf=0.92,Vminpu=0.92,Vmaxpu=1.5,model=1,daily=RES3_20,status=variable
new load.3011748925M1 bus1=RML1059698081.1.2.3.0,Phases=3,kv=0.22,kW=0.67556,pf=0.92,Vminpu=0.92,Vmaxpu=1.5,model=1,daily=RES2_6,status=variable
new load.3011748926M1 bus1=RML1059698081.1.2.3.0,Phases=3,kv=0.22,kW=0.76314,pf=0.92,Vminpu=0.92,Vmaxpu=1.5,model=1,daily=RES2_6,status=variable
new load.3011748942M1 bus1=RML1059698081.1.2.3.0,Phases=3,kv=0.22,kW=0.90686,pf=0.92,Vminpu=0.92,Vmaxpu=1.5,model=1,daily=RES3_7,status=variable
new load.3011748944M1 bus1=RML1059698081.1.2.3.0,Phases=3,kv=0.22,kW=1.11614,pf=0.92,Vminpu=0.92,Vmaxpu=1.5,model=1,daily=RES3_7,status=variable
new load.3011748945M1 bus1=RML1059698081.1.2.3.0,Phases=3,kv=0.22,kW=1.84164,pf=0.92,Vminpu=0.92,Vmaxpu=1.5,model=1,daily=RES3_7,status=variable
new load.3011654633M1 bus1=RML1060481391.1.3.0,Phases=2,kv=0.22,kW=0.87836,pf=0.92,Vminpu=0.92,Vmaxpu=1.5,model=1,daily=COM1_8,status=variable
new load.3013344213M1 bus1=RML1053176582.2.3.0,Phases=2,kv=0.22,kW=1.22922,pf=0.92,Vminpu=0.92,Vmaxpu=1.5,model=1,daily=COM1_13,status=variable
new load.3012219860M1 bus1=RML1060219301.1.2.0,Phases=2,kv=0.22,kW=4.66094,pf=0.92,Vminpu=0.92,Vmaxpu=1.5,model=1,daily=COM3_17,status=variable
new load.3011136817M1 bus1=RML1058409080.1.2.3.0,Phases=3,kv=0.22,kW=0.77456,pf=0.92,Vminpu=0.92,Vmaxpu=1.5,model=1,daily=RES3_20,status=variable
new load.3011136818M1 bus1=RML1058409080.1.2.3.0,Phases=3,kv=0.22,kW=0.7868,pf=0.92,Vminpu=0.92,Vmaxpu=1.5,model=1,daily=RES3_20,status=variable
new load.3011136819M1 bus1=RML1058409080.1.2.3.0,Phases=3,kv=0.22,kW=0.5234,pf=0.92,Vminpu=0.92,Vmaxpu=1.5,model=1,daily=RES5_20,status=variable
new load.3013248548M1 bus1=RML1060677176.1.3.0,Phases=2,kv=0.22,kW=0.63292,pf=0.92,Vminpu=0.92,Vmaxpu=1.5,model=1,daily=RES2_10,status=variable
new load.3013814439M1 bus1=RML1060944957.1.0,Phases=1,kv=0.127,kW=0.3546,pf=0.92,Vminpu=0.92,Vmaxpu=1.5,model=1,daily=RES2_24,status=variable
new load.3013228365M1 bus1=RML1060658771.1.2.0,Phases=2,kv=0.22,kW=1.22586,pf=0.92,Vminpu=0.92,Vmaxpu=1.5,model=1,daily=RES2_10,status=variable
new load.3012798158M1 bus1=RML1060480549.3.0,Phases=1,kv=0.127,kW=0.9996,pf=0.92,Vminpu=0.92,Vmaxpu=1.5,model=1,daily=RES2_4,status=variable
new load.3012839521M1 bus1=RML1060487965.1.2.0,Phases=2,kv=0.22,kW=0.26912,pf=0.92,Vminpu=0.92,Vmaxpu=1.5,model=1,daily=RES2_4,status=variable
new load.3012840669M1 bus1=RML1060488765.2.3.0,Phases=2,kv=0.22,kW=0.78554,pf=0.92,Vminpu=0.92,Vmaxpu=1.5,model=1,daily=RES1_2,status=variable
new load.3012840706M1 bus1=RML1060488765.2.3.0,Phases=2,kv=0.22,kW=1.01882,pf=0.92,Vminpu=0.92,Vmaxpu=1.5,model=1,daily=RES2_4,status=variable
new load.3004594476M1 bus1=RML1052156409.1.2.0,Phases=2,kv=0.24,kW=0.4023,pf=0.92,Vminpu=0.92,Vmaxpu=1.5,model=1,daily=RUR1_9,status=variable
new load.3004594477M1 bus1=RML1052156409.1.2.0,Phases=2,kv=0.24,kW=1.15338,pf=0.92,Vminpu=0.92,Vmaxpu=1.5,model=1,daily=RES2_4,status=variable
new load.3004546946M1 bus1=RML1052156458.1.2.0,Phases=2,kv=0.24,kW=1.50432,pf=0.92,Vminpu=0.92,Vmaxpu=1.5,model=1,daily=RUR1_7,status=variable
new load.3002590864M1 bus1=RML1052157690.1.2.3.0,Phases=3,kv=0.22,kW=12.921,pf=0.92,Vminpu=0.92,Vmaxpu=1.5,model=1,daily=COM4_3,status=variable
new load.3004796259M1 bus1=RML1052157718.1.2.3.0,Phases=3,kv=0.22,kW=2.2567,pf=0.92,Vminpu=0.92,Vmaxpu=1.5,model=1,daily=RUR4_5,status=variable
new load.3004299218M1 bus1=RML1053122234.2.0,Phases=1,kv=0.12,kW=1.15696,pf=0.92,Vminpu=0.92,Vmaxpu=1.5,model=1,daily=RUR1_24,status=variable
new load.3004299219M1 bus1=RML1053122241.2.0,Phases=1,kv=0.12,kW=0.02156,pf=0.92,Vminpu=0.92,Vmaxpu=1.5,model=1,daily=RUR1_24,status=variable
new load.3004303573M1 bus1=RML1053122227.2.0,Phases=1,kv=0.12,kW=0.54914,pf=0.92,Vminpu=0.92,Vmaxpu=1.5,model=1,daily=RUR1_25,status=variable
new load.3004310880M1 bus1=RML1052405294.2.0,Phases=1,kv=0.12,kW=0.36484,pf=0.92,Vminpu=0.92,Vmaxpu=1.5,model=1,daily=RUR2_23,status=variable
new load.3012538975M1 bus1=RML1060347116.2.0,Phases=1,kv=0.12,kW=0.38678,pf=0.92,Vminpu=0.92,Vmaxpu=1.5,model=1,daily=RES2_27,status=variable
new load.3002590822M1 bus1=RML1052407317.1.2.0,Phases=2,kv=0.24,kW=0.78304,pf=0.92,Vminpu=0.92,Vmaxpu=1.5,model=1,daily=RUR2_11,status=variable
new load.3003837507M1 bus1=RML1052409046.1.2.0,Phases=2,kv=0.22,kW=0.93682,pf=0.92,Vminpu=0.92,Vmaxpu=1.5,model=1,daily=RES2_9,status=variable
new load.3003545585M1 bus1=RML1052409018.3.0,Phases=1,kv=0.127,kW=0.95154,pf=0.92,Vminpu=0.92,Vmaxpu=1.5,model=1,daily=RES2_4,status=variable
new load.3003562407M1 bus1=RML1052409032.2.0,Phases=1,kv=0.127,kW=1.0957,pf=0.92,Vminpu=0.92,Vmaxpu=1.5,model=1,daily=RES2_4,status=variable
new load.3001682776M1 bus1=RML1052408969.2.0,Phases=1,kv=0.127,kW=0.88708,pf=0.92,Vminpu=0.92,Vmaxpu=1.5,model=1,daily=RES3_11,status=variable
new load.3001682777M1 bus1=RML1053156338.3.0,Phases=1,kv=0.127,kW=0.79282,pf=0.92,Vminpu=0.92,Vmaxpu=1.5,model=1,daily=RES2_10,status=variable
new load.IP8365503M1 bus1=BBT150435180.2.3.0,Phases=2,kv=0.22,kW=0.1129,pf=0.92,Vminpu=0.92,Vmaxpu=1.5,model=1,daily=IP,status=variable
new load.IP1420917M1 bus1=BBT1591782.1.2.0,Phases=2,kv=0.22,kW=0.08064,pf=0.92,Vminpu=0.92,Vmaxpu=1.5,model=1,daily=IP,status=variable
new load.IP1420938M1 bus1=BBT1591803.1.2.0,Phases=2,kv=0.22,kW=0.08064,pf=0.92,Vminpu=0.92,Vmaxpu=1.5,model=1,daily=IP,status=variable
new load.IP1420959M1 bus1=BBT1591810.1.2.0,Phases=2,kv=0.22,kW=0.08064,pf=0.92,Vminpu=0.92,Vmaxpu=1.5,model=1,daily=IP,status=variable
new load.IP1420980M1 bus1=BBT1591824.1.2.0,Phases=2,kv=0.22,kW=0.08064,pf=0.92,Vminpu=0.92,Vmaxpu=1.5,model=1,daily=IP,status=variable
new load.3005609965M1 bus1=RML1053005971.3.0,Phases=1,kv=0.127,kW=2.03784,pf=0.92,Vminpu=0.92,Vmaxpu=1.5,model=1,daily=RES2_3,status=variable
new load.3005804527M1 bus1=RML1052411230.1.0,Phases=1,kv=0.127,kW=0.88198,pf=0.92,Vminpu=0.92,Vmaxpu=1.5,model=1,daily=RES2_6,status=variable
new load.3006234369M1 bus1=RML1053196756.1.0,Phases=1,kv=0.127,kW=0.59716,pf=0.92,Vminpu=0.92,Vmaxpu=1.5,model=1,daily=RES2_18,status=variable
new load.3005863942M1 bus1=RML1052411125.3.0,Phases=1,kv=0.127,kW=1.0138,pf=0.92,Vminpu=0.92,Vmaxpu=1.5,model=1,daily=RES2_7,status=variable
new load.3005882793M1 bus1=RML1052996563.3.0,Phases=1,kv=0.127,kW=0.09544,pf=0.92,Vminpu=0.92,Vmaxpu=1.5,model=1,daily=RES1_7,status=variable
new load.3011879248M1 bus1=RML1059914731.2.0,Phases=1,kv=0.127,kW=0.70262,pf=0.92,Vminpu=0.92,Vmaxpu=1.5,model=1,daily=RES2_9,status=variable
new load.IP7938344M1 bus1=BBT148850623.1.3.0,Phases=2,kv=0.22,kW=0.1129,pf=0.92,Vminpu=0.92,Vmaxpu=1.5,model=1,daily=IP,status=variable
new load.IP7938379M1 bus1=BBT148850633.1.2.0,Phases=2,kv=0.22,kW=0.1129,pf=0.92,Vminpu=0.92,Vmaxpu=1.5,model=1,daily=IP,status=variable
new load.IP7938386M1 bus1=BBT148850634.1.3.0,Phases=2,kv=0.22,kW=0.1129,pf=0.92,Vminpu=0.92,Vmaxpu=1.5,model=1,daily=IP,status=variable
new load.IP7938393M1 bus1=BBT148850635.2.3.0,Phases=2,kv=0.22,kW=0.1129,pf=0.92,Vminpu=0.92,Vmaxpu=1.5,model=1,daily=IP,status=variable
new load.IP8092552M1 bus1=BBT148850624.2.3.0,Phases=2,kv=0.22,kW=0.1129,pf=0.92,Vminpu=0.92,Vmaxpu=1.5,model=1,daily=IP,status=variable
new load.IP8092553M1 bus1=BBT148850625.1.2.0,Phases=2,kv=0.22,kW=0.1129,pf=0.92,Vminpu=0.92,Vmaxpu=1.5,model=1,daily=IP,status=variable
new load.IP7938302M1 bus1=BBT148850626.1.3.0,Phases=2,kv=0.22,kW=0.1129,pf=0.92,Vminpu=0.92,Vmaxpu=1.5,model=1,daily=IP,status=variable
new load.IP7938309M1 bus1=BBT148850627.1.2.0,Phases=2,kv=0.22,kW=0.1129,pf=0.92,Vminpu=0.92,Vmaxpu=1.5,model=1,daily=IP,status=variable
new load.IP7938316M1 bus1=BBT148850628.1.3.0,Phases=2,kv=0.22,kW=0.1129,pf=0.92,Vminpu=0.92,Vmaxpu=1.5,model=1,daily=IP,status=variable
new load.IP7938323M1 bus1=BBT148850621.1.2.0,Phases=2,kv=0.22,kW=0.1129,pf=0.92,Vminpu=0.92,Vmaxpu=1.5,model=1,daily=IP,status=variable
new load.IP7938330M1 bus1=BBT148850622.1.3.0,Phases=2,kv=0.22,kW=0.1129,pf=0.92,Vminpu=0.92,Vmaxpu=1.5,model=1,daily=IP,status=variable
new load.IP7938337M1 bus1=BBT148850622.2.3.0,Phases=2,kv=0.22,kW=0.1129,pf=0.92,Vminpu=0.92,Vmaxpu=1.5,model=1,daily=IP,status=variable
new load.3013669152M1 bus1=RML1058042308.1.2.0,Phases=2,kv=0.22,kW=1.48674,pf=0.92,Vminpu=0.92,Vmaxpu=1.5,model=1,daily=RES2_20,status=variable
new load.3013697368M1 bus1=RML1060883380.1.3.0,Phases=2,kv=0.22,kW=0.57516,pf=0.92,Vminpu=0.92,Vmaxpu=1.5,model=1,daily=RES3_18,status=variable
new load.3013798938M1 bus1=RML1060925947.1.2.0,Phases=2,kv=0.22,kW=0.08096,pf=0.92,Vminpu=0.92,Vmaxpu=1.5,model=1,daily=RES1_18,status=variable
new load.3013825187M1 bus1=RML1060938320.1.3.0,Phases=2,kv=0.22,kW=0.38414,pf=0.92,Vminpu=0.92,Vmaxpu=1.5,model=1,daily=RES2_24,status=variable
new load.IP7938281M1 bus1=BBT148850623.2.3.0,Phases=2,kv=0.22,kW=0.1129,pf=0.92,Vminpu=0.92,Vmaxpu=1.5,model=1,daily=IP,status=variable
new load.IP7938288M1 bus1=BBT148850624.1.3.0,Phases=2,kv=0.22,kW=0.1129,pf=0.92,Vminpu=0.92,Vmaxpu=1.5,model=1,daily=IP,status=variable
new load.3012871318M1 bus1=RML1060503205.3.0,Phases=1,kv=0.127,kW=1.02842,pf=0.92,Vminpu=0.92,Vmaxpu=1.5,model=1,daily=RES2_4,status=variable
new load.3012936815M1 bus1=RML1060530140.1.0,Phases=1,kv=0.127,kW=0.6215,pf=0.92,Vminpu=0.92,Vmaxpu=1.5,model=1,daily=RES2_5,status=variable
new load.3013424712M1 bus1=RML1060760338.1.2.0,Phases=2,kv=0.22,kW=1.1118,pf=0.92,Vminpu=0.92,Vmaxpu=1.5,model=1,daily=RES2_14,status=variable
new load.IP3636424M1 bus1=BBT1593147.1.2.0,Phases=2,kv=0.22,kW=0.08064,pf=0.92,Vminpu=0.92,Vmaxpu=1.5,model=1,daily=IP,status=variable
new load.IP3636445M1 bus1=BBT1593266.1.2.0,Phases=2,kv=0.22,kW=0.08064,pf=0.92,Vminpu=0.92,Vmaxpu=1.5,model=1,daily=IP,status=variable
new load.3012555039M1 bus1=RML1060353725.2.0,Phases=1,kv=0.127,kW=0.35422,pf=0.92,Vminpu=0.92,Vmaxpu=1.5,model=1,daily=RES2_28,status=variable
new load.3012570351M1 bus1=RML1060367960.3.0,Phases=1,kv=0.127,kW=0.6886,pf=0.92,Vminpu=0.92,Vmaxpu=1.5,model=1,daily=RES1_26,status=variable
new load.3012586044M1 bus1=RML1060380686.2.0,Phases=1,kv=0.127,kW=0.45672,pf=0.92,Vminpu=0.92,Vmaxpu=1.5,model=1,daily=RES2_1,status=variable
new load.3012597619M1 bus1=RML1060443091.1.0,Phases=1,kv=0.127,kW=2.44766,pf=0.92,Vminpu=0.92,Vmaxpu=1.5,model=1,daily=RES3_1,status=variable
new load.IP8173122M1 bus1=BBT152408406.1.2.0,Phases=2,kv=0.22,kW=0.1129,pf=0.92,Vminpu=0.92,Vmaxpu=1.5,model=1,daily=IP,status=variable
new load.IP8173123M1 bus1=BBT152408405.2.3.0,Phases=2,kv=0.22,kW=0.1129,pf=0.92,Vminpu=0.92,Vmaxpu=1.5,model=1,daily=IP,status=variable
new load.IP8173116M1 bus1=BBT152408340.1.3.0,Phases=2,kv=0.22,kW=0.1129,pf=0.92,Vminpu=0.92,Vmaxpu=1.5,model=1,daily=IP,status=variable
new load.IP8173117M1 bus1=BBT152408350.1.2.0,Phases=2,kv=0.22,kW=0.1129,pf=0.92,Vminpu=0.92,Vmaxpu=1.5,model=1,daily=IP,status=variable
new load.IP8173118M1 bus1=BBT152408350.1.2.0,Phases=2,kv=0.22,kW=0.1129,pf=0.92,Vminpu=0.92,Vmaxpu=1.5,model=1,daily=IP,status=variable
new load.IP8173119M1 bus1=BBT152408358.2.3.0,Phases=2,kv=0.22,kW=0.1129,pf=0.92,Vminpu=0.92,Vmaxpu=1.5,model=1,daily=IP,status=variable
new load.IP8173120M1 bus1=BBT152408407.1.3.0,Phases=2,kv=0.22,kW=0.1129,pf=0.92,Vminpu=0.92,Vmaxpu=1.5,model=1,daily=IP,status=variable
new load.IP8173121M1 bus1=BBT152408406.1.2.0,Phases=2,kv=0.22,kW=0.1129,pf=0.92,Vminpu=0.92,Vmaxpu=1.5,model=1,daily=IP,status=variable
new load.IP8173110M1 bus1=BBT152408402.2.3.0,Phases=2,kv=0.22,kW=0.1129,pf=0.92,Vminpu=0.92,Vmaxpu=1.5,model=1,daily=IP,status=variable
new load.IP8173111M1 bus1=BBT152406523.1.2.0,Phases=2,kv=0.22,kW=0.1129,pf=0.92,Vminpu=0.92,Vmaxpu=1.5,model=1,daily=IP,status=variable
new load.IP8173112M1 bus1=BBT152408197.1.3.0,Phases=2,kv=0.22,kW=0.1129,pf=0.92,Vminpu=0.92,Vmaxpu=1.5,model=1,daily=IP,status=variable
new load.IP8173113M1 bus1=BBT152408198.2.3.0,Phases=2,kv=0.22,kW=0.1129,pf=0.92,Vminpu=0.92,Vmaxpu=1.5,model=1,daily=IP,status=variable
new load.IP8173114M1 bus1=BBT152408198.2.3.0,Phases=2,kv=0.22,kW=0.1129,pf=0.92,Vminpu=0.92,Vmaxpu=1.5,model=1,daily=IP,status=variable
new load.IP8173115M1 bus1=BBT152408287.1.2.0,Phases=2,kv=0.22,kW=0.1129,pf=0.92,Vminpu=0.92,Vmaxpu=1.5,model=1,daily=IP,status=variable
new load.IP8173099M1 bus1=BBT152409640.2.3.0,Phases=2,kv=0.22,kW=0.1129,pf=0.92,Vminpu=0.92,Vmaxpu=1.5,model=1,daily=IP,status=variable
new load.IP8173100M1 bus1=BBT152409612.1.2.0,Phases=2,kv=0.22,kW=0.1129,pf=0.92,Vminpu=0.92,Vmaxpu=1.5,model=1,daily=IP,status=variable
new load.IP8173101M1 bus1=BBT152408305.1.3.0,Phases=2,kv=0.22,kW=0.1129,pf=0.92,Vminpu=0.92,Vmaxpu=1.5,model=1,daily=IP,status=variable
new load.IP8173102M1 bus1=BBT152408305.1.3.0,Phases=2,kv=0.22,kW=0.1129,pf=0.92,Vminpu=0.92,Vmaxpu=1.5,model=1,daily=IP,status=variable
new load.IP8173106M1 bus1=BBT152408415.1.3.0,Phases=2,kv=0.22,kW=0.1129,pf=0.92,Vminpu=0.92,Vmaxpu=1.5,model=1,daily=IP,status=variable
new load.IP8173107M1 bus1=BBT152408404.1.3.0,Phases=2,kv=0.22,kW=0.1129,pf=0.92,Vminpu=0.92,Vmaxpu=1.5,model=1,daily=IP,status=variable
new load.3013756228M1 bus1=RML1060910711.3.0,Phases=1,kv=0.127,kW=0.51982,pf=0.92,Vminpu=0.92,Vmaxpu=1.5,model=1,daily=RES2_23,status=variable
new load.3013885663M1 bus1=RML1060966986.1.2.0,Phases=2,kv=0.22,kW=0.36292,pf=0.92,Vminpu=0.92,Vmaxpu=1.5,model=1,daily=RES2_26,status=variable
new load.3004986736M1 bus1=RML1052319761.1.2.3.0,Phases=3,kv=0.22,kW=0.8026,pf=0.92,Vminpu=0.92,Vmaxpu=1.5,model=1,daily=RES3_11,status=variable
new load.3004986737M1 bus1=RML1052319761.1.2.3.0,Phases=3,kv=0.22,kW=1.76768,pf=0.92,Vminpu=0.92,Vmaxpu=1.5,model=1,daily=RES2_11,status=variable
new load.3004986738M1 bus1=RML1052319761.1.2.3.0,Phases=3,kv=0.22,kW=0.51218,pf=0.92,Vminpu=0.92,Vmaxpu=1.5,model=1,daily=RES1_11,status=variable
new load.3004986739M1 bus1=RML1052319761.1.2.3.0,Phases=3,kv=0.22,kW=1.60502,pf=0.92,Vminpu=0.92,Vmaxpu=1.5,model=1,daily=RES2_11,status=variable
new load.3005053742M1 bus1=RML1052319698.1.2.3.0,Phases=3,kv=0.22,kW=1.18168,pf=0.92,Vminpu=0.92,Vmaxpu=1.5,model=1,daily=RES1_13,status=variable
new load.3006714966M1 bus1=RML1053458857.1.2.3.0,Phases=3,kv=0.22,kW=0.04768,pf=0.92,Vminpu=0.92,Vmaxpu=1.5,model=1,daily=COM4_3,status=variable
new load.3004907501M1 bus1=RML1052319761.1.2.3.0,Phases=3,kv=0.22,kW=0.8124,pf=0.92,Vminpu=0.92,Vmaxpu=1.5,model=1,daily=RES2_9,status=variable
new load.3004907502M1 bus1=RML1052319761.1.2.3.0,Phases=3,kv=0.22,kW=0.98074,pf=0.92,Vminpu=0.92,Vmaxpu=1.5,model=1,daily=RES2_9,status=variable
new load.3004907503M1 bus1=RML1052319761.1.2.3.0,Phases=3,kv=0.22,kW=0.95878,pf=0.92,Vminpu=0.92,Vmaxpu=1.5,model=1,daily=RES2_9,status=variable
new load.3006375544M1 bus1=RML1053271236.2.3.0,Phases=2,kv=0.22,kW=0.35882,pf=0.92,Vminpu=0.92,Vmaxpu=1.5,model=1,daily=RES2_24,status=variable
new load.3006398768M1 bus1=RML1052319761.1.2.3.0,Phases=3,kv=0.22,kW=0.53798,pf=0.92,Vminpu=0.92,Vmaxpu=1.5,model=1,daily=RES2_26,status=variable
new load.3002222781M1 bus1=RML1052319733.3.0,Phases=1,kv=0.127,kW=0.71594,pf=0.92,Vminpu=0.92,Vmaxpu=1.5,model=1,daily=RES2_1,status=variable
new load.3002222783M1 bus1=RML1052319719.2.0,Phases=1,kv=0.127,kW=3.91304,pf=0.92,Vminpu=0.92,Vmaxpu=1.5,model=1,daily=RES3_1,status=variable
new load.3002222785M1 bus1=RML1052319670.2.0,Phases=1,kv=0.127,kW=0.47388,pf=0.92,Vminpu=0.92,Vmaxpu=1.5,model=1,daily=COM1_2,status=variable
new load.3003847859M1 bus1=RML1052319698.1.2.3.0,Phases=3,kv=0.22,kW=1.07946,pf=0.92,Vminpu=0.92,Vmaxpu=1.5,model=1,daily=COM1_12,status=variable
new load.3004214887M1 bus1=RML1052319761.1.2.3.0,Phases=3,kv=0.22,kW=0.12894,pf=0.92,Vminpu=0.92,Vmaxpu=1.5,model=1,daily=RES1_18,status=variable
new load.3002222777M1 bus1=RML1052319761.1.2.3.0,Phases=3,kv=0.22,kW=5.50724,pf=0.92,Vminpu=0.92,Vmaxpu=1.5,model=1,daily=RES3_1,status=variable
new load.3002222778M1 bus1=RML1052319775.1.3.0,Phases=2,kv=0.22,kW=0.46906,pf=0.92,Vminpu=0.92,Vmaxpu=1.5,model=1,daily=RES2_1,status=variable
new load.3002222779M1 bus1=RML1052319775.1.3.0,Phases=2,kv=0.22,kW=0.34322,pf=0.92,Vminpu=0.92,Vmaxpu=1.5,model=1,daily=COM1_2,status=variable
new load.3002222780M1 bus1=RML1052319705.3.0,Phases=1,kv=0.127,kW=0.36316,pf=0.92,Vminpu=0.92,Vmaxpu=1.5,model=1,daily=COM1_2,status=variable
new load.IP924477M1 bus1=BBT1549418.1.2.0,Phases=2,kv=0.22,kW=0.1317,pf=0.92,Vminpu=0.92,Vmaxpu=1.5,model=1,daily=IP,status=variable
new load.IP924498M1 bus1=BBT1549432.1.2.0,Phases=2,kv=0.22,kW=0.1317,pf=0.92,Vminpu=0.92,Vmaxpu=1.5,model=1,daily=IP,status=variable
new load.IP924519M1 bus1=BBT1549439.1.2.0,Phases=2,kv=0.22,kW=0.1317,pf=0.92,Vminpu=0.92,Vmaxpu=1.5,model=1,daily=IP,status=variable
new load.IP924540M1 bus1=BBT1549467.1.2.0,Phases=2,kv=0.22,kW=0.1317,pf=0.92,Vminpu=0.92,Vmaxpu=1.5,model=1,daily=IP,status=variable
new load.3010330813M1 bus1=RML1054006971.2.3.0,Phases=2,kv=0.22,kW=2.44078,pf=0.92,Vminpu=0.92,Vmaxpu=1.5,model=1,daily=RES3_6,status=variable
new load.3011021051M1 bus1=RML1052323317.1.2.3.0,Phases=3,kv=0.22,kW=0.0299,pf=0.92,Vminpu=0.92,Vmaxpu=1.5,model=1,daily=RES1_19,status=variable