new line.RML10035319 bus1=BBT148101410.1.2.0,bus2=RML1060035319.1.2.0,Phases=2,Linecode=CABBTG05_4_2,Length=0.026000000,Units=km
new line.RML10037460 bus1=BBT88082654.1.0,bus2=RML1060037460.1.0,Phases=1,Linecode=CABBTG02_4_1,Length=0.017000000,Units=km
new line.RML10039450 bus1=BBT3907130.1.2.0,bus2=RML1060039450.1.2.0,Phases=2,Linecode=CABBTG05_4_2,Length=0.017000000,Units=km
new line.RML10039522 bus1=BBT1546814.1.2.3.0,bus2=RML1060039522.1.2.3.0,Phases=3,Linecode=CABBTG06_4_3,Length=0.017000000,Units=km
new line.RML10039536 bus1=BBT1690524.1.2.0,bus2=RML1060039536.1.2.0,Phases=2,Linecode=CABBTG05_4_2,Length=0.017000000,Units=km
new line.RML10039540 bus1=BBT1673472.1.0,bus2=RML1060039540.1.0,Phases=1,Linecode=CABBTG02_4_1,Length=0.017000000,Units=km
new line.RML10039548 bus1=BBT91031012.1.2.3.0,bus2=RML1060039548.1.2.3.0,Phases=3,Linecode=CABBTG06_4_3,Length=0.017000000,Units=km
new line.RML10039553 bus1=BBT4036651.1.2.3.0,bus2=RML1060039553.1.2.3.0,Phases=3,Linecode=CABBTG06_4_3,Length=0.017000000,Units=km
new line.RML10039566 bus1=BBT78183023.1.0,bus2=RML1060039566.1.0,Phases=1,Linecode=CABBTG02_4_1,Length=0.017000000,Units=km
new line.RML10039573 bus1=BBT78231890.2.0,bus2=RML1060039573.2.0,Phases=1,Linecode=CABBTG01_4_1,Length=0.017000000,Units=km
new line.RML10039582 bus1=BBT1419239.3.0,bus2=RML1060039582.3.0,Phases=1,Linecode=CABBTG02_4_1,Length=0.017000000,Units=km
new line.RML10039586 bus1=BBT84886055.3.0,bus2=RML1060039586.3.0,Phases=1,Linecode=CABBTG02_4_1,Length=0.020000000,Units=km
new line.RML10039635 bus1=BBT2266701.2.0,bus2=RML1060039635.2.0,Phases=1,Linecode=CABBTG02_4_1,Length=0.017000000,Units=km
new line.RML10039989 bus1=BBT1677273.2.3.0,bus2=RML1060039989.2.3.0,Phases=2,Linecode=CABBTG05_4_2,Length=0.017000000,Units=km
new line.RML10040011 bus1=BBT107635124.2.0,bus2=RML1060040011.2.0,Phases=1,Linecode=CABBTG02_4_1,Length=0.017000000,Units=km
new line.RML10040016 bus1=BBT2446657.2.0,bus2=RML1060040016.2.0,Phases=1,Linecode=CABBTG01_4_1,Length=0.017000000,Units=km
new line.RML10040022 bus1=BBT78979917.2.0,bus2=RML1060040022.2.0,Phases=1,Linecode=CABBTG02_4_1,Length=0.017000000,Units=km
new line.RML10040023 bus1=BBT109074786.1.2.0,bus2=RML1060040023.1.2.0,Phases=2,Linecode=CABBTG05_4_2,Length=0.017000000,Units=km
new line.RML10040025 bus1=BBT84880742.1.2.0,bus2=RML1060040025.1.2.0,Phases=2,Linecode=CABBTG05_4_2,Length=0.017000000,Units=km
new line.RML10040145 bus1=BBT78167784.2.0,bus2=RML1060040145.2.0,Phases=1,Linecode=CABBTG02_4_1,Length=0.017000000,Units=km
new line.RML10040218 bus1=BBT90651115.2.0,bus2=RML1060040218.2.0,Phases=1,Linecode=CABBTG02_4_1,Length=0.017000000,Units=km
new line.RML10040225 bus1=BBT1570684.1.2.0,bus2=RML1060040225.1.2.0,Phases=2,Linecode=CABBTG13_4_2,Length=0.017000000,Units=km
new line.RML10040248 bus1=BBT1671554.3.0,bus2=RML1060040248.3.0,Phases=1,Linecode=CABBTG02_4_1,Length=0.017000000,Units=km
new line.RML10040258 bus1=BBT1525590.2.0,bus2=RML1060040258.2.0,Phases=1,Linecode=CABBTG02_4_1,Length=0.017000000,Units=km
new line.RML10040263 bus1=BBT84879664.2.0,bus2=RML1060040263.2.0,Phases=1,Linecode=CABBTG02_4_1,Length=0.017000000,Units=km
new line.RML10040270 bus1=BBT1564965.2.3.0,bus2=RML1060040270.2.3.0,Phases=2,Linecode=CABBTG05_4_2,Length=0.017000000,Units=km
new line.RML10040274 bus1=BBT2446475.1.2.0,bus2=RML1060040274.1.2.0,Phases=2,Linecode=CABBTG04_4_2,Length=0.017000000,Units=km
new line.RML10040278 bus1=BBT107819329.1.2.0,bus2=RML1060040278.1.2.0,Phases=2,Linecode=CABBTG05_4_2,Length=0.017000000,Units=km
new line.RML10040283 bus1=BBT107819329.1.3.0,bus2=RML1060040283.1.3.0,Phases=2,Linecode=CABBTG05_4_2,Length=0.017000000,Units=km
new line.RML10040290 bus1=BBT107877317.2.0,bus2=RML1060040290.2.0,Phases=1,Linecode=CABBTG02_4_1,Length=0.017000000,Units=km
new line.RML10040296 bus1=BBT86498722.1.2.0,bus2=RML1060040296.1.2.0,Phases=2,Linecode=CABBTG05_4_2,Length=0.012000000,Units=km
new line.RML10040298 bus1=BBT1554535.3.0,bus2=RML1060040298.3.0,Phases=1,Linecode=CABBTG02_4_1,Length=0.017000000,Units=km
new line.RML10040299 bus1=BBT107819434.1.2.0,bus2=RML1060040299.1.2.0,Phases=2,Linecode=CABBTG05_4_2,Length=0.017000000,Units=km
new line.RML10040302 bus1=BBT1690517.1.2.0,bus2=RML1060040302.1.2.0,Phases=2,Linecode=CABBTG05_4_2,Length=0.017000000,Units=km
new line.RML10040308 bus1=BBT1577733.2.3.0,bus2=RML1060040308.2.3.0,Phases=2,Linecode=CABBTG05_4_2,Length=0.017000000,Units=km
new line.RML10040317 bus1=BBT107635306.2.0,bus2=RML1060040317.2.0,Phases=1,Linecode=CABBTG02_4_1,Length=0.017000000,Units=km
new line.RML10040321 bus1=BBT3907207.1.0,bus2=RML1060040321.1.0,Phases=1,Linecode=CABBTG02_4_1,Length=0.017000000,Units=km
new line.RML10040339 bus1=BBT138850574.2.0,bus2=RML1060040339.2.0,Phases=1,Linecode=CABBTG02_4_1,Length=0.017000000,Units=km
new line.RML10040349 bus1=BBT2942607.1.2.0,bus2=RML1060040349.1.2.0,Phases=2,Linecode=CABBTG05_4_2,Length=0.017000000,Units=km
new line.RML10040403 bus1=BBT84881512.1.2.0,bus2=RML1060040403.1.2.0,Phases=2,Linecode=CABBTG05_4_2,Length=0.017000000,Units=km
new line.RML10040414 bus1=BBT2500004.2.0,bus2=RML1060040414.2.0,Phases=1,Linecode=CABBTG02_4_1,Length=0.017000000,Units=km
new line.RML10040535 bus1=BBT1592097.1.2.0,bus2=RML1060040535.1.2.0,Phases=2,Linecode=CABBTG05_4_2,Length=0.017000000,Units=km
new line.RML10040540 bus1=BBT1549467.1.2.0,bus2=RML1060040540.1.2.0,Phases=2,Linecode=CABBTG05_4_2,Length=0.017000000,Units=km
new line.RML10040543 bus1=BBT78194923.1.0,bus2=RML1060040543.1.0,Phases=1,Linecode=CABBTG02_4_1,Length=0.017000000,Units=km
new line.RML10040545 bus1=BBT1673409.2.0,bus2=RML1060040545.2.0,Phases=1,Linecode=CABBTG02_4_1,Length=0.017000000,Units=km
new line.RML10040546 bus1=BBT2942908.1.2.0,bus2=RML1060040546.1.2.0,Phases=2,Linecode=CABBT808_4_2,Length=0.017000000,Units=km
new line.RML10040549 bus1=BBT1570663.2.0,bus2=RML1060040549.2.0,Phases=1,Linecode=CABBTG02_4_1,Length=0.017000000,Units=km
new line.RML10040629 bus1=BBT3897253.2.0,bus2=RML1060040629.2.0,Phases=1,Linecode=CABBTG01_4_1,Length=0.017000000,Units=km
new line.RML10040634 bus1=BBT1554703.1.0,bus2=RML1060040634.1.0,Phases=1,Linecode=CABBTG02_4_1,Length=0.017000000,Units=km
new line.RML10040661 bus1=BBT2508964.1.2.3.0,bus2=RML1060040661.1.2.3.0,Phases=3,Linecode=CABBTG06_4_3,Length=0.017000000,Units=km
new line.RML10040663 bus1=BBT1587589.1.2.3.0,bus2=RML1060040663.1.2.3.0,Phases=3,Linecode=CABBTG06_4_3,Length=0.020000000,Units=km
new line.RML10040688 bus1=BBT107805294.2.0,bus2=RML1060040688.2.0,Phases=1,Linecode=CABBTG02_4_1,Length=0.017000000,Units=km
new line.RML10040739 bus1=BBT2942383.1.2.0,bus2=RML1060040739.1.2.0,Phases=2,Linecode=CABBT811_4_2,Length=0.017000000,Units=km
new line.RML10040741 bus1=BBT84888302.1.2.0,bus2=RML1060040741.1.2.0,Phases=2,Linecode=CABBT811_4_2,Length=0.017000000,Units=km
new line.RML10040745 bus1=BBT1580407.1.2.3.0,bus2=RML1060040745.1.2.3.0,Phases=3,Linecode=CABBT810_4_3,Length=0.036,Units=km
new line.RML10040746 bus1=BBT78185865.1.0,bus2=RML1060040746.1.0,Phases=1,Linecode=CABBTG02_4_1,Length=0.017000000,Units=km
new line.RML10066184 bus1=BBT1674137.2.3.0,bus2=RML1060066184.2.3.0,Phases=2,Linecode=CABBTG05_4_2,Length=0.017000000,Units=km
new line.RML10066187 bus1=BBT139712106.1.2.0,bus2=RML1060066187.1.2.0,Phases=2,Linecode=CABBTG05_4_2,Length=0.017000000,Units=km
new line.RML10066207 bus1=BBT1532226.1.3.0,bus2=RML1060066207.1.3.0,Phases=2,Linecode=CABBTG05_4_2,Length=0.017000000,Units=km
new line.RML10066208 bus1=BBT3897407.1.0,bus2=RML1060066208.1.0,Phases=1,Linecode=CABBTG02_4_1,Length=0.017000000,Units=km
new line.RML10066209 bus1=BBT94635697.1.2.0,bus2=RML1060066209.1.2.0,Phases=2,Linecode=CABBTG05_4_2,Length=0.017000000,Units=km
new line.RML10066211 bus1=BBT4404410.1.0,bus2=RML1060066211.1.0,Phases=1,Linecode=CABBTG02_4_1,Length=0.017000000,Units=km
new line.RML10066213 bus1=BBT1675474.2.3.0,bus2=RML1060066213.2.3.0,Phases=2,Linecode=CABBTG05_4_2,Length=0.017000000,Units=km
new line.RML10066260 bus1=BBT78180804.1.2.0,bus2=RML1060066260.1.2.0,Phases=2,Linecode=CABBTG05_4_2,Length=0.017000000,Units=km
new line.RML10066652 bus1=BBT3897358.2.0,bus2=RML1060066652.2.0,Phases=1,Linecode=CABBTG02_4_1,Length=0.017000000,Units=km
new line.RML10066654 bus1=BBT78234683.1.2.0,bus2=RML1060066654.1.2.0,Phases=2,Linecode=CABBTG04_4_2,Length=0.017000000,Units=km
new line.RML10066660 bus1=BBT1413023.2.0,bus2=RML1060066660.2.0,Phases=1,Linecode=CABBTG02_4_1,Length=0.017000000,Units=km
new line.RML10066666 bus1=BBT78230217.2.0,bus2=RML1060066666.2.0,Phases=1,Linecode=CABBTG02_4_1,Length=0.017000000,Units=km
new line.RML10066671 bus1=BBT2143200.1.2.0,bus2=RML1060066671.1.2.0,Phases=2,Linecode=CABBTG04_4_2,Length=0.017000000,Units=km
new line.RML10066822 bus1=BBT1574912.1.2.3.0,bus2=RML1060066822.1.2.3.0,Phases=3,Linecode=CABBTG09_4_3,Length=0.017000000,Units=km
new line.RML10066960 bus1=BBT148921749.1.2.0,bus2=RML1060066960.1.2.0,Phases=2,Linecode=CABBTG05_4_2,Length=0.017000000,Units=km
new line.RML10067170 bus1=BBT148519305.1.0,bus2=RML1060067170.1.0,Phases=1,Linecode=CABBTG02_4_1,Length=0.017000000,Units=km
new line.RML10067185 bus1=BBT22399169.2.0,bus2=RML1060067185.2.0,Phases=1,Linecode=CABBTG01_4_1,Length=0.017000000,Units=km
new line.RML10067186 bus1=BBT1672912.1.2.3.0,bus2=RML1060067186.1.2.3.0,Phases=3,Linecode=CABBTG07_4_3,Length=0.03,Units=km
new line.RML10067223 bus1=BBT148519303.1.0,bus2=RML1060067223.1.0,Phases=1,Linecode=CABBTG02_4_1,Length=0.017000000,Units=km
new line.RML10067227 bus1=BBT1712280.1.2.0,bus2=RML1060067227.1.2.0,Phases=2,Linecode=CABBTG05_4_2,Length=0.017000000,Units=km
new line.RML10067229 bus1=BBT3897190.2.0,bus2=RML1060067229.2.0,Phases=1,Linecode=CABBTG02_4_1,Length=0.017000000,Units=km
new line.RML10068628 bus1=BBT148519304.1.0,bus2=RML1060068628.1.0,Phases=1,Linecode=CABBTG01_4_1,Length=0.017000000,Units=km
new line.RML10068690 bus1=BBT1593273.2.0,bus2=RML1060068690.2.0,Phases=1,Linecode=CABBTG01_4_1,Length=0.017000000,Units=km
new line.RML10068692 bus1=BBT148850623.2.3.0,bus2=RML1060068692.2.3.0,Phases=2,Linecode=CABBTG05_4_2,Length=0.017000000,Units=km
new line.RML10068703 bus1=BBT4417962.3.0,bus2=RML1060068703.3.0,Phases=1,Linecode=CABBTG02_4_1,Length=0.017000000,Units=km
new line.RML10068719 bus1=BBT148520190.2.0,bus2=RML1060068719.2.0,Phases=1,Linecode=CABBTG02_4_1,Length=0.017000000,Units=km
new line.RML10068724 bus1=BBT1712378.2.0,bus2=RML1060068724.2.0,Phases=1,Linecode=CABBTG02_4_1,Length=0.017000000,Units=km
new line.RML10068766 bus1=BBT109075094.3.0,bus2=RML1060068766.3.0,Phases=1,Linecode=CABBTG02_4_1,Length=0.017000000,Units=km
new line.RML10068774 bus1=BBT107705943.2.0,bus2=RML1060068774.2.0,Phases=1,Linecode=CABBTG01_4_1,Length=0.017000000,Units=km
new line.RML10068785 bus1=BBT1676013.1.2.0,bus2=RML1060068785.1.2.0,Phases=2,Linecode=CABBTG05_4_2,Length=0.017000000,Units=km
new line.RML10068786 bus1=BBT3628544.1.2.0,bus2=RML1060068786.1.2.0,Phases=2,Linecode=CABBTG05_4_2,Length=0.017000000,Units=km
new line.RML10068920 bus1=BBT149016733.1.2.3.0,bus2=RML1060068920.1.2.3.0,Phases=3,Linecode=CABBTG06_4_3,Length=0.017000000,Units=km
new line.RML10069319 bus1=BBT1555410.1.2.0,bus2=RML1060069319.1.2.0,Phases=2,Linecode=CABBTG05_4_2,Length=0.007000000,Units=km
new line.RML10069556 bus1=BBT148519301.2.0,bus2=RML1060069556.2.0,Phases=1,Linecode=CABBTG02_4_1,Length=0.017000000,Units=km
new line.RML10069898 bus1=BBT109075087.3.0,bus2=RML1060069898.3.0,Phases=1,Linecode=CABBTG01_4_1,Length=0.017000000,Units=km
new line.RML10069900 bus1=BBT148519301.3.0,bus2=RML1060069900.3.0,Phases=1,Linecode=CABBTG01_4_1,Length=0.017000000,Units=km
new line.RML10069904 bus1=BBT148519300.3.0,bus2=RML1060069904.3.0,Phases=1,Linecode=CABBTG01_4_1,Length=0.017000000,Units=km
new line.RML10069905 bus1=BBT148519300.2.0,bus2=RML1060069905.2.0,Phases=1,Linecode=CABBTG01_4_1,Length=0.017000000,Units=km
new line.RML10069906 bus1=BBT4417962.2.0,bus2=RML1060069906.2.0,Phases=1,Linecode=CABBTG01_4_1,Length=0.017000000,Units=km
new line.RML10069932 bus1=BBT1554388.1.2.0,bus2=RML1060069932.1.2.0,Phases=2,Linecode=CABBTG05_4_2,Length=0.017000000,Units=km
new line.RML10069938 bus1=BBT51542871.3.0,bus2=RML1060069938.3.0,Phases=1,Linecode=CABBTG01_4_1,Length=0.017000000,Units=km
new line.RML10069942 bus1=BBT138850574.2.0,bus2=RML1060069942.2.0,Phases=1,Linecode=CABBTG02_4_1,Length=0.017000000,Units=km
new line.RML10069980 bus1=BBT148520190.1.0,bus2=RML1060069980.1.0,Phases=1,Linecode=CABBTG02_4_1,Length=0.017000000,Units=km
new line.RML10070037 bus1=BBT1554108.1.2.3.0,bus2=RML1060070037.1.2.3.0,Phases=3,Linecode=CABBTG10_4_3,Length=0.017000000,Units=km
new line.RML10070146 bus1=BBT2360487.2.3.0,bus2=RML1060070146.2.3.0,Phases=2,Linecode=CABBTG05_4_2,Length=0.017000000,Units=km
new line.RML10070153 bus1=BBT78231519.2.0,bus2=RML1060070153.2.0,Phases=1,Linecode=CABBTG02_4_1,Length=0.017000000,Units=km
new line.RML10070160 bus1=BBT3897120.2.0,bus2=RML1060070160.2.0,Phases=1,Linecode=CABBTG02_4_1,Length=0.017000000,Units=km
new line.RML10072359 bus1=BBT3897260.1.0,bus2=RML1060072359.1.0,Phases=1,Linecode=CABBTG02_4_1,Length=0.012000000,Units=km
new line.RML10072360 bus1=BBT3897260.1.0,bus2=RML1060072360.1.0,Phases=1,Linecode=CABBTG02_4_1,Length=0.017000000,Units=km
new line.RML10072699 bus1=BBT149113524.1.2.0,bus2=RML1060072699.1.2.0,Phases=2,Linecode=CABBT808_4_2,Length=0.017000000,Units=km
new line.RML10072821 bus1=BBT2158971.1.2.0,bus2=RML1060072821.1.2.0,Phases=2,Linecode=CABBTG05_4_2,Length=0.017000000,Units=km
new line.RML10123370 bus1=BBT1528383.2.3.0,bus2=RML1060123370.2.3.0,Phases=2,Linecode=CABBTG05_4_2,Length=0.017000000,Units=km
new line.RML10123655 bus1=BBT1528313.3.0,bus2=RML1060123655.3.0,Phases=1,Linecode=CABBTG02_4_1,Length=0.017000000,Units=km
new line.RML10123668 bus1=BBT1569403.1.0,bus2=RML1060123668.1.0,Phases=1,Linecode=CABBTG02_4_1,Length=0.017000000,Units=km
new line.RML10123689 bus1=BBT2942607.1.2.0,bus2=RML1060123689.1.2.0,Phases=2,Linecode=CABBTG05_4_2,Length=0.017000000,Units=km
new line.RML10123955 bus1=BBT1672814.2.0,bus2=RML1060123955.2.0,Phases=1,Linecode=CABBTG01_4_1,Length=0.017000000,Units=km
new line.RML10124061 bus1=BBT1672534.1.0,bus2=RML1060124061.1.0,Phases=1,Linecode=CABBTG01_4_1,Length=0.017000000,Units=km
new line.RML10124129 bus1=BBT1674039.1.2.0,bus2=RML1060124129.1.2.0,Phases=2,Linecode=CABBTG05_4_2,Length=0.030000000,Units=km
new line.RML10124582 bus1=BBT3897372.1.2.0,bus2=RML1060124582.1.2.0,Phases=2,Linecode=CABBTG05_4_2,Length=0.017000000,Units=km
new line.RML10124851 bus1=BBT1549467.2.3.0,bus2=RML1060124851.2.3.0,Phases=2,Linecode=CABBTG05_4_2,Length=0.017000000,Units=km
new line.RML10124852 bus1=BBT2159006.2.3.0,bus2=RML1060124852.2.3.0,Phases=2,Linecode=CABBTG05_4_2,Length=0.017000000,Units=km
new line.RML10124901 bus1=BBT1413765.1.2.3.0,bus2=RML1060124901.1.2.3.0,Phases=3,Linecode=CABBTG06_4_3,Length=0.017000000,Units=km
new line.RML10124920 bus1=BBT2158789.2.0,bus2=RML1060124920.2.0,Phases=1,Linecode=CABBTG02_4_1,Length=0.017000000,Units=km
new line.RML10124921 bus1=BBT3907354.2.0,bus2=RML1060124921.2.0,Phases=1,Linecode=CABBTG02_4_1,Length=0.017000000,Units=km
new line.RML10124928 bus1=BBT148519300.2.0,bus2=RML1060124928.2.0,Phases=1,Linecode=CABBTG02_4_1,Length=0.017000000,Units=km
new line.RML10124933 bus1=BBT3977907.1.2.0,bus2=RML1060124933.1.2.0,Phases=2,Linecode=CABBTG05_4_2,Length=0.017000000,Units=km
new line.RML10124942 bus1=BBT1554234.2.0,bus2=RML1060124942.2.0,Phases=1,Linecode=CABBTG02_4_1,Length=0.017000000,Units=km
new line.RML10124946 bus1=BBT1576970.1.2.0,bus2=RML1060124946.1.2.0,Phases=2,Linecode=CABBTG05_4_2,Length=0.017000000,Units=km
new line.RML10124947 bus1=BBT1576970.1.2.0,bus2=RML1060124947.1.2.0,Phases=2,Linecode=CABBTG05_4_2,Length=0.017000000,Units=km
new line.RML10124954 bus1=BBT1549726.1.2.3.0,bus2=RML1060124954.1.2.3.0,Phases=3,Linecode=CABBTG06_4_3,Length=0.017000000,Units=km
new line.RML10125007 bus1=BBT1413646.2.0,bus2=RML1060125007.2.0,Phases=1,Linecode=CABBTG02_4_1,Length=0.017000000,Units=km
new line.RML10125384 bus1=BBT2710011.2.0,bus2=RML1060125384.2.0,Phases=1,Linecode=CABBTG01_4_1,Length=0.017000000,Units=km
new line.RML10125403 bus1=BBT1555375.1.2.0,bus2=RML1060125403.1.2.0,Phases=2,Linecode=CABBTG05_4_2,Length=0.017000000,Units=km
new line.RML10125416 bus1=BBT1673528.3.0,bus2=RML1060125416.3.0,Phases=1,Linecode=CABBTG01_4_1,Length=0.017000000,Units=km
new line.RML10125586 bus1=BBT1588849.1.2.0,bus2=RML1060125586.1.2.0,Phases=2,Linecode=CABBTG05_4_2,Length=0.017000000,Units=km
new line.RML10125811 bus1=BBT2360263.3.0,bus2=RML1060125811.3.0,Phases=1,Linecode=CABBTG01_4_1,Length=0.017000000,Units=km
new line.RML10125816 bus1=BBT44626801.1.2.0,bus2=RML1060125816.1.2.0,Phases=2,Linecode=CABBTG05_4_2,Length=0.017000000,Units=km
new line.RML10125829 bus1=BBT46516927.1.2.0,bus2=RML1060125829.1.2.0,Phases=2,Linecode=CABBTG05_4_2,Length=0.012000000,Units=km
new line.RML10125837 bus1=BBT1589528.3.0,bus2=RML1060125837.3.0,Phases=1,Linecode=CABBTG02_4_1,Length=0.017000000,Units=km
new line.RML10125873 bus1=BBT1584845.1.0,bus2=RML1060125873.1.0,Phases=1,Linecode=CABBTG01_4_1,Length=0.017000000,Units=km
new line.RML10125896 bus1=BBT1712252.1.2.0,bus2=RML1060125896.1.2.0,Phases=2,Linecode=CABBTG05_4_2,Length=0.017000000,Units=km
new line.RML10125902 bus1=BBT1584544.2.3.0,bus2=RML1060125902.2.3.0,Phases=2,Linecode=CABBTG05_4_2,Length=0.017000000,Units=km
new line.RML10126055 bus1=BBT1558672.1.3.0,bus2=RML1060126055.1.3.0,Phases=2,Linecode=CABBTG05_4_2,Length=0.017000000,Units=km
new line.RML10126293 bus1=BBT1525499.2.3.0,bus2=RML1060126293.2.3.0,Phases=2,Linecode=CABBTG05_4_2,Length=0.017000000,Units=km
new line.RML10126914 bus1=BBT1419456.1.0,bus2=RML1060126914.1.0,Phases=1,Linecode=CABBTG01_4_1,Length=0.017000000,Units=km
new line.RML10127226 bus1=BBT1593266.2.0,bus2=RML1060127226.2.0,Phases=1,Linecode=CABBTG02_4_1,Length=0.017000000,Units=km
new line.RML10127333 bus1=BBT107592585.2.0,bus2=RML1060127333.2.0,Phases=1,Linecode=CABBTG02_4_1,Length=0.013000000,Units=km
new line.RML10127338 bus1=BBT1414003.1.0,bus2=RML1060127338.1.0,Phases=1,Linecode=CABBTG02_4_1,Length=0.022000000,Units=km
new line.RML10127393 bus1=BBT1712287.1.2.0,bus2=RML1060127393.1.2.0,Phases=2,Linecode=CABBTG05_4_2,Length=0.017000000,Units=km
new line.RML10127428 bus1=BBT3042462.2.0,bus2=RML1060127428.2.0,Phases=1,Linecode=CABBTG02_4_1,Length=0.017000000,Units=km
new line.RML10127439 bus1=BBT1413723.1.2.0,bus2=RML1060127439.1.2.0,Phases=2,Linecode=CABBTG05_4_2,Length=0.017000000,Units=km
new line.RML10127461 bus1=BBT46515940.1.2.0,bus2=RML1060127461.1.2.0,Phases=2,Linecode=CABBTG05_4_2,Length=0.007000000,Units=km
new line.RML10127478 bus1=BBT78180377.1.2.0,bus2=RML1060127478.1.2.0,Phases=2,Linecode=CABBTG05_4_2,Length=0.006000000,Units=km
new line.RML10127490 bus1=BBT1673514.1.0,bus2=RML1060127490.1.0,Phases=1,Linecode=CABBTG02_4_1,Length=0.017000000,Units=km
new line.RML10127503 bus1=BBT1543405.3.0,bus2=RML1060127503.3.0,Phases=1,Linecode=CABBTG02_4_1,Length=0.017000000,Units=km
new line.RML10127529 bus1=BBT2584935.2.0,bus2=RML1060127529.2.0,Phases=1,Linecode=CABBTG02_4_1,Length=0.017000000,Units=km
new line.RML10127606 bus1=BBT107851263.1.0,bus2=RML1060127606.1.0,Phases=1,Linecode=CABBTG02_4_1,Length=0.017000000,Units=km
new line.RML10127687 bus1=BBT2158663.3.0,bus2=RML1060127687.3.0,Phases=1,Linecode=CABBTG02_4_1,Length=0.017000000,Units=km
new line.RML10127700 bus1=BBT107848512.1.3.0,bus2=RML1060127700.1.3.0,Phases=2,Linecode=CABBTG05_4_2,Length=0.017000000,Units=km
new line.RML10127720 bus1=BBT4586424.2.3.0,bus2=RML1060127720.2.3.0,Phases=2,Linecode=CABBTG05_4_2,Length=0.017000000,Units=km
new line.RML10127830 bus1=BBT1584467.2.0,bus2=RML1060127830.2.0,Phases=1,Linecode=CABBTG02_4_1,Length=0.013000000,Units=km
new line.RML10127835 bus1=BBT1675992.1.0,bus2=RML1060127835.1.0,Phases=1,Linecode=CABBTG02_4_1,Length=0.017000000,Units=km
new line.RML10127842 bus1=BBT1671610.1.0,bus2=RML1060127842.1.0,Phases=1,Linecode=CABBTG02_4_1,Length=0.017000000,Units=km
new line.RML10127869 bus1=BBT1569361.1.2.3.0,bus2=RML1060127869.1.2.3.0,Phases=3,Linecode=CABBT809_4_3,Length=0.017000000,Units=km
new line.RML10128007 bus1=BBT1567177.1.2.3.0,bus2=RML1060128007.1.2.3.0,Phases=3,Linecode=CABBTG10_4_3,Length=0.017000000,Units=km
new line.RML10128311 bus1=BBT149784704.1.2.0,bus2=RML1060128311.1.2.0,Phases=2,Linecode=CABBTG05_4_2,Length=0.017000000,Units=km
new line.RML10128345 bus1=BBT149783981.1.2.3.0,bus2=RML1060128345.1.2.3.0,Phases=3,Linecode=CABBTG06_4_3,Length=0.008000000,Units=km
new line.RML10128485 bus1=BBT2924673.3.0,bus2=RML1060128485.3.0,Phases=1,Linecode=CABBTG02_4_1,Length=0.017000000,Units=km
new line.RML10128531 bus1=BBT2159013.1.2.0,bus2=RML1060128531.1.2.0,Phases=2,Linecode=CABBTG05_4_2,Length=0.020000000,Units=km
new line.RML10128540 bus1=BBT1673549.2.0,bus2=RML1060128540.2.0,Phases=1,Linecode=CABBTG02_4_1,Length=0.015000000,Units=km
new line.RML10128660 bus1=BBT1580442.2.3.0,bus2=RML1060128660.2.3.0,Phases=2,Linecode=CABBTG05_4_2,Length=0.017000000,Units=km
new line.RML10128712 bus1=BBT1414017.3.0,bus2=RML1060128712.3.0,Phases=1,Linecode=CABBTG02_4_1,Length=0.012000000,Units=km
new line.RML10128766 bus1=BBT3897323.1.0,bus2=RML1060128766.1.0,Phases=1,Linecode=CABBTG02_4_1,Length=0.006000000,Units=km
new line.RML10075245 bus1=BBT1418980.1.2.0,bus2=RML1060075245.1.2.0,Phases=2,Linecode=CABBTG04_4_2,Length=0.017000000,Units=km
new line.RML10076344 bus1=BBT149187853.1.2.0,bus2=RML1060076344.1.2.0,Phases=2,Linecode=CABBT808_4_2,Length=0.017000000,Units=km
new line.RML10080063 bus1=BBT44626801.1.2.0,bus2=RML1060080063.1.2.0,Phases=2,Linecode=CABBTG13_4_2,Length=0.017000000,Units=km
new line.RML10081488 bus1=BBT1546667.1.2.3.0,bus2=RML1060081488.1.2.3.0,Phases=3,Linecode=CABBTG07_4_3,Length=0.025000000,Units=km
new line.RML10081549 bus1=BBT78167784.1.2.0,bus2=RML1060081549.1.2.0,Phases=2,Linecode=CABBTG05_4_2,Length=0.017000000,Units=km
new line.RML10081572 bus1=BBT46517718.1.2.0,bus2=RML1060081572.1.2.0,Phases=2,Linecode=CABBTG05_4_2,Length=0.017000000,Units=km
new line.RML10095024 bus1=BBT1585580.2.0,bus2=RML1060095024.2.0,Phases=1,Linecode=CABBTG02_4_1,Length=0.012000000,Units=km
new line.RML10095036 bus1=BBT86498722.2.0,bus2=RML1060095036.2.0,Phases=1,Linecode=CABBTG02_4_1,Length=0.012000000,Units=km
new line.RML10095267 bus1=BBT2159209.1.2.0,bus2=RML1060095267.1.2.0,Phases=2,Linecode=CABBTG05_4_2,Length=0.011000000,Units=km
new line.RML10095550 bus1=BBT1417916.2.3.0,bus2=RML1060095550.2.3.0,Phases=2,Linecode=CABBTG05_4_2,Length=0.015000000,Units=km
new line.RML10095614 bus1=BBT78253877.1.0,bus2=RML1060095614.1.0,Phases=1,Linecode=CABBTG01_4_1,Length=0.014000000,Units=km
new line.RML10095660 bus1=BBT3897344.1.2.0,bus2=RML1060095660.1.2.0,Phases=2,Linecode=CABBTG05_4_2,Length=0.016000000,Units=km
new line.RML10095683 bus1=BBT78194923.1.2.0,bus2=RML1060095683.1.2.0,Phases=2,Linecode=CABBTG05_4_2,Length=0.017000000,Units=km
new line.RML10096089 bus1=BBT4187109.1.2.3.0,bus2=RML1060096089.1.2.3.0,Phases=3,Linecode=CABBTG06_4_3,Length=0.017000000,Units=km
new line.RML10096090 bus1=BBT23847385.2.0,bus2=RML1060096090.2.0,Phases=1,Linecode=CABBTG01_4_1,Length=0.017000000,Units=km
new line.RML10096091 bus1=BBT23590198.1.2.3.0,bus2=RML1060096091.1.2.3.0,Phases=3,Linecode=CABBTG06_4_3,Length=0.017000000,Units=km
new line.RML10096167 bus1=BBT148519298.3.0,bus2=RML1060096167.3.0,Phases=1,Linecode=CABBTG01_4_1,Length=0.017000000,Units=km
new line.RML10096171 bus1=BBT148519303.2.0,bus2=RML1060096171.2.0,Phases=1,Linecode=CABBTG01_4_1,Length=0.017000000,Units=km
new line.RML10097355 bus1=BBT1675376.2.0,bus2=RML1060097355.2.0,Phases=1,Linecode=CABBTG01_4_1,Length=0.017000000,Units=km
new line.RML10097360 bus1=BBT1596248.1.2.0,bus2=RML1060097360.1.2.0,Phases=2,Linecode=CABBTG05_4_2,Length=0.017000000,Units=km
new line.RML10097363 bus1=BBT2304361.1.0,bus2=RML1060097363.1.0,Phases=1,Linecode=CABBTG01_4_1,Length=0.017000000,Units=km
new line.RML10097370 bus1=BBT1669300.2.0,bus2=RML1060097370.2.0,Phases=1,Linecode=CABBTG01_4_1,Length=0.017000000,Units=km
new line.RML10097444 bus1=BBT60372818.1.2.3.0,bus2=RML1060097444.1.2.3.0,Phases=3,Linecode=CABBTG06_4_3,Length=0.017000000,Units=km
new line.RML10097492 bus1=BBT148509066.2.0,bus2=RML1060097492.2.0,Phases=1,Linecode=CABBTG01_4_1,Length=0.017000000,Units=km
new line.RML10097499 bus1=BBT1601533.1.0,bus2=RML1060097499.1.0,Phases=1,Linecode=CABBTG01_4_1,Length=0.017000000,Units=km
new line.RML10097588 bus1=BBT107593096.3.0,bus2=RML1060097588.3.0,Phases=1,Linecode=CABBTG01_4_1,Length=0.017000000,Units=km
new line.RML10157744 bus1=BBT1674823.1.2.0,bus2=RML1060157744.1.2.0,Phases=2,Linecode=CABBTG05_4_2,Length=0.017000000,Units=km
new line.RML10157750 bus1=BBT1677497.1.2.0,bus2=RML1060157750.1.2.0,Phases=2,Linecode=CABBTG05_4_2,Length=0.017000000,Units=km
new line.RML10157751 bus1=BBT1673857.1.2.0,bus2=RML1060157751.1.2.0,Phases=2,Linecode=CABBTG05_4_2,Length=0.017000000,Units=km
new line.RML10157753 bus1=BBT1555123.1.2.0,bus2=RML1060157753.1.2.0,Phases=2,Linecode=CABBTG05_4_2,Length=0.017000000,Units=km
new line.RML10157760 bus1=BBT1555109.1.0,bus2=RML1060157760.1.0,Phases=1,Linecode=CABBTG02_4_1,Length=0.017000000,Units=km
new line.RML10157764 bus1=BBT2360193.1.0,bus2=RML1060157764.1.0,Phases=1,Linecode=CABBTG01_4_1,Length=0.017000000,Units=km
new line.RML10157766 bus1=BBT48857398.1.0,bus2=RML1060157766.1.0,Phases=1,Linecode=CABBTG02_4_1,Length=0.017000000,Units=km
new line.RML10157770 bus1=BBT2360207.1.0,bus2=RML1060157770.1.0,Phases=1,Linecode=CABBTG02_4_1,Length=0.017000000,Units=km
new line.RML10157775 bus1=BBT2360291.1.0,bus2=RML1060157775.1.0,Phases=1,Linecode=CABBTG02_4_1,Length=0.017000000,Units=km
new line.RML10160762 bus1=BBT2065031.1.0,bus2=RML1060160762.1.0,Phases=1,Linecode=CABBTG01_4_1,Length=0.017000000,Units=km
new line.RML10160767 bus1=BBT3897309.1.0,bus2=RML1060160767.1.0,Phases=1,Linecode=CABBTG01_4_1,Length=0.017000000,Units=km
new line.RML10160811 bus1=BBT1674445.1.0,bus2=RML1060160811.1.0,Phases=1,Linecode=CABBTG01_4_1,Length=0.017000000,Units=km
new line.RML10160816 bus1=BBT3897092.1.0,bus2=RML1060160816.1.0,Phases=1,Linecode=CABBTG01_4_1,Length=0.017000000,Units=km
new line.RML10160823 bus1=BBT1676538.1.2.0,bus2=RML1060160823.1.2.0,Phases=2,Linecode=CABBTG05_4_2,Length=0.017000000,Units=km
new line.RML10216023 bus1=BBT150750689.1.2.3.0,bus2=RML1060216023.1.2.3.0,Phases=3,Linecode=CABBT804_4_3,Length=0.045,Units=km
new line.RML10217008 bus1=BBT1416929.2.0,bus2=RML1060217008.2.0,Phases=1,Linecode=CABBTG02_4_1,Length=0.017000000,Units=km
new line.RML10217015 bus1=BBT1591446.1.2.0,bus2=RML1060217015.1.2.0,Phases=2,Linecode=CABBTG05_4_2,Length=0.017000000,Units=km
new line.RML10217095 bus1=BBT78234298.1.0,bus2=RML1060217095.1.0,Phases=1,Linecode=CABBTG02_4_1,Length=0.017000000,Units=km
new line.RML10217246 bus1=BBT2159027.2.0,bus2=RML1060217246.2.0,Phases=1,Linecode=CABBTG02_4_1,Length=0.017000000,Units=km
new line.RML10217319 bus1=BBT3628558.1.2.0,bus2=RML1060217319.1.2.0,Phases=2,Linecode=CABBTG05_4_2,Length=0.017000000,Units=km
new line.RML10217322 bus1=BBT3509012.1.2.0,bus2=RML1060217322.1.2.0,Phases=2,Linecode=CABBTG05_4_2,Length=0.017000000,Units=km
new line.RML10217337 bus1=BBT1549523.1.2.0,bus2=RML1060217337.1.2.0,Phases=2,Linecode=CABBTG05_4_2,Length=0.017000000,Units=km
new line.RML10217390 bus1=BBT107805105.3.0,bus2=RML1060217390.3.0,Phases=1,Linecode=CABBTG02_4_1,Length=0.017000000,Units=km
new line.RML10217489 bus1=BBT107635313.1.0,bus2=RML1060217489.1.0,Phases=1,Linecode=CABBTG02_4_1,Length=0.017000000,Units=km
new line.RML10217870 bus1=BBT126957812.1.2.3.0,bus2=RML1060217870.1.2.3.0,Phases=3,Linecode=CABBT815_4_3,Length=0.017000000,Units=km
new line.RML10218054 bus1=BBT149846626.1.0,bus2=RML1060218054.1.0,Phases=1,Linecode=CABBTG02_4_1,Length=0.017000000,Units=km
new line.RML10219258 bus1=BBT3906598.1.2.0,bus2=RML1060219258.1.2.0,Phases=2,Linecode=CABBTG05_4_2,Length=0.017000000,Units=km
new line.RML10219290 bus1=BBT78231680.2.0,bus2=RML1060219290.2.0,Phases=1,Linecode=CABBTG02_4_1,Length=0.017000000,Units=km
new line.RML10219294 bus1=BBT78180328.1.2.0,bus2=RML1060219294.1.2.0,Phases=2,Linecode=CABBTG05_4_2,Length=0.017000000,Units=km
new line.RML10219301 bus1=BBT2520878.1.2.0,bus2=RML1060219301.1.2.0,Phases=2,Linecode=CABBTG05_4_2,Length=0.017000000,Units=km
new line.RML10061322 bus1=BBT92294197.1.0,bus2=RML1060061322.1.0,Phases=1,Linecode=CABBTG02_4_1,Length=0.017000000,Units=km
new line.RML10062468 bus1=BBT119829803.1.2.0,bus2=RML1060062468.1.2.0,Phases=2,Linecode=CABBT811_4_2,Length=0.022000000,Units=km
new line.RML10063593 bus1=BBT22857781.1.2.0,bus2=RML1060063593.1.2.0,Phases=2,Linecode=CABBTG05_4_2,Length=0.012000000,Units=km
new line.RML10063967 bus1=BBT22399176.1.0,bus2=RML1060063967.1.0,Phases=1,Linecode=CABBTG02_4_1,Length=0.017000000,Units=km
new line.RML10063973 bus1=BBT22399176.2.0,bus2=RML1060063973.2.0,Phases=1,Linecode=CABBTG02_4_1,Length=0.017000000,Units=km
new line.RML10064312 bus1=BBT1571062.2.0,bus2=RML1060064312.2.0,Phases=1,Linecode=CABBTG02_4_1,Length=0.017000000,Units=km
new line.RML10064316 bus1=BBT126959170.1.2.3.0,bus2=RML1060064316.1.2.3.0,Phases=3,Linecode=CABBTG12_4_3,Length=0.013000000,Units=km
new line.RML10064345 bus1=BBT2360207.3.0,bus2=RML1060064345.3.0,Phases=1,Linecode=CABBTG02_4_1,Length=0.017000000,Units=km
new line.RML10064371 bus1=BBT1530462.1.2.3.0,bus2=RML1060064371.1.2.3.0,Phases=3,Linecode=CABBTG08_4_3,Length=0.029000000,Units=km
new line.RML10064393 bus1=BBT2942348.1.0,bus2=RML1060064393.1.0,Phases=1,Linecode=CABBTG02_4_1,Length=0.017000000,Units=km
new line.RML10064396 bus1=BBT2158922.2.0,bus2=RML1060064396.2.0,Phases=1,Linecode=CABBTG02_4_1,Length=0.017000000,Units=km
new line.RML10064677 bus1=BBT3906794.1.2.0,bus2=RML1060064677.1.2.0,Phases=2,Linecode=CABBTG05_4_2,Length=0.017000000,Units=km
new line.RML10065210 bus1=BBT1573582.2.0,bus2=RML1060065210.2.0,Phases=1,Linecode=CABBTG02_4_1,Length=0.009000000,Units=km