new load.3001005903M1 bus1=RML1001693537.1.2.3.0,Phases=3,kv=0.22,kW=1.75006,pf=0.92,Vminpu=0.92,Vmaxpu=1.5,model=8,zipv=[0.5,0,0.5,1,0,0,0],daily=COM2_26,status=variable
new load.3003528400M1 bus1=RML1010809477.3.0,Phases=1,kv=0.127,kW=1.90518,pf=0.92,Vminpu=0.92,Vmaxpu=1.5,model=8,zipv=[0.5,0,0.5,1,0,0,0],daily=RES6_6,status=variable
new load.3006851972M1 bus1=RML1003709341.1.2.0,Phases=2,kv=0.22,kW=2.70044,pf=0.92,Vminpu=0.92,Vmaxpu=1.5,model=8,zipv=[0.5,0,0.5,1,0,0,0],daily=COM2_9,status=variable
new load.3010619123M1 bus1=RML1004856445.2.3.0,Phases=2,kv=0.22,kW=0.43034,pf=0.92,Vminpu=0.92,Vmaxpu=1.5,model=8,zipv=[0.5,0,0.5,1,0,0,0],daily=COM1_16,status=variable
new load.3010835733M1 bus1=RML1004873987.2.3.0,Phases=2,kv=0.22,kW=36.70966,pf=0.92,Vminpu=0.92,Vmaxpu=1.5,model=8,zipv=[0.5,0,0.5,1,0,0,0],daily=COM4_18,status=variable
new load.3014304096M1 bus1=RML1003709341.1.2.0,Phases=2,kv=0.22,kW=1.52292,pf=0.92,Vminpu=0.92,Vmaxpu=1.5,model=8,zipv=[0.5,0,0.5,1,0,0,0],daily=COM1_20,status=variable
new load.3014123787M1 bus1=RML1011054887.1.0,Phases=1,kv=0.127,kW=0.38238,pf=0.92,Vminpu=0.92,Vmaxpu=1.5,model=8,zipv=[0.5,0,0.5,1,0,0,0],daily=RES2_6,status=variable
new load.3013128631M1 bus1=RML1010653794.1.0,Phases=1,kv=0.127,kW=0.74596,pf=0.92,Vminpu=0.92,Vmaxpu=1.5,model=8,zipv=[0.5,0,0.5,1,0,0,0],daily=RES2_6,status=variable
new load.3013128712M1 bus1=RML1010653792.1.0,Phases=1,kv=0.127,kW=0.60806,pf=0.92,Vminpu=0.92,Vmaxpu=1.5,model=8,zipv=[0.5,0,0.5,1,0,0,0],daily=RES2_6,status=variable
new load.3013128882M1 bus1=RML1010653786.1.0,Phases=1,kv=0.127,kW=0.98416,pf=0.92,Vminpu=0.92,Vmaxpu=1.5,model=8,zipv=[0.5,0,0.5,1,0,0,0],daily=RES2_6,status=variable
new load.3013128892M1 bus1=RML1010653784.1.0,Phases=1,kv=0.127,kW=0.9152,pf=0.92,Vminpu=0.92,Vmaxpu=1.5,model=8,zipv=[0.5,0,0.5,1,0,0,0],daily=RES2_6,status=variable
new load.3013128929M1 bus1=RML1010653973.1.2.0,Phases=2,kv=0.22,kW=0.677,pf=0.92,Vminpu=0.92,Vmaxpu=1.5,model=8,zipv=[0.5,0,0.5,1,0,0,0],daily=RES2_6,status=variable
new load.3013128974M1 bus1=RML1010653781.1.0,Phases=1,kv=0.127,kW=0.64898,pf=0.92,Vminpu=0.92,Vmaxpu=1.5,model=8,zipv=[0.5,0,0.5,1,0,0,0],daily=RES1_6,status=variable
new load.3013129398M1 bus1=RML1010653776.1.0,Phases=1,kv=0.127,kW=0.6254,pf=0.92,Vminpu=0.92,Vmaxpu=1.5,model=8,zipv=[0.5,0,0.5,1,0,0,0],daily=RES1_6,status=variable
new load.3013129406M1 bus1=RML1010653773.1.0,Phases=1,kv=0.127,kW=0.45134,pf=0.92,Vminpu=0.92,Vmaxpu=1.5,model=8,zipv=[0.5,0,0.5,1,0,0,0],daily=RES2_6,status=variable
new load.3013129458M1 bus1=RML1010653770.1.0,Phases=1,kv=0.127,kW=0.83372,pf=0.92,Vminpu=0.92,Vmaxpu=1.5,model=8,zipv=[0.5,0,0.5,1,0,0,0],daily=RES2_6,status=variable
new load.3013129469M1 bus1=RML1010653767.1.0,Phases=1,kv=0.127,kW=0.7585,pf=0.92,Vminpu=0.92,Vmaxpu=1.5,model=8,zipv=[0.5,0,0.5,1,0,0,0],daily=RES2_6,status=variable
new load.3013129610M1 bus1=RML1010653759.1.0,Phases=1,kv=0.127,kW=0.8776,pf=0.92,Vminpu=0.92,Vmaxpu=1.5,model=8,zipv=[0.5,0,0.5,1,0,0,0],daily=RES2_6,status=variable
new load.3013129666M1 bus1=RML1010653757.1.0,Phases=1,kv=0.127,kW=0.5401,pf=0.92,Vminpu=0.92,Vmaxpu=1.5,model=8,zipv=[0.5,0,0.5,1,0,0,0],daily=RES3_7,status=variable
new load.3013130711M1 bus1=RML1010653749.1.0,Phases=1,kv=0.127,kW=0.73158,pf=0.92,Vminpu=0.92,Vmaxpu=1.5,model=8,zipv=[0.5,0,0.5,1,0,0,0],daily=RES1_6,status=variable
new load.3013130747M1 bus1=RML1010653747.1.0,Phases=1,kv=0.127,kW=1.16818,pf=0.92,Vminpu=0.92,Vmaxpu=1.5,model=8,zipv=[0.5,0,0.5,1,0,0,0],daily=RES1_6,status=variable
new load.3013130805M1 bus1=RML1010653743.1.0,Phases=1,kv=0.127,kW=0.90484,pf=0.92,Vminpu=0.92,Vmaxpu=1.5,model=8,zipv=[0.5,0,0.5,1,0,0,0],daily=RES3_7,status=variable
new load.3013130894M1 bus1=RML1010653738.1.0,Phases=1,kv=0.127,kW=0.5203,pf=0.92,Vminpu=0.92,Vmaxpu=1.5,model=8,zipv=[0.5,0,0.5,1,0,0,0],daily=RES2_6,status=variable
new load.3013130906M1 bus1=RML1010653735.1.0,Phases=1,kv=0.127,kW=0.6254,pf=0.92,Vminpu=0.92,Vmaxpu=1.5,model=8,zipv=[0.5,0,0.5,1,0,0,0],daily=RES1_6,status=variable
new load.3013131271M1 bus1=RML1010653728.1.0,Phases=1,kv=0.127,kW=0.6582,pf=0.92,Vminpu=0.92,Vmaxpu=1.5,model=8,zipv=[0.5,0,0.5,1,0,0,0],daily=RES2_6,status=variable
new load.3013131298M1 bus1=RML1010653726.1.0,Phases=1,kv=0.127,kW=1.5712,pf=0.92,Vminpu=0.92,Vmaxpu=1.5,model=8,zipv=[0.5,0,0.5,1,0,0,0],daily=RES3_7,status=variable
new load.3013131345M1 bus1=RML1010653723.1.0,Phases=1,kv=0.127,kW=0.95908,pf=0.92,Vminpu=0.92,Vmaxpu=1.5,model=8,zipv=[0.5,0,0.5,1,0,0,0],daily=RES2_6,status=variable
new load.3013133116M1 bus1=RML1010653695.1.0,Phases=1,kv=0.127,kW=0.3186,pf=0.92,Vminpu=0.92,Vmaxpu=1.5,model=8,zipv=[0.5,0,0.5,1,0,0,0],daily=RES1_6,status=variable
new load.3013133143M1 bus1=RML1010653692.1.0,Phases=1,kv=0.127,kW=0.177,pf=0.92,Vminpu=0.92,Vmaxpu=1.5,model=8,zipv=[0.5,0,0.5,1,0,0,0],daily=RES1_6,status=variable
new load.3013133262M1 bus1=RML1010937785.1.0,Phases=1,kv=0.127,kW=0.7773,pf=0.92,Vminpu=0.92,Vmaxpu=1.5,model=8,zipv=[0.5,0,0.5,1,0,0,0],daily=RES2_6,status=variable
new load.3013163096M1 bus1=RML1010937784.1.0,Phases=1,kv=0.127,kW=0.76698,pf=0.92,Vminpu=0.92,Vmaxpu=1.5,model=8,zipv=[0.5,0,0.5,1,0,0,0],daily=RES1_6,status=variable
new load.IP8324043M1 bus1=BBT158091188.2.3.0,Phases=2,kv=0.22,kW=0.11292,pf=0.92,Vminpu=0.92,Vmaxpu=1.5,model=8,zipv=[0.5,0,0.5,1,0,0,0],daily=IP,status=variable,NumCust=0
new load.IP8364228M1 bus1=BBT158090591.1.2.0,Phases=2,kv=0.22,kW=0.11292,pf=0.92,Vminpu=0.92,Vmaxpu=1.5,model=8,zipv=[0.5,0,0.5,1,0,0,0],daily=IP,status=variable,NumCust=0
new load.IP8364230M1 bus1=BBT158090538.2.3.0,Phases=2,kv=0.22,kW=0.11292,pf=0.92,Vminpu=0.92,Vmaxpu=1.5,model=8,zipv=[0.5,0,0.5,1,0,0,0],daily=IP,status=variable,NumCust=0
new load.IP8364232M1 bus1=BBT158090538.1.3.0,Phases=2,kv=0.22,kW=0.11292,pf=0.92,Vminpu=0.92,Vmaxpu=1.5,model=8,zipv=[0.5,0,0.5,1,0,0,0],daily=IP,status=variable,NumCust=0
new load.IP8364233M1 bus1=BBT158091162.1.2.0,Phases=2,kv=0.22,kW=0.11292,pf=0.92,Vminpu=0.92,Vmaxpu=1.5,model=8,zipv=[0.5,0,0.5,1,0,0,0],daily=IP,status=variable,NumCust=0
new load.IP8364235M1 bus1=BBT158091191.1.3.0,Phases=2,kv=0.22,kW=0.11292,pf=0.92,Vminpu=0.92,Vmaxpu=1.5,model=8,zipv=[0.5,0,0.5,1,0,0,0],daily=IP,status=variable,NumCust=0
new load.IP8364237M1 bus1=BBT158091187.1.2.0,Phases=2,kv=0.22,kW=0.11292,pf=0.92,Vminpu=0.92,Vmaxpu=1.5,model=8,zipv=[0.5,0,0.5,1,0,0,0],daily=IP,status=variable,NumCust=0
new load.IP8364239M1 bus1=BBT158091185.2.3.0,Phases=2,kv=0.22,kW=0.11292,pf=0.92,Vminpu=0.92,Vmaxpu=1.5,model=8,zipv=[0.5,0,0.5,1,0,0,0],daily=IP,status=variable,NumCust=0
new load.IP8364240M1 bus1=BBT158090889.1.3.0,Phases=2,kv=0.22,kW=0.11292,pf=0.92,Vminpu=0.92,Vmaxpu=1.5,model=8,zipv=[0.5,0,0.5,1,0,0,0],daily=IP,status=variable,NumCust=0
new load.IP8364241M1 bus1=BBT158091878.1.2.0,Phases=2,kv=0.22,kW=0.11292,pf=0.92,Vminpu=0.92,Vmaxpu=1.5,model=8,zipv=[0.5,0,0.5,1,0,0,0],daily=IP,status=variable,NumCust=0
new load.IP8364242M1 bus1=BBT158092068.2.3.0,Phases=2,kv=0.22,kW=0.11292,pf=0.92,Vminpu=0.92,Vmaxpu=1.5,model=8,zipv=[0.5,0,0.5,1,0,0,0],daily=IP,status=variable,NumCust=0
new load.IP8364243M1 bus1=BBT158090794.1.2.0,Phases=2,kv=0.22,kW=0.11292,pf=0.92,Vminpu=0.92,Vmaxpu=1.5,model=8,zipv=[0.5,0,0.5,1,0,0,0],daily=IP,status=variable,NumCust=0
new load.IP8364244M1 bus1=BBT158090401.2.3.0,Phases=2,kv=0.22,kW=0.11292,pf=0.92,Vminpu=0.92,Vmaxpu=1.5,model=8,zipv=[0.5,0,0.5,1,0,0,0],daily=IP,status=variable,NumCust=0
new load.IP8364245M1 bus1=BBT158090504.1.3.0,Phases=2,kv=0.22,kW=0.11292,pf=0.92,Vminpu=0.92,Vmaxpu=1.5,model=8,zipv=[0.5,0,0.5,1,0,0,0],daily=IP,status=variable,NumCust=0
new load.IP8364246M1 bus1=BBT158091996.1.3.0,Phases=2,kv=0.22,kW=0.11292,pf=0.92,Vminpu=0.92,Vmaxpu=1.5,model=8,zipv=[0.5,0,0.5,1,0,0,0],daily=IP,status=variable,NumCust=0
new load.IP8364256M1 bus1=BBT158091800.2.3.0,Phases=2,kv=0.22,kW=0.11292,pf=0.92,Vminpu=0.92,Vmaxpu=1.5,model=8,zipv=[0.5,0,0.5,1,0,0,0],daily=IP,status=variable,NumCust=0
new load.IP8364257M1 bus1=BBT158091813.1.2.0,Phases=2,kv=0.22,kW=0.11292,pf=0.92,Vminpu=0.92,Vmaxpu=1.5,model=8,zipv=[0.5,0,0.5,1,0,0,0],daily=IP,status=variable,NumCust=0
new load.IP8364258M1 bus1=BBT158107705.2.3.0,Phases=2,kv=0.22,kW=0.11292,pf=0.92,Vminpu=0.92,Vmaxpu=1.5,model=8,zipv=[0.5,0,0.5,1,0,0,0],daily=IP,status=variable,NumCust=0
new load.IP8364259M1 bus1=BBT158107782.1.2.0,Phases=2,kv=0.22,kW=0.11292,pf=0.92,Vminpu=0.92,Vmaxpu=1.5,model=8,zipv=[0.5,0,0.5,1,0,0,0],daily=IP,status=variable,NumCust=0
new load.IP8364260M1 bus1=BBT158108049.2.3.0,Phases=2,kv=0.22,kW=0.11292,pf=0.92,Vminpu=0.92,Vmaxpu=1.5,model=8,zipv=[0.5,0,0.5,1,0,0,0],daily=IP,status=variable,NumCust=0
new load.IP8364261M1 bus1=BBT158107874.1.3.0,Phases=2,kv=0.22,kW=0.11292,pf=0.92,Vminpu=0.92,Vmaxpu=1.5,model=8,zipv=[0.5,0,0.5,1,0,0,0],daily=IP,status=variable,NumCust=0
new load.IP8364262M1 bus1=BBT158108110.1.3.0,Phases=2,kv=0.22,kW=0.11292,pf=0.92,Vminpu=0.92,Vmaxpu=1.5,model=8,zipv=[0.5,0,0.5,1,0,0,0],daily=IP,status=variable,NumCust=0
new load.IP8364265M1 bus1=BBT158107565.2.3.0,Phases=2,kv=0.22,kW=0.11292,pf=0.92,Vminpu=0.92,Vmaxpu=1.5,model=8,zipv=[0.5,0,0.5,1,0,0,0],daily=IP,status=variable,NumCust=0
new load.IP8364266M1 bus1=BBT158108308.2.3.0,Phases=2,kv=0.22,kW=0.11292,pf=0.92,Vminpu=0.92,Vmaxpu=1.5,model=8,zipv=[0.5,0,0.5,1,0,0,0],daily=IP,status=variable,NumCust=0
new load.IP8364267M1 bus1=BBT158107284.1.3.0,Phases=2,kv=0.22,kW=0.11292,pf=0.92,Vminpu=0.92,Vmaxpu=1.5,model=8,zipv=[0.5,0,0.5,1,0,0,0],daily=IP,status=variable,NumCust=0
new load.IP8364268M1 bus1=BBT158107556.1.2.0,Phases=2,kv=0.22,kW=0.11292,pf=0.92,Vminpu=0.92,Vmaxpu=1.5,model=8,zipv=[0.5,0,0.5,1,0,0,0],daily=IP,status=variable,NumCust=0
new load.IP8364269M1 bus1=BBT158108405.1.2.0,Phases=2,kv=0.22,kW=0.11292,pf=0.92,Vminpu=0.92,Vmaxpu=1.5,model=8,zipv=[0.5,0,0.5,1,0,0,0],daily=IP,status=variable,NumCust=0
new load.IP8324062M1 bus1=BBT158107749.1.2.0,Phases=2,kv=0.22,kW=0.11292,pf=0.92,Vminpu=0.92,Vmaxpu=1.5,model=8,zipv=[0.5,0,0.5,1,0,0,0],daily=IP,status=variable,NumCust=0
new load.IP8394184M1 bus1=BBT1193338.1.2.0,Phases=2,kv=0.22,kW=0.08708,pf=0.92,Vminpu=0.92,Vmaxpu=1.5,model=8,zipv=[0.5,0,0.5,1,0,0,0],daily=IP,status=variable,NumCust=0
new load.IP8394186M1 bus1=BBT1193345.1.3.0,Phases=2,kv=0.22,kW=0.08708,pf=0.92,Vminpu=0.92,Vmaxpu=1.5,model=8,zipv=[0.5,0,0.5,1,0,0,0],daily=IP,status=variable,NumCust=0
new load.IP8394187M1 bus1=BBT2667699.2.3.0,Phases=2,kv=0.22,kW=0.08708,pf=0.92,Vminpu=0.92,Vmaxpu=1.5,model=8,zipv=[0.5,0,0.5,1,0,0,0],daily=IP,status=variable,NumCust=0
new load.IP8394188M1 bus1=BBT1193359.1.2.0,Phases=2,kv=0.22,kW=0.08708,pf=0.92,Vminpu=0.92,Vmaxpu=1.5,model=8,zipv=[0.5,0,0.5,1,0,0,0],daily=IP,status=variable,NumCust=0
new load.IP8394189M1 bus1=BBT1193366.1.3.0,Phases=2,kv=0.22,kW=0.08708,pf=0.92,Vminpu=0.92,Vmaxpu=1.5,model=8,zipv=[0.5,0,0.5,1,0,0,0],daily=IP,status=variable,NumCust=0
new load.3013390629M1 bus1=RML1010721096.1.2.3.0,Phases=3,kv=0.22,kW=0.45942,pf=0.92,Vminpu=0.92,Vmaxpu=1.5,model=8,zipv=[0.5,0,0.5,1,0,0,0],daily=RES1_11,status=variable
new load.3013390660M1 bus1=RML1010721096.1.2.3.0,Phases=3,kv=0.22,kW=1.02908,pf=0.92,Vminpu=0.92,Vmaxpu=1.5,model=8,zipv=[0.5,0,0.5,1,0,0,0],daily=RES3_12,status=variable
new load.3013390661M1 bus1=RML1010721096.1.2.3.0,Phases=3,kv=0.22,kW=1.13746,pf=0.92,Vminpu=0.92,Vmaxpu=1.5,model=8,zipv=[0.5,0,0.5,1,0,0,0],daily=RES2_11,status=variable
new load.3013390662M1 bus1=RML1010721096.1.2.3.0,Phases=3,kv=0.22,kW=1.03996,pf=0.92,Vminpu=0.92,Vmaxpu=1.5,model=8,zipv=[0.5,0,0.5,1,0,0,0],daily=RES2_11,status=variable
new load.3013390663M1 bus1=RML1010721096.1.2.3.0,Phases=3,kv=0.22,kW=0.60786,pf=0.92,Vminpu=0.92,Vmaxpu=1.5,model=8,zipv=[0.5,0,0.5,1,0,0,0],daily=RES3_12,status=variable
new load.3013390664M1 bus1=RML1010721096.1.2.3.0,Phases=3,kv=0.22,kW=1.6141,pf=0.92,Vminpu=0.92,Vmaxpu=1.5,model=8,zipv=[0.5,0,0.5,1,0,0,0],daily=RES2_11,status=variable
new load.3013390665M1 bus1=RML1010721096.1.2.3.0,Phases=3,kv=0.22,kW=0.80432,pf=0.92,Vminpu=0.92,Vmaxpu=1.5,model=8,zipv=[0.5,0,0.5,1,0,0,0],daily=RES4_13,status=variable
new load.3013390666M1 bus1=RML1010721096.1.2.3.0,Phases=3,kv=0.22,kW=0.6608,pf=0.92,Vminpu=0.92,Vmaxpu=1.5,model=8,zipv=[0.5,0,0.5,1,0,0,0],daily=RES2_11,status=variable
new load.3013390667M1 bus1=RML1010721096.1.2.3.0,Phases=3,kv=0.22,kW=0.75904,pf=0.92,Vminpu=0.92,Vmaxpu=1.5,model=8,zipv=[0.5,0,0.5,1,0,0,0],daily=RES1_11,status=variable
new load.3013390668M1 bus1=RML1010721096.1.2.3.0,Phases=3,kv=0.22,kW=1.66826,pf=0.92,Vminpu=0.92,Vmaxpu=1.5,model=8,zipv=[0.5,0,0.5,1,0,0,0],daily=RES2_11,status=variable
new load.3013397714M1 bus1=RML1010721302.1.2.0,Phases=2,kv=0.22,kW=0.90886,pf=0.92,Vminpu=0.92,Vmaxpu=1.5,model=8,zipv=[0.5,0,0.5,1,0,0,0],daily=RES1_11,status=variable
new load.3013006662M1 bus1=RML1010551311.1.2.0,Phases=2,kv=0.22,kW=0.74606,pf=0.92,Vminpu=0.92,Vmaxpu=1.5,model=8,zipv=[0.5,0,0.5,1,0,0,0],daily=RES2_5,status=variable
new load.3013405544M1 bus1=RML1010721097.1.2.0,Phases=2,kv=0.22,kW=1.25964,pf=0.92,Vminpu=0.92,Vmaxpu=1.5,model=8,zipv=[0.5,0,0.5,1,0,0,0],daily=RES2_12,status=variable
new load.3011221997M1 bus1=RML1005712284.1.2.0,Phases=2,kv=0.22,kW=0.24702,pf=0.92,Vminpu=0.92,Vmaxpu=1.5,model=8,zipv=[0.5,0,0.5,1,0,0,0],daily=RES2_1,status=variable
new load.3011376969M1 bus1=RML1010142773.1.2.3.0,Phases=3,kv=0.22,kW=8.56678,pf=0.92,Vminpu=0.92,Vmaxpu=1.5,model=8,zipv=[0.5,0,0.5,1,0,0,0],daily=RES6_2,status=variable
new load.3011395355M1 bus1=RML1006074457.2.3.0,Phases=2,kv=0.22,kW=0.57786,pf=0.92,Vminpu=0.92,Vmaxpu=1.5,model=8,zipv=[0.5,0,0.5,1,0,0,0],daily=COM1_4,status=variable
new load.3011984193M1 bus1=RML1010079767.1.2.0,Phases=2,kv=0.22,kW=1.86026,pf=0.92,Vminpu=0.92,Vmaxpu=1.5,model=8,zipv=[0.5,0,0.5,1,0,0,0],daily=COM2_12,status=variable
new load.3010305446M1 bus1=RML1004440162.1.2.3.0,Phases=3,kv=0.22,kW=0.2045,pf=0.92,Vminpu=0.92,Vmaxpu=1.5,model=8,zipv=[0.5,0,0.5,1,0,0,0],daily=RES1_4,status=variable
new load.3010305447M1 bus1=RML1004440162.1.2.3.0,Phases=3,kv=0.22,kW=0.74828,pf=0.92,Vminpu=0.92,Vmaxpu=1.5,model=8,zipv=[0.5,0,0.5,1,0,0,0],daily=COM1_9,status=variable
new load.3010305462M1 bus1=RML1004440162.1.2.3.0,Phases=3,kv=0.22,kW=0.81798,pf=0.92,Vminpu=0.92,Vmaxpu=1.5,model=8,zipv=[0.5,0,0.5,1,0,0,0],daily=RES1_4,status=variable
new load.3010305464M1 bus1=RML1004440162.1.2.3.0,Phases=3,kv=0.22,kW=1.64194,pf=0.92,Vminpu=0.92,Vmaxpu=1.5,model=8,zipv=[0.5,0,0.5,1,0,0,0],daily=RES3_5,status=variable
new load.3010305468M1 bus1=RML1004440162.1.2.3.0,Phases=3,kv=0.22,kW=1.1997,pf=0.92,Vminpu=0.92,Vmaxpu=1.5,model=8,zipv=[0.5,0,0.5,1,0,0,0],daily=RES1_4,status=variable
new load.3010353277M1 bus1=RML1004604683.2.3.0,Phases=2,kv=0.22,kW=2.44402,pf=0.92,Vminpu=0.92,Vmaxpu=1.5,model=8,zipv=[0.5,0,0.5,1,0,0,0],daily=COM3_8,status=variable
new load.3010402074M1 bus1=RML1006011289.1.2.3.0,Phases=3,kv=0.22,kW=0.64312,pf=0.92,Vminpu=0.92,Vmaxpu=1.5,model=8,zipv=[0.5,0,0.5,1,0,0,0],daily=COM1_11,status=variable
new load.3001005879M1 bus1=RML1001693663.1.2.3.0,Phases=3,kv=0.22,kW=0.42128,pf=0.92,Vminpu=0.92,Vmaxpu=1.5,model=8,zipv=[0.5,0,0.5,1,0,0,0],daily=COM1_24,status=variable
new load.3001005881M1 bus1=RML1001693691.1.2.0,Phases=2,kv=0.22,kW=0.39742,pf=0.92,Vminpu=0.92,Vmaxpu=1.5,model=8,zipv=[0.5,0,0.5,1,0,0,0],daily=RES1_23,status=variable
new load.3001005883M1 bus1=RML1001693719.1.2.0,Phases=2,kv=0.22,kW=7.11076,pf=0.92,Vminpu=0.92,Vmaxpu=1.5,model=8,zipv=[0.5,0,0.5,1,0,0,0],daily=RES5_18,status=variable
new load.3001005884M1 bus1=RML1001693768.1.2.3.0,Phases=3,kv=0.22,kW=0.31916,pf=0.92,Vminpu=0.92,Vmaxpu=1.5,model=8,zipv=[0.5,0,0.5,1,0,0,0],daily=COM1_24,status=variable
new load.3001005885M1 bus1=RML1001693761.2.0,Phases=1,kv=0.127,kW=0.58802,pf=0.92,Vminpu=0.92,Vmaxpu=1.5,model=8,zipv=[0.5,0,0.5,1,0,0,0],daily=RES2_24,status=variable
new load.3001005886M1 bus1=RML1001693775.2.0,Phases=1,kv=0.127,kW=0.1859,pf=0.92,Vminpu=0.92,Vmaxpu=1.5,model=8,zipv=[0.5,0,0.5,1,0,0,0],daily=RES1_23,status=variable
new load.3001005887M1 bus1=RML1001693782.1.3.0,Phases=2,kv=0.22,kW=0.87918,pf=0.92,Vminpu=0.92,Vmaxpu=1.5,model=8,zipv=[0.5,0,0.5,1,0,0,0],daily=RES3_19,status=variable
new load.3001005888M1 bus1=RML1001693789.2.3.0,Phases=2,kv=0.22,kW=0.74392,pf=0.92,Vminpu=0.92,Vmaxpu=1.5,model=8,zipv=[0.5,0,0.5,1,0,0,0],daily=RES3_19,status=variable
new load.3001005889M1 bus1=RML1001693740.1.2.0,Phases=2,kv=0.22,kW=0.35896,pf=0.92,Vminpu=0.92,Vmaxpu=1.5,model=8,zipv=[0.5,0,0.5,1,0,0,0],daily=RES1_23,status=variable
new load.3001005890M1 bus1=RML1001693754.1.2.3.0,Phases=3,kv=0.22,kW=0.55768,pf=0.92,Vminpu=0.92,Vmaxpu=1.5,model=8,zipv=[0.5,0,0.5,1,0,0,0],daily=RES1_23,status=variable
new load.3001005891M1 bus1=RML1001693747.2.0,Phases=1,kv=0.127,kW=0.86132,pf=0.92,Vminpu=0.92,Vmaxpu=1.5,model=8,zipv=[0.5,0,0.5,1,0,0,0],daily=RES2_24,status=variable
new load.3001005892M1 bus1=RML1001693726.2.3.0,Phases=2,kv=0.22,kW=0.61286,pf=0.92,Vminpu=0.92,Vmaxpu=1.5,model=8,zipv=[0.5,0,0.5,1,0,0,0],daily=RES2_24,status=variable
new load.3001005893M1 bus1=RML1001693733.1.2.0,Phases=2,kv=0.22,kW=0.43894,pf=0.92,Vminpu=0.92,Vmaxpu=1.5,model=8,zipv=[0.5,0,0.5,1,0,0,0],daily=RES2_24,status=variable
new load.3001005894M1 bus1=RML1001693698.1.2.0,Phases=2,kv=0.22,kW=1.05308,pf=0.92,Vminpu=0.92,Vmaxpu=1.5,model=8,zipv=[0.5,0,0.5,1,0,0,0],daily=RES3_19,status=variable
new load.3001005895M1 bus1=RML1001693684.1.2.0,Phases=2,kv=0.22,kW=1.2128,pf=0.92,Vminpu=0.92,Vmaxpu=1.5,model=8,zipv=[0.5,0,0.5,1,0,0,0],daily=COM1_24,status=variable
new load.3001005896M1 bus1=RML1001693705.1.0,Phases=1,kv=0.127,kW=0.73426,pf=0.92,Vminpu=0.92,Vmaxpu=1.5,model=8,zipv=[0.5,0,0.5,1,0,0,0],daily=RES3_19,status=variable
new load.3000646517M1 bus1=RML1001666979.1.0,Phases=1,kv=0.127,kW=1.12858,pf=0.92,Vminpu=0.92,Vmaxpu=1.5,model=8,zipv=[0.5,0,0.5,1,0,0,0],daily=RES1_11,status=variable
new load.3000646518M1 bus1=RML1001666986.1.0,Phases=1,kv=0.127,kW=1.07246,pf=0.92,Vminpu=0.92,Vmaxpu=1.5,model=8,zipv=[0.5,0,0.5,1,0,0,0],daily=RES2_11,status=variable
new load.3000646519M1 bus1=RML1001666972.3.0,Phases=1,kv=0.127,kW=0.26966,pf=0.92,Vminpu=0.92,Vmaxpu=1.5,model=8,zipv=[0.5,0,0.5,1,0,0,0],daily=RES1_11,status=variable
new load.3000646520M1 bus1=RML1001666965.1.0,Phases=1,kv=0.127,kW=0.6392,pf=0.92,Vminpu=0.92,Vmaxpu=1.5,model=8,zipv=[0.5,0,0.5,1,0,0,0],daily=RES1_11,status=variable
new load.3000646525M1 bus1=RML1001678186.1.0,Phases=1,kv=0.127,kW=5.98118,pf=0.92,Vminpu=0.92,Vmaxpu=1.5,model=8,zipv=[0.5,0,0.5,1,0,0,0],daily=RES6_11,status=variable
new load.3000646526M1 bus1=RML1001667007.1.0,Phases=1,kv=0.127,kW=0.34956,pf=0.92,Vminpu=0.92,Vmaxpu=1.5,model=8,zipv=[0.5,0,0.5,1,0,0,0],daily=RES1_11,status=variable
new load.3000646527M1 bus1=RML1001667035.2.3.0,Phases=2,kv=0.22,kW=1.19162,pf=0.92,Vminpu=0.92,Vmaxpu=1.5,model=8,zipv=[0.5,0,0.5,1,0,0,0],daily=RES2_11,status=variable
new load.3000646528M1 bus1=RML1001667021.3.0,Phases=1,kv=0.127,kW=0.69912,pf=0.92,Vminpu=0.92,Vmaxpu=1.5,model=8,zipv=[0.5,0,0.5,1,0,0,0],daily=RES1_11,status=variable
new load.3000646529M1 bus1=RML1001667028.3.0,Phases=1,kv=0.127,kW=0.6283,pf=0.92,Vminpu=0.92,Vmaxpu=1.5,model=8,zipv=[0.5,0,0.5,1,0,0,0],daily=RES2_11,status=variable
new load.3000646530M1 bus1=RML1001667000.1.0,Phases=1,kv=0.127,kW=0.46582,pf=0.92,Vminpu=0.92,Vmaxpu=1.5,model=8,zipv=[0.5,0,0.5,1,0,0,0],daily=RES2_11,status=variable
new load.3000646532M1 bus1=RML1001666902.1.0,Phases=1,kv=0.127,kW=0.48938,pf=0.92,Vminpu=0.92,Vmaxpu=1.5,model=8,zipv=[0.5,0,0.5,1,0,0,0],daily=RES1_11,status=variable
new load.3000646533M1 bus1=RML1001666916.3.0,Phases=1,kv=0.127,kW=1.21328,pf=0.92,Vminpu=0.92,Vmaxpu=1.5,model=8,zipv=[0.5,0,0.5,1,0,0,0],daily=RES2_11,status=variable
new load.3000646534M1 bus1=RML1001666923.1.2.0,Phases=2,kv=0.22,kW=0.69516,pf=0.92,Vminpu=0.92,Vmaxpu=1.5,model=8,zipv=[0.5,0,0.5,1,0,0,0],daily=RES3_11,status=variable
new load.3000646537M1 bus1=RML1001666944.2.0,Phases=1,kv=0.127,kW=0.80892,pf=0.92,Vminpu=0.92,Vmaxpu=1.5,model=8,zipv=[0.5,0,0.5,1,0,0,0],daily=RES3_11,status=variable
new load.3010288644M1 bus1=RML1001667021.3.0,Phases=1,kv=0.127,kW=0.6507,pf=0.92,Vminpu=0.92,Vmaxpu=1.5,model=8,zipv=[0.5,0,0.5,1,0,0,0],daily=RES2_5,status=variable
new load.3006571457M1 bus1=RML1010906559.3.0,Phases=1,kv=0.127,kW=0.92682,pf=0.92,Vminpu=0.92,Vmaxpu=1.5,model=8,zipv=[0.5,0,0.5,1,0,0,0],daily=RES2_2,status=variable
new load.3012276806M1 bus1=RML1010209754.1.0,Phases=1,kv=0.127,kW=0.42298,pf=0.92,Vminpu=0.92,Vmaxpu=1.5,model=8,zipv=[0.5,0,0.5,1,0,0,0],daily=RES2_18,status=variable
new load.3010940887M1 bus1=RML1001666923.1.2.0,Phases=2,kv=0.22,kW=0.61508,pf=0.92,Vminpu=0.92,Vmaxpu=1.5,model=8,zipv=[0.5,0,0.5,1,0,0,0],daily=RES2_19,status=variable
new load.3004178475M1 bus1=RML1001667014.2.0,Phases=1,kv=0.127,kW=0.9904,pf=0.92,Vminpu=0.92,Vmaxpu=1.5,model=8,zipv=[0.5,0,0.5,1,0,0,0],daily=RES2_21,status=variable
new load.3004239656M1 bus1=RML1001666937.1.0,Phases=1,kv=0.127,kW=0.89744,pf=0.92,Vminpu=0.92,Vmaxpu=1.5,model=8,zipv=[0.5,0,0.5,1,0,0,0],daily=COM1_21,status=variable
new load.3005665079M1 bus1=RML1001666930.1.2.3.0,Phases=3,kv=0.22,kW=0.21336,pf=0.92,Vminpu=0.92,Vmaxpu=1.5,model=8,zipv=[0.5,0,0.5,1,0,0,0],daily=COM1_5,status=variable
new load.IP1184910M1 bus1=BBT1180374.2.3.0,Phases=2,kv=0.22,kW=0.08708,pf=0.92,Vminpu=0.92,Vmaxpu=1.5,model=8,zipv=[0.5,0,0.5,1,0,0,0],daily=IP,status=variable,NumCust=0
new load.3013017376M1 bus1=RML1010567496.1.0,Phases=1,kv=0.127,kW=0.77708,pf=0.92,Vminpu=0.92,Vmaxpu=1.5,model=8,zipv=[0.5,0,0.5,1,0,0,0],daily=RES1_4,status=variable
new load.IP365910M1 bus1=BBT167998004.1.2.0,Phases=2,kv=0.22,kW=0.08708,pf=0.92,Vminpu=0.92,Vmaxpu=1.5,model=8,zipv=[0.5,0,0.5,1,0,0,0],daily=IP,status=variable,NumCust=0
new load.IP365917M1 bus1=BBT1180304.1.3.0,Phases=2,kv=0.22,kW=0.08708,pf=0.92,Vminpu=0.92,Vmaxpu=1.5,model=8,zipv=[0.5,0,0.5,1,0,0,0],daily=IP,status=variable,NumCust=0
new load.IP365924M1 bus1=BBT1180311.2.3.0,Phases=2,kv=0.22,kW=0.08708,pf=0.92,Vminpu=0.92,Vmaxpu=1.5,model=8,zipv=[0.5,0,0.5,1,0,0,0],daily=IP,status=variable,NumCust=0
new load.IP365931M1 bus1=BBT1180325.2.3.0,Phases=2,kv=0.22,kW=0.08708,pf=0.92,Vminpu=0.92,Vmaxpu=1.5,model=8,zipv=[0.5,0,0.5,1,0,0,0],daily=IP,status=variable,NumCust=0
new load.IP365938M1 bus1=BBT1180339.1.3.0,Phases=2,kv=0.22,kW=0.08708,pf=0.92,Vminpu=0.92,Vmaxpu=1.5,model=8,zipv=[0.5,0,0.5,1,0,0,0],daily=IP,status=variable,NumCust=0
new load.IP365945M1 bus1=BBT1180346.2.3.0,Phases=2,kv=0.22,kW=0.08708,pf=0.92,Vminpu=0.92,Vmaxpu=1.5,model=8,zipv=[0.5,0,0.5,1,0,0,0],daily=IP,status=variable,NumCust=0
new load.IP365952M1 bus1=BBT1180353.2.3.0,Phases=2,kv=0.22,kW=0.08708,pf=0.92,Vminpu=0.92,Vmaxpu=1.5,model=8,zipv=[0.5,0,0.5,1,0,0,0],daily=IP,status=variable,NumCust=0
new load.IP365959M1 bus1=BBT1180360.2.3.0,Phases=2,kv=0.22,kW=0.08708,pf=0.92,Vminpu=0.92,Vmaxpu=1.5,model=8,zipv=[0.5,0,0.5,1,0,0,0],daily=IP,status=variable,NumCust=0
new load.IP365966M1 bus1=BBT1180367.1.3.0,Phases=2,kv=0.22,kW=0.08708,pf=0.92,Vminpu=0.92,Vmaxpu=1.5,model=8,zipv=[0.5,0,0.5,1,0,0,0],daily=IP,status=variable,NumCust=0
new load.3013263273M1 bus1=RML1010710252.1.2.0,Phases=2,kv=0.24,kW=0.71202,pf=0.92,Vminpu=0.92,Vmaxpu=1.5,model=8,zipv=[0.5,0,0.5,1,0,0,0],daily=RES3_11,status=variable
new load.3013164715M1 bus1=RML1010653368.1.0,Phases=1,kv=0.12,kW=1.03838,pf=0.92,Vminpu=0.92,Vmaxpu=1.5,model=8,zipv=[0.5,0,0.5,1,0,0,0],daily=RES1_6,status=variable
new load.3013166716M1 bus1=RML1010653355.1.0,Phases=1,kv=0.12,kW=0.66962,pf=0.92,Vminpu=0.92,Vmaxpu=1.5,model=8,zipv=[0.5,0,0.5,1,0,0,0],daily=RES2_7,status=variable
new load.3013136386M1 bus1=RML1010653606.1.0,Phases=1,kv=0.12,kW=1.11526,pf=0.92,Vminpu=0.92,Vmaxpu=1.5,model=8,zipv=[0.5,0,0.5,1,0,0,0],daily=RES3_7,status=variable
new load.3013138279M1 bus1=RML1010653568.1.0,Phases=1,kv=0.12,kW=0.5203,pf=0.92,Vminpu=0.92,Vmaxpu=1.5,model=8,zipv=[0.5,0,0.5,1,0,0,0],daily=RES2_6,status=variable
new load.3013131567M1 bus1=RML1010653701.1.0,Phases=1,kv=0.12,kW=0.78356,pf=0.92,Vminpu=0.92,Vmaxpu=1.5,model=8,zipv=[0.5,0,0.5,1,0,0,0],daily=RES2_6,status=variable
new load.3013132621M1 bus1=RML1010653699.1.0,Phases=1,kv=0.12,kW=0.74338,pf=0.92,Vminpu=0.92,Vmaxpu=1.5,model=8,zipv=[0.5,0,0.5,1,0,0,0],daily=RES1_6,status=variable
new load.IP368780M1 bus1=BBT1184469.1.2.0,Phases=2,kv=0.24,kW=0.08708,pf=0.92,Vminpu=0.92,Vmaxpu=1.5,model=8,zipv=[0.5,0,0.5,1,0,0,0],daily=IP,status=variable,NumCust=0
new load.IP368787M1 bus1=BBT1184483.1.2.0,Phases=2,kv=0.24,kW=0.08708,pf=0.92,Vminpu=0.92,Vmaxpu=1.5,model=8,zipv=[0.5,0,0.5,1,0,0,0],daily=IP,status=variable,NumCust=0
new load.IP368794M1 bus1=BBT1184490.1.2.0,Phases=2,kv=0.24,kW=0.08708,pf=0.92,Vminpu=0.92,Vmaxpu=1.5,model=8,zipv=[0.5,0,0.5,1,0,0,0],daily=IP,status=variable,NumCust=0
new load.IP368801M1 bus1=BBT1184497.1.2.0,Phases=2,kv=0.24,kW=0.08708,pf=0.92,Vminpu=0.92,Vmaxpu=1.5,model=8,zipv=[0.5,0,0.5,1,0,0,0],daily=IP,status=variable,NumCust=0
new load.IP368808M1 bus1=BBT1184504.1.2.0,Phases=2,kv=0.24,kW=0.08708,pf=0.92,Vminpu=0.92,Vmaxpu=1.5,model=8,zipv=[0.5,0,0.5,1,0,0,0],daily=IP,status=variable,NumCust=0
new load.IP368815M1 bus1=BBT1184511.1.2.0,Phases=2,kv=0.24,kW=0.08708,pf=0.92,Vminpu=0.92,Vmaxpu=1.5,model=8,zipv=[0.5,0,0.5,1,0,0,0],daily=IP,status=variable,NumCust=0
new load.3005546587M1 bus1=RML1003200609.2.0,Phases=1,kv=0.12,kW=0.30398,pf=0.92,Vminpu=0.92,Vmaxpu=1.5,model=8,zipv=[0.5,0,0.5,1,0,0,0],daily=RES1_2,status=variable
new load.3005608322M1 bus1=RML1001675911.1.0,Phases=1,kv=0.12,kW=0.47068,pf=0.92,Vminpu=0.92,Vmaxpu=1.5,model=8,zipv=[0.5,0,0.5,1,0,0,0],daily=RES1_2,status=variable
new load.3005219777M1 bus1=RML1001675981.2.0,Phases=1,kv=0.12,kW=0.006,pf=0.92,Vminpu=0.92,Vmaxpu=1.5,model=8,zipv=[0.5,0,0.5,1,0,0,0],daily=RES1_18,status=variable
new load.3004296316M1 bus1=RML1001675855.1.0,Phases=1,kv=0.12,kW=0.99816,pf=0.92,Vminpu=0.92,Vmaxpu=1.5,model=8,zipv=[0.5,0,0.5,1,0,0,0],daily=RES2_25,status=variable
new load.3004348844M1 bus1=RML1001676009.2.0,Phases=1,kv=0.12,kW=0.2387,pf=0.92,Vminpu=0.92,Vmaxpu=1.5,model=8,zipv=[0.5,0,0.5,1,0,0,0],daily=RES2_27,status=variable
new load.3004108379M1 bus1=RML1001675834.1.0,Phases=1,kv=0.12,kW=1.585,pf=0.92,Vminpu=0.92,Vmaxpu=1.5,model=8,zipv=[0.5,0,0.5,1,0,0,0],daily=RES1_15,status=variable
new load.3004108377M1 bus1=RML1001675967.2.0,Phases=1,kv=0.12,kW=0.9057,pf=0.92,Vminpu=0.92,Vmaxpu=1.5,model=8,zipv=[0.5,0,0.5,1,0,0,0],daily=RES1_15,status=variable
new load.3004147849M1 bus1=RML1001675960.1.0,Phases=1,kv=0.12,kW=0.3274,pf=0.92,Vminpu=0.92,Vmaxpu=1.5,model=8,zipv=[0.5,0,0.5,1,0,0,0],daily=RES1_16,status=variable
new load.3004147853M1 bus1=RML1001675848.1.0,Phases=1,kv=0.12,kW=0.76044,pf=0.92,Vminpu=0.92,Vmaxpu=1.5,model=8,zipv=[0.5,0,0.5,1,0,0,0],daily=RES1_16,status=variable
new load.3004051297M1 bus1=RML1001675946.1.0,Phases=1,kv=0.12,kW=0.6943,pf=0.92,Vminpu=0.92,Vmaxpu=1.5,model=8,zipv=[0.5,0,0.5,1,0,0,0],daily=RES1_14,status=variable
new load.3010729895M1 bus1=RML1004783659.2.0,Phases=1,kv=0.12,kW=0.51714,pf=0.92,Vminpu=0.92,Vmaxpu=1.5,model=8,zipv=[0.5,0,0.5,1,0,0,0],daily=RES2_13,status=variable
new load.3010480680M1 bus1=RML1010365593.2.0,Phases=1,kv=0.12,kW=0.70724,pf=0.92,Vminpu=0.92,Vmaxpu=1.5,model=8,zipv=[0.5,0,0.5,1,0,0,0],daily=RES2_7,status=variable
new load.3010497345M1 bus1=RML1004731159.2.0,Phases=1,kv=0.12,kW=1.12104,pf=0.92,Vminpu=0.92,Vmaxpu=1.5,model=8,zipv=[0.5,0,0.5,1,0,0,0],daily=RES2_7,status=variable
new load.3010541128M1 bus1=RML1001675925.1.0,Phases=1,kv=0.12,kW=0.44354,pf=0.92,Vminpu=0.92,Vmaxpu=1.5,model=8,zipv=[0.5,0,0.5,1,0,0,0],daily=RES1_9,status=variable
new load.3010044545M1 bus1=RML1004424930.1.0,Phases=1,kv=0.12,kW=0.91246,pf=0.92,Vminpu=0.92,Vmaxpu=1.5,model=8,zipv=[0.5,0,0.5,1,0,0,0],daily=RES2_2,status=variable
new load.3001899844M1 bus1=RML1001675988.1.0,Phases=1,kv=0.12,kW=0.59144,pf=0.92,Vminpu=0.92,Vmaxpu=1.5,model=8,zipv=[0.5,0,0.5,1,0,0,0],daily=RES1_16,status=variable
new load.3001899845M1 bus1=RML1001675995.1.0,Phases=1,kv=0.12,kW=0.44096,pf=0.92,Vminpu=0.92,Vmaxpu=1.5,model=8,zipv=[0.5,0,0.5,1,0,0,0],daily=RES2_17,status=variable
new load.3001899848M1 bus1=RML1001675939.2.0,Phases=1,kv=0.12,kW=0.69706,pf=0.92,Vminpu=0.92,Vmaxpu=1.5,model=8,zipv=[0.5,0,0.5,1,0,0,0],daily=RES1_16,status=variable
new load.3001899851M1 bus1=RML1001675897.2.0,Phases=1,kv=0.12,kW=0.60202,pf=0.92,Vminpu=0.92,Vmaxpu=1.5,model=8,zipv=[0.5,0,0.5,1,0,0,0],daily=RES1_16,status=variable
new load.3001899852M1 bus1=RML1001675904.2.0,Phases=1,kv=0.12,kW=0.67594,pf=0.92,Vminpu=0.92,Vmaxpu=1.5,model=8,zipv=[0.5,0,0.5,1,0,0,0],daily=RES1_16,status=variable
new load.3001899853M1 bus1=RML1001675932.1.0,Phases=1,kv=0.12,kW=0.61258,pf=0.92,Vminpu=0.92,Vmaxpu=1.5,model=8,zipv=[0.5,0,0.5,1,0,0,0],daily=RES1_16,status=variable
new load.3001899854M1 bus1=RML1001675925.1.0,Phases=1,kv=0.12,kW=0.45414,pf=0.92,Vminpu=0.92,Vmaxpu=1.5,model=8,zipv=[0.5,0,0.5,1,0,0,0],daily=RES1_16,status=variable
new load.3001899855M1 bus1=RML1003163600.1.0,Phases=1,kv=0.12,kW=0.37864,pf=0.92,Vminpu=0.92,Vmaxpu=1.5,model=8,zipv=[0.5,0,0.5,1,0,0,0],daily=RES2_17,status=variable
new load.3001899856M1 bus1=RML1001675918.1.2.0,Phases=2,kv=0.24,kW=0.3451,pf=0.92,Vminpu=0.92,Vmaxpu=1.5,model=8,zipv=[0.5,0,0.5,1,0,0,0],daily=RES2_17,status=variable
new load.3001899858M1 bus1=RML1003163390.2.0,Phases=1,kv=0.12,kW=0.56558,pf=0.92,Vminpu=0.92,Vmaxpu=1.5,model=8,zipv=[0.5,0,0.5,1,0,0,0],daily=RES2_17,status=variable
new load.3001899902M1 bus1=RML1001675827.1.0,Phases=1,kv=0.12,kW=0.42658,pf=0.92,Vminpu=0.92,Vmaxpu=1.5,model=8,zipv=[0.5,0,0.5,1,0,0,0],daily=RES2_17,status=variable
new load.3001899903M1 bus1=RML1001675820.1.0,Phases=1,kv=0.12,kW=0.78156,pf=0.92,Vminpu=0.92,Vmaxpu=1.5,model=8,zipv=[0.5,0,0.5,1,0,0,0],daily=RES1_16,status=variable
new load.3001900072M1 bus1=RML1001678137.1.2.0,Phases=2,kv=0.22,kW=3.79692,pf=0.92,Vminpu=0.92,Vmaxpu=1.5,model=8,zipv=[0.5,0,0.5,1,0,0,0],daily=COM3_17,status=variable