new line.TR1245628 bus1=BMT174541644.1.2.3,bus2=BMT174541645.1.2.3,Phases=3,Linecode=CAB103_3_3,Length=0.040810000,Units=km
new line.TR1245635 bus1=BMT174541644.1.2.3,bus2=BMT884148B.1.2.3,Phases=3,Linecode=CAB103_3_3,Length=0.033530000,Units=km
new line.TR1245642 bus1=BMT174541644.1.2.3,bus2=BMT884162B.1.2.3,Phases=3,Linecode=CAB103_3_3,Length=0.025635000,Units=km
new line.TR12764543 bus1=BMT9369519B.1.2.3,bus2=BMT173621585.1.2.3,Phases=3,Linecode=CAB102_3_3,Length=0.018030000,Units=km
new line.TR12764552 bus1=BMT173621578.1.2.3,bus2=BMT9369519B.1.2.3,Phases=3,Linecode=CAB102_3_3,Length=0.033019000,Units=km
new line.TR12814736 bus1=BMT174541425.1.2.3,bus2=BMT9411733B.1.2.3,Phases=3,Linecode=CABA07_3_3,Length=0.025023000,Units=km
new line.TR12814737 bus1=BMT9411733B.1.2.3,bus2=BMT174541426.1.2.3,Phases=3,Linecode=CABA07_3_3,Length=0.026080000,Units=km
new line.TR12814738 bus1=BMT174541426.1.2.3,bus2=BMT9411734B.1.2.3,Phases=3,Linecode=CABA09_3_3,Length=0.030071000,Units=km
new line.TR12814739 bus1=BMT9411734B.1.2.3,bus2=BMT174541427.1.2.3,Phases=3,Linecode=CABA09_3_3,Length=0.037220000,Units=km
new line.TR12814746 bus1=BMT174541427.1.2.3,bus2=BMT9411739B.1.2.3,Phases=3,Linecode=CABA08_3_3,Length=0.041236000,Units=km
new line.TR12814747 bus1=BMT9411739B.1.2.3,bus2=BMT2919755B.1.2.3,Phases=3,Linecode=CABA08_3_3,Length=0.042725000,Units=km
new line.TR12814753 bus1=BMT2919755B.1.2.3,bus2=BMT9411745B.1.2.3,Phases=3,Linecode=CABA08_3_3,Length=0.026252000,Units=km
new line.TR12814754 bus1=BMT9411745B.1.2.3,bus2=BMT2919762B.1.2.3,Phases=3,Linecode=CABA08_3_3,Length=0.020618000,Units=km
new line.TR12814755 bus1=BMT2919762B.1.2.3,bus2=BMT9411746B.1.2.3,Phases=3,Linecode=CABA08_3_3,Length=0.039565000,Units=km
new line.TR12814756 bus1=BMT9411746B.1.2.3,bus2=BMT2919769B.1.2.3,Phases=3,Linecode=CABA08_3_3,Length=0.036693000,Units=km
new line.TR12814760 bus1=BMT2919769B.1.2.3,bus2=BMT174541428.1.2.3,Phases=3,Linecode=CABA08_3_3,Length=0.036693000,Units=km
new line.TR12814761 bus1=BMT174541428.1.2.3,bus2=BMT174541429.1.2.3,Phases=3,Linecode=CABA11_3_3,Length=0.042725000,Units=km
new line.TR12814763 bus1=BMT174541429.1.2.3,bus2=BMT9411756B.1.2.3,Phases=3,Linecode=CABA08_3_3,Length=0.036405000,Units=km
new line.TR12814764 bus1=BMT9411756B.1.2.3,bus2=BMT2918271B.1.2.3,Phases=3,Linecode=CABA08_3_3,Length=0.024355000,Units=km
new line.TR12814767 bus1=BMT2918271B.1.2.3,bus2=BMT9411759B.1.2.3,Phases=3,Linecode=CABA08_3_3,Length=0.028464000,Units=km
new line.TR12814768 bus1=BMT9411759B.1.2.3,bus2=BMT2918278B.1.2.3,Phases=3,Linecode=CABA08_3_3,Length=0.032577000,Units=km
new line.TR12814785 bus1=BMT881726B.1.2.3,bus2=BMT175875295.1.2.3,Phases=3,Linecode=CABA06_3_3,Length=0.022003000,Units=km
new line.TR12814786 bus1=BMT173616767.1.2.3,bus2=BMT174757960.1.2.3,Phases=3,Linecode=CABA06_3_3,Length=0.021027000,Units=km
new line.TR12814818 bus1=BMT881719B.1.2.3,bus2=BMT9411809B.1.2.3,Phases=3,Linecode=CABA06_3_3,Length=0.020028000,Units=km
new line.TR12814819 bus1=BMT9411809B.1.2.3,bus2=BMT881726B.1.2.3,Phases=3,Linecode=CABA06_3_3,Length=0.022003000,Units=km
new line.TR12814827 bus1=BMT881712B.1.2.3,bus2=BMT9411812B.1.2.3,Phases=3,Linecode=CABA06_3_3,Length=0.020003000,Units=km
new line.TR12814828 bus1=BMT9411812B.1.2.3,bus2=BMT881719B.1.2.3,Phases=3,Linecode=CABA06_3_3,Length=0.021003000,Units=km
new line.TR12814847 bus1=BMT175875290.1.2.3,bus2=BMT175875289.1.2.3,Phases=3,Linecode=CABA08_3_3,Length=0.020521000,Units=km
new line.TR12814848 bus1=BMT175875289.1.2.3,bus2=BMT173619127.1.2.3,Phases=3,Linecode=CABA08_3_3,Length=0.067127000,Units=km
new line.TR12814849 bus1=BMT175875289.1.2.3,bus2=BMT175875288.1.2.3,Phases=3,Linecode=CABA08_3_3,Length=0.025713000,Units=km
new line.TR12814874 bus1=BMT175875288.1.2.3,bus2=BMT882202B.1.2.3,Phases=3,Linecode=CABA06_3_3,Length=0.037341000,Units=km
new line.TR12814875 bus1=BMT882202B.1.2.3,bus2=BMT882209B.1.2.3,Phases=3,Linecode=CABA06_3_3,Length=0.033140000,Units=km
new line.TR12814881 bus1=BMT882209B.1.2.3,bus2=BMT882216B.1.2.3,Phases=3,Linecode=CABA06_3_3,Length=0.037126000,Units=km
new line.TR12814882 bus1=BMT882216B.1.2.3,bus2=BMT882489B.1.2.3,Phases=3,Linecode=CABA06_3_3,Length=0.038123000,Units=km
new line.TR12814883 bus1=BMT882489B.1.2.3,bus2=BMT882482B.1.2.3,Phases=3,Linecode=CABA06_3_3,Length=0.035062000,Units=km
new line.TR12814884 bus1=BMT882482B.1.2.3,bus2=BMT882496B.1.2.3,Phases=3,Linecode=CABA06_3_3,Length=0.036129000,Units=km
new line.TR12814885 bus1=BMT882496B.1.2.3,bus2=BMT882503B.1.2.3,Phases=3,Linecode=CABA06_3_3,Length=0.037126000,Units=km
new line.TR12814886 bus1=BMT882503B.1.2.3,bus2=BMT882510B.1.2.3,Phases=3,Linecode=CABA06_3_3,Length=0.033140000,Units=km
new line.TR12814900 bus1=BMT882510B.1.2.3,bus2=BMT882552B.1.2.3,Phases=3,Linecode=CABA06_3_3,Length=0.037126000,Units=km
new line.TR12814908 bus1=BMT882552B.1.2.3,bus2=BMT882748B.1.2.3,Phases=3,Linecode=CABA06_3_3,Length=0.015299000,Units=km
new line.TR12814913 bus1=BMT882748B.1.2.3,bus2=BMT882741B.1.2.3,Phases=3,Linecode=CABA06_3_3,Length=0.020227000,Units=km
new line.TR12814915 bus1=BMT882741B.1.2.3,bus2=BMT882734B.1.2.3,Phases=3,Linecode=CABA06_3_3,Length=0.031261000,Units=km
new line.TR12814919 bus1=BMT882734B.1.2.3,bus2=BMT882727B.1.2.3,Phases=3,Linecode=CABA06_3_3,Length=0.031020000,Units=km
new line.TR12814921 bus1=BMT882727B.1.2.3,bus2=BMT882720B.1.2.3,Phases=3,Linecode=CABA06_3_3,Length=0.030021000,Units=km
new line.TR12814922 bus1=BMT882720B.1.2.3,bus2=BMT882713B.1.2.3,Phases=3,Linecode=CABA06_3_3,Length=0.027022000,Units=km
new line.TR12814924 bus1=BMT882713B.1.2.3,bus2=BMT882671B.1.2.3,Phases=3,Linecode=CABA06_3_3,Length=0.029021000,Units=km
new line.TR12814931 bus1=BMT882671B.1.2.3,bus2=BMT882678B.1.2.3,Phases=3,Linecode=CABA06_3_3,Length=0.014144000,Units=km
new line.TR12814932 bus1=BMT882678B.1.2.3,bus2=BMT882307B.1.2.3,Phases=3,Linecode=CABA06_3_3,Length=0.032004000,Units=km
new line.TR12814933 bus1=BMT882307B.1.2.3,bus2=BMT882300B.1.2.3,Phases=3,Linecode=CABA06_3_3,Length=0.027004000,Units=km
new line.TR12814934 bus1=BMT882300B.1.2.3,bus2=BMT882293B.1.2.3,Phases=3,Linecode=CABA06_3_3,Length=0.031020000,Units=km
new line.TR12814943 bus1=BMT882293B.1.2.3,bus2=BMT173621137.1.2.3,Phases=3,Linecode=CABA06_3_3,Length=0.029021000,Units=km
new line.TR12814946 bus1=BMT156320445.1.2.3,bus2=BMT173621586.1.2.3,Phases=3,Linecode=CAB102_3_3,Length=0.028004000,Units=km
new line.TR12871702 bus1=BMT175392264.1.2.3,bus2=BMT890441B.1.2.3,Phases=3,Linecode=CABA06_3_3,Length=0.019108000,Units=km
new line.TR12871705 bus1=BMT890441B.1.2.3,bus2=BMT890434B.1.2.3,Phases=3,Linecode=CABA06_3_3,Length=0.029278000,Units=km
new line.TR12871708 bus1=BMT890434B.1.2.3,bus2=BMT175392266.1.2.3,Phases=3,Linecode=CABA06_3_3,Length=0.043191000,Units=km
new line.TR12847975 bus1=BMT174757963.1.2.3,bus2=BMT9439778B.1.2.3,Phases=3,Linecode=CABA06_3_3,Length=0.006709000,Units=km
new line.TR12847976 bus1=BMT9439778B.1.2.3,bus2=BMT891806B.1.2.3,Phases=3,Linecode=CABA06_3_3,Length=0.030071000,Units=km
new line.TR12847977 bus1=BMT891806B.1.2.3,bus2=BMT891792B.1.2.3,Phases=3,Linecode=CABA06_3_3,Length=0.038215000,Units=km
new line.TR12847978 bus1=BMT891792B.1.2.3,bus2=BMT174757965.1.2.3,Phases=3,Linecode=CABA06_3_3,Length=0.037220000,Units=km
new line.TR2230710 bus1=BMT2918278B.1.2.3,bus2=BMT1905539B.1.2.3,Phases=3,Linecode=CABA08_3_3,Length=0.024355000,Units=km
new line.TR2230780 bus1=BMT2918404B.1.2.3,bus2=BMT2918411B.1.2.3,Phases=3,Linecode=CAB104_3_3,Length=0.066107000,Units=km
new line.TR2230787 bus1=BMT2918411B.1.2.3,bus2=BMT1905553B.1.2.3,Phases=3,Linecode=CAB104_3_3,Length=0.067060000,Units=km
new line.TR2232894 bus1=BMT2923108B.1.2.3,bus2=BMT2923115B.1.2.3,Phases=3,Linecode=CAB104_3_3,Length=0.068892000,Units=km
new line.TR2232901 bus1=BMT2923115B.1.2.3,bus2=BMT1905560B.1.2.3,Phases=3,Linecode=CAB104_3_3,Length=0.054413000,Units=km
new line.TR2839829 bus1=BMT174541643.1.2.3,bus2=BMT884155B.1.2.3,Phases=3,Linecode=CAB103_3_3,Length=0.012371000,Units=km
new line.TR2839836 bus1=BMT156320318.1.2.3,bus2=BMT174541430.1.2.3,Phases=3,Linecode=CAB104_3_3,Length=0.043663000,Units=km
new line.TR379700 bus1=BMT175875296.1.2.3,bus2=BMT882174B.1.2.3,Phases=3,Linecode=CABA06_3_3,Length=0.032654000,Units=km
new line.TR408624 bus1=BMT156320368.1.2.3,bus2=BMT174877093.1.2.3,Phases=3,Linecode=CAB102_3_3,Length=0.031020000,Units=km
new line.TR408638 bus1=BMT883385B.1.2.3,bus2=BMT174877094.1.2.3,Phases=3,Linecode=CAB103_3_3,Length=0.043191000,Units=km
new line.TR408645 bus1=BMT174877093.1.2.3,bus2=BMT880305B.1.2.3,Phases=3,Linecode=CAB103_3_3,Length=0.027078000,Units=km
new line.TR408652 bus1=BMT174877093.1.2.3,bus2=BMT883385B.1.2.3,Phases=3,Linecode=CAB103_3_3,Length=0.010002000,Units=km
new line.TR408659 bus1=BMT174877093.1.2.3,bus2=BMT883399B.1.2.3,Phases=3,Linecode=CAB102_3_3,Length=0.012002000,Units=km
new line.TR408666 bus1=BMT883399B.1.2.3,bus2=BMT883406B.1.2.3,Phases=3,Linecode=CAB102_3_3,Length=0.040018000,Units=km
new line.TR408673 bus1=BMT883581B.1.2.3,bus2=BMT156320452.1.2.3,Phases=3,Linecode=CAB102_3_3,Length=0.032067000,Units=km
new line.TR408680 bus1=BMT883588B.1.2.3,bus2=BMT883581B.1.2.3,Phases=3,Linecode=CAB102_3_3,Length=0.030070000,Units=km
new line.TR408687 bus1=BMT171907699.1.2.3,bus2=BMT171907698.1.2.3,Phases=3,Linecode=CAB102_3_3,Length=0.028288000,Units=km
new line.TR408694 bus1=BMT883644B.1.2.3,bus2=BMT171907699.1.2.3,Phases=3,Linecode=CAB102_3_3,Length=0.039056000,Units=km
new line.TR408701 bus1=BMT171907698.1.2.3,bus2=BMT883700B.1.2.3,Phases=3,Linecode=CAB102_3_3,Length=0.008064000,Units=km
new line.TR408708 bus1=BMT171907698.1.2.3,bus2=BMT883728B.1.2.3,Phases=3,Linecode=CAB102_3_3,Length=0.009002000,Units=km
new line.TR408715 bus1=BMT171907698.1.2.3,bus2=BMT883742B.1.2.3,Phases=3,Linecode=CAB102_3_3,Length=0.029278000,Units=km
new line.TR408722 bus1=BMT883707B.1.2.3,bus2=BMT883700B.1.2.3,Phases=3,Linecode=CAB102_3_3,Length=0.025023000,Units=km
new line.TR408729 bus1=BMT171907697.1.2.3,bus2=BMT883707B.1.2.3,Phases=3,Linecode=CAB102_3_3,Length=0.036060000,Units=km
new line.TR408736 bus1=BMT156320422.1.2.3,bus2=BMT883721B.1.2.3,Phases=3,Linecode=CAB102_3_3,Length=0.034063000,Units=km
new line.TR408743 bus1=BMT883728B.1.2.3,bus2=BMT881509B.1.2.3,Phases=3,Linecode=CAB102_3_3,Length=0.024086000,Units=km
new line.TR408750 bus1=BMT883735B.1.2.3,bus2=BMT171907701.1.2.3,Phases=3,Linecode=CAB102_3_3,Length=0.029278000,Units=km
new line.TR408757 bus1=BMT883742B.1.2.3,bus2=BMT883735B.1.2.3,Phases=3,Linecode=CAB102_3_3,Length=0.030269000,Units=km
new line.TR408764 bus1=BMT883756B.1,bus2=BMT176529823.1,Phases=1,Linecode=CAB102_3_1,Length=0.029415000,Units=km
new line.TR408771 bus1=BMT176529822.1,bus2=BMT883756B.1,Phases=1,Linecode=CAB102_3_1,Length=0.035005000,Units=km
new line.TR408785 bus1=BMT883847B.1,bus2=BMT168464192.1,Phases=1,Linecode=CABA06_3_1,Length=0.027517000,Units=km
new line.TR408792 bus1=BMT168464191.1,bus2=BMT883847B.1,Phases=1,Linecode=CABA06_3_1,Length=0.037648000,Units=km
new line.TR408799 bus1=BMT883868B.1,bus2=BMT168464191.1,Phases=1,Linecode=CAB102_3_1,Length=0.039855000,Units=km
new line.TR408806 bus1=BMT176529821.1.2.3,bus2=BMT883945B.1.2.3,Phases=3,Linecode=CABA06_3_3,Length=0.035445000,Units=km
new line.TR408813 bus1=BMT883945B.1.2.3,bus2=BMT158088628.1.2.3,Phases=3,Linecode=CABA06_3_3,Length=0.033531000,Units=km
new line.TR408820 bus1=BMT883959B.1.2.3,bus2=BMT176529821.1.2.3,Phases=3,Linecode=CABA06_3_3,Length=0.040810000,Units=km
new line.TR408827 bus1=BMT176529816.1.2.3,bus2=BMT846761B.1.2.3,Phases=3,Linecode=CAB103_3_3,Length=0.043017000,Units=km
new line.TR408834 bus1=BMT176529816.2,bus2=BMT176529819.2,Phases=1,Linecode=CAB102_3_1,Length=0.038902000,Units=km
new line.TR408841 bus1=BMT884092B.1.2.3,bus2=BMT176529816.1.2.3,Phases=3,Linecode=CAB103_3_3,Length=0.030368000,Units=km
new line.TR408848 bus1=BMT176529815.1.2.3,bus2=BMT884092B.1.2.3,Phases=3,Linecode=CAB103_3_3,Length=0.027517000,Units=km
new line.TR408855 bus1=BMT884127B.1.2.3,bus2=BMT176529815.1.2.3,Phases=3,Linecode=CAB103_3_3,Length=0.034486000,Units=km
new line.TR408862 bus1=BMT176529817.1.2.3,bus2=BMT884127B.1.2.3,Phases=3,Linecode=CAB103_3_3,Length=0.035740000,Units=km
new line.TR408869 bus1=BMT174541646.1,bus2=BMT884183B.1,Phases=1,Linecode=CAB102_3_1,Length=0.041442000,Units=km
new line.TR408876 bus1=BMT884148B.1.2.3,bus2=BMT174541646.1.2.3,Phases=3,Linecode=CAB103_3_3,Length=0.037648000,Units=km
new line.TR408883 bus1=BMT884155B.1.2.3,bus2=BMT174541644.1.2.3,Phases=3,Linecode=CAB103_3_3,Length=0.041005000,Units=km
new line.TR408890 bus1=BMT884162B.1.2.3,bus2=BMT884169B.1.2.3,Phases=3,Linecode=CAB103_3_3,Length=0.031957000,Units=km
new line.TR408897 bus1=BMT884169B.1.2.3,bus2=BMT884260B.1.2.3,Phases=3,Linecode=CAB103_3_3,Length=0.042455000,Units=km
new line.TR408904 bus1=BMT884183B.1,bus2=BMT884190B.1,Phases=1,Linecode=CAB102_3_1,Length=0.031785000,Units=km
new line.TR408911 bus1=BMT884190B.1,bus2=BMT886311B.1,Phases=1,Linecode=CAB102_3_1,Length=0.038902000,Units=km
new line.TR408918 bus1=BMT884239B.2,bus2=BMT174541648.2,Phases=1,Linecode=CAB102_3_1,Length=0.036693000,Units=km
new line.TR408925 bus1=BMT174541647.2,bus2=BMT884239B.2,Phases=1,Linecode=CAB102_3_1,Length=0.035740000,Units=km
new line.TR408932 bus1=BMT174541647.1.2.3,bus2=BMT906513B.1.2.3,Phases=3,Linecode=CAB103_3_3,Length=0.032577000,Units=km
new line.TR408939 bus1=BMT884253B.1.2.3,bus2=BMT174541647.1.2.3,Phases=3,Linecode=CAB103_3_3,Length=0.027517000,Units=km
new line.TR408946 bus1=BMT884260B.1.2.3,bus2=BMT884253B.1.2.3,Phases=3,Linecode=CAB103_3_3,Length=0.029415000,Units=km
new line.TR12182664 bus1=BMT174757961.1.2.3,bus2=BMT8781963B.1.2.3,Phases=3,Linecode=CAB104_3_3,Length=0.012371000,Units=km
new line.TR12182665 bus1=BMT911707B.1.2.3,bus2=BMT8781963B.1.2.3,Phases=3,Linecode=CAB104_3_3,Length=0.019650000,Units=km
new line.TR12395428 bus1=BMT883777B.1.2.3,bus2=BMT9001870B.1.2.3,Phases=3,Linecode=CABA06_3_3,Length=0.023090000,Units=km
new line.TR12395429 bus1=BMT9001870B.1.2.3,bus2=BMT176529822.1.2.3,Phases=3,Linecode=CABA06_3_3,Length=0.020618000,Units=km
new line.TR12395435 bus1=BMT176529822.1.2.3,bus2=BMT9001905B.1.2.3,Phases=3,Linecode=CABA06_3_3,Length=0.025063000,Units=km
new line.TR12395436 bus1=BMT9001905B.1.2.3,bus2=BMT9001909B.1.2.3,Phases=3,Linecode=CABA06_3_3,Length=0.023263000,Units=km
new line.TR12395452 bus1=BMT9001909B.1.2.3,bus2=BMT9001921B.1.2.3,Phases=3,Linecode=CABA06_3_3,Length=0.026911000,Units=km
new line.TR12395455 bus1=BMT9001921B.1.2.3,bus2=BMT176529824.1.2.3,Phases=3,Linecode=CABA06_3_3,Length=0.019419000,Units=km
new line.TR12395469 bus1=BMT176529824.1.2.3,bus2=BMT9001944B.1.2.3,Phases=3,Linecode=CABA06_3_3,Length=0.007072000,Units=km
new line.TR12395473 bus1=BMT9001944B.1.2.3,bus2=BMT9001951B.1.2.3,Phases=3,Linecode=CABA06_3_3,Length=0.028022000,Units=km
new line.TR12395475 bus1=BMT9001951B.1.2.3,bus2=BMT176529825.1.2.3,Phases=3,Linecode=CABA06_3_3,Length=0.036624000,Units=km
new line.TR12395531 bus1=BMT176529824.1.2.3,bus2=BMT9002006B.1.2.3,Phases=3,Linecode=CABA06_3_3,Length=0.027207000,Units=km
new line.TR12395533 bus1=BMT9002006B.1.2.3,bus2=BMT9002007B.1.2.3,Phases=3,Linecode=CABA06_3_3,Length=0.023025000,Units=km
new line.TR12395567 bus1=BMT9002007B.1.2.3,bus2=BMT9002055B.1.2.3,Phases=3,Linecode=CABA06_3_3,Length=0.029415000,Units=km
new line.TR12395575 bus1=BMT9002055B.1.2.3,bus2=BMT9002063B.1.2.3,Phases=3,Linecode=CABA06_3_3,Length=0.020812000,Units=km
new line.TR12395821 bus1=BMT9002063B.1.2.3,bus2=BMT9002067B.1.2.3,Phases=3,Linecode=CABA06_3_3,Length=0.006084000,Units=km
new line.TR12395822 bus1=BMT9002067B.1.2.3,bus2=BMT9002072B.1.2.3,Phases=3,Linecode=CABA06_3_3,Length=0.037448000,Units=km
new line.TR12395823 bus1=BMT9002072B.1.2.3,bus2=BMT9002074B.1.2.3,Phases=3,Linecode=CABA06_3_3,Length=0.035810000,Units=km
new line.TR12395824 bus1=BMT9002074B.1.2.3,bus2=BMT176529826.1.2.3,Phases=3,Linecode=CABA06_3_3,Length=0.035232000,Units=km
new line.TR12651851 bus1=BMT168464192.1,bus2=BMT883889B.1,Phases=1,Linecode=CABA06_3_1,Length=0.032577000,Units=km
new line.TR12651852 bus1=BMT883889B.1,bus2=BMT168464193.1,Phases=1,Linecode=CABA06_3_1,Length=0.033531000,Units=km
new line.TR12801649 bus1=BMT175392251.1.2.3,bus2=BMT880683B.1.2.3,Phases=3,Linecode=CABA06_3_3,Length=0.026023000,Units=km
new line.TR12801665 bus1=BMT880683B.1.2.3,bus2=BMT880690B.1.2.3,Phases=3,Linecode=CABA06_3_3,Length=0.022094000,Units=km
new line.TR12801670 bus1=BMT880690B.1.2.3,bus2=BMT886948B.1.2.3,Phases=3,Linecode=CABA06_3_3,Length=0.027078000,Units=km
new line.TR12801688 bus1=BMT886948B.1.2.3,bus2=BMT886941B.1.2.3,Phases=3,Linecode=CABA06_3_3,Length=0.025003000,Units=km
new line.TR12801689 bus1=BMT886941B.1.2.3,bus2=BMT175392270.1.2.3,Phases=3,Linecode=CABA06_3_3,Length=0.037126000,Units=km
new line.TR12851282 bus1=BMT911707B.1.2.3,bus2=BMT9442089B.1.2.3,Phases=3,Linecode=CAB104_3_3,Length=0.025965000,Units=km
new line.TR12851283 bus1=BMT9442089B.1.2.3,bus2=BMT156320326.1.2.3,Phases=3,Linecode=CAB104_3_3,Length=0.025302000,Units=km
new line.TR12855065 bus1=BMT176529815.1.2.3,bus2=BMT174851962.1.2.3,Phases=3,Linecode=CABA06_3_3,Length=0.024355000,Units=km
new line.TR12855114 bus1=BMT2918397B.1.2.3,bus2=BMT176529853.1.2.3,Phases=3,Linecode=CAB104_3_3,Length=0.021843000,Units=km
new line.TR12855115 bus1=BMT176529853.1.2.3,bus2=BMT2918404B.1.2.3,Phases=3,Linecode=CAB104_3_3,Length=0.049342000,Units=km
new line.TR12855118 bus1=BMT176529853.1.2.3,bus2=BMT176529854.1.2.3,Phases=3,Linecode=CABA06_3_3,Length=0.020884000,Units=km
new line.TR12855123 bus1=BMT176529853.1.2.3,bus2=BMT9437842B.1.2.3,Phases=3,Linecode=CAB104_3_3,Length=0.008248000,Units=km
new line.TR2343074 bus1=BMT3068288B.1.2.3,bus2=BMT156320472.1.2.3,Phases=3,Linecode=CAB103_3_3,Length=0.087469000,Units=km
new line.TR407266 bus1=BMT880284B.1.2.3,bus2=BMT174877090.1.2.3,Phases=3,Linecode=CAB103_3_3,Length=0.033140000,Units=km
new line.TR407273 bus1=BMT174877091.1.2.3,bus2=BMT880284B.1.2.3,Phases=3,Linecode=CAB103_3_3,Length=0.036129000,Units=km
new line.TR407280 bus1=BMT174877091.1.2.3,bus2=BMT174877092.1.2.3,Phases=3,Linecode=CAB102_3_3,Length=0.021935000,Units=km
new line.TR407287 bus1=BMT880298B.1.2.3,bus2=BMT174877091.1.2.3,Phases=3,Linecode=CAB103_3_3,Length=0.036129000,Units=km
new line.TR407294 bus1=BMT880305B.1.2.3,bus2=BMT880298B.1.2.3,Phases=3,Linecode=CAB103_3_3,Length=0.040316000,Units=km
new line.TR407301 bus1=BMT174477658.1.2.3,bus2=BMT174477657.1.2.3,Phases=3,Linecode=CAB103_3_3,Length=0.034137000,Units=km
new line.TR407308 bus1=BMT174477657.1.2.3,bus2=BMT174477656.1.2.3,Phases=3,Linecode=CAB103_3_3,Length=0.024190000,Units=km
new line.TR407315 bus1=BMT880375B.1.2.3,bus2=BMT156320327.1.2.3,Phases=3,Linecode=CAB104_3_3,Length=0.033246000,Units=km
new line.TR407322 bus1=BMT156320458.1,bus2=BMT880389B.1,Phases=1,Linecode=CAB102_3_1,Length=0.031004000,Units=km
new line.TR407329 bus1=BMT156320327.1.2.3,bus2=BMT880396B.1.2.3,Phases=3,Linecode=CAB104_3_3,Length=0.030680000,Units=km
new line.TR407336 bus1=BMT880389B.1,bus2=BMT881866B.1,Phases=1,Linecode=CAB102_3_1,Length=0.025083000,Units=km
new line.TR407343 bus1=BMT880396B.1.2.3,bus2=BMT174757962.1.2.3,Phases=3,Linecode=CAB104_3_3,Length=0.030368000,Units=km
new line.TR407350 bus1=BMT174757962.1.2.3,bus2=BMT880417B.1.2.3,Phases=3,Linecode=CAB104_3_3,Length=0.033246000,Units=km
new line.TR407357 bus1=BMT880417B.1.2.3,bus2=BMT880424B.1.2.3,Phases=3,Linecode=CAB104_3_3,Length=0.030368000,Units=km
new line.TR407364 bus1=BMT880424B.1.2.3,bus2=BMT880431B.1.2.3,Phases=3,Linecode=CAB104_3_3,Length=0.031325000,Units=km
new line.TR407371 bus1=BMT880431B.1.2.3,bus2=BMT174757963.1.2.3,Phases=3,Linecode=CAB104_3_3,Length=0.025635000,Units=km
new line.TR407378 bus1=BMT174757963.1.2.3,bus2=BMT174757964.1.2.3,Phases=3,Linecode=CAB104_3_3,Length=0.034486000,Units=km
new line.TR407385 bus1=BMT156320330.1.2.3,bus2=BMT170740222.1.2.3,Phases=3,Linecode=CAB104_3_3,Length=0.034210000,Units=km
new line.TR407392 bus1=BMT880473B.1.2.3,bus2=BMT173695130.1.2.3,Phases=3,Linecode=CAB102_3_3,Length=0.039817000,Units=km
new line.TR407399 bus1=BMT880480B.1.2.3,bus2=BMT880473B.1.2.3,Phases=3,Linecode=CAB102_3_3,Length=0.029550000,Units=km
new line.TR407406 bus1=BMT880487B.1.2.3,bus2=BMT880480B.1.2.3,Phases=3,Linecode=CAB102_3_3,Length=0.030467000,Units=km
new line.TR407413 bus1=BMT173695128.1.2.3,bus2=BMT880487B.1.2.3,Phases=3,Linecode=CAB102_3_3,Length=0.035782000,Units=km
new line.TR391481 bus1=BMT176529818.3,bus2=BMT176529820.3,Phases=1,Linecode=CAB102_3_1,Length=0.040810000,Units=km
new line.TR391488 bus1=BMT176529818.1.2.3,bus2=BMT846733B.1.2.3,Phases=3,Linecode=CABA06_3_3,Length=0.024045000,Units=km
new line.TR391495 bus1=BMT846733B.1.2.3,bus2=BMT883959B.1.2.3,Phases=3,Linecode=CABA06_3_3,Length=0.026252000,Units=km
new line.TR391502 bus1=BMT846754B.1.2.3,bus2=BMT176529818.1.2.3,Phases=3,Linecode=CAB103_3_3,Length=0.028164000,Units=km
new line.TR391509 bus1=BMT846761B.1.2.3,bus2=BMT846754B.1.2.3,Phases=3,Linecode=CAB103_3_3,Length=0.027517000,Units=km
new line.TR391516 bus1=BMT158088628.1.2.3,bus2=BMT883777B.1.2.3,Phases=3,Linecode=CABA06_3_3,Length=0.043972000,Units=km
new line.TR391523 bus1=BMT168464190.1,bus2=BMT883868B.1,Phases=1,Linecode=CAB102_3_1,Length=0.038606000,Units=km
new line.TR407693 bus1=BMT881005B.1.2.3,bus2=BMT156320454.1.2.3,Phases=3,Linecode=CAB104_3_3,Length=0.022094000,Units=km
new line.TR407700 bus1=BMT881012B.1.2.3,bus2=BMT170740228.1.2.3,Phases=3,Linecode=CAB104_3_3,Length=0.029415000,Units=km
new line.TR407777 bus1=BMT881187B.1.2.3,bus2=BMT156320455.1.2.3,Phases=3,Linecode=CAB102_3_3,Length=0.031389000,Units=km
new line.TR407784 bus1=BMT156320454.1.2.3,bus2=BMT881187B.1.2.3,Phases=3,Linecode=CAB102_3_3,Length=0.025635000,Units=km
new line.TR407791 bus1=BMT156320454.1.2.3,bus2=BMT881201B.1.2.3,Phases=3,Linecode=CAB102_3_3,Length=0.010772000,Units=km
new line.TR407798 bus1=BMT156320454.1.2.3,bus2=BMT156320456.1.2.3,Phases=3,Linecode=CAB104_3_3,Length=0.009057000,Units=km
new line.TR407805 bus1=BMT156320456.1.2.3,bus2=BMT881215B.1.2.3,Phases=3,Linecode=CAB102_3_3,Length=0.029159000,Units=km
new line.TR407812 bus1=BMT881215B.1.2.3,bus2=BMT888488B.1.2.3,Phases=3,Linecode=CAB102_3_3,Length=0.029004000,Units=km
new line.TR407819 bus1=BMT174877098.1.2.3,bus2=BMT174877105.1.2.3,Phases=3,Linecode=CAB102_3_3,Length=0.036005000,Units=km
new line.TR407826 bus1=BMT174877097.1.2.3,bus2=BMT174877098.1.2.3,Phases=3,Linecode=CAB102_3_3,Length=0.039056000,Units=km
new line.TR407833 bus1=BMT174877097.1.2.3,bus2=BMT881257B.1.2.3,Phases=3,Linecode=CAB102_3_3,Length=0.035019000,Units=km
new line.TR407840 bus1=BMT174877097.1.2.3,bus2=BMT881271B.1.2.3,Phases=3,Linecode=CAB102_3_3,Length=0.039056000,Units=km
new line.TR407847 bus1=BMT881257B.1.2.3,bus2=BMT881264B.1.2.3,Phases=3,Linecode=CAB102_3_3,Length=0.039018000,Units=km
new line.TR407854 bus1=BMT881264B.1.2.3,bus2=BMT882055B.1.2.3,Phases=3,Linecode=CAB102_3_3,Length=0.039120000,Units=km
new line.TR407861 bus1=BMT881271B.1.2.3,bus2=BMT881278B.1.2.3,Phases=3,Linecode=CAB102_3_3,Length=0.033065000,Units=km
new line.TR407868 bus1=BMT881278B.1.2.3,bus2=BMT174877100.1.2.3,Phases=3,Linecode=CAB102_3_3,Length=0.035004000,Units=km
new line.TR407875 bus1=BMT174877100.1.2.3,bus2=BMT174877101.1.2.3,Phases=3,Linecode=CAB102_3_3,Length=0.033140000,Units=km
new line.TR407882 bus1=BMT174877100.1.2.3,bus2=BMT881446B.1.2.3,Phases=3,Linecode=CAB103_3_3,Length=0.039056000,Units=km
new line.TR407889 bus1=BMT156320380.1.2.3,bus2=BMT175875288.1.2.3,Phases=3,Linecode=CABA08_3_3,Length=0.034063000,Units=km
new line.TR407896 bus1=BMT881327B.1.2.3,bus2=BMT174877097.1.2.3,Phases=3,Linecode=CAB102_3_3,Length=0.030071000,Units=km
new line.TR407903 bus1=BMT881334B.1.2.3,bus2=BMT881327B.1.2.3,Phases=3,Linecode=CAB102_3_3,Length=0.035019000,Units=km
new line.TR407910 bus1=BMT881341B.1.2.3,bus2=BMT881334B.1.2.3,Phases=3,Linecode=CAB102_3_3,Length=0.036018000,Units=km
new line.TR407917 bus1=BMT881348B.1.2.3,bus2=BMT881341B.1.2.3,Phases=3,Linecode=CAB102_3_3,Length=0.028022000,Units=km
new line.TR407924 bus1=BMT881390B.1.2.3,bus2=BMT156320387.1.2.3,Phases=3,Linecode=CAB102_3_3,Length=0.041200000,Units=km
new line.TR407931 bus1=BMT881425B.1.2.3,bus2=BMT881446B.1.2.3,Phases=3,Linecode=CAB103_3_3,Length=0.033019000,Units=km
new line.TR407938 bus1=BMT881432B.1.2.3,bus2=BMT881425B.1.2.3,Phases=3,Linecode=CAB103_3_3,Length=0.036060000,Units=km
new line.TR407945 bus1=BMT881474B.1.2.3,bus2=BMT171907702.1.2.3,Phases=3,Linecode=CAB102_3_3,Length=0.030418000,Units=km
new line.TR407952 bus1=BMT171907700.1.2.3,bus2=BMT881474B.1.2.3,Phases=3,Linecode=CAB102_3_3,Length=0.020028000,Units=km
new line.TR407959 bus1=BMT171907700.1.2.3,bus2=BMT881516B.1.2.3,Phases=3,Linecode=CAB102_3_3,Length=0.028288000,Units=km
new line.TR407966 bus1=BMT881509B.1.2.3,bus2=BMT171907700.1.2.3,Phases=3,Linecode=CAB102_3_3,Length=0.033004000,Units=km
new line.TR407973 bus1=BMT881516B.1.2.3,bus2=BMT881523B.1.2.3,Phases=3,Linecode=CAB102_3_3,Length=0.032020000,Units=km
new line.TR407980 bus1=BMT881523B.1.2.3,bus2=BMT171907703.1.2.3,Phases=3,Linecode=CAB102_3_3,Length=0.031020000,Units=km
new line.TR408008 bus1=BMT175875293.3,bus2=BMT175875294.3,Phases=1,Linecode=CABA06_3_1,Length=0.031020000,Units=km
new line.TR408015 bus1=BMT175875293.1.2.3,bus2=BMT881712B.1.2.3,Phases=3,Linecode=CABA06_3_3,Length=0.040005000,Units=km
new line.TR408043 bus1=BMT174757960.1.2.3,bus2=BMT911721B.1.2.3,Phases=3,Linecode=CAB104_3_3,Length=0.030087000,Units=km
new line.TR408050 bus1=BMT175875292.1.2.3,bus2=BMT175875293.1.2.3,Phases=3,Linecode=CABA06_3_3,Length=0.035019000,Units=km
new line.TR408057 bus1=BMT881810B.1.2.3,bus2=BMT174757961.1.2.3,Phases=3,Linecode=CAB104_3_3,Length=0.039855000,Units=km
new line.TR408071 bus1=BMT881859B.1,bus2=BMT156320459.1,Phases=1,Linecode=CAB102_3_1,Length=0.024355000,Units=km
new line.TR408078 bus1=BMT881866B.1,bus2=BMT881859B.1,Phases=1,Linecode=CAB102_3_1,Length=0.035852000,Units=km
new line.TR408085 bus1=BMT174877099.1.2.3,bus2=BMT174877103.1.2.3,Phases=3,Linecode=CAB102_3_3,Length=0.033004000,Units=km
new line.TR408092 bus1=BMT174877099.1.2.3,bus2=BMT882041B.1.2.3,Phases=3,Linecode=CAB102_3_3,Length=0.045050000,Units=km
new line.TR408099 bus1=BMT882041B.1.2.3,bus2=BMT882048B.1.2.3,Phases=3,Linecode=CAB102_3_3,Length=0.037018000,Units=km
new line.TR408106 bus1=BMT882048B.1.2.3,bus2=BMT911749B.1.2.3,Phases=3,Linecode=CAB102_3_3,Length=0.033019000,Units=km
new line.TR408113 bus1=BMT882055B.1.2.3,bus2=BMT174877099.1.2.3,Phases=3,Linecode=CAB102_3_3,Length=0.032020000,Units=km
new line.TR408120 bus1=BMT175875291.1.2.3,bus2=BMT175875296.1.2.3,Phases=3,Linecode=CABA08_3_3,Length=0.028306000,Units=km
new line.TR408127 bus1=BMT175875290.1.2.3,bus2=BMT175875291.1.2.3,Phases=3,Linecode=CABA08_3_3,Length=0.026080000,Units=km
new line.TR408134 bus1=BMT175875290.1.2.3,bus2=BMT882132B.1.2.3,Phases=3,Linecode=CABA08_3_3,Length=0.025023000,Units=km
new line.TR408148 bus1=BMT882132B.1.2.3,bus2=BMT882139B.1.2.3,Phases=3,Linecode=CABA08_3_3,Length=0.028075000,Units=km
new line.TR408155 bus1=BMT882139B.1.2.3,bus2=BMT882146B.1.2.3,Phases=3,Linecode=CABA08_3_3,Length=0.030071000,Units=km
new line.TR408162 bus1=BMT882146B.1.2.3,bus2=BMT882153B.1.2.3,Phases=3,Linecode=CABA08_3_3,Length=0.029073000,Units=km
new line.TR408169 bus1=BMT882153B.1.2.3,bus2=BMT882160B.1.2.3,Phases=3,Linecode=CABA08_3_3,Length=0.030071000,Units=km
new line.TR408176 bus1=BMT882160B.1.2.3,bus2=BMT882167B.1.2.3,Phases=3,Linecode=CABA08_3_3,Length=0.030071000,Units=km
new line.TR408183 bus1=BMT882167B.1.2.3,bus2=BMT175875292.1.2.3,Phases=3,Linecode=CABA08_3_3,Length=0.042112000,Units=km
new line.TR408197 bus1=BMT882174B.1.2.3,bus2=BMT882181B.1.2.3,Phases=3,Linecode=CABA06_3_3,Length=0.037595000,Units=km
new line.TR408204 bus1=BMT882181B.1.2.3,bus2=BMT175875297.1.2.3,Phases=3,Linecode=CABA06_3_3,Length=0.042959000,Units=km
new line.TR408218 bus1=BMT173621585.1.2.3,bus2=BMT156320445.1.2.3,Phases=3,Linecode=CAB102_3_3,Length=0.022026000,Units=km
new line.TR408225 bus1=BMT171887231.1.2.3,bus2=BMT882251B.1.2.3,Phases=3,Linecode=CAB103_3_3,Length=0.023198000,Units=km
new line.TR408239 bus1=BMT882251B.1.2.3,bus2=BMT171887232.1.2.3,Phases=3,Linecode=CAB103_3_3,Length=0.018030000,Units=km
new line.TR408246 bus1=BMT171887232.1.2.3,bus2=BMT171887233.1.2.3,Phases=3,Linecode=CABA06_3_3,Length=0.005001000,Units=km
new line.TR408274 bus1=BMT173695125.1.2.3,bus2=BMT173695126.1.2.3,Phases=3,Linecode=CAB102_3_3,Length=0.041054000,Units=km
new line.TR408281 bus1=BMT173695125.1.2.3,bus2=BMT882342B.1.2.3,Phases=3,Linecode=CAB102_3_3,Length=0.028288000,Units=km
new line.TR408288 bus1=BMT882342B.1.2.3,bus2=BMT882643B.1.2.3,Phases=3,Linecode=CAB102_3_3,Length=0.039324000,Units=km
new line.TR408295 bus1=BMT882356B.1.2.3,bus2=BMT173695125.1.2.3,Phases=3,Linecode=CAB102_3_3,Length=0.026176000,Units=km
new line.TR408302 bus1=BMT882363B.1.2.3,bus2=BMT882356B.1.2.3,Phases=3,Linecode=CAB102_3_3,Length=0.029278000,Units=km
new line.TR408309 bus1=BMT882370B.1.2.3,bus2=BMT882363B.1.2.3,Phases=3,Linecode=CAB102_3_3,Length=0.026309000,Units=km
new line.TR408316 bus1=BMT882447B.1.2.3,bus2=BMT174877102.1.2.3,Phases=3,Linecode=CAB103_3_3,Length=0.034019000,Units=km
new line.TR408323 bus1=BMT882447B.1.2.3,bus2=BMT882454B.1.2.3,Phases=3,Linecode=CAB103_3_3,Length=0.034063000,Units=km
new line.TR408330 bus1=BMT882454B.1.2.3,bus2=BMT882461B.1.2.3,Phases=3,Linecode=CAB103_3_3,Length=0.039056000,Units=km
new line.TR408337 bus1=BMT882461B.1.2.3,bus2=BMT881432B.1.2.3,Phases=3,Linecode=CAB103_3_3,Length=0.036060000,Units=km
new line.TR408344 bus1=BMT882608B.1.2.3,bus2=BMT171907704.1.2.3,Phases=3,Linecode=CAB102_3_3,Length=0.025183000,Units=km
new line.TR408351 bus1=BMT882615B.1.2.3,bus2=BMT882608B.1.2.3,Phases=3,Linecode=CAB102_3_3,Length=0.018030000,Units=km
new line.TR408358 bus1=BMT171907703.1.2.3,bus2=BMT882615B.1.2.3,Phases=3,Linecode=CAB102_3_3,Length=0.021380000,Units=km
new line.TR408365 bus1=BMT171907703.1.2.3,bus2=BMT882629B.1.2.3,Phases=3,Linecode=CAB102_3_3,Length=0.036679000,Units=km