! manter este comentario para compatibilidade do C#
new circuit.alimBIIU05 bus1=BMT156320314.1.2.3,basekv=13.800000000,pu=1.040000000

