new line.RML10041624 bus1=BBT1183384.1.2.0,bus2=RML1010041624.1.2.0,Phases=2,Linecode=CABBTG05_4_2,Length=0.02,Units=km
new line.RML10042411 bus1=BBT1183279.1.0,bus2=RML1010042411.1.0,Phases=1,Linecode=CABBTG01_4_1,Length=0.02,Units=km
new line.RML10071480 bus1=BBT1182040.1.0,bus2=RML1010071480.1.0,Phases=1,Linecode=CABBTG02_4_1,Length=0.02,Units=km
new line.RML10071483 bus1=BBT101214138.3.0,bus2=RML1010071483.3.0,Phases=1,Linecode=CABBTG01_4_1,Length=0.02,Units=km
new line.RML10073488 bus1=BBT174851094.1.2.0,bus2=RML1010073488.1.2.0,Phases=2,Linecode=CABBTG05_4_2,Length=0.023,Units=km
new line.RML10074959 bus1=BBT1184028.2.3.0,bus2=RML1010074959.2.3.0,Phases=2,Linecode=CABBTG05_4_2,Length=0.02,Units=km
new line.RML10074961 bus1=BBT1184063.2.3.0,bus2=RML1010074961.2.3.0,Phases=2,Linecode=CABBTG05_4_2,Length=0.02,Units=km
new line.RML10092639 bus1=BBT1180402.1.0,bus2=RML1010092639.1.0,Phases=1,Linecode=CABBTG01_4_1,Length=0.011,Units=km
new line.RML10141809 bus1=BBT1181844.1.0,bus2=RML1010141809.1.0,Phases=1,Linecode=CABBTG01_4_1,Length=0.02,Units=km
new line.RML10141823 bus1=BBT1180514.2.3.0,bus2=RML1010141823.2.3.0,Phases=2,Linecode=CABBTG05_4_2,Length=0.02,Units=km
new line.RML10142225 bus1=BBT1184231.2.3.0,bus2=RML1010142225.2.3.0,Phases=2,Linecode=CABBTG05_4_2,Length=0.02,Units=km
new line.RML10142728 bus1=BBT1184742.1.2.0,bus2=RML1010142728.1.2.0,Phases=2,Linecode=CABBTG05_4_2,Length=0.02,Units=km
new line.RML10142735 bus1=BBT1184315.2.0,bus2=RML1010142735.2.0,Phases=1,Linecode=CABBTG02_4_1,Length=0.02,Units=km
new line.RML10142742 bus1=BBT1189985.1.2.0,bus2=RML1010142742.1.2.0,Phases=2,Linecode=CABBTG05_4_2,Length=0.02,Units=km
new line.RML10142746 bus1=BBT1189922.2.3.0,bus2=RML1010142746.2.3.0,Phases=2,Linecode=CABBTG05_4_2,Length=0.02,Units=km
new line.RML10142752 bus1=BBT1187087.1.2.0,bus2=RML1010142752.1.2.0,Phases=2,Linecode=CABBTG05_4_2,Length=0.02,Units=km
new line.RML10142773 bus1=BBT1193366.1.2.3.0,bus2=RML1010142773.1.2.3.0,Phases=3,Linecode=CABBTG06_4_3,Length=0.02,Units=km
new line.RML10143202 bus1=BBT1183776.1.0,bus2=RML1010143202.1.0,Phases=1,Linecode=CABBTG01_4_1,Length=0.02,Units=km
new line.RML10143203 bus1=BBT1183776.2.0,bus2=RML1010143203.2.0,Phases=1,Linecode=CABBTG01_4_1,Length=0.02,Units=km
new line.RML10143780 bus1=BBT1183930.1.0,bus2=RML1010143780.1.0,Phases=1,Linecode=CABBTG01_4_1,Length=0.02,Units=km
new line.RML10202908 bus1=BBT1220323.1.0,bus2=RML1010202908.1.0,Phases=1,Linecode=CABBTG02_4_1,Length=0.02,Units=km
new line.RML10203954 bus1=BBT1184301.1.2.0,bus2=RML1010203954.1.2.0,Phases=2,Linecode=CABBTG05_4_2,Length=0.02,Units=km
new line.RML10203959 bus1=BBT1184112.1.0,bus2=RML1010203959.1.0,Phases=1,Linecode=CABBTG01_4_1,Length=0.02,Units=km
new line.RML10300542 bus1=BBT1181354.2.0,bus2=RML1010300542.2.0,Phases=1,Linecode=CABBTG02_4_1,Length=0.02,Units=km
new line.RML10300543 bus1=BBT1181354.2.0,bus2=RML1010300543.2.0,Phases=1,Linecode=CABBTG02_4_1,Length=0.02,Units=km
new line.RML10300544 bus1=BBT1181354.1.0,bus2=RML1010300544.1.0,Phases=1,Linecode=CABBTG02_4_1,Length=0.02,Units=km
new line.RML10337797 bus1=BBT1180864.1.0,bus2=RML1010337797.1.0,Phases=1,Linecode=CABBTG02_4_1,Length=0.02,Units=km
new line.RML10350135 bus1=BBT1181109.1.2.0,bus2=RML1010350135.1.2.0,Phases=2,Linecode=CABBTG05_4_2,Length=0.02,Units=km
new line.RML10350221 bus1=BBT1181109.1.2.0,bus2=RML1010350221.1.2.0,Phases=2,Linecode=CABBTG05_4_2,Length=0.02,Units=km
new line.RML10364766 bus1=BBT1181032.2.3.0,bus2=RML1010364766.2.3.0,Phases=2,Linecode=CABBTG05_4_2,Length=0.02,Units=km
new line.RML10364798 bus1=BBT1193177.1.2.0,bus2=RML1010364798.1.2.0,Phases=2,Linecode=CABBTG05_4_2,Length=0.02,Units=km
new line.RML10365044 bus1=BBT1186891.2.0,bus2=RML1010365044.2.0,Phases=1,Linecode=CABBTG02_4_1,Length=0.02,Units=km
new line.RML10365593 bus1=BBT1184504.2.0,bus2=RML1010365593.2.0,Phases=1,Linecode=CABBTG02_4_1,Length=0.02,Units=km
new line.RML10398538 bus1=BBT1182754.2.0,bus2=RML1010398538.2.0,Phases=1,Linecode=CABBTG02_4_1,Length=0.02,Units=km
new line.RML10398640 bus1=BBT1180668.2.3.0,bus2=RML1010398640.2.3.0,Phases=2,Linecode=CABBTG05_4_2,Length=0.02,Units=km
new line.RML10398805 bus1=BBT1182565.1.2.0,bus2=RML1010398805.1.2.0,Phases=2,Linecode=CABBTG05_4_2,Length=0.02,Units=km
new line.RML10398833 bus1=BBT1182397.1.0,bus2=RML1010398833.1.0,Phases=1,Linecode=CABBTG01_4_1,Length=0.02,Units=km
new line.RML10398834 bus1=BBT1182397.2.0,bus2=RML1010398834.2.0,Phases=1,Linecode=CABBTG01_4_1,Length=0.02,Units=km
new line.RML10416053 bus1=BBT1182838.1.0,bus2=RML1010416053.1.0,Phases=1,Linecode=CABBTG02_4_1,Length=0.02,Units=km
new line.RML10437311 bus1=BBT1189600.1.0,bus2=RML1010437311.1.0,Phases=1,Linecode=CABBTG02_4_1,Length=0.02,Units=km
new line.RML10437983 bus1=BBT1182838.2.0,bus2=RML1010437983.2.0,Phases=1,Linecode=CABBTG02_4_1,Length=0.02,Units=km
new line.RML10452375 bus1=BBT1183601.1.2.3.0,bus2=RML1010452375.1.2.3.0,Phases=3,Linecode=CABBTG06_4_3,Length=0.02,Units=km
new line.RML10452525 bus1=BBT1183762.1.0,bus2=RML1010452525.1.0,Phases=1,Linecode=CABBTG02_4_1,Length=0.02,Units=km
new line.RML10452555 bus1=BBT1180899.3.0,bus2=RML1010452555.3.0,Phases=1,Linecode=CABBTG02_4_1,Length=0.02,Units=km
new line.RML10480476 bus1=BBT1182824.3.0,bus2=RML1010480476.3.0,Phases=1,Linecode=CABBTG02_4_1,Length=0.02,Units=km
new line.RML10480498 bus1=BBT1181865.2.0,bus2=RML1010480498.2.0,Phases=1,Linecode=CABBTG01_4_1,Length=0.018,Units=km
new line.RML10500764 bus1=BBT1189614.3.0,bus2=RML1010500764.3.0,Phases=1,Linecode=CABBTG02_4_1,Length=0.02,Units=km
new line.RML10505390 bus1=BBT1220274.1.2.0,bus2=RML1010505390.1.2.0,Phases=2,Linecode=CABBTG05_4_2,Length=0.02,Units=km
new line.RML10505391 bus1=BBT1220274.1.0,bus2=RML1010505391.1.0,Phases=1,Linecode=CABBTG01_4_1,Length=0.02,Units=km
new line.RML10505393 bus1=BBT1220267.1.0,bus2=RML1010505393.1.0,Phases=1,Linecode=CABBTG02_4_1,Length=0.02,Units=km
new line.RML10506630 bus1=BBT1181928.1.0,bus2=RML1010506630.1.0,Phases=1,Linecode=CABBTG02_4_1,Length=0.02,Units=km
new line.RML10507091 bus1=BBT1211930.1.2.0,bus2=RML1010507091.1.2.0,Phases=2,Linecode=CABBTG05_4_2,Length=0.017,Units=km
new line.RML10547116 bus1=BBT1184707.2.0,bus2=RML1010547116.2.0,Phases=1,Linecode=CABBTG02_4_1,Length=0.018,Units=km
new line.RML10547333 bus1=BBT1193576.1.3.0,bus2=RML1010547333.1.3.0,Phases=2,Linecode=CABBTG04_4_2,Length=0.02,Units=km
new line.RML10547560 bus1=BBT1181319.1.0,bus2=RML1010547560.1.0,Phases=1,Linecode=CABBTG02_4_1,Length=0.021,Units=km
new line.RML10563609 bus1=BBT1183048.3.0,bus2=RML1010563609.3.0,Phases=1,Linecode=CABBTG02_4_1,Length=0.018,Units=km
new line.RML10640534 bus1=BBT1185792.2.3.0,bus2=RML1010640534.2.3.0,Phases=2,Linecode=CABBTG05_4_2,Length=0.015,Units=km
new line.RML10079767 bus1=BBT1193338.1.2.0,bus2=RML1010079767.1.2.0,Phases=2,Linecode=CABBTG05_4_2,Length=0.02,Units=km
new line.RML10134114 bus1=BBT1187164.1.0,bus2=RML1010134114.1.0,Phases=1,Linecode=CABBTG02_4_1,Length=0.02,Units=km
new line.RML10180500 bus1=BBT1183139.1.2.3.0,bus2=RML1010180500.1.2.3.0,Phases=3,Linecode=CABBTG06_4_3,Length=0.023,Units=km
new line.RML10180523 bus1=BBT1184483.1.0,bus2=RML1010180523.1.0,Phases=1,Linecode=CABBTG02_4_1,Length=0.033,Units=km
new line.RML10235482 bus1=BBT1182257.1.0,bus2=RML1010235482.1.0,Phases=1,Linecode=CABBTG02_4_1,Length=0.02,Units=km
new line.RML10235486 bus1=BBT1184931.1.0,bus2=RML1010235486.1.0,Phases=1,Linecode=CABBTG02_4_1,Length=0.02,Units=km
new line.RML10247180 bus1=BBT2801861.1.0,bus2=RML1010247180.1.0,Phases=1,Linecode=CABBTG02_4_1,Length=0.02,Units=km
new line.RML10247181 bus1=BBT1182026.1.0,bus2=RML1010247181.1.0,Phases=1,Linecode=CABBTG02_4_1,Length=0.02,Units=km
new line.RML10247187 bus1=BBT1184616.1.0,bus2=RML1010247187.1.0,Phases=1,Linecode=CABBTG02_4_1,Length=0.02,Units=km
new line.RML10311104 bus1=BBT1182390.1.0,bus2=RML1010311104.1.0,Phases=1,Linecode=CABBTG01_4_1,Length=0.02,Units=km
new line.RML10311112 bus1=BBT1182404.3.0,bus2=RML1010311112.3.0,Phases=1,Linecode=CABBTG01_4_1,Length=0.02,Units=km
new line.RML10312319 bus1=BBT1182404.2.0,bus2=RML1010312319.2.0,Phases=1,Linecode=CABBTG01_4_1,Length=0.02,Units=km
new line.RML10312323 bus1=BBT1182397.3.0,bus2=RML1010312323.3.0,Phases=1,Linecode=CABBTG01_4_1,Length=0.02,Units=km
new line.RML10312327 bus1=BBT1182397.2.0,bus2=RML1010312327.2.0,Phases=1,Linecode=CABBTG01_4_1,Length=0.02,Units=km
new line.RML10312329 bus1=BBT1182397.2.0,bus2=RML1010312329.2.0,Phases=1,Linecode=CABBTG01_4_1,Length=0.02,Units=km
new line.RML10312332 bus1=BBT1182390.2.0,bus2=RML1010312332.2.0,Phases=1,Linecode=CABBTG01_4_1,Length=0.02,Units=km
new line.RML10321647 bus1=BBT1180493.1.0,bus2=RML1010321647.1.0,Phases=1,Linecode=CABBTG02_4_1,Length=0.02,Units=km
new line.RML10321651 bus1=BBT1193205.1.2.0,bus2=RML1010321651.1.2.0,Phases=2,Linecode=CABBTG05_4_2,Length=0.02,Units=km
new line.RML10321749 bus1=BBT1182082.1.0,bus2=RML1010321749.1.0,Phases=1,Linecode=CABBTG02_4_1,Length=0.02,Units=km
new line.RML10369936 bus1=BBT1181109.1.2.0,bus2=RML1010369936.1.2.0,Phases=2,Linecode=CABBTG05_4_2,Length=0.02,Units=km
new line.RML10369942 bus1=BBT1181914.1.0,bus2=RML1010369942.1.0,Phases=1,Linecode=CABBTG02_4_1,Length=0.02,Units=km
new line.RML10386253 bus1=BBT1183979.1.2.0,bus2=RML1010386253.1.2.0,Phases=2,Linecode=CABBTG05_4_2,Length=0.02,Units=km
new line.RML10399758 bus1=BBT1182838.2.0,bus2=RML1010399758.2.0,Phases=1,Linecode=CABBTG02_4_1,Length=0.02,Units=km
new line.RML10419330 bus1=BBT1181452.1.2.0,bus2=RML1010419330.1.2.0,Phases=2,Linecode=CABBTG05_4_2,Length=0.02,Units=km
new line.RML10455495 bus1=BBT1182411.1.0,bus2=RML1010455495.1.0,Phases=1,Linecode=CABBTG02_4_1,Length=0.02,Units=km
new line.RML10455496 bus1=BBT1182327.1.0,bus2=RML1010455496.1.0,Phases=1,Linecode=CABBTG01_4_1,Length=0.02,Units=km
new line.RML10455498 bus1=BBT1182341.1.0,bus2=RML1010455498.1.0,Phases=1,Linecode=CABBTG02_4_1,Length=0.02,Units=km
new line.RML10455499 bus1=BBT1182348.2.0,bus2=RML1010455499.2.0,Phases=1,Linecode=CABBTG02_4_1,Length=0.024,Units=km
new line.RML10455500 bus1=BBT1182355.1.0,bus2=RML1010455500.1.0,Phases=1,Linecode=CABBTG02_4_1,Length=0.022,Units=km
new line.RML10455501 bus1=BBT1182355.1.0,bus2=RML1010455501.1.0,Phases=1,Linecode=CABBTG02_4_1,Length=0.023,Units=km
new line.RML10455504 bus1=BBT1182348.1.0,bus2=RML1010455504.1.0,Phases=1,Linecode=CABBTG02_4_1,Length=0.011,Units=km
new line.RML10455506 bus1=BBT1182348.1.0,bus2=RML1010455506.1.0,Phases=1,Linecode=CABBTG02_4_1,Length=0.025,Units=km
new line.RML10455509 bus1=BBT1182348.1.0,bus2=RML1010455509.1.0,Phases=1,Linecode=CABBTG02_4_1,Length=0.011,Units=km
new line.RML10457186 bus1=BBT1182635.3.0,bus2=RML1010457186.3.0,Phases=1,Linecode=CABBTG02_4_1,Length=0.021,Units=km
new line.RML10470502 bus1=BBT1184644.1.2.0,bus2=RML1010470502.1.2.0,Phases=2,Linecode=CABBTG05_4_2,Length=0.02,Units=km
new line.RML10494591 bus1=BBT1182257.1.0,bus2=RML1010494591.1.0,Phases=1,Linecode=CABBTG02_4_1,Length=0.02,Units=km
new line.RML10541559 bus1=BBT1193569.3.0,bus2=RML1010541559.3.0,Phases=1,Linecode=CABBTG02_4_1,Length=0.021,Units=km
new line.RML10541564 bus1=BBT1185099.1.0,bus2=RML1010541564.1.0,Phases=1,Linecode=CABBTG01_4_1,Length=0.018,Units=km
new line.RML10541579 bus1=BBT1183146.1.0,bus2=RML1010541579.1.0,Phases=1,Linecode=CABBTG02_4_1,Length=0.018,Units=km
new line.RML10542241 bus1=BBT1180892.1.0,bus2=RML1010542241.1.0,Phases=1,Linecode=CABBTG02_4_1,Length=0.02,Units=km
new line.RML10582358 bus1=BBT1183097.1.2.0,bus2=RML1010582358.1.2.0,Phases=2,Linecode=CABBTG05_4_2,Length=0.02,Units=km
new line.RML10582875 bus1=BBT1183006.1.0,bus2=RML1010582875.1.0,Phases=1,Linecode=CABBTG02_4_1,Length=0.02,Units=km
new line.RML10582877 bus1=BBT1183006.1.0,bus2=RML1010582877.1.0,Phases=1,Linecode=CABBTG02_4_1,Length=0.02,Units=km
new line.RML10583254 bus1=BBT1193429.1.0,bus2=RML1010583254.1.0,Phases=1,Linecode=CABBTG02_4_1,Length=0.02,Units=km
new line.RML10653338 bus1=BBT1181438.1.0,bus2=RML1010653338.1.0,Phases=1,Linecode=CABBTG02_4_1,Length=0.02,Units=km
new line.RML10653355 bus1=BBT1184483.1.0,bus2=RML1010653355.1.0,Phases=1,Linecode=CABBTG02_4_1,Length=0.033,Units=km
new line.RML10653368 bus1=BBT1184483.1.0,bus2=RML1010653368.1.0,Phases=1,Linecode=CABBTG02_4_1,Length=0.033,Units=km
new line.RML10653372 bus1=BBT1185092.1.2.0,bus2=RML1010653372.1.2.0,Phases=2,Linecode=CABBTG05_4_2,Length=0.02,Units=km
new line.RML10653407 bus1=BBT1184784.1.2.0,bus2=RML1010653407.1.2.0,Phases=2,Linecode=CABBTG05_4_2,Length=0.02,Units=km
new line.RML10653422 bus1=BBT2704778.1.0,bus2=RML1010653422.1.0,Phases=1,Linecode=CABBTG02_4_1,Length=0.02,Units=km
new line.RML10653560 bus1=BBT1180374.1.0,bus2=RML1010653560.1.0,Phases=1,Linecode=CABBTG02_4_1,Length=0.02,Units=km
new line.RML10653568 bus1=BBT1184483.1.0,bus2=RML1010653568.1.0,Phases=1,Linecode=CABBTG02_4_1,Length=0.033,Units=km
new line.RML10653606 bus1=BBT1184483.1.0,bus2=RML1010653606.1.0,Phases=1,Linecode=CABBTG02_4_1,Length=0.033,Units=km
new line.RML10653692 bus1=BBT158090401.1.0,bus2=RML1010653692.1.0,Phases=1,Linecode=CABBTG02_4_1,Length=0.02,Units=km
new line.RML10653695 bus1=BBT158090401.1.0,bus2=RML1010653695.1.0,Phases=1,Linecode=CABBTG02_4_1,Length=0.02,Units=km
new line.RML10653699 bus1=BBT1184483.1.0,bus2=RML1010653699.1.0,Phases=1,Linecode=CABBTG02_4_1,Length=0.033,Units=km
new line.RML10653701 bus1=BBT1184483.1.0,bus2=RML1010653701.1.0,Phases=1,Linecode=CABBTG02_4_1,Length=0.033,Units=km
new line.RML10653723 bus1=BBT158090401.1.0,bus2=RML1010653723.1.0,Phases=1,Linecode=CABBTG02_4_1,Length=0.02,Units=km
new line.RML10033419 bus1=BBT1211902.1.0,bus2=RML1010033419.1.0,Phases=1,Linecode=CABBTG01_4_1,Length=0.02,Units=km
new line.RML10033420 bus1=BBT1182852.3.0,bus2=RML1010033420.3.0,Phases=1,Linecode=CABBTG01_4_1,Length=0.02,Units=km
new line.RML10035029 bus1=BBT1183552.1.2.0,bus2=RML1010035029.1.2.0,Phases=2,Linecode=CABBTG04_4_2,Length=0.02,Units=km
new line.RML10115616 bus1=BBT1192911.2.0,bus2=RML1010115616.2.0,Phases=1,Linecode=CABBTG01_4_1,Length=0.02,Units=km
new line.RML10115690 bus1=BBT1180556.3.0,bus2=RML1010115690.3.0,Phases=1,Linecode=CABBTG02_4_1,Length=0.02,Units=km
new line.RML10148380 bus1=BBT1182565.2.3.0,bus2=RML1010148380.2.3.0,Phases=2,Linecode=CABBTG05_4_2,Length=0.02,Units=km
new line.RML10148414 bus1=BBT1183097.1.2.3.0,bus2=RML1010148414.1.2.3.0,Phases=3,Linecode=CABBTG06_4_3,Length=0.02,Units=km
new line.RML10157915 bus1=BBT1183419.1.2.3.0,bus2=RML1010157915.1.2.3.0,Phases=3,Linecode=CABBTG06_4_3,Length=0.02,Units=km
new line.RML10192391 bus1=BBT1182831.1.0,bus2=RML1010192391.1.0,Phases=1,Linecode=CABBTG02_4_1,Length=0.02,Units=km
new line.RML10192425 bus1=BBT1183279.1.2.0,bus2=RML1010192425.1.2.0,Phases=2,Linecode=CABBTG05_4_2,Length=0.02,Units=km
new line.RML10207481 bus1=BBT1181991.1.0,bus2=RML1010207481.1.0,Phases=1,Linecode=CABBTG01_4_1,Length=0.02,Units=km
new line.RML10220645 bus1=BBT150708101.1.2.3.0,bus2=RML1010220645.1.2.3.0,Phases=3,Linecode=CABBTG11_4_3,Length=0.02,Units=km
new line.RML10220646 bus1=BBT150708101.1.2.0,bus2=RML1010220646.1.2.0,Phases=2,Linecode=CABBTG05_4_2,Length=0.02,Units=km
new line.RML10220652 bus1=BBT150708101.1.2.0,bus2=RML1010220652.1.2.0,Phases=2,Linecode=CABBTG05_4_2,Length=0.02,Units=km
new line.RML10220670 bus1=BBT150708101.1.2.0,bus2=RML1010220670.1.2.0,Phases=2,Linecode=CABBTG05_4_2,Length=0.02,Units=km
new line.RML10220673 bus1=BBT150708101.1.2.0,bus2=RML1010220673.1.2.0,Phases=2,Linecode=CABBTG05_4_2,Length=0.02,Units=km
new line.RML10220676 bus1=BBT150708083.1.0,bus2=RML1010220676.1.0,Phases=1,Linecode=CABBTG02_4_1,Length=0.02,Units=km
new line.RML10220678 bus1=BBT150708101.1.2.0,bus2=RML1010220678.1.2.0,Phases=2,Linecode=CABBTG05_4_2,Length=0.02,Units=km
new line.RML10253596 bus1=BBT1181858.2.0,bus2=RML1010253596.2.0,Phases=1,Linecode=CABBTG01_4_1,Length=0.02,Units=km
new line.RML10263801 bus1=BBT1184371.1.0,bus2=RML1010263801.1.0,Phases=1,Linecode=CABBTG02_4_1,Length=0.02,Units=km
new line.RML10263811 bus1=BBT1181011.2.0,bus2=RML1010263811.2.0,Phases=1,Linecode=CABBTG02_4_1,Length=0.02,Units=km
new line.RML10319231 bus1=BBT1183097.1.0,bus2=RML1010319231.1.0,Phases=1,Linecode=CABBTG02_4_1,Length=0.02,Units=km
new line.RML10329433 bus1=BBT1182551.2.0,bus2=RML1010329433.2.0,Phases=1,Linecode=CABBTG02_4_1,Length=0.02,Units=km
new line.RML10342416 bus1=BBT1183867.1.0,bus2=RML1010342416.1.0,Phases=1,Linecode=CABBTG02_4_1,Length=0.02,Units=km
new line.RML10342419 bus1=BBT1183867.1.0,bus2=RML1010342419.1.0,Phases=1,Linecode=CABBTG02_4_1,Length=0.02,Units=km
new line.RML10343042 bus1=BBT1183867.1.0,bus2=RML1010343042.1.0,Phases=1,Linecode=CABBTG02_4_1,Length=0.02,Units=km
new line.RML10344150 bus1=BBT1180472.2.3.0,bus2=RML1010344150.2.3.0,Phases=2,Linecode=CABBTG05_4_2,Length=0.02,Units=km
new line.RML10360102 bus1=BBT150707891.1.2.3.0,bus2=RML1010360102.1.2.3.0,Phases=3,Linecode=CABBTG06_4_3,Length=0.02,Units=km
new line.RML10360888 bus1=BBT1192918.2.3.0,bus2=RML1010360888.2.3.0,Phases=2,Linecode=CABBTG05_4_2,Length=0.02,Units=km
new line.RML10361354 bus1=BBT1181949.2.0,bus2=RML1010361354.2.0,Phases=1,Linecode=CABBTG02_4_1,Length=0.02,Units=km
new line.RML10361413 bus1=BBT1182271.3.0,bus2=RML1010361413.3.0,Phases=1,Linecode=CABBTG02_4_1,Length=0.02,Units=km
new line.RML10377982 bus1=BBT1183930.3.0,bus2=RML1010377982.3.0,Phases=1,Linecode=CABBTG02_4_1,Length=0.02,Units=km
new line.RML10391495 bus1=BBT1180409.1.2.0,bus2=RML1010391495.1.2.0,Phases=2,Linecode=CABBTG05_4_2,Length=0.02,Units=km
new line.RML10393074 bus1=BBT1183139.1.2.3.0,bus2=RML1010393074.1.2.3.0,Phases=3,Linecode=CABBTG06_4_3,Length=0.02,Units=km
new line.RML10393853 bus1=BBT1183244.1.2.3.0,bus2=RML1010393853.1.2.3.0,Phases=3,Linecode=CABBTG11_4_3,Length=0.02,Units=km
new line.RML10413467 bus1=BBT1182747.3.0,bus2=RML1010413467.3.0,Phases=1,Linecode=CABBTG02_4_1,Length=0.02,Units=km
new line.RML10413615 bus1=BBT1181137.1.0,bus2=RML1010413615.1.0,Phases=1,Linecode=CABBTG02_4_1,Length=0.02,Units=km
new line.RML10449761 bus1=BBT1183762.1.0,bus2=RML1010449761.1.0,Phases=1,Linecode=CABBTG02_4_1,Length=0.02,Units=km
new line.RML10466880 bus1=BBT101214138.1.2.0,bus2=RML1010466880.1.2.0,Phases=2,Linecode=CABBTG05_4_2,Length=0.02,Units=km
new line.RML10466888 bus1=BBT1187101.1.0,bus2=RML1010466888.1.0,Phases=1,Linecode=CABBTG02_4_1,Length=0.02,Units=km
new line.RML10467344 bus1=BBT1183398.2.3.0,bus2=RML1010467344.2.3.0,Phases=2,Linecode=CABBTG05_4_2,Length=0.02,Units=km
new line.RML10482214 bus1=BBT1187101.1.0,bus2=RML1010482214.1.0,Phases=1,Linecode=CABBTG02_4_1,Length=0.02,Units=km
new line.RML10482358 bus1=BBT1193226.1.0,bus2=RML1010482358.1.0,Phases=1,Linecode=CABBTG02_4_1,Length=0.02,Units=km
new line.RML10514316 bus1=BBT1183671.1.0,bus2=RML1010514316.1.0,Phases=1,Linecode=CABBT802_4_1,Length=0.02,Units=km
new line.RML10515147 bus1=BBT1182250.2.3.0,bus2=RML1010515147.2.3.0,Phases=2,Linecode=CABBT811_4_2,Length=0.025,Units=km
new line.RML10515148 bus1=BBT1193492.1.0,bus2=RML1010515148.1.0,Phases=1,Linecode=CABBT802_4_1,Length=0.02,Units=km
new line.RML10516793 bus1=BBT1185099.3.0,bus2=RML1010516793.3.0,Phases=1,Linecode=CABBTG01_4_1,Length=0.014,Units=km
new line.RML10550743 bus1=BBT1180416.2.0,bus2=RML1010550743.2.0,Phases=1,Linecode=CABBTG02_4_1,Length=0.01,Units=km
new line.RML10551311 bus1=BBT2667699.1.2.0,bus2=RML1010551311.1.2.0,Phases=2,Linecode=CABBTG05_4_2,Length=0.016,Units=km
new line.RML10567496 bus1=BBT1180374.1.0,bus2=RML1010567496.1.0,Phases=1,Linecode=CABBTG01_4_1,Length=0.021,Units=km
new line.RML10592180 bus1=BBT1140873.1.0,bus2=RML1010592180.1.0,Phases=1,Linecode=CABBTG02_4_1,Length=0.02,Units=km
new line.RML10621120 bus1=BBT1183678.1.3.0,bus2=RML1010621120.1.3.0,Phases=2,Linecode=CABBTG05_4_2,Length=0.02,Units=km
new line.RML10660074 bus1=BBT1182404.1.0,bus2=RML1010660074.1.0,Phases=1,Linecode=CABBTG01_4_1,Length=0.02,Units=km
new line.RML10660084 bus1=BBT1181053.1.0,bus2=RML1010660084.1.0,Phases=1,Linecode=CABBTG02_4_1,Length=0.02,Units=km
new line.RML10660097 bus1=BBT1182362.1.0,bus2=RML1010660097.1.0,Phases=1,Linecode=CABBTG02_4_1,Length=0.02,Units=km
new line.RML10660116 bus1=BBT1186842.1.2.0,bus2=RML1010660116.1.2.0,Phases=2,Linecode=CABBTG04_4_2,Length=0.02,Units=km
new line.RML10697967 bus1=BBT1180871.1.3.0,bus2=RML1010697967.1.3.0,Phases=2,Linecode=CABBT811_4_2,Length=0.018,Units=km
new line.RML10653726 bus1=BBT158090401.1.0,bus2=RML1010653726.1.0,Phases=1,Linecode=CABBTG02_4_1,Length=0.02,Units=km
new line.RML10653728 bus1=BBT158090401.1.0,bus2=RML1010653728.1.0,Phases=1,Linecode=CABBTG02_4_1,Length=0.02,Units=km
new line.RML10653731 bus1=BBT158090401.1.0,bus2=RML1010653731.1.0,Phases=1,Linecode=CABBTG02_4_1,Length=0.02,Units=km
new line.RML10653735 bus1=BBT158090401.1.0,bus2=RML1010653735.1.0,Phases=1,Linecode=CABBTG02_4_1,Length=0.02,Units=km
new line.RML10653738 bus1=BBT158090401.1.0,bus2=RML1010653738.1.0,Phases=1,Linecode=CABBTG02_4_1,Length=0.02,Units=km
new line.RML10653743 bus1=BBT158090401.1.0,bus2=RML1010653743.1.0,Phases=1,Linecode=CABBTG02_4_1,Length=0.02,Units=km
new line.RML10653747 bus1=BBT158090401.1.0,bus2=RML1010653747.1.0,Phases=1,Linecode=CABBTG02_4_1,Length=0.02,Units=km
new line.RML10653749 bus1=BBT158090401.1.0,bus2=RML1010653749.1.0,Phases=1,Linecode=CABBTG02_4_1,Length=0.02,Units=km
new line.RML10653753 bus1=BBT158090401.1.0,bus2=RML1010653753.1.0,Phases=1,Linecode=CABBTG02_4_1,Length=0.02,Units=km
new line.RML10653757 bus1=BBT158090401.1.0,bus2=RML1010653757.1.0,Phases=1,Linecode=CABBTG02_4_1,Length=0.02,Units=km
new line.RML10653759 bus1=BBT158090401.1.0,bus2=RML1010653759.1.0,Phases=1,Linecode=CABBTG02_4_1,Length=0.02,Units=km
new line.RML10653761 bus1=BBT158090401.1.0,bus2=RML1010653761.1.0,Phases=1,Linecode=CABBTG02_4_1,Length=0.02,Units=km
new line.RML10653767 bus1=BBT158090401.1.0,bus2=RML1010653767.1.0,Phases=1,Linecode=CABBTG02_4_1,Length=0.02,Units=km
new line.RML10653770 bus1=BBT158090401.1.0,bus2=RML1010653770.1.0,Phases=1,Linecode=CABBTG02_4_1,Length=0.02,Units=km
new line.RML10653773 bus1=BBT158090401.1.0,bus2=RML1010653773.1.0,Phases=1,Linecode=CABBTG02_4_1,Length=0.02,Units=km
new line.RML10653776 bus1=BBT158090401.1.0,bus2=RML1010653776.1.0,Phases=1,Linecode=CABBTG02_4_1,Length=0.02,Units=km
new line.RML10653781 bus1=BBT158090401.1.0,bus2=RML1010653781.1.0,Phases=1,Linecode=CABBTG02_4_1,Length=0.02,Units=km
new line.RML10653782 bus1=BBT158090401.1.0,bus2=RML1010653782.1.0,Phases=1,Linecode=CABBTG02_4_1,Length=0.02,Units=km
new line.RML10653784 bus1=BBT158090401.1.0,bus2=RML1010653784.1.0,Phases=1,Linecode=CABBTG02_4_1,Length=0.02,Units=km
new line.RML10653786 bus1=BBT158090401.1.0,bus2=RML1010653786.1.0,Phases=1,Linecode=CABBTG02_4_1,Length=0.02,Units=km
new line.RML10653792 bus1=BBT158090401.1.0,bus2=RML1010653792.1.0,Phases=1,Linecode=CABBTG02_4_1,Length=0.02,Units=km
new line.RML10653794 bus1=BBT158090401.1.0,bus2=RML1010653794.1.0,Phases=1,Linecode=CABBTG02_4_1,Length=0.02,Units=km
new line.RML10653797 bus1=BBT158090401.1.0,bus2=RML1010653797.1.0,Phases=1,Linecode=CABBTG02_4_1,Length=0.02,Units=km
new line.RML10653973 bus1=BBT158091191.1.2.0,bus2=RML1010653973.1.2.0,Phases=2,Linecode=CABBTG05_4_2,Length=0.018,Units=km
new line.RML10702515 bus1=BBT1186905.2.0,bus2=RML1010702515.2.0,Phases=1,Linecode=CABBTG02_4_1,Length=0.023,Units=km
new line.RML10703451 bus1=BBT1183363.1.0,bus2=RML1010703451.1.0,Phases=1,Linecode=CABBTG02_4_1,Length=0.02,Units=km
new line.RML10717043 bus1=BBT1185764.1.0,bus2=RML1010717043.1.0,Phases=1,Linecode=CABBTG02_4_1,Length=0.009,Units=km
new line.RML10717063 bus1=BBT1183020.2.3.0,bus2=RML1010717063.2.3.0,Phases=2,Linecode=CABBTG05_4_2,Length=0.012,Units=km
new line.RML10717867 bus1=BBT1185050.1.2.3.0,bus2=RML1010717867.1.2.3.0,Phases=3,Linecode=CABBTG06_4_3,Length=0.02,Units=km
new line.RML10717961 bus1=BBT1181515.3.0,bus2=RML1010717961.3.0,Phases=1,Linecode=CABBTG02_4_1,Length=0.018,Units=km
new line.RML10719615 bus1=BBT1180472.3.0,bus2=RML1010719615.3.0,Phases=1,Linecode=CABBTG02_4_1,Length=0.013,Units=km
new line.RML10719685 bus1=BBT1180871.1.3.0,bus2=RML1010719685.1.3.0,Phases=2,Linecode=CABBTG05_4_2,Length=0.01,Units=km
new line.RML10719686 bus1=BBT1182726.3.0,bus2=RML1010719686.3.0,Phases=1,Linecode=CABBTG02_4_1,Length=0.017,Units=km
new line.RML10719773 bus1=BBT1180472.2.3.0,bus2=RML1010719773.2.3.0,Phases=2,Linecode=CABBTG05_4_2,Length=0.012,Units=km
new line.RML10719774 bus1=BBT1180563.1.0,bus2=RML1010719774.1.0,Phases=1,Linecode=CABBTG02_4_1,Length=0.02,Units=km
new line.RML10719810 bus1=BBT2667706.1.2.3.0,bus2=RML1010719810.1.2.3.0,Phases=3,Linecode=CABBTG06_4_3,Length=0.019,Units=km
new line.RML10720047 bus1=BBT1193401.1.2.3.0,bus2=RML1010720047.1.2.3.0,Phases=3,Linecode=CABBTG06_4_3,Length=0.02,Units=km
new line.RML10747414 bus1=BBT1183209.2.3.0,bus2=RML1010747414.2.3.0,Phases=2,Linecode=CABBTG05_4_2,Length=0.018,Units=km
new line.RML10747743 bus1=BBT1183209.1.2.3.0,bus2=RML1010747743.1.2.3.0,Phases=3,Linecode=CABBTG07_4_3,Length=0.018,Units=km
new line.RML10768748 bus1=BBT1181536.2.0,bus2=RML1010768748.2.0,Phases=1,Linecode=CABBTG02_4_1,Length=0.012,Units=km
new line.RML10768750 bus1=BBT1181536.3.0,bus2=RML1010768750.3.0,Phases=1,Linecode=CABBTG02_4_1,Length=0.019,Units=km
new line.RML10768752 bus1=BBT1181536.2.0,bus2=RML1010768752.2.0,Phases=1,Linecode=CABBTG02_4_1,Length=0.02,Units=km
new line.RML10788126 bus1=BBT1184343.2.0,bus2=RML1010788126.2.0,Phases=1,Linecode=CABBT802_4_1,Length=0.02,Units=km
new line.RML10895544 bus1=BBT1182782.1.0,bus2=RML1010895544.1.0,Phases=1,Linecode=CABBTG01_4_1,Length=0.02,Units=km
new line.RML10895547 bus1=BBT1181851.1.0,bus2=RML1010895547.1.0,Phases=1,Linecode=CABBTG01_4_1,Length=0.02,Units=km
new line.RML10906403 bus1=BBT1180773.3.0,bus2=RML1010906403.3.0,Phases=1,Linecode=CABBTG02_4_1,Length=0.023,Units=km
new line.RML10906421 bus1=BBT1193275.1.0,bus2=RML1010906421.1.0,Phases=1,Linecode=CABBTG02_4_1,Length=0.023,Units=km
new line.RML10906501 bus1=BBT1192932.1.2.0,bus2=RML1010906501.1.2.0,Phases=2,Linecode=CABBTG05_4_2,Length=0.023,Units=km
new line.RML10906554 bus1=BBT2596999.1.2.0,bus2=RML1010906554.1.2.0,Phases=2,Linecode=CABBTG05_4_2,Length=0.023,Units=km
new line.RML10906559 bus1=BBT1180367.3.0,bus2=RML1010906559.3.0,Phases=1,Linecode=CABBTG02_4_1,Length=0.023,Units=km
new line.RML10906568 bus1=BBT1187024.1.0,bus2=RML1010906568.1.0,Phases=1,Linecode=CABBTG02_4_1,Length=0.023,Units=km
new line.RML10906630 bus1=BBT1180598.1.2.0,bus2=RML1010906630.1.2.0,Phases=2,Linecode=CABBTG05_4_2,Length=0.023,Units=km
new line.RML10906674 bus1=BBT1187906.3.0,bus2=RML1010906674.3.0,Phases=1,Linecode=CABBTG02_4_1,Length=0.023,Units=km
new line.RML10906692 bus1=BBT1184133.1.0,bus2=RML1010906692.1.0,Phases=1,Linecode=CABBTG02_4_1,Length=0.023,Units=km
new line.RML10906696 bus1=BBT1183272.1.2.3.0,bus2=RML1010906696.1.2.3.0,Phases=3,Linecode=CABBTG06_4_3,Length=0.023,Units=km
new line.RML10906705 bus1=BBT1182817.1.2.3.0,bus2=RML1010906705.1.2.3.0,Phases=3,Linecode=CABBTG06_4_3,Length=0.02,Units=km
new line.RML10906712 bus1=BBT1182642.2.0,bus2=RML1010906712.2.0,Phases=1,Linecode=CABBTG02_4_1,Length=0.023,Units=km
new line.RML10657125 bus1=BBT1180941.2.0,bus2=RML1010657125.2.0,Phases=1,Linecode=CABBTG02_4_1,Length=0.02,Units=km
new line.RML10657516 bus1=BBT1181046.3.0,bus2=RML1010657516.3.0,Phases=1,Linecode=CABBTG02_4_1,Length=0.02,Units=km
new line.RML10683857 bus1=BBT1187906.1.2.3.0,bus2=RML1010683857.1.2.3.0,Phases=3,Linecode=CABBTG06_4_3,Length=0.02,Units=km
new line.RML10705402 bus1=BBT1184385.2.0,bus2=RML1010705402.2.0,Phases=1,Linecode=CABBTG02_4_1,Length=0.02,Units=km
new line.RML10705408 bus1=BBT1140894.2.0,bus2=RML1010705408.2.0,Phases=1,Linecode=CABBTG02_4_1,Length=0.02,Units=km
new line.RML10721096 bus1=BBT1193359.1.2.3.0,bus2=RML1010721096.1.2.3.0,Phases=3,Linecode=CABBTG06_4_3,Length=0.018,Units=km
new line.RML10721097 bus1=BBT1193359.1.2.0,bus2=RML1010721097.1.2.0,Phases=2,Linecode=CABBTG05_4_2,Length=0.018,Units=km
new line.RML10721184 bus1=BBT2809421.2.0,bus2=RML1010721184.2.0,Phases=1,Linecode=CABBTG02_4_1,Length=0.012,Units=km
new line.RML10721302 bus1=BBT1193359.1.2.0,bus2=RML1010721302.1.2.0,Phases=2,Linecode=CABBTG05_4_2,Length=0.018,Units=km
new line.RML10723508 bus1=BBT1140852.2.0,bus2=RML1010723508.2.0,Phases=1,Linecode=CABBTG02_4_1,Length=0.018,Units=km
new line.RML10738437 bus1=BBT1192960.1.2.3.0,bus2=RML1010738437.1.2.3.0,Phases=3,Linecode=CABBTG07_4_3,Length=0.018,Units=km
new line.RML10738438 bus1=BBT1192946.1.2.3.0,bus2=RML1010738438.1.2.3.0,Phases=3,Linecode=CABBTG07_4_3,Length=0.018,Units=km
new line.RML10756278 bus1=BBT1184105.1.2.0,bus2=RML1010756278.1.2.0,Phases=2,Linecode=CABBTG05_4_2,Length=0.019,Units=km
new line.RML10769354 bus1=BBT1182257.1.0,bus2=RML1010769354.1.0,Phases=1,Linecode=CABBTG02_4_1,Length=0.02,Units=km
new line.RML10808126 bus1=BBT1180472.1.0,bus2=RML1010808126.1.0,Phases=1,Linecode=CABBTG02_4_1,Length=0.02,Units=km
new line.RML10809089 bus1=BBT1187087.1.0,bus2=RML1010809089.1.0,Phases=1,Linecode=CABBTG02_4_1,Length=0.027,Units=km
new line.RML10809475 bus1=BBT1193023.1.2.0,bus2=RML1010809475.1.2.0,Phases=2,Linecode=CABBTG05_4_2,Length=0.02,Units=km
new line.RML10809477 bus1=BBT143553239.3.0,bus2=RML1010809477.3.0,Phases=1,Linecode=CABBTG02_4_1,Length=0.022,Units=km
new line.RML10809580 bus1=BBT1184112.1.2.0,bus2=RML1010809580.1.2.0,Phases=2,Linecode=CABBTG05_4_2,Length=0.012,Units=km
new line.RML10809617 bus1=BBT1185015.2.3.0,bus2=RML1010809617.2.3.0,Phases=2,Linecode=CABBTG05_4_2,Length=0.011,Units=km
new line.RML10809760 bus1=BBT1181536.3.0,bus2=RML1010809760.3.0,Phases=1,Linecode=CABBTG02_4_1,Length=0.026,Units=km
new line.RML10809782 bus1=BBT1180444.1.2.0,bus2=RML1010809782.1.2.0,Phases=2,Linecode=CABBTG05_4_2,Length=0.009,Units=km
new line.RML10809844 bus1=BBT1180605.1.0,bus2=RML1010809844.1.0,Phases=1,Linecode=CABBTG02_4_1,Length=0.014,Units=km
new line.RML10809885 bus1=BBT1180612.1.0,bus2=RML1010809885.1.0,Phases=1,Linecode=CABBTG02_4_1,Length=0.011,Units=km