new line.1102779 bus1=BBT167998004.1.2.3.0,bus2=BBT1180304.1.2.3.0,Phases=3,Linecode=BT108_BT108_7_3_1,Length=0.036129000,Units=km
new line.1102786 bus1=BBT1180325.1.2.3.0,bus2=BBT167998004.1.2.3.0,Phases=3,Linecode=BT108_BT108_7_3_1,Length=0.033140000,Units=km
new line.1102793 bus1=BBT1180304.1.2.3.0,bus2=BBT1180311.1.2.3.0,Phases=3,Linecode=BT108_BT108_7_3_1,Length=0.036129000,Units=km
new line.1102800 bus1=BBT1180311.1.2.3.0,bus2=BBT1180318.1.2.3.0,Phases=3,Linecode=BT108_BT108_7_3_1,Length=0.040316000,Units=km
new line.1102807 bus1=BBT1180332.1.2.3.0,bus2=BBT1180325.1.2.3.0,Phases=3,Linecode=BT108_BT108_7_3_1,Length=0.011047000,Units=km
new line.1102814 bus1=BBT1180339.1.2.3.0,bus2=BBT1180332.1.2.3.0,Phases=3,Linecode=BT108_BT108_7_3_1,Length=0.023090000,Units=km
new line.1102821 bus1=BBT1180332.1.2.3.0,bus2=BBT1180353.1.2.3.0,Phases=3,Linecode=BT107_BT107_7_3_1,Length=0.018030000,Units=km
new line.1102828 bus1=BBT1180332.1.2.3.0,bus2=BBT1180367.1.2.3.0,Phases=3,Linecode=BT107_BT107_7_3_1,Length=0.023413000,Units=km
new line.1102835 bus1=BBT1180339.1.2.3.0,bus2=BBT1180346.1.2.3.0,Phases=3,Linecode=BT108_BT108_7_3_1,Length=0.024190000,Units=km
new line.1102842 bus1=BBT1180353.1.2.3.0,bus2=BBT1180360.1.2.3.0,Phases=3,Linecode=BT107_BT107_7_3_1,Length=0.031389000,Units=km
new line.1102849 bus1=BBT1180367.1.2.3.0,bus2=BBT1180374.1.2.3.0,Phases=3,Linecode=BT107_BT107_7_3_1,Length=0.036405000,Units=km
new line.1102863 bus1=BBT5485374.1.2.3.0,bus2=BBT5485367.1.2.3.0,Phases=3,Linecode=BT810_BT810_4_3_4,Length=0.033246000,Units=km
new line.1102870 bus1=BBT5485374.1.2.3.0,bus2=BBT1180402.1.2.3.0,Phases=3,Linecode=BT810_BT810_4_3_4,Length=0.031004000,Units=km
new line.1102877 bus1=BBT1180409.1.2.3.0,bus2=BBT5485374.1.2.3.0,Phases=3,Linecode=BT803_BT803_4_3_4,Length=0.030680000,Units=km
new line.1102891 bus1=BBT1180416.1.2.3.0,bus2=BBT1180409.1.2.3.0,Phases=3,Linecode=BT803_BT803_4_3_4,Length=0.030368000,Units=km
new line.1102898 bus1=BBT1180395.1.2.3.0,bus2=BBT1180416.1.2.3.0,Phases=3,Linecode=BT513_BT513_7_3_1,Length=0.000501000,Units=km
new line.1102905 bus1=BBT1180416.1.2.3.0,bus2=BBT1180423.1.2.3.0,Phases=3,Linecode=BT803_BT803_4_3_4,Length=0.033246000,Units=km
new line.1102912 bus1=BBT1180423.1.2.3.0,bus2=BBT174851094.1.2.3.0,Phases=3,Linecode=BT803_BT803_4_3_4,Length=0.030368000,Units=km
new line.1102919 bus1=BBT1180423.1.2.3.0,bus2=BBT5485584.1.2.3.0,Phases=3,Linecode=BT810_BT810_4_3_4,Length=0.028022000,Units=km
new line.1102926 bus1=BBT174851094.1.2.3.0,bus2=BBT1180437.1.2.3.0,Phases=3,Linecode=BT803_BT803_4_3_4,Length=0.031325000,Units=km
new line.1102933 bus1=BBT1180437.1.2.3.0,bus2=BBT5485556.1.2.3.0,Phases=3,Linecode=BT810_BT810_4_3_4,Length=0.035360000,Units=km
new line.1102940 bus1=BBT1180437.1.2.3.0,bus2=BBT1180444.1.2.3.0,Phases=3,Linecode=BT810_BT810_4_3_4,Length=0.025635000,Units=km
new line.1102947 bus1=BBT1180444.1.2.3.0,bus2=BBT5485507.1.2.3.0,Phases=3,Linecode=BT810_BT810_4_3_4,Length=0.034486000,Units=km
new line.1102961 bus1=BBT1180465.1.2.3.0,bus2=BBT1180472.1.2.3.0,Phases=3,Linecode=BT509_BT509_7_3_1,Length=0.000501000,Units=km
new line.1102968 bus1=BBT1180472.1.2.3.0,bus2=BBT1180479.1.2.3.0,Phases=3,Linecode=BT108_BT107_7_3_1,Length=0.039817000,Units=km
new line.1102975 bus1=BBT1180472.1.2.3.0,bus2=BBT1180563.1.2.3.0,Phases=3,Linecode=BT108_BT107_7_3_1,Length=0.030875000,Units=km
new line.1102982 bus1=BBT1180479.1.2.3.0,bus2=BBT1180486.1.2.3.0,Phases=3,Linecode=BT108_BT107_7_3_1,Length=0.029550000,Units=km
new line.1102989 bus1=BBT1180479.1.2.3.0,bus2=BBT1180549.1.2.3.0,Phases=3,Linecode=BT107_BT106_7_3_1,Length=0.036679000,Units=km
new line.1102996 bus1=BBT1180479.1.2.3.0,bus2=BBT1180598.1.2.3.0,Phases=3,Linecode=BT107_BT106_7_3_1,Length=0.037648000,Units=km
new line.1103003 bus1=BBT1180486.1.2.3.0,bus2=BBT1180493.1.2.3.0,Phases=3,Linecode=BT107_BT106_7_3_1,Length=0.030467000,Units=km
new line.1103010 bus1=BBT1180493.1.2.3.0,bus2=BBT1180500.1.2.3.0,Phases=3,Linecode=BT107_BT106_7_3_1,Length=0.035782000,Units=km
new line.1103017 bus1=BBT1180500.1.2.3.0,bus2=BBT1180507.1.2.3.0,Phases=3,Linecode=BT107_BT106_7_3_1,Length=0.030875000,Units=km
new line.1103024 bus1=BBT1180500.1.2.3.0,bus2=BBT1180528.1.2.3.0,Phases=3,Linecode=BT107_BT106_7_3_1,Length=0.025083000,Units=km
new line.1103031 bus1=BBT1180500.1.2.3.0,bus2=BBT1180584.1.2.3.0,Phases=3,Linecode=BT107_BT106_7_3_1,Length=0.036060000,Units=km
new line.1103038 bus1=BBT1180507.1.2.3.0,bus2=BBT1180514.1.2.3.0,Phases=3,Linecode=BT107_BT106_7_3_1,Length=0.026404000,Units=km
new line.1103045 bus1=BBT1180514.1.2.3.0,bus2=BBT1180521.1.2.3.0,Phases=3,Linecode=BT107_BT106_7_3_1,Length=0.025498000,Units=km
new line.1103052 bus1=BBT1185778.1.2.3.0,bus2=BBT1185785.1.2.3.0,Phases=3,Linecode=BT803_BT803_4_3_4,Length=0.025321000,Units=km
new line.1103059 bus1=BBT1185778.1.2.3.0,bus2=BBT1185799.1.2.3.0,Phases=3,Linecode=BT803_BT803_4_3_4,Length=0.024334000,Units=km
new line.1103066 bus1=BBT1180528.1.2.3.0,bus2=BBT1180535.1.2.3.0,Phases=3,Linecode=BT107_BT106_7_3_1,Length=0.030467000,Units=km
new line.1103073 bus1=BBT1180535.1.2.3.0,bus2=BBT1180542.1.2.3.0,Phases=3,Linecode=BT107_BT106_7_3_1,Length=0.031309000,Units=km
new line.1103080 bus1=BBT1180549.1.2.3.0,bus2=BBT1180556.1.2.3.0,Phases=3,Linecode=BT107_BT106_7_3_1,Length=0.039362000,Units=km
new line.1103087 bus1=BBT1180563.1.2.3.0,bus2=BBT1180570.1.2.3.0,Phases=3,Linecode=BT107_BT106_7_3_1,Length=0.031245000,Units=km
new line.1103094 bus1=BBT1180570.1.2.3.0,bus2=BBT1180577.1.2.3.0,Phases=3,Linecode=BT107_BT106_7_3_1,Length=0.035118000,Units=km
new line.1103101 bus1=BBT1180584.1.2.3.0,bus2=BBT1180591.1.2.3.0,Phases=3,Linecode=BT107_BT106_7_3_1,Length=0.033246000,Units=km
new line.1103108 bus1=BBT1180591.1.2.3.0,bus2=BBT2805585.1.2.3.0,Phases=3,Linecode=BT107_BT106_7_3_1,Length=0.029158000,Units=km
new line.1103115 bus1=BBT1180598.1.2.3.0,bus2=BBT1180605.1.2.3.0,Phases=3,Linecode=BT107_BT106_7_3_1,Length=0.035004000,Units=km
new line.1103122 bus1=BBT1180605.1.2.3.0,bus2=BBT1180612.1.2.3.0,Phases=3,Linecode=BT107_BT106_7_3_1,Length=0.044660000,Units=km
new line.1103129 bus1=BBT1180605.1.2.3.0,bus2=BBT1180619.1.2.3.0,Phases=3,Linecode=BT107_BT106_7_3_1,Length=0.023025000,Units=km
new line.1103136 bus1=BBT1180619.1.2.3.0,bus2=BBT1180626.1.2.3.0,Phases=3,Linecode=BT107_BT106_7_3_1,Length=0.021544000,Units=km
new line.1103143 bus1=BBT1180633.1.2.3.0,bus2=BBT1180640.1.2.3.0,Phases=3,Linecode=BT513_BT513_7_3_1,Length=0.000501000,Units=km
new line.1103150 bus1=BBT1180640.1.2.3.0,bus2=BBT1180647.1.2.3.0,Phases=3,Linecode=BT803_BT803_4_3_4,Length=0.028004000,Units=km
new line.1103157 bus1=BBT1180640.1.2.3.0,bus2=BBT1180696.1.2.3.0,Phases=3,Linecode=BT803_BT803_4_3_4,Length=0.026023000,Units=km
new line.1103164 bus1=BBT1180647.1.2.3.0,bus2=BBT1180654.1.2.3.0,Phases=3,Linecode=BT803_BT803_4_3_4,Length=0.028164000,Units=km
new line.1103171 bus1=BBT1180654.1.2.3.0,bus2=BBT1180661.1.2.3.0,Phases=3,Linecode=BT803_BT803_4_3_4,Length=0.033140000,Units=km
new line.1103178 bus1=BBT1180654.1.2.3.0,bus2=BBT1180675.1.2.3.0,Phases=3,Linecode=BT803_BT803_4_3_4,Length=0.033019000,Units=km
new line.1103185 bus1=BBT1180654.1.2.3.0,bus2=BBT1180682.1.2.3.0,Phases=3,Linecode=BT803_BT803_4_3_4,Length=0.033140000,Units=km
new line.1103192 bus1=BBT1180661.1.2.3.0,bus2=BBT1180668.1.2.3.0,Phases=3,Linecode=BT803_BT803_4_3_4,Length=0.033246000,Units=km
new line.1103199 bus1=BBT1180682.1.2.3.0,bus2=BBT1180689.1.2.3.0,Phases=3,Linecode=BT803_BT803_4_3_4,Length=0.041200000,Units=km
new line.1103206 bus1=BBT1180696.1.2.3.0,bus2=BBT1180703.1.2.3.0,Phases=3,Linecode=BT803_BT803_4_3_4,Length=0.022094000,Units=km
new line.1103213 bus1=BBT1180696.1.2.3.0,bus2=BBT1180710.1.2.3.0,Phases=3,Linecode=BT803_BT803_4_3_4,Length=0.036129000,Units=km
new line.1103220 bus1=BBT1180696.1.2.3.0,bus2=BBT1180731.1.2.3.0,Phases=3,Linecode=BT803_BT803_4_3_4,Length=0.035360000,Units=km
new line.1103227 bus1=BBT1180710.1.2.3.0,bus2=BBT1180717.1.2.3.0,Phases=3,Linecode=BT803_BT803_4_3_4,Length=0.027170000,Units=km
new line.1103234 bus1=BBT1180717.1.2.3.0,bus2=BBT1180724.1.2.3.0,Phases=3,Linecode=BT803_BT803_4_3_4,Length=0.038215000,Units=km
new line.1103241 bus1=BBT1180731.1.2.3.0,bus2=BBT1180738.1.2.3.0,Phases=3,Linecode=BT803_BT803_4_3_4,Length=0.038215000,Units=km
new line.1103255 bus1=BBT1180759.1.2.3.0,bus2=BBT1180766.1.2.3.0,Phases=3,Linecode=BT508_BT508_7_3_1,Length=0.000501000,Units=km
new line.1103262 bus1=BBT1180766.1.2.3.0,bus2=BBT1180773.1.2.3.0,Phases=3,Linecode=BT108_BT107_7_3_1,Length=0.034019000,Units=km
new line.1103269 bus1=BBT1180766.1.2.3.0,bus2=BBT1180843.1.2.3.0,Phases=3,Linecode=BT108_BT107_7_3_1,Length=0.035062000,Units=km
new line.1103276 bus1=BBT1180773.1.2.3.0,bus2=BBT1180780.1.2.3.0,Phases=3,Linecode=BT107_BT106_7_3_1,Length=0.036060000,Units=km
new line.1103283 bus1=BBT1180780.1.2.3.0,bus2=BBT1180787.1.2.3.0,Phases=3,Linecode=BT107_BT106_7_3_1,Length=0.035062000,Units=km
new line.1103290 bus1=BBT1180780.1.2.3.0,bus2=BBT1180794.1.2.3.0,Phases=3,Linecode=BT107_BT106_7_3_1,Length=0.031020000,Units=km
new line.1103297 bus1=BBT1180780.1.2.3.0,bus2=BBT1180927.1.2.3.0,Phases=3,Linecode=BT107_BT106_7_3_1,Length=0.025083000,Units=km
new line.1103304 bus1=BBT1180794.1.2.3.0,bus2=BBT1180801.1.2.3.0,Phases=3,Linecode=BT107_BT106_7_3_1,Length=0.036129000,Units=km
new line.1103311 bus1=BBT1180801.1.2.3.0,bus2=BBT1180808.1.2.3.0,Phases=3,Linecode=BT107_BT106_7_3_1,Length=0.032020000,Units=km
new line.1103318 bus1=BBT1180801.1.2.3.0,bus2=BBT1180815.1.2.3.0,Phases=3,Linecode=BT107_BT106_7_3_1,Length=0.034019000,Units=km
new line.1103325 bus1=BBT1180801.1.2.3.0,bus2=BBT1180829.1.2.3.0,Phases=3,Linecode=BT107_BT106_7_3_1,Length=0.034530000,Units=km
new line.1103332 bus1=BBT1180815.1.2.3.0,bus2=BBT1180822.1.2.3.0,Phases=3,Linecode=BT107_BT106_7_3_1,Length=0.040117000,Units=km
new line.1103339 bus1=BBT1180829.1.2.3.0,bus2=BBT1180836.1.2.3.0,Phases=3,Linecode=BT107_BT106_7_3_1,Length=0.038644000,Units=km
new line.1103346 bus1=BBT1180843.1.2.3.0,bus2=BBT1180850.1.2.3.0,Phases=3,Linecode=BT107_BT106_7_3_1,Length=0.033065000,Units=km
new line.1103353 bus1=BBT1180850.1.2.3.0,bus2=BBT1180857.1.2.3.0,Phases=3,Linecode=BT107_BT106_7_3_1,Length=0.029278000,Units=km
new line.1103360 bus1=BBT1180850.1.2.3.0,bus2=BBT1180864.1.2.3.0,Phases=3,Linecode=BT107_BT106_7_3_1,Length=0.025023000,Units=km
new line.1103367 bus1=BBT1180850.1.2.3.0,bus2=BBT1180878.1.2.3.0,Phases=3,Linecode=BT107_BT106_7_3_1,Length=0.031020000,Units=km
new line.1103374 bus1=BBT1180864.1.2.3.0,bus2=BBT1180871.1.2.3.0,Phases=3,Linecode=BT107_BT106_7_3_1,Length=0.030004000,Units=km
new line.1103381 bus1=BBT1180878.1.2.3.0,bus2=BBT1180885.1.2.3.0,Phases=3,Linecode=BT107_BT106_7_3_1,Length=0.025023000,Units=km
new line.1103388 bus1=BBT1180885.1.2.3.0,bus2=BBT1180892.1.2.3.0,Phases=3,Linecode=BT107_BT106_7_3_1,Length=0.026003000,Units=km
new line.1103395 bus1=BBT1180885.1.2.3.0,bus2=BBT1180899.1.2.3.0,Phases=3,Linecode=BT107_BT106_7_3_1,Length=0.027004000,Units=km
new line.1103402 bus1=BBT1180885.1.2.3.0,bus2=BBT1180906.1.2.3.0,Phases=3,Linecode=BT107_BT106_7_3_1,Length=0.036018000,Units=km
new line.1103409 bus1=BBT1180906.1.2.3.0,bus2=BBT1180913.1.2.3.0,Phases=3,Linecode=BT107_BT106_7_3_1,Length=0.035004000,Units=km
new line.1103416 bus1=BBT1180913.1.2.3.0,bus2=BBT1180920.1.2.3.0,Phases=3,Linecode=BT107_BT106_7_3_1,Length=0.037018000,Units=km
new line.1103423 bus1=BBT1180920.1.2.3.0,bus2=BBT2804640.1.2.3.0,Phases=3,Linecode=BT107_BT106_7_3_1,Length=0.035019000,Units=km
new line.1103430 bus1=BBT1180927.1.2.3.0,bus2=BBT1180934.1.2.3.0,Phases=3,Linecode=BT107_BT106_7_3_1,Length=0.023198000,Units=km
new line.1103437 bus1=BBT1180934.1.2.3.0,bus2=BBT1180941.1.2.3.0,Phases=3,Linecode=BT107_BT106_7_3_1,Length=0.033019000,Units=km
new line.1103444 bus1=BBT1180934.1.2.3.0,bus2=BBT1180955.1.2.3.0,Phases=3,Linecode=BT107_BT106_7_3_1,Length=0.037126000,Units=km
new line.1103451 bus1=BBT1180941.1.2.3.0,bus2=BBT1180948.1.2.3.0,Phases=3,Linecode=BT107_BT106_7_3_1,Length=0.039018000,Units=km
new line.1103465 bus1=BBT1180976.1.2.3.0,bus2=BBT1180983.1.2.3.0,Phases=3,Linecode=BT518_BT518_7_3_1,Length=0.000501000,Units=km
new line.1103472 bus1=BBT1180983.1.2.3.0,bus2=BBT1180990.1.2.3.0,Phases=3,Linecode=BT803_BT803_4_3_4,Length=0.032577000,Units=km
new line.1103479 bus1=BBT1180983.1.2.3.0,bus2=BBT1181046.1.2.3.0,Phases=3,Linecode=BT803_BT803_4_3_4,Length=0.029124000,Units=km
new line.1103486 bus1=BBT1180990.1.2.3.0,bus2=BBT1180997.1.2.3.0,Phases=3,Linecode=BT803_BT803_4_3_4,Length=0.027207000,Units=km
new line.1103493 bus1=BBT1180997.1.2.3.0,bus2=BBT1181004.1.2.3.0,Phases=3,Linecode=BT803_BT803_4_3_4,Length=0.027517000,Units=km
new line.1103500 bus1=BBT1180997.1.2.3.0,bus2=BBT1181032.1.2.3.0,Phases=3,Linecode=BT803_BT803_4_3_4,Length=0.035232000,Units=km
new line.1103507 bus1=BBT1181004.1.2.3.0,bus2=BBT1181011.1.2.3.0,Phases=3,Linecode=BT803_BT803_4_3_4,Length=0.025302000,Units=km
new line.1103514 bus1=BBT1181011.1.2.3.0,bus2=BBT1181018.1.2.3.0,Phases=3,Linecode=BT803_BT803_4_3_4,Length=0.031052000,Units=km
new line.1103521 bus1=BBT3808160.1.2.3.0,bus2=BBT1181025.1.2.3.0,Phases=3,Linecode=BT810_BT810_4_3_4,Length=0.033065000,Units=km
new line.1103535 bus1=BBT1181032.1.2.3.0,bus2=BBT1181039.1.2.3.0,Phases=3,Linecode=BT803_BT803_4_3_4,Length=0.032144000,Units=km
new line.1103542 bus1=BBT1181046.1.2.3.0,bus2=BBT2803814.1.2.3.0,Phases=3,Linecode=BT803_BT803_4_3_4,Length=0.029415000,Units=km
new line.1103549 bus1=BBT1181053.1.2.3.0,bus2=BBT1181060.1.2.3.0,Phases=3,Linecode=BT803_BT803_4_3_4,Length=0.034486000,Units=km
new line.1103556 bus1=BBT1181060.1.2.3.0,bus2=BBT1181067.1.2.3.0,Phases=3,Linecode=BT803_BT803_4_3_4,Length=0.022026000,Units=km
new line.1103563 bus1=BBT1181060.1.2.3.0,bus2=BBT1181102.1.2.3.0,Phases=3,Linecode=BT803_BT803_4_3_4,Length=0.034063000,Units=km
new line.1103577 bus1=BBT1181067.1.2.3.0,bus2=BBT1181130.1.2.3.0,Phases=3,Linecode=BT809_BT809_4_3_4,Length=0.045283000,Units=km
new line.1103612 bus1=BBT1181102.1.2.3.0,bus2=BBT1181109.1.2.3.0,Phases=3,Linecode=BT803_BT803_4_3_4,Length=0.034136000,Units=km
new line.1103619 bus1=BBT1181109.1.2.3.0,bus2=BBT1181116.1.2.3.0,Phases=3,Linecode=BT803_BT803_4_3_4,Length=0.032020000,Units=km
new line.1103626 bus1=BBT1181116.1.2.3.0,bus2=BBT1181123.1.2.3.0,Phases=3,Linecode=BT803_BT803_4_3_4,Length=0.028447000,Units=km
new line.1103640 bus1=BBT1181130.1.2.3.0,bus2=BBT1181137.1.2.3.0,Phases=3,Linecode=BT809_BT809_4_3_4,Length=0.036060000,Units=km
new line.1103675 bus1=BBT1181186.1.2.3.0,bus2=BBT1181193.1.2.3.0,Phases=3,Linecode=BT106_BT106_7_3_1,Length=0.019238000,Units=km
new line.1103682 bus1=BBT1181186.1.2.3.0,bus2=BBT1181200.1.2.3.0,Phases=3,Linecode=BT106_BT106_7_3_1,Length=0.014038000,Units=km
new line.1103689 bus1=BBT1181179.1.2.3.0,bus2=BBT1181207.1.2.3.0,Phases=3,Linecode=BT508_BT508_7_3_1,Length=0.000501000,Units=km
new line.1103696 bus1=BBT1181207.1.2.3.0,bus2=BBT1181214.1.2.3.0,Phases=3,Linecode=BT108_BT107_7_3_1,Length=0.028796000,Units=km
new line.1103703 bus1=BBT1181207.1.2.3.0,bus2=BBT1181242.1.2.3.0,Phases=3,Linecode=BT108_BT107_7_3_1,Length=0.031389000,Units=km
new line.1103710 bus1=BBT1181214.1.2.3.0,bus2=BBT1181221.1.2.3.0,Phases=3,Linecode=BT106_BT106_7_3_1,Length=0.031957000,Units=km
new line.1103717 bus1=BBT1181221.1.2.0,bus2=BBT1181228.1.2.0,Phases=2,Linecode=BT106_BT106_7_2_1,Length=0.032898000,Units=km
new line.1103724 bus1=BBT1181228.1.2.0,bus2=BBT1181235.1.2.0,Phases=2,Linecode=BT106_BT106_7_2_1,Length=0.031389000,Units=km
new line.1103731 bus1=BBT1181242.1.2.3.0,bus2=BBT1181249.1.2.3.0,Phases=3,Linecode=BT108_BT107_7_3_1,Length=0.025635000,Units=km
new line.1103738 bus1=BBT1181249.1.2.3.0,bus2=BBT1181277.1.2.3.0,Phases=3,Linecode=BT106_BT106_7_3_1,Length=0.022094000,Units=km
new line.1103745 bus1=BBT1181249.1.2.3.0,bus2=BBT1181256.1.2.3.0,Phases=3,Linecode=BT108_BT107_7_3_1,Length=0.010772000,Units=km
new line.1103752 bus1=BBT1181249.1.2.3.0,bus2=BBT1181263.1.2.3.0,Phases=3,Linecode=BT106_BT106_7_3_1,Length=0.009057000,Units=km
new line.1103759 bus1=BBT1181256.1.2.3.0,bus2=BBT1181284.1.2.3.0,Phases=3,Linecode=BT107_BT106_7_3_1,Length=0.033842000,Units=km
new line.1103766 bus1=BBT1181263.1.2.3.0,bus2=BBT1181270.1.2.3.0,Phases=3,Linecode=BT106_BT106_7_3_1,Length=0.029159000,Units=km
new line.1103773 bus1=BBT1181284.1.2.3.0,bus2=BBT1181291.1.2.3.0,Phases=3,Linecode=BT107_BT106_7_3_1,Length=0.031957000,Units=km
new line.1103780 bus1=BBT1181291.1.2.3.0,bus2=BBT1181186.1.2.3.0,Phases=3,Linecode=BT107_BT106_7_3_1,Length=0.010442000,Units=km
new line.1103794 bus1=BBT1181312.1.2.3.0,bus2=BBT1181319.1.2.3.0,Phases=3,Linecode=BT508_BT508_7_3_1,Length=0.000501000,Units=km
new line.1103801 bus1=BBT1181319.1.2.3.0,bus2=BBT1181326.1.2.3.0,Phases=3,Linecode=BT108_BT107_7_3_1,Length=0.039056000,Units=km
new line.1103808 bus1=BBT1181319.1.2.3.0,bus2=BBT1181438.1.2.3.0,Phases=3,Linecode=BT108_BT107_7_3_1,Length=0.036005000,Units=km
new line.1103815 bus1=BBT1181326.1.2.3.0,bus2=BBT1181333.1.2.3.0,Phases=3,Linecode=BT107_BT106_7_3_1,Length=0.035019000,Units=km
new line.1103822 bus1=BBT1181326.1.2.3.0,bus2=BBT1181347.1.2.3.0,Phases=3,Linecode=BT107_BT106_7_3_1,Length=0.039056000,Units=km
new line.1103829 bus1=BBT1181326.1.2.3.0,bus2=BBT1181403.1.2.3.0,Phases=3,Linecode=BT107_BT106_7_3_1,Length=0.030071000,Units=km
new line.1103836 bus1=BBT1181333.1.2.3.0,bus2=BBT1181340.1.2.3.0,Phases=3,Linecode=BT107_BT106_7_3_1,Length=0.039018000,Units=km
new line.1103843 bus1=BBT1181347.1.2.3.0,bus2=BBT1181354.1.2.3.0,Phases=3,Linecode=BT107_BT106_7_3_1,Length=0.033065000,Units=km
new line.1103850 bus1=BBT1181347.1.2.3.0,bus2=BBT1181389.1.2.3.0,Phases=3,Linecode=BT107_BT106_7_3_1,Length=0.029021000,Units=km
new line.1103857 bus1=BBT1181354.1.2.3.0,bus2=BBT1181361.1.2.3.0,Phases=3,Linecode=BT107_BT106_7_3_1,Length=0.035004000,Units=km
new line.1103864 bus1=BBT1181361.1.2.3.0,bus2=BBT1181368.1.2.3.0,Phases=3,Linecode=BT107_BT106_7_3_1,Length=0.033140000,Units=km
new line.1103871 bus1=BBT1181361.1.2.3.0,bus2=BBT1181375.1.2.3.0,Phases=3,Linecode=BT107_BT106_7_3_1,Length=0.032067000,Units=km
new line.1103878 bus1=BBT1181375.1.2.3.0,bus2=BBT1181382.1.2.3.0,Phases=3,Linecode=BT107_BT106_7_3_1,Length=0.033019000,Units=km
new line.1103885 bus1=BBT1181389.1.2.3.0,bus2=BBT1181396.1.2.3.0,Phases=3,Linecode=BT107_BT106_7_3_1,Length=0.041017000,Units=km
new line.1103892 bus1=BBT1181403.1.2.3.0,bus2=BBT1181410.1.2.3.0,Phases=3,Linecode=BT107_BT106_7_3_1,Length=0.035019000,Units=km
new line.1103899 bus1=BBT1181410.1.2.3.0,bus2=BBT1181417.1.2.3.0,Phases=3,Linecode=BT107_BT106_7_3_1,Length=0.036018000,Units=km
new line.1103906 bus1=BBT1181410.2.0,bus2=BBT1181431.2.0,Phases=1,Linecode=BT107_BT106_7_1_1,Length=0.040117000,Units=km
new line.1103913 bus1=BBT1181417.1.2.3.0,bus2=BBT1181424.1.2.3.0,Phases=3,Linecode=BT107_BT106_7_3_1,Length=0.028022000,Units=km
new line.1103920 bus1=BBT1181438.1.2.3.0,bus2=BBT1181445.1.2.3.0,Phases=3,Linecode=BT107_BT106_7_3_1,Length=0.033065000,Units=km
new line.1103927 bus1=BBT1181438.1.2.3.0,bus2=BBT1181473.1.2.3.0,Phases=3,Linecode=BT107_BT106_7_3_1,Length=0.041200000,Units=km
new line.1103934 bus1=BBT1181438.1.2.3.0,bus2=BBT1181487.1.2.3.0,Phases=3,Linecode=BT107_BT106_7_3_1,Length=0.022003000,Units=km
new line.1103941 bus1=BBT1181445.1.2.3.0,bus2=BBT1181452.1.2.3.0,Phases=3,Linecode=BT107_BT106_7_3_1,Length=0.033019000,Units=km
new line.1103948 bus1=BBT1181452.1.2.3.0,bus2=BBT1181466.1.2.3.0,Phases=3,Linecode=BT107_BT106_7_3_1,Length=0.041200000,Units=km
new line.1103955 bus1=BBT1181452.1.2.3.0,bus2=BBT1181459.1.2.3.0,Phases=3,Linecode=BT107_BT106_7_3_1,Length=0.038018000,Units=km
new line.1103962 bus1=BBT1181459.1.2.3.0,bus2=BBT2803107.1.2.3.0,Phases=3,Linecode=BT107_BT106_7_3_1,Length=0.035062000,Units=km
new line.1103969 bus1=BBT1181473.1.2.3.0,bus2=BBT1181480.1.2.3.0,Phases=3,Linecode=BT107_BT106_7_3_1,Length=0.036018000,Units=km
new line.1103976 bus1=BBT1181487.1.2.3.0,bus2=BBT1181494.1.2.3.0,Phases=3,Linecode=BT107_BT106_7_3_1,Length=0.019108000,Units=km
new line.1103983 bus1=BBT1181494.1.2.3.0,bus2=BBT1181508.1.2.3.0,Phases=3,Linecode=BT107_BT106_7_3_1,Length=0.037005000,Units=km
new line.1103990 bus1=BBT1181494.1.2.3.0,bus2=BBT1181501.1.2.3.0,Phases=3,Linecode=BT107_BT106_7_3_1,Length=0.031020000,Units=km
new line.1103997 bus1=BBT1181494.1.2.3.0,bus2=BBT1181515.1.2.3.0,Phases=3,Linecode=BT107_BT106_7_3_1,Length=0.034019000,Units=km
new line.1104004 bus1=BBT1181501.1.2.3.0,bus2=BBT2804647.1.2.3.0,Phases=3,Linecode=BT107_BT106_7_3_1,Length=0.044017000,Units=km
new line.1104011 bus1=BBT1181515.1.2.3.0,bus2=BBT1181522.1.2.3.0,Phases=3,Linecode=BT107_BT106_7_3_1,Length=0.037220000,Units=km
new line.1104018 bus1=BBT1181522.1.2.3.0,bus2=BBT1181529.1.2.3.0,Phases=3,Linecode=BT107_BT106_7_3_1,Length=0.036060000,Units=km
new line.1104025 bus1=BBT1181522.1.2.3.0,bus2=BBT1181536.1.2.3.0,Phases=3,Linecode=BT107_BT106_7_3_1,Length=0.035062000,Units=km
new line.1104032 bus1=BBT1181522.1.2.3.0,bus2=BBT1181543.1.2.3.0,Phases=3,Linecode=BT107_BT106_7_3_1,Length=0.033019000,Units=km
new line.1104039 bus1=BBT1181543.1.2.3.0,bus2=BBT2804717.1.2.3.0,Phases=3,Linecode=BT107_BT106_7_3_1,Length=0.039056000,Units=km
new line.1104046 bus1=BBT1181550.1.2.3.0,bus2=BBT1181557.1.2.3.0,Phases=3,Linecode=BT513_BT513_7_3_1,Length=0.000501000,Units=km
new line.1104067 bus1=BBT1181578.1.2.3.0,bus2=BBT1181585.1.2.3.0,Phases=3,Linecode=BT513_BT513_7_3_1,Length=0.000501000,Units=km
new line.1104074 bus1=BBT1181585.1.2.3.0,bus2=BBT1181592.1.2.3.0,Phases=3,Linecode=BT108_BT107_7_3_1,Length=0.030418000,Units=km
new line.1104081 bus1=BBT1181585.1.2.3.0,bus2=BBT1181655.1.2.3.0,Phases=3,Linecode=BT108_BT107_7_3_1,Length=0.032144000,Units=km
new line.1104088 bus1=BBT1181592.1.2.3.0,bus2=BBT1181599.1.2.3.0,Phases=3,Linecode=BT108_BT107_7_3_1,Length=0.020028000,Units=km
new line.1104095 bus1=BBT1181599.1.2.3.0,bus2=BBT1181606.1.2.3.0,Phases=3,Linecode=BT108_BT107_7_3_1,Length=0.034019000,Units=km
new line.1104102 bus1=BBT1181599.1.2.3.0,bus2=BBT1181634.1.2.3.0,Phases=3,Linecode=BT108_BT107_7_3_1,Length=0.033004000,Units=km
new line.1104109 bus1=BBT1181599.1.2.3.0,bus2=BBT1181641.1.2.3.0,Phases=3,Linecode=BT108_BT107_7_3_1,Length=0.028288000,Units=km
new line.1104116 bus1=BBT1181606.1.2.3.0,bus2=BBT1181613.1.2.3.0,Phases=3,Linecode=BT107_BT106_7_3_1,Length=0.034019000,Units=km
new line.1104123 bus1=BBT1181613.1.2.3.0,bus2=BBT1181620.1.2.3.0,Phases=3,Linecode=BT107_BT106_7_3_1,Length=0.036005000,Units=km
new line.1104130 bus1=BBT1181620.1.2.3.0,bus2=BBT1181627.1.2.3.0,Phases=3,Linecode=BT107_BT106_7_3_1,Length=0.035004000,Units=km
new line.1104137 bus1=BBT1181641.1.2.3.0,bus2=BBT1181648.1.2.3.0,Phases=3,Linecode=BT108_BT107_7_3_1,Length=0.032020000,Units=km
new line.1104144 bus1=BBT1181655.1.2.3.0,bus2=BBT1181662.1.2.3.0,Phases=3,Linecode=BT108_BT107_7_3_1,Length=0.036350000,Units=km
new line.1104151 bus1=BBT1181662.1.2.3.0,bus2=BBT1181669.1.2.3.0,Phases=3,Linecode=BT108_BT107_7_3_1,Length=0.027170000,Units=km
new line.1104158 bus1=BBT1181669.1.2.3.0,bus2=BBT1181676.1.2.3.0,Phases=3,Linecode=BT107_BT106_7_3_1,Length=0.029021000,Units=km
new line.1104165 bus1=BBT1181676.1.2.3.0,bus2=BBT1181683.1.2.3.0,Phases=3,Linecode=BT107_BT106_7_3_1,Length=0.032020000,Units=km
new line.1104172 bus1=BBT1181676.1.2.3.0,bus2=BBT1181690.1.2.3.0,Phases=3,Linecode=BT107_BT106_7_3_1,Length=0.029021000,Units=km
new line.1104319 bus1=BBT1181830.1.2.0,bus2=BBT1181837.1.2.0,Phases=2,Linecode=BT508_BT508_7_2_1,Length=0.000501000,Units=km
new line.1104326 bus1=BBT1181837.1.2.0,bus2=BBT1181844.1.2.0,Phases=2,Linecode=BT807_BT807_4_2_3,Length=0.031020000,Units=km
new line.1104333 bus1=BBT1181837.1.2.0,bus2=BBT1181900.1.2.0,Phases=2,Linecode=BT803_BT803_4_2_4,Length=0.031020000,Units=km
new line.1104340 bus1=BBT1181844.1.2.0,bus2=BBT1181851.1.2.0,Phases=2,Linecode=BT807_BT807_4_2_3,Length=0.040005000,Units=km
new line.1104354 bus1=BBT1181844.1.2.0,bus2=BBT1181879.1.2.0,Phases=2,Linecode=BT107_BT106_7_2_1,Length=0.041017000,Units=km
new line.1104361 bus1=BBT1181851.1.2.0,bus2=BBT173617104.1.2.0,Phases=2,Linecode=BT807_BT807_4_2_3,Length=0.020003000,Units=km
new line.1104368 bus1=BBT1181858.1.2.0,bus2=BBT173616973.1.2.0,Phases=2,Linecode=BT807_BT807_4_2_3,Length=0.020028000,Units=km
new line.1104382 bus1=BBT1181865.1.2.0,bus2=BBT1181872.1.2.0,Phases=2,Linecode=BT107_BT106_7_2_1,Length=0.027896000,Units=km
new line.1104389 bus1=BBT1220288.1.2.3.0,bus2=BBT1220295.1.2.3.0,Phases=3,Linecode=BT803_BT803_4_3_4,Length=0.024742000,Units=km
new line.1104396 bus1=BBT1181872.1.2.0,bus2=BBT2809456.1.2.0,Phases=2,Linecode=BT107_BT106_7_2_1,Length=0.036774000,Units=km
new line.1104403 bus1=BBT1181879.1.2.0,bus2=BBT1181886.1.2.0,Phases=2,Linecode=BT107_BT106_7_2_1,Length=0.041017000,Units=km
new line.1104410 bus1=BBT1181886.1.2.0,bus2=BBT1181893.1.2.0,Phases=2,Linecode=BT107_BT106_7_2_1,Length=0.032020000,Units=km
new line.1104417 bus1=BBT1181893.1.2.0,bus2=BBT2809470.1.2.0,Phases=2,Linecode=BT107_BT106_7_2_1,Length=0.029004000,Units=km
new line.1104424 bus1=BBT1181900.1.2.0,bus2=BBT1181907.1.2.0,Phases=2,Linecode=BT107_BT106_7_2_1,Length=0.040018000,Units=km
new line.1104431 bus1=BBT1181900.1.2.0,bus2=BBT1181935.1.2.0,Phases=2,Linecode=BT107_BT106_7_2_1,Length=0.043017000,Units=km
new line.1104438 bus1=BBT1181907.1.2.0,bus2=BBT1181914.1.2.0,Phases=2,Linecode=BT107_BT106_7_2_1,Length=0.035019000,Units=km
new line.1104445 bus1=BBT1181914.1.2.0,bus2=BBT1181921.1.2.0,Phases=2,Linecode=BT107_BT106_7_2_1,Length=0.029004000,Units=km
new line.1104452 bus1=BBT1181921.1.2.0,bus2=BBT1181928.1.2.0,Phases=2,Linecode=BT107_BT106_7_2_1,Length=0.037341000,Units=km
new line.1104466 bus1=BBT1220274.1.2.3.0,bus2=BBT1220281.1.2.3.0,Phases=3,Linecode=BT803_BT803_4_3_4,Length=0.032577000,Units=km
new line.1104473 bus1=BBT1181935.1.2.0,bus2=BBT1181942.1.2.0,Phases=2,Linecode=BT107_BT106_7_2_1,Length=0.038057000,Units=km
new line.1104480 bus1=BBT1181942.1.2.0,bus2=BBT1181949.1.2.0,Phases=2,Linecode=BT107_BT106_7_2_1,Length=0.041005000,Units=km
new line.1104487 bus1=BBT1181942.1.2.0,bus2=BBT1181963.1.2.0,Phases=2,Linecode=BT107_BT106_7_2_1,Length=0.030021000,Units=km
new line.1104494 bus1=BBT1181949.1.2.0,bus2=BBT1181956.1.2.0,Phases=2,Linecode=BT107_BT106_7_2_1,Length=0.038018000,Units=km
new line.1104522 bus1=BBT1181984.1.2.0,bus2=BBT1181991.1.2.0,Phases=2,Linecode=BT508_BT508_7_2_1,Length=0.000501000,Units=km
new line.1104529 bus1=BBT1181991.1.2.0,bus2=BBT1181998.1.2.0,Phases=2,Linecode=BT108_BT107_7_2_1,Length=0.024355000,Units=km
new line.1104536 bus1=BBT1181991.1.2.0,bus2=BBT1182026.1.2.0,Phases=2,Linecode=BT108_BT107_7_2_1,Length=0.037341000,Units=km
new line.1104543 bus1=BBT1181998.1.2.0,bus2=BBT1182005.1.2.0,Phases=2,Linecode=BT107_BT106_7_2_1,Length=0.035852000,Units=km
new line.1104550 bus1=BBT1182005.1.2.0,bus2=BBT1182012.1.2.0,Phases=2,Linecode=BT107_BT106_7_2_1,Length=0.025083000,Units=km
new line.1104557 bus1=BBT1182005.1.2.0,bus2=BBT1182019.1.2.0,Phases=2,Linecode=BT107_BT106_7_2_1,Length=0.036405000,Units=km
new line.1104564 bus1=BBT1182005.1.2.0,bus2=BBT1182075.1.2.0,Phases=2,Linecode=BT107_BT106_7_2_1,Length=0.025023000,Units=km
new line.1104571 bus1=BBT1182026.1.2.0,bus2=BBT2801861.1.2.0,Phases=2,Linecode=BT808_BT808_4_2_3,Length=0.035005000,Units=km
new line.1104578 bus1=BBT1182026.1.2.0,bus2=BBT1182033.1.2.0,Phases=2,Linecode=BT107_BT106_7_2_1,Length=0.021027000,Units=km
new line.1104585 bus1=BBT1182026.1.2.0,bus2=BBT2596999.1.2.0,Phases=2,Linecode=BT808_BT808_4_2_3,Length=0.036405000,Units=km
new line.1104592 bus1=BBT1182033.1.2.0,bus2=BBT1182040.1.2.0,Phases=2,Linecode=BT107_BT106_7_2_1,Length=0.032020000,Units=km
new line.1104599 bus1=BBT1182040.1.2.0,bus2=BBT1182047.1.2.0,Phases=2,Linecode=BT107_BT106_7_2_1,Length=0.037059000,Units=km
new line.1104606 bus1=BBT1182047.1.2.0,bus2=BBT1182054.1.2.0,Phases=2,Linecode=BT107_BT106_7_2_1,Length=0.033065000,Units=km
new line.1104613 bus1=BBT1182054.1.2.0,bus2=BBT1182061.1.2.0,Phases=2,Linecode=BT107_BT106_7_2_1,Length=0.035019000,Units=km
new line.1104620 bus1=BBT1182061.1.2.0,bus2=BBT1182068.1.2.0,Phases=2,Linecode=BT107_BT106_7_2_1,Length=0.041054000,Units=km
new line.1104627 bus1=BBT1182075.1.2.0,bus2=BBT1182082.1.2.0,Phases=2,Linecode=BT107_BT106_7_2_1,Length=0.028022000,Units=km
new line.1104634 bus1=BBT1182082.1.2.0,bus2=BBT1182089.1.2.0,Phases=2,Linecode=BT107_BT106_7_2_1,Length=0.034019000,Units=km
new line.1104641 bus1=BBT1182082.1.2.0,bus2=BBT1182096.1.2.0,Phases=2,Linecode=BT107_BT106_7_2_1,Length=0.039056000,Units=km
new line.1104648 bus1=BBT1182096.1.2.0,bus2=BBT1182103.1.2.0,Phases=2,Linecode=BT107_BT106_7_2_1,Length=0.027004000,Units=km
new line.1104655 bus1=BBT1182103.1.2.0,bus2=BBT2801840.1.2.0,Phases=2,Linecode=BT107_BT106_7_2_1,Length=0.026023000,Units=km
new line.1104669 bus1=BBT1182124.1.2.3.0,bus2=BBT1182131.1.2.3.0,Phases=3,Linecode=BT508_BT508_7_3_1,Length=0.000501000,Units=km
new line.1104676 bus1=BBT1182131.1.2.3.0,bus2=BBT1182138.1.2.3.0,Phases=3,Linecode=BT108_BT107_7_3_1,Length=0.034004000,Units=km
new line.1104683 bus1=BBT1182131.1.2.3.0,bus2=BBT1182215.1.2.3.0,Phases=3,Linecode=BT108_BT107_7_3_1,Length=0.033004000,Units=km
new line.1104690 bus1=BBT1182138.1.2.3.0,bus2=BBT1182166.1.2.3.0,Phases=3,Linecode=BT107_BT106_7_3_1,Length=0.035019000,Units=km
new line.1104697 bus1=BBT1182138.1.2.3.0,bus2=BBT1182145.1.2.3.0,Phases=3,Linecode=BT107_BT106_7_3_1,Length=0.037018000,Units=km
new line.1104704 bus1=BBT1182138.1.2.3.0,bus2=BBT1182173.1.2.3.0,Phases=3,Linecode=BT107_BT106_7_3_1,Length=0.035062000,Units=km
new line.1104711 bus1=BBT1182145.1.2.3.0,bus2=BBT1182152.1.2.3.0,Phases=3,Linecode=BT107_BT106_7_3_1,Length=0.027004000,Units=km
new line.1104718 bus1=BBT1182152.1.2.3.0,bus2=BBT1182159.1.2.3.0,Phases=3,Linecode=BT107_BT106_7_3_1,Length=0.027078000,Units=km
new line.1105152 bus1=BBT1182572.1.2.3.0,bus2=BBT1182607.1.2.3.0,Phases=3,Linecode=BT803_BT803_4_3_4,Length=0.026176000,Units=km