new line.CTR105272 bus1=BMT126542693.1.2.3,bus2=BMT126542700.1.2.3,Phases=3,LineCode=tieSwitch,Length=0.001,Units=km,switch=T !numEQ 101302
new line.CTR145543 bus1=BMT126570700.1.2.3,bus2=BMT164377539.1.2.3,Phases=3,LineCode=tieSwitch,Length=0.001,Units=km,switch=T !numEQ 53596
new line.CTR145571 bus1=BMT126589236.1.2.3,bus2=BMT126589572.1.2.3,Phases=3,LineCode=tieSwitch,Length=0.001,Units=km,switch=T !numEQ 53600
new line.CTR145732 bus1=BMT126554117.3,bus2=BMT126560501.3,Phases=1,LineCode=tieSwitch1,Length=0.001,Units=km,switch=T !numEQ 53657
new line.CTR145739 bus1=BMT126556070.3,bus2=BMT126557057.3,Phases=1,LineCode=tieSwitch1,Length=0.001,Units=km,switch=T !numEQ 53372
new line.CTR145760 bus1=BMT126571953.1.2.3,bus2=BMT170990339.1.2.3,Phases=3,LineCode=tieSwitch,Length=0.001,Units=km,switch=T !numEQ 53376
new line.CTR145774 bus1=BMT150933537.1.2.3,bus2=BMT149173822.1.2.3,Phases=3,LineCode=tieSwitch,Length=0.001,Units=km,switch=T !numEQ 53378
open line.CTR145774 term=1
new line.CTR145809 bus1=BMT126556028.1.2.3,bus2=BMT126556035.1.2.3,Phases=3,LineCode=tieSwitch,Length=0.001,Units=km,switch=T !numEQ 53399
open line.CTR145809 term=1
new line.CTR145914 bus1=BMT126589012.1.2.3,bus2=BMT126589089.1.2.3,Phases=3,LineCode=tieSwitch,Length=0.001,Units=km,switch=T !numEQ 53415
new line.CTR145984 bus1=BMT126556882.1,bus2=BMT126556945.1,Phases=1,LineCode=tieSwitch1,Length=0.001,Units=km,switch=T !numEQ 53428
new line.CTR146005 bus1=BMT126592099.2,bus2=BMT126597811.2,Phases=1,LineCode=tieSwitch1,Length=0.001,Units=km,switch=T !numEQ 53431
new line.CTR146047 bus1=BMT126593905.1,bus2=BMT126593940.1,Phases=1,LineCode=tieSwitch1,Length=0.001,Units=km,switch=T !numEQ 53441
new line.CTR146110 bus1=BMT164500597.1.2.3,bus2=BMT126569790.1.2.3,Phases=3,LineCode=tieSwitch,Length=0.001,Units=km,switch=T !numEQ 233164
open line.CTR146110 term=1
new line.CTR146180 bus1=BMT126555629.2,bus2=BMT167100088.2,Phases=1,LineCode=tieSwitch1,Length=0.001,Units=km,switch=T !numEQ 53465
new line.CTR146187 bus1=BMT126569783.1.2.3,bus2=BMT126569923.1.2.3,Phases=3,LineCode=tieSwitch,Length=0.001,Units=km,switch=T !numEQ 53466
new line.CTR146194 bus1=BMT126567858.1.2.3,bus2=BMT155274279.1.2.3,Phases=3,LineCode=tieSwitch,Length=0.001,Units=km,switch=T !numEQ 53467
open line.CTR146194 term=1
new line.CTR146201 bus1=BMT126591938.1.2.3,bus2=BMT126600912.1.2.3,Phases=3,LineCode=tieSwitch,Length=0.001,Units=km,switch=T !numEQ 53468
new line.CTR146208 bus1=BMT126556056.1,bus2=BMT126558310.1,Phases=1,LineCode=tieSwitch1,Length=0.001,Units=km,switch=T !numEQ 53469
new line.CTR146215 bus1=BMT126550715.1.2.3,bus2=BMT126550764.1.2.3,Phases=3,LineCode=tieSwitch,Length=0.001,Units=km,switch=T !numEQ 53470
new line.CTR146229 bus1=BMT126569545.1.2.3,bus2=BMT151472205.1.2.3,Phases=3,LineCode=tieSwitch,Length=0.001,Units=km,switch=T !numEQ 53473
new line.CTR146264 bus1=BMT126598217.1,bus2=BMT126599050.1,Phases=1,LineCode=tieSwitch1,Length=0.001,Units=km,switch=T !numEQ 53476
new line.CTR146278 bus1=BMT126567151.1.2.3,bus2=BMT126567158.1.2.3,Phases=3,LineCode=tieSwitch,Length=0.001,Units=km,switch=T !numEQ 53478
new line.CTR146355 bus1=BMT126571029.1.2.3,bus2=BMT172937757.1.2.3,Phases=3,LineCode=tieSwitch,Length=0.001,Units=km,switch=T !numEQ 53501
new line.CTR146362 bus1=BMT126570861.1.2.3,bus2=BMT167801968.1.2.3,Phases=3,LineCode=tieSwitch,Length=0.001,Units=km,switch=T !numEQ 53504
new line.CTR146390 bus1=BMT126591161.1.2.3,bus2=BMT160426011.1.2.3,Phases=3,LineCode=tieSwitch,Length=0.001,Units=km,switch=T !numEQ 126511
new line.CTR146404 bus1=BMT126565737.1.2.3,bus2=BMT126565884.1.2.3,Phases=3,LineCode=tieSwitch,Length=0.001,Units=km,switch=T !numEQ 53475
new line.CTR146446 bus1=BMT126559073.3,bus2=BMT152875354.3,Phases=1,LineCode=tieSwitch1,Length=0.001,Units=km,switch=T !numEQ 53253
new line.CTR146481 bus1=BMT126556525.2,bus2=BMT126556532.2,Phases=1,LineCode=tieSwitch1,Length=0.001,Units=km,switch=T !numEQ 53260
new line.CTR146502 bus1=BMT126590167.3,bus2=BMT167196878.3,Phases=1,LineCode=tieSwitch1,Length=0.001,Units=km,switch=T !numEQ 53263
new line.CTR146537 bus1=BMT126566563.1.2.3,bus2=BMT135446000.1.2.3,Phases=3,LineCode=tieSwitch,Length=0.001,Units=km,switch=T !numEQ 53281
new line.CTR146572 bus1=BMT126553221.1.2.3,bus2=BMT171139776.1.2.3,Phases=3,LineCode=tieSwitch,Length=0.001,Units=km,switch=T !numEQ 317439
new line.CTR146586 bus1=BMT126566780.1.2.3,bus2=BMT163174473.1.2.3,Phases=3,LineCode=tieSwitch,Length=0.001,Units=km,switch=T !numEQ 53286
new line.CTR146607 bus1=BMT126572492.1.2.3,bus2=BMT167096820.1.2.3,Phases=3,LineCode=tieSwitch,Length=0.001,Units=km,switch=T !numEQ 53291
new line.CTR146628 bus1=BMT126581571.2,bus2=BMT126582089.2,Phases=1,LineCode=tieSwitch1,Length=0.001,Units=km,switch=T !numEQ 53296
new line.CTR146635 bus1=BMT126547635.3,bus2=BMT126547950.3,Phases=1,LineCode=tieSwitch1,Length=0.001,Units=km,switch=T !numEQ 53297
new line.CTR146663 bus1=BMT126593072.2,bus2=BMT126593107.2,Phases=1,LineCode=tieSwitch1,Length=0.001,Units=km,switch=T !numEQ 53307
new line.CTR146670 bus1=BMT126549952.3,bus2=BMT126549980.3,Phases=1,LineCode=tieSwitch1,Length=0.001,Units=km,switch=T !numEQ 53312
new line.CTR146733 bus1=BMT126570497.1.2.3,bus2=BMT126570637.1.2.3,Phases=3,LineCode=tieSwitch,Length=0.001,Units=km,switch=T !numEQ 53317
new line.CTR146761 bus1=BMT126586709.3,bus2=BMT126586744.3,Phases=1,LineCode=tieSwitch1,Length=0.001,Units=km,switch=T !numEQ 53321
new line.CTR146803 bus1=BMT126555958.3,bus2=BMT169973031.3,Phases=1,LineCode=tieSwitch1,Length=0.001,Units=km,switch=T !numEQ 53330
new line.CTR146852 bus1=BMT126566535.1.2.3,bus2=BMT161314973.1.2.3,Phases=3,LineCode=tieSwitch,Length=0.001,Units=km,switch=T !numEQ 53337
new line.CTR146880 bus1=BMT126561628.3,bus2=BMT126562727.3,Phases=1,LineCode=tieSwitch1,Length=0.001,Units=km,switch=T !numEQ 53341
new line.CTR146887 bus1=BMT126566577.1.2.3,bus2=BMT171314259.1.2.3,Phases=3,LineCode=tieSwitch,Length=0.001,Units=km,switch=T !numEQ 53342
new line.CTR146894 bus1=BMT126571890.1.2.3,bus2=BMT170130669.1.2.3,Phases=3,LineCode=tieSwitch,Length=0.001,Units=km,switch=T !numEQ 53343
new line.CTR146901 bus1=BMT126568992.1.2.3,bus2=BMT171831230.1.2.3,Phases=3,LineCode=tieSwitch,Length=0.001,Units=km,switch=T !numEQ 53344
new line.CTR146908 bus1=BMT126566262.1.2.3,bus2=BMT168748550.1.2.3,Phases=3,LineCode=tieSwitch,Length=0.001,Units=km,switch=T !numEQ 263298
new line.CTR146915 bus1=BMT168748552.1.2.3,bus2=BMT3711385.1.2.3,Phases=3,LineCode=tieSwitch,Length=0.001,Units=km,switch=T !numEQ 53346
open line.CTR146915 term=1
new line.CTR146922 bus1=BMT126592673.3,bus2=BMT126592687.3,Phases=1,LineCode=tieSwitch1,Length=0.001,Units=km,switch=T !numEQ 53347
new line.CTR143716 bus1=BMT126567291.1.2.3,bus2=BMT126567326.1.2.3,Phases=3,LineCode=tieSwitch,Length=0.001,Units=km,switch=T !numEQ 53883
new line.CTR143723 bus1=BMT126567704.1.2.3,bus2=BMT126567767.1.2.3,Phases=3,LineCode=tieSwitch,Length=0.001,Units=km,switch=T !numEQ 53884
new line.CTR143730 bus1=BMT126542707.1.2.3,bus2=BMT126542714.1.2.3,Phases=3,LineCode=tieSwitch,Length=0.001,Units=km,switch=T !numEQ 53742
new line.CTR143737 bus1=BMT126555013.1.2.3,bus2=BMT161221845.1.2.3,Phases=3,LineCode=tieSwitch,Length=0.001,Units=km,switch=T !numEQ 53743
new line.CTR143751 bus1=BMT126559297.1,bus2=BMT126559619.1,Phases=1,LineCode=tieSwitch1,Length=0.001,Units=km,switch=T !numEQ 53745
new line.CTR143758 bus1=BMT126554404.2,bus2=BMT126560473.2,Phases=1,LineCode=tieSwitch1,Length=0.001,Units=km,switch=T !numEQ 53746
new line.CTR143765 bus1=BMT126554131.2,bus2=BMT126554145.2,Phases=1,LineCode=tieSwitch1,Length=0.001,Units=km,switch=T !numEQ 53747
new line.CTR143772 bus1=BMT126560557.3,bus2=BMT126560592.3,Phases=1,LineCode=tieSwitch1,Length=0.001,Units=km,switch=T !numEQ 53748
new line.CTR143863 bus1=BMT126570525.1.2.3,bus2=BMT138437758.1.2.3,Phases=3,LineCode=tieSwitch,Length=0.001,Units=km,switch=T !numEQ 53772
new line.CTR143919 bus1=BMT126542903.1.2.3,bus2=BMT167023338.1.2.3,Phases=3,LineCode=tieSwitch,Length=0.001,Units=km,switch=T !numEQ 53790
new line.CTR143996 bus1=BMT126568614.1.2.3,bus2=BMT2094812.1.2.3,Phases=3,LineCode=tieSwitch,Length=0.001,Units=km,switch=T !numEQ 53805
open line.CTR143996 term=1
new line.CTR144010 bus1=BMT126569398.1.2.3,bus2=BMT163325974.1.2.3,Phases=3,LineCode=tieSwitch,Length=0.001,Units=km,switch=T !numEQ 53807
new line.CTR144052 bus1=BMT126596782.1,bus2=BMT150594512.1,Phases=1,LineCode=tieSwitch1,Length=0.001,Units=km,switch=T !numEQ 53814
new line.CTR144059 bus1=BMT126594458.1,bus2=BMT126597762.1,Phases=1,LineCode=tieSwitch1,Length=0.001,Units=km,switch=T !numEQ 53815
new line.CTR144199 bus1=BMT140112606.1.2.3,bus2=BMT2887268.1.2.3,Phases=3,LineCode=tieSwitch,Length=0.001,Units=km,switch=T !numEQ 53838
new line.CTR144262 bus1=BMT126587633.3,bus2=BMT126588718.3,Phases=1,LineCode=tieSwitch1,Length=0.001,Units=km,switch=T !numEQ 53846
new line.CTR144276 bus1=BMT126551639.1.2.3,bus2=BMT126551646.1.2.3,Phases=3,LineCode=tieSwitch,Length=0.001,Units=km,switch=T !numEQ 53848
new line.CTR144283 bus1=BMT126543554.1,bus2=BMT126543764.1,Phases=1,LineCode=tieSwitch1,Length=0.001,Units=km,switch=T !numEQ 53849
new line.CTR144353 bus1=BMT126554845.2,bus2=BMT161146248.2,Phases=1,LineCode=tieSwitch1,Length=0.001,Units=km,switch=T !numEQ 53658
new line.CTR144360 bus1=BMT126554929.1,bus2=BMT126555027.1,Phases=1,LineCode=tieSwitch1,Length=0.001,Units=km,switch=T !numEQ 53659
new line.CTR144570 bus1=BMT126593247.2,bus2=BMT126593303.2,Phases=1,LineCode=tieSwitch1,Length=0.001,Units=km,switch=T !numEQ 53671
new line.CTR144864 bus1=BMT126542966.1.2.3,bus2=BMT126542980.1.2.3,Phases=3,LineCode=tieSwitch,Length=0.001,Units=km,switch=T !numEQ 53718
new line.CTR144892 bus1=BMT141271057.1,bus2=BMT141271078.1,Phases=1,LineCode=tieSwitch1,Length=0.001,Units=km,switch=T !numEQ 53723
new line.CTR144899 bus1=BMT126555048.1,bus2=BMT126555286.1,Phases=1,LineCode=tieSwitch1,Length=0.001,Units=km,switch=T !numEQ 53724
new line.CTR144906 bus1=BMT126553928.1,bus2=BMT126553942.1,Phases=1,LineCode=tieSwitch1,Length=0.001,Units=km,switch=T !numEQ 53725
new line.CTR144913 bus1=BMT126554047.1,bus2=BMT126560732.1,Phases=1,LineCode=tieSwitch1,Length=0.001,Units=km,switch=T !numEQ 53726
new line.CTR144927 bus1=BMT126554096.1,bus2=BMT126560620.1,Phases=1,LineCode=tieSwitch1,Length=0.001,Units=km,switch=T !numEQ 53730
new line.CTR144941 bus1=BMT126542672.1.2.3,bus2=BMT165375167.1.2.3,Phases=3,LineCode=tieSwitch,Length=0.001,Units=km,switch=T !numEQ 53733
new line.CTR144976 bus1=BMT126543001.1.2.3,bus2=BMT126543008.1.2.3,Phases=3,LineCode=tieSwitch,Length=0.001,Units=km,switch=T !numEQ 53739
new line.CTR144983 bus1=BMT126542812.1.2.3,bus2=BMT126542826.1.2.3,Phases=3,LineCode=tieSwitch,Length=0.001,Units=km,switch=T !numEQ 53741
new line.CTR145067 bus1=BMT126572149.1.2.3,bus2=BMT126588739.1.2.3,Phases=3,LineCode=tieSwitch,Length=0.001,Units=km,switch=T !numEQ 53516
new line.CTR145081 bus1=BMT126585463.1.2.3,bus2=BMT126587402.1.2.3,Phases=3,LineCode=tieSwitch,Length=0.001,Units=km,switch=T !numEQ 53519
new line.CTR145088 bus1=BMT126586723.1.2.3,bus2=BMT126586730.1.2.3,Phases=3,LineCode=tieSwitch,Length=0.001,Units=km,switch=T !numEQ 53520
new line.CTR145277 bus1=BMT126585701.1,bus2=BMT126585820.1,Phases=1,LineCode=tieSwitch1,Length=0.001,Units=km,switch=T !numEQ 53551
new line.CTR145284 bus1=BMT126585757.2,bus2=BMT169780237.2,Phases=1,LineCode=tieSwitch1,Length=0.001,Units=km,switch=T !numEQ 53552
new line.CTR145340 bus1=BMT126582572.3,bus2=BMT128769337.3,Phases=1,LineCode=tieSwitch1,Length=0.001,Units=km,switch=T !numEQ 53559
new line.CTR145347 bus1=BMT126545612.3,bus2=BMT126550281.3,Phases=1,LineCode=tieSwitch1,Length=0.001,Units=km,switch=T !numEQ 53560
new line.CTR145354 bus1=BMT163755792.1.2.3,bus2=BMT126552444.1.2.3,Phases=3,LineCode=tieSwitch,Length=0.001,Units=km,switch=T !numEQ 53562
open line.CTR145354 term=1
new line.CTR145389 bus1=BMT126563784.1,bus2=BMT165293484.1,Phases=1,LineCode=tieSwitch1,Length=0.001,Units=km,switch=T !numEQ 53572
new line.CTR145417 bus1=BMT126551758.1.2.3,bus2=BMT126551765.1.2.3,Phases=3,LineCode=tieSwitch,Length=0.001,Units=km,switch=T !numEQ 53576
new line.CTR157555 bus1=BMT160154171.1.2.3,bus2=BMT126546053.1.2.3,Phases=3,LineCode=tieSwitch,Length=0.001,Units=km,switch=T !numEQ 51005
new line.CTR157562 bus1=BMT126548146.1.2.3,bus2=BMT128827808.1.2.3,Phases=3,LineCode=tieSwitch,Length=0.001,Units=km,switch=T !numEQ 51006
new line.CTR157576 bus1=BMT126545955.3,bus2=BMT126549903.3,Phases=1,LineCode=tieSwitch1,Length=0.001,Units=km,switch=T !numEQ 51008
new line.CTR157583 bus1=BMT126544730.1,bus2=BMT126544737.1,Phases=1,LineCode=tieSwitch1,Length=0.001,Units=km,switch=T !numEQ 51009
open line.CTR157583 term=1
new line.CTR157590 bus1=BMT173224344.1.2.3,bus2=BMT173224462.1.2.3,Phases=3,LineCode=tieSwitch,Length=0.001,Units=km,switch=T !numEQ 51010
new line.CTR157597 bus1=BMT126547964.2,bus2=BMT152276674.2,Phases=1,LineCode=tieSwitch1,Length=0.001,Units=km,switch=T !numEQ 51012
new line.CTR157604 bus1=BMT126544625.1,bus2=BMT170264752.1,Phases=1,LineCode=tieSwitch1,Length=0.001,Units=km,switch=T !numEQ 51015
new line.CTR157618 bus1=BMT126546081.2,bus2=BMT126547502.2,Phases=1,LineCode=tieSwitch1,Length=0.001,Units=km,switch=T !numEQ 51018
new line.CTR100281 bus1=BMT171866908.1.2.3,bus2=BMT172857918.1.2.3,Phases=3,LineCode=tieSwitch,Length=0.001,Units=km,switch=T !numEQ 105085
new line.CTR100288 bus1=BMT126572387.1.2.3,bus2=BMT126585323.1.2.3,Phases=3,LineCode=tieSwitch,Length=0.001,Units=km,switch=T !numEQ 105086
new line.CTR100295 bus1=BMT126582943.1,bus2=BMT126584791.1,Phases=1,LineCode=tieSwitch1,Length=0.001,Units=km,switch=T !numEQ 105087
new line.CTR100302 bus1=BMT126583251.3,bus2=BMT126583811.3,Phases=1,LineCode=tieSwitch1,Length=0.001,Units=km,switch=T !numEQ 105088
new line.CTR100309 bus1=BMT126572534.3,bus2=BMT126582845.3,Phases=1,LineCode=tieSwitch1,Length=0.001,Units=km,switch=T !numEQ 105089
new line.CTR100316 bus1=BMT126564246.1,bus2=BMT126564715.1,Phases=1,LineCode=tieSwitch1,Length=0.001,Units=km,switch=T !numEQ 105090
new line.CTR100323 bus1=BMT126590139.3,bus2=BMT126590426.3,Phases=1,LineCode=tieSwitch1,Length=0.001,Units=km,switch=T !numEQ 105091
new line.CTR100575 bus1=BMT126594507.1,bus2=BMT126597517.1,Phases=1,LineCode=tieSwitch1,Length=0.001,Units=km,switch=T !numEQ 105980
new line.CTR100582 bus1=BMT126592176.2,bus2=BMT126594395.2,Phases=1,LineCode=tieSwitch1,Length=0.001,Units=km,switch=T !numEQ 105981
new line.CTR100589 bus1=BMT126592232.1,bus2=BMT126593989.1,Phases=1,LineCode=tieSwitch1,Length=0.001,Units=km,switch=T !numEQ 105982
new line.CTR100596 bus1=BMT126594164.1,bus2=BMT126594283.1,Phases=1,LineCode=tieSwitch1,Length=0.001,Units=km,switch=T !numEQ 105983
new line.CTR100603 bus1=BMT126543869.3,bus2=BMT126543967.3,Phases=1,LineCode=tieSwitch1,Length=0.001,Units=km,switch=T !numEQ 105984
new line.CTR100624 bus1=BMT126586898.1.2.3,bus2=BMT126586912.1.2.3,Phases=3,LineCode=tieSwitch,Length=0.001,Units=km,switch=T !numEQ 105987
new line.CTR100995 bus1=BMT126556189.1,bus2=BMT126556245.1,Phases=1,LineCode=tieSwitch1,Length=0.001,Units=km,switch=T !numEQ 104716
new line.CTR101002 bus1=BMT126600219.2,bus2=BMT126600289.2,Phases=1,LineCode=tieSwitch1,Length=0.001,Units=km,switch=T !numEQ 104718
new line.CTR101009 bus1=BMT126557463.3,bus2=BMT161625199.3,Phases=1,LineCode=tieSwitch1,Length=0.001,Units=km,switch=T !numEQ 104719
new line.CTR101016 bus1=BMT126581354.2,bus2=BMT126581368.2,Phases=1,LineCode=tieSwitch1,Length=0.001,Units=km,switch=T !numEQ 104720
new line.CTR101023 bus1=BMT126598140.2,bus2=BMT160124489.2,Phases=1,LineCode=tieSwitch1,Length=0.001,Units=km,switch=T !numEQ 104721
new line.CTR101051 bus1=BMT126556000.1,bus2=BMT126558730.1,Phases=1,LineCode=tieSwitch1,Length=0.001,Units=km,switch=T !numEQ 104726
new line.CTR101191 bus1=BMT168769157.1.2.3,bus2=BMT126569608.1.2.3,Phases=3,LineCode=tieSwitch,Length=0.001,Units=km,switch=T !numEQ 104750
open line.CTR101191 term=1
new line.CTR126258 bus1=BMT126554152.2,bus2=BMT126554341.2,Phases=1,LineCode=tieSwitch1,Length=0.001,Units=km,switch=T !numEQ 190343
new line.CTR138597 bus1=BMT168053045.3,bus2=BMT170649167.3,Phases=1,LineCode=tieSwitch1,Length=0.001,Units=km,switch=T !numEQ 46870
new line.CTR153964 bus1=BMT151530005.1.2.3,bus2=BMT148588499.1.2.3,Phases=3,LineCode=tieSwitch,Length=0.001,Units=km,switch=T !numEQ 51977
new line.CTR154055 bus1=BMT126581564.2,bus2=BMT136332942.2,Phases=1,LineCode=tieSwitch1,Length=0.001,Units=km,switch=T !numEQ 51691
new line.CTR154111 bus1=BMT126583230.3,bus2=BMT167532459.3,Phases=1,LineCode=tieSwitch1,Length=0.001,Units=km,switch=T !numEQ 51730
new line.CTR154125 bus1=BMT126572730.1,bus2=BMT154412985.1,Phases=1,LineCode=tieSwitch1,Length=0.001,Units=km,switch=T !numEQ 51732
new line.CTR154132 bus1=BMT126583118.1.2.3,bus2=BMT126583174.1.2.3,Phases=3,LineCode=tieSwitch,Length=0.001,Units=km,switch=T !numEQ 51734
new line.CTR154139 bus1=BMT126582950.1.2.3,bus2=BMT173226747.1.2.3,Phases=3,LineCode=tieSwitch,Length=0.001,Units=km,switch=T !numEQ 51736
new line.CTR154146 bus1=BMT126583223.3,bus2=BMT140453793.3,Phases=1,LineCode=tieSwitch1,Length=0.001,Units=km,switch=T !numEQ 51737
new line.CTR154153 bus1=BMT126572737.1,bus2=BMT126582334.1,Phases=1,LineCode=tieSwitch1,Length=0.001,Units=km,switch=T !numEQ 51738
new line.CTR154160 bus1=BMT126572618.3,bus2=BMT126582509.3,Phases=1,LineCode=tieSwitch1,Length=0.001,Units=km,switch=T !numEQ 51739
new line.CTR154181 bus1=BMT126583895.3,bus2=BMT140454521.3,Phases=1,LineCode=tieSwitch1,Length=0.001,Units=km,switch=T !numEQ 51744
new line.CTR154188 bus1=BMT126592820.1.2.3,bus2=BMT126593611.1.2.3,Phases=3,LineCode=tieSwitch,Length=0.001,Units=km,switch=T !numEQ 51746
new line.CTR154223 bus1=BMT126592344.1.2.3,bus2=BMT126592764.1.2.3,Phases=3,LineCode=tieSwitch,Length=0.001,Units=km,switch=T !numEQ 51763
new line.CTR154258 bus1=BMT126592953.2,bus2=BMT126593051.2,Phases=1,LineCode=tieSwitch1,Length=0.001,Units=km,switch=T !numEQ 51761
new line.CTR154566 bus1=BMT126597951.1,bus2=BMT126599190.1,Phases=1,LineCode=tieSwitch1,Length=0.001,Units=km,switch=T !numEQ 51833
new line.CTR154748 bus1=BMT126600940.1,bus2=BMT126600968.1,Phases=1,LineCode=tieSwitch1,Length=0.001,Units=km,switch=T !numEQ 51563
new line.CTR154755 bus1=BMT126581592.2,bus2=BMT150194512.2,Phases=1,LineCode=tieSwitch1,Length=0.001,Units=km,switch=T !numEQ 51564
new line.CTR154762 bus1=BMT126581683.2,bus2=BMT158941911.2,Phases=1,LineCode=tieSwitch1,Length=0.001,Units=km,switch=T !numEQ 51565
new line.CTR154769 bus1=BMT126581704.2,bus2=BMT126581970.2,Phases=1,LineCode=tieSwitch1,Length=0.001,Units=km,switch=T !numEQ 51566
new line.CTR154783 bus1=BMT126581767.2,bus2=BMT126581774.2,Phases=1,LineCode=tieSwitch1,Length=0.001,Units=km,switch=T !numEQ 51568
new line.CTR154888 bus1=BMT126573164.2,bus2=BMT126573745.2,Phases=1,LineCode=tieSwitch1,Length=0.001,Units=km,switch=T !numEQ 51601
new line.CTR154895 bus1=BMT126573808.2,bus2=BMT126573850.2,Phases=1,LineCode=tieSwitch1,Length=0.001,Units=km,switch=T !numEQ 51602
new line.CTR154909 bus1=BMT126556441.1.2.3,bus2=BMT152551608.1.2.3,Phases=3,LineCode=tieSwitch,Length=0.001,Units=km,switch=T !numEQ 51607
new line.CTR154916 bus1=BMT126573752.2,bus2=BMT128835067.2,Phases=1,LineCode=tieSwitch1,Length=0.001,Units=km,switch=T !numEQ 51608
new line.CTR154923 bus1=BMT126580311.1.2.3,bus2=BMT158573760.1.2.3,Phases=3,LineCode=tieSwitch,Length=0.001,Units=km,switch=T !numEQ 51609
new line.CTR154930 bus1=BMT126581536.2,bus2=BMT126581550.2,Phases=1,LineCode=tieSwitch1,Length=0.001,Units=km,switch=T !numEQ 51613
new line.CTR154944 bus1=BMT126556595.2,bus2=BMT126556623.2,Phases=1,LineCode=tieSwitch1,Length=0.001,Units=km,switch=T !numEQ 51616
new line.CTR154951 bus1=BMT126556833.1,bus2=BMT126556847.1,Phases=1,LineCode=tieSwitch1,Length=0.001,Units=km,switch=T !numEQ 51619
new line.CTR111565 bus1=BMT170130692.1.2.3,bus2=BMT133057656.1.2.3,Phases=3,LineCode=tieSwitch,Length=0.001,Units=km,switch=T !numEQ 91075
new line.CTR111586 bus1=BMT126551814.1.2.3,bus2=BMT172217368.1.2.3,Phases=3,LineCode=tieSwitch,Length=0.001,Units=km,switch=T !numEQ 91084
new line.CTR111593 bus1=BMT126570168.1.2.3,bus2=BMT126570392.1.2.3,Phases=3,LineCode=tieSwitch,Length=0.001,Units=km,switch=T !numEQ 91086
new line.CTR111607 bus1=BMT164746736.1.2.3,bus2=BMT170217924.1.2.3,Phases=3,LineCode=tieSwitch,Length=0.001,Units=km,switch=T !numEQ 243808
new line.CTR111614 bus1=BMT126570280.1.2.3,bus2=BMT126570294.1.2.3,Phases=3,LineCode=tieSwitch,Length=0.001,Units=km,switch=T !numEQ 91088
new line.CTR111621 bus1=BMT126553130.1.2.3,bus2=BMT126553284.1.2.3,Phases=3,LineCode=tieSwitch,Length=0.001,Units=km,switch=T !numEQ 91090
new line.CTR111628 bus1=BMT126568411.2,bus2=BMT126568418.2,Phases=1,LineCode=tieSwitch1,Length=0.001,Units=km,switch=T !numEQ 182876
new line.CTR111635 bus1=BMT126553137.1.2.3,bus2=BMT126553298.1.2.3,Phases=3,LineCode=tieSwitch,Length=0.001,Units=km,switch=T !numEQ 91091
new line.CTR111649 bus1=BMT126567144.1.2.3,bus2=BMT126567263.1.2.3,Phases=3,LineCode=tieSwitch,Length=0.001,Units=km,switch=T !numEQ 91093
new line.CTR111656 bus1=BMT126567172.1.2.3,bus2=BMT126567200.1.2.3,Phases=3,LineCode=tieSwitch,Length=0.001,Units=km,switch=T !numEQ 91094
new line.CTR111663 bus1=BMT126588984.1.2.3,bus2=BMT173179236.1.2.3,Phases=3,LineCode=tieSwitch,Length=0.001,Units=km,switch=T !numEQ 280643
new line.CTR148742 bus1=BMT126572086.1.2.3,bus2=BMT145512007.1.2.3,Phases=3,LineCode=tieSwitch,Length=0.001,Units=km,switch=T !numEQ 52908
new line.CTR148749 bus1=BMT126572100.1.2.3,bus2=BMT172915164.1.2.3,Phases=3,LineCode=tieSwitch,Length=0.001,Units=km,switch=T !numEQ 52909
new line.CTR148770 bus1=BMT126568516.1.2.3,bus2=BMT126568530.1.2.3,Phases=3,LineCode=tieSwitch,Length=0.001,Units=km,switch=T !numEQ 52913
new line.CTR148889 bus1=BMT126564183.2,bus2=BMT169007422.2,Phases=1,LineCode=tieSwitch1,Length=0.001,Units=km,switch=T !numEQ 52938
new line.CTR148917 bus1=BMT126581802.2,bus2=BMT126581830.2,Phases=1,LineCode=tieSwitch1,Length=0.001,Units=km,switch=T !numEQ 52943
new line.CTR149029 bus1=BMT126597860.1.2.3,bus2=BMT126599393.1.2.3,Phases=3,LineCode=tieSwitch,Length=0.001,Units=km,switch=T !numEQ 52968
new line.CTR149134 bus1=BMT126572436.1.2.3,bus2=BMT126572443.1.2.3,Phases=3,LineCode=tieSwitch,Length=0.001,Units=km,switch=T !numEQ 52708
new line.CTR149183 bus1=BMT126590846.3,bus2=BMT172691206.3,Phases=1,LineCode=tieSwitch1,Length=0.001,Units=km,switch=T !numEQ 52709
new line.CTR149204 bus1=BMT126566388.1.2.3,bus2=BMT126568943.1.2.3,Phases=3,LineCode=tieSwitch,Length=0.001,Units=km,switch=T !numEQ 52714
new line.CTR149218 bus1=BMT126570889.1.2.3,bus2=BMT168158633.1.2.3,Phases=3,LineCode=tieSwitch,Length=0.001,Units=km,switch=T !numEQ 259494
new line.CTR149225 bus1=BMT170296694.1.2.3,bus2=BMT126567816.1.2.3,Phases=3,LineCode=tieSwitch,Length=0.001,Units=km,switch=T !numEQ 52719
open line.CTR149225 term=1
new line.CTR149302 bus1=BMT126572583.1.2.3,bus2=BMT126582803.1.2.3,Phases=3,LineCode=tieSwitch,Length=0.001,Units=km,switch=T !numEQ 52748
new line.CTR149344 bus1=BMT126550834.3,bus2=BMT163036234.3,Phases=1,LineCode=tieSwitch1,Length=0.001,Units=km,switch=T !numEQ 52755
new line.CTR149351 bus1=BMT126550841.2,bus2=BMT126551331.2,Phases=1,LineCode=tieSwitch1,Length=0.001,Units=km,switch=T !numEQ 52756
new line.CTR149372 bus1=BMT168669229.1.2.3,bus2=BMT126555979.1.2.3,Phases=3,LineCode=tieSwitch,Length=0.001,Units=km,switch=T !numEQ 52759
new line.CTR149379 bus1=BMT126592253.1,bus2=BMT126593968.1,Phases=1,LineCode=tieSwitch1,Length=0.001,Units=km,switch=T !numEQ 52761
new line.CTR149386 bus1=BMT126580423.1.2.3,bus2=BMT126581522.1.2.3,Phases=3,LineCode=tieSwitch,Length=0.001,Units=km,switch=T !numEQ 52763
new line.CTR149400 bus1=BMT126555622.2,bus2=BMT126555783.2,Phases=1,LineCode=tieSwitch1,Length=0.001,Units=km,switch=T !numEQ 52768
new line.CTR149407 bus1=BMT126555601.2,bus2=BMT126555608.2,Phases=1,LineCode=tieSwitch1,Length=0.001,Units=km,switch=T !numEQ 52770
new line.CTR149414 bus1=BMT126594521.1.2.3,bus2=BMT169871145.1.2.3,Phases=3,LineCode=tieSwitch,Length=0.001,Units=km,switch=T !numEQ 52771
new line.CTR149421 bus1=BMT126546067.2,bus2=BMT149531134.2,Phases=1,LineCode=tieSwitch1,Length=0.001,Units=km,switch=T !numEQ 52773
new line.CTR149428 bus1=BMT126548020.3,bus2=BMT126548034.3,Phases=1,LineCode=tieSwitch1,Length=0.001,Units=km,switch=T !numEQ 52774
new line.CTR149435 bus1=BMT126588326.3,bus2=BMT168480363.3,Phases=1,LineCode=tieSwitch1,Length=0.001,Units=km,switch=T !numEQ 52776
new line.CTR149512 bus1=BMT126545605.1,bus2=BMT126550309.1,Phases=1,LineCode=tieSwitch1,Length=0.001,Units=km,switch=T !numEQ 52792
new line.CTR149526 bus1=BMT126547558.2,bus2=BMT126549777.2,Phases=1,LineCode=tieSwitch1,Length=0.001,Units=km,switch=T !numEQ 52795
new line.CTR149533 bus1=BMT126579625.1.2.3,bus2=BMT126580234.1.2.3,Phases=3,LineCode=tieSwitch,Length=0.001,Units=km,switch=T !numEQ 52799
new line.CTR150072 bus1=BMT126542994.1,bus2=BMT126543526.1,Phases=1,LineCode=tieSwitch1,Length=0.001,Units=km,switch=T !numEQ 52622
new line.CTR150079 bus1=BMT126544394.1,bus2=BMT126544954.1,Phases=1,LineCode=tieSwitch1,Length=0.001,Units=km,switch=T !numEQ 52627
new line.CTR150107 bus1=BMT126555426.1,bus2=BMT170044738.1,Phases=1,LineCode=tieSwitch1,Length=0.001,Units=km,switch=T !numEQ 52629
new line.CTR150184 bus1=BMT126566997.1.2.3,bus2=BMT169969278.1.2.3,Phases=3,LineCode=tieSwitch,Length=0.001,Units=km,switch=T !numEQ 52641
new line.CTR150198 bus1=BMT126543561.1,bus2=BMT126543617.1,Phases=1,LineCode=tieSwitch1,Length=0.001,Units=km,switch=T !numEQ 52643
new line.CTR150296 bus1=BMT126564036.1,bus2=BMT165293352.1,Phases=1,LineCode=tieSwitch1,Length=0.001,Units=km,switch=T !numEQ 52662
new line.CTR150310 bus1=BMT126571204.1.2.3,bus2=BMT161975474.1.2.3,Phases=3,LineCode=tieSwitch,Length=0.001,Units=km,switch=T !numEQ 52668
new line.CTR150366 bus1=BMT126566367.1.2.3,bus2=BMT170497547.1.2.3,Phases=3,LineCode=tieSwitch,Length=0.001,Units=km,switch=T !numEQ 52686
new line.CTR150422 bus1=BMT126595760.1.2.3,bus2=BMT173224145.1.2.3,Phases=3,LineCode=tieSwitch,Length=0.001,Units=km,switch=T !numEQ 281487
new line.CTR150436 bus1=BMT170631693.1.2.3,bus2=BMT126553004.1.2.3,Phases=3,LineCode=tieSwitch,Length=0.001,Units=km,switch=T !numEQ 52700
new line.CTR150443 bus1=BMT126570910.1.2.3,bus2=BMT126570917.1.2.3,Phases=3,LineCode=tieSwitch,Length=0.001,Units=km,switch=T !numEQ 52701
new line.CTR157821 bus1=BMT126545745.1.2.3,bus2=BMT126545752.1.2.3,Phases=3,LineCode=tieSwitch,Length=0.001,Units=km,switch=T !numEQ 51058
new line.CTR157835 bus1=BMT126553725.3,bus2=BMT126561012.3,Phases=1,LineCode=tieSwitch1,Length=0.001,Units=km,switch=T !numEQ 51061
new line.CTR157842 bus1=BMT126553753.1,bus2=BMT126560977.1,Phases=1,LineCode=tieSwitch1,Length=0.001,Units=km,switch=T !numEQ 51062
new line.CTR157849 bus1=BMT126553809.2,bus2=BMT126560949.2,Phases=1,LineCode=tieSwitch1,Length=0.001,Units=km,switch=T !numEQ 51063
new line.CTR157856 bus1=BMT126553858.3,bus2=BMT168988912.3,Phases=1,LineCode=tieSwitch1,Length=0.001,Units=km,switch=T !numEQ 51064
new line.CTR157863 bus1=BMT126561047.3,bus2=BMT126561075.3,Phases=1,LineCode=tieSwitch1,Length=0.001,Units=km,switch=T !numEQ 51065
new line.CTR157870 bus1=BMT126563112.3,bus2=BMT126563434.3,Phases=1,LineCode=tieSwitch1,Length=0.001,Units=km,switch=T !numEQ 51066
open line.CTR157870 term=1
new line.CTR157884 bus1=BMT126553382.2,bus2=BMT126565156.2,Phases=1,LineCode=tieSwitch1,Length=0.001,Units=km,switch=T !numEQ 51070
new line.CTR157891 bus1=BMT170631689.1.2.3,bus2=BMT126553396.1.2.3,Phases=3,LineCode=tieSwitch,Length=0.001,Units=km,switch=T !numEQ 239799
new line.CTR157898 bus1=BMT126553410.1.2.3,bus2=BMT169953627.1.2.3,Phases=3,LineCode=tieSwitch,Length=0.001,Units=km,switch=T !numEQ 239798
new line.CTR157905 bus1=BMT126553438.1.2.3,bus2=BMT165293093.1.2.3,Phases=3,LineCode=tieSwitch,Length=0.001,Units=km,switch=T !numEQ 51073
new line.CTR157912 bus1=BMT126553445.1,bus2=BMT165293344.1,Phases=1,LineCode=tieSwitch1,Length=0.001,Units=km,switch=T !numEQ 51074
new line.CTR157919 bus1=BMT126553487.1,bus2=BMT165293459.1,Phases=1,LineCode=tieSwitch1,Length=0.001,Units=km,switch=T !numEQ 51075
new line.CTR157926 bus1=BMT126553585.2,bus2=BMT126563455.2,Phases=1,LineCode=tieSwitch1,Length=0.001,Units=km,switch=T !numEQ 51076
new line.CTR157933 bus1=BMT126553606.1.2.3,bus2=BMT153772095.1.2.3,Phases=3,LineCode=tieSwitch,Length=0.001,Units=km,switch=T !numEQ 51077
new line.CTR157947 bus1=BMT126553634.1.2.3,bus2=BMT153742040.1.2.3,Phases=3,LineCode=tieSwitch,Length=0.001,Units=km,switch=T !numEQ 51078
new line.CTR157954 bus1=BMT126553662.1.2.3,bus2=BMT126553669.1.2.3,Phases=3,LineCode=tieSwitch,Length=0.001,Units=km,switch=T !numEQ 290865
new line.CTR157961 bus1=BMT126561131.1.2.3,bus2=BMT126562979.1.2.3,Phases=3,LineCode=tieSwitch,Length=0.001,Units=km,switch=T !numEQ 51081
new line.CTR157968 bus1=BMT126561152.3,bus2=BMT126562839.3,Phases=1,LineCode=tieSwitch1,Length=0.001,Units=km,switch=T !numEQ 51082
new line.CTR157975 bus1=BMT126561159.1.2.3,bus2=BMT168253969.1.2.3,Phases=3,LineCode=tieSwitch,Length=0.001,Units=km,switch=T !numEQ 51083
new line.CTR157989 bus1=BMT126561229.1.2.3,bus2=BMT126561383.1.2.3,Phases=3,LineCode=tieSwitch,Length=0.001,Units=km,switch=T !numEQ 51086
new line.CTR157996 bus1=BMT126561558.3,bus2=BMT126562783.3,Phases=1,LineCode=tieSwitch1,Length=0.001,Units=km,switch=T !numEQ 51087
new line.CTR158003 bus1=BMT126561649.3,bus2=BMT170859298.3,Phases=1,LineCode=tieSwitch1,Length=0.001,Units=km,switch=T !numEQ 51088
new line.CTR158010 bus1=BMT126561670.3,bus2=BMT164065862.3,Phases=1,LineCode=tieSwitch1,Length=0.001,Units=km,switch=T !numEQ 264287
new line.CTR158017 bus1=BMT126561684.3,bus2=BMT126561754.3,Phases=1,LineCode=tieSwitch1,Length=0.001,Units=km,switch=T !numEQ 51090
new line.CTR158024 bus1=BMT126561831.3,bus2=BMT126562314.3,Phases=1,LineCode=tieSwitch1,Length=0.001,Units=km,switch=T !numEQ 51091