new load.3002995410M1 bus1=BMT166662641.1.2.3.0,Phases=3,kv=13.8,kW=71.79636,pf=0.92,Vminpu=0.93,Vmaxpu=1.5,model=8,zipv=[0.5,0,0.5,1,0,0,0],daily=A4-2,status=variable
new load.3006160646M1 bus1=BMT126550757.1.2.3.0,Phases=3,kv=13.8,kW=142.9786,pf=0.92,Vminpu=0.93,Vmaxpu=1.5,model=8,zipv=[0.5,0,0.5,1,0,0,0],daily=A4-4,status=variable
new load.3009000234M1 bus1=BMT169732120.1.2.3.0,Phases=3,kv=13.8,kW=15.70546,pf=0.92,Vminpu=0.93,Vmaxpu=1.5,model=8,zipv=[0.5,0,0.5,1,0,0,0],daily=A4-2,status=variable
new load.3009000236M1 bus1=BMT150346077.1.2.3.0,Phases=3,kv=13.8,kW=106.96682,pf=0.92,Vminpu=0.93,Vmaxpu=1.5,model=8,zipv=[0.5,0,0.5,1,0,0,0],daily=A4-3,status=variable
new load.3009000894M1 bus1=BMT126587409.1.2.3.0,Phases=3,kv=13.8,kW=194.19482,pf=0.92,Vminpu=0.93,Vmaxpu=1.5,model=8,zipv=[0.5,0,0.5,1,0,0,0],daily=A4-4,status=variable
new load.3009000895M1 bus1=BMT126585351.1.2.3.0,Phases=3,kv=13.8,kW=272.1228,pf=0.92,Vminpu=0.93,Vmaxpu=1.5,model=8,zipv=[0.5,0,0.5,1,0,0,0],daily=A4-5,status=variable
new load.3009002328M1 bus1=BMT126587395.1.2.3.0,Phases=3,kv=13.8,kW=2.24364,pf=0.92,Vminpu=0.93,Vmaxpu=1.5,model=8,zipv=[0.5,0,0.5,1,0,0,0],daily=A4-2,status=variable
new load.3009007284M1 bus1=BMT160426012.1.2.3.0,Phases=3,kv=13.8,kW=3.85884,pf=0.92,Vminpu=0.93,Vmaxpu=1.5,model=8,zipv=[0.5,0,0.5,1,0,0,0],daily=A4-6,status=variable
new load.3009007290M1 bus1=BMT126553319.1.2.3.0,Phases=3,kv=13.8,kW=1.59614,pf=0.92,Vminpu=0.93,Vmaxpu=1.5,model=8,zipv=[0.5,0,0.5,1,0,0,0],daily=A4-1,status=variable
new load.3009007714M1 bus1=BMT152551615.1.2.3.0,Phases=3,kv=34.5,kW=29.16728,pf=0.92,Vminpu=0.93,Vmaxpu=1.5,model=8,zipv=[0.5,0,0.5,1,0,0,0],daily=A4-2,status=variable
new load.3009008125M1 bus1=BMT151432258.1.2.3.0,Phases=3,kv=13.8,kW=3.1923,pf=0.92,Vminpu=0.93,Vmaxpu=1.5,model=8,zipv=[0.5,0,0.5,1,0,0,0],daily=A4-1,status=variable
new load.3009008410M1 bus1=BMT161314975.1.2.3.0,Phases=3,kv=13.8,kW=4.7246,pf=0.92,Vminpu=0.93,Vmaxpu=1.5,model=8,zipv=[0.5,0,0.5,1,0,0,0],daily=A4-1,status=variable
new load.3009008513M1 bus1=BMT126589474.1.2.3.0,Phases=3,kv=13.8,kW=7.98074,pf=0.92,Vminpu=0.93,Vmaxpu=1.5,model=8,zipv=[0.5,0,0.5,1,0,0,0],daily=A4-1,status=variable
new load.3009008537M1 bus1=BMT126571239.1.2.3.0,Phases=3,kv=13.8,kW=162.07146,pf=0.92,Vminpu=0.93,Vmaxpu=1.5,model=8,zipv=[0.5,0,0.5,1,0,0,0],daily=A4-6,status=variable
new load.3009009049M1 bus1=BMT171139777.1.2.3.0,Phases=3,kv=13.8,kW=50.33732,pf=0.92,Vminpu=0.93,Vmaxpu=1.5,model=8,zipv=[0.5,0,0.5,1,0,0,0],daily=A4-3,status=variable
new load.3009009050M1 bus1=BMT126570791.1.2.3.0,Phases=3,kv=13.8,kW=15.96148,pf=0.92,Vminpu=0.93,Vmaxpu=1.5,model=8,zipv=[0.5,0,0.5,1,0,0,0],daily=A4-1,status=variable
new load.3009010078M1 bus1=BMT126543400.1.2.3.0,Phases=3,kv=13.8,kW=40.54616,pf=0.92,Vminpu=0.93,Vmaxpu=1.5,model=8,zipv=[0.5,0,0.5,1,0,0,0],daily=A4-4,status=variable
new load.3009010895M1 bus1=BMT126553291.1.2.3.0,Phases=3,kv=13.8,kW=48.23556,pf=0.92,Vminpu=0.93,Vmaxpu=1.5,model=8,zipv=[0.5,0,0.5,1,0,0,0],daily=A4-6,status=variable
new load.3009011184M1 bus1=BMT126568803.1.2.3.0,Phases=3,kv=13.8,kW=106.96682,pf=0.92,Vminpu=0.93,Vmaxpu=1.5,model=8,zipv=[0.5,0,0.5,1,0,0,0],daily=A4-3,status=variable
new load.3009011490M1 bus1=BMT126569363.1.2.3.0,Phases=3,kv=13.8,kW=100.67464,pf=0.92,Vminpu=0.93,Vmaxpu=1.5,model=8,zipv=[0.5,0,0.5,1,0,0,0],daily=A4-3,status=variable
new load.3009012179M1 bus1=BMT126570028.1.2.3.0,Phases=3,kv=13.8,kW=4.78844,pf=0.92,Vminpu=0.93,Vmaxpu=1.5,model=8,zipv=[0.5,0,0.5,1,0,0,0],daily=A4-1,status=variable
new load.3009014500M1 bus1=BMT126552906.1.2.3.0,Phases=3,kv=13.8,kW=185.65878,pf=0.92,Vminpu=0.93,Vmaxpu=1.5,model=8,zipv=[0.5,0,0.5,1,0,0,0],daily=A4-4,status=variable
new load.3009015009M1 bus1=BMT126543316.1.2.3.0,Phases=3,kv=13.8,kW=27.26604,pf=0.92,Vminpu=0.93,Vmaxpu=1.5,model=8,zipv=[0.5,0,0.5,1,0,0,0],daily=A4-3,status=variable
new load.3009016679M1 bus1=BMT126586919.1.2.3.0,Phases=3,kv=13.8,kW=10.48694,pf=0.92,Vminpu=0.93,Vmaxpu=1.5,model=8,zipv=[0.5,0,0.5,1,0,0,0],daily=A4-3,status=variable
new load.3009017330M1 bus1=BMT126567319.1.2.3.0,Phases=3,kv=13.8,kW=44.04516,pf=0.92,Vminpu=0.93,Vmaxpu=1.5,model=8,zipv=[0.5,0,0.5,1,0,0,0],daily=A4-3,status=variable
new load.3009017461M1 bus1=BMT126567333.1.2.3.0,Phases=3,kv=13.8,kW=67.3091,pf=0.92,Vminpu=0.93,Vmaxpu=1.5,model=8,zipv=[0.5,0,0.5,1,0,0,0],daily=A4-2,status=variable
new load.3009018916M1 bus1=BMT126568936.1.2.3.0,Phases=3,kv=13.8,kW=2.24364,pf=0.92,Vminpu=0.93,Vmaxpu=1.5,model=8,zipv=[0.5,0,0.5,1,0,0,0],daily=A4-2,status=variable
new load.3009019644M1 bus1=BMT126591119.1.2.3.0,Phases=3,kv=13.8,kW=41.94776,pf=0.92,Vminpu=0.93,Vmaxpu=1.5,model=8,zipv=[0.5,0,0.5,1,0,0,0],daily=A4-3,status=variable
new load.3009020133M1 bus1=BMT126571344.1.2.3.0,Phases=3,kv=13.8,kW=25.16866,pf=0.92,Vminpu=0.93,Vmaxpu=1.5,model=8,zipv=[0.5,0,0.5,1,0,0,0],daily=A4-3,status=variable
new load.3009021042M1 bus1=BMT151529991.1.2.3.0,Phases=3,kv=13.8,kW=2.24364,pf=0.92,Vminpu=0.93,Vmaxpu=1.5,model=8,zipv=[0.5,0,0.5,1,0,0,0],daily=A4-2,status=variable
new load.3009021203M1 bus1=BMT150346073.1.2.3.0,Phases=3,kv=13.8,kW=11.17302,pf=0.92,Vminpu=0.93,Vmaxpu=1.5,model=8,zipv=[0.5,0,0.5,1,0,0,0],daily=A4-1,status=variable
new load.3010006408M1 bus1=BMT150346058.1.2.3.0,Phases=3,kv=13.8,kW=46.14254,pf=0.92,Vminpu=0.93,Vmaxpu=1.5,model=8,zipv=[0.5,0,0.5,1,0,0,0],daily=A4-3,status=variable
new load.3010292443M1 bus1=BMT126593163.1.2.3.0,Phases=3,kv=13.8,kW=2.07728,pf=0.92,Vminpu=0.93,Vmaxpu=1.5,model=8,zipv=[0.5,0,0.5,1,0,0,0],daily=A4-5,status=variable
new load.3010327153M1 bus1=BMT126550127.1.2.3.0,Phases=3,kv=13.8,kW=19.20608,pf=0.92,Vminpu=0.93,Vmaxpu=1.5,model=8,zipv=[0.5,0,0.5,1,0,0,0],daily=A4-4,status=variable
new load.3010561866M1 bus1=BMT126545794.1.2.3.0,Phases=3,kv=13.8,kW=24.92728,pf=0.92,Vminpu=0.93,Vmaxpu=1.5,model=8,zipv=[0.5,0,0.5,1,0,0,0],daily=A4-5,status=variable
new load.3011810960M1 bus1=BMT148584730.1.2.3.0,Phases=3,kv=13.8,kW=33.65454,pf=0.92,Vminpu=0.93,Vmaxpu=1.5,model=8,zipv=[0.5,0,0.5,1,0,0,0],daily=A4-2,status=variable
new load.3011834883M1 bus1=BMT163651282.1.2.3.0,Phases=3,kv=13.8,kW=20.4229,pf=0.92,Vminpu=0.93,Vmaxpu=1.5,model=8,zipv=[0.5,0,0.5,1,0,0,0],daily=A4-7,status=variable
new load.3011859375M1 bus1=BMT142703614.1.2.3.0,Phases=3,kv=13.8,kW=10.48694,pf=0.92,Vminpu=0.93,Vmaxpu=1.5,model=8,zipv=[0.5,0,0.5,1,0,0,0],daily=A4-3,status=variable
new load.3012098192M1 bus1=BMT162960788.1.2.3.0,Phases=3,kv=13.8,kW=24.68,pf=0.92,Vminpu=0.93,Vmaxpu=1.5,model=8,zipv=[0.5,0,0.5,1,0,0,0],daily=A4-2,status=variable
new load.3012585239M1 bus1=BMT161624943.1.2.3.0,Phases=3,kv=13.8,kW=4.19478,pf=0.92,Vminpu=0.93,Vmaxpu=1.5,model=8,zipv=[0.5,0,0.5,1,0,0,0],daily=A4-3,status=variable
new load.3012655986M1 bus1=BMT150188471.1.2.3.0,Phases=3,kv=13.8,kW=27.00456,pf=0.92,Vminpu=0.93,Vmaxpu=1.5,model=8,zipv=[0.5,0,0.5,1,0,0,0],daily=A4-5,status=variable
new load.3013073935M1 bus1=BMT150346947.1.2.3.0,Phases=3,kv=13.8,kW=259.65916,pf=0.92,Vminpu=0.93,Vmaxpu=1.5,model=8,zipv=[0.5,0,0.5,1,0,0,0],daily=A4-5,status=variable
new load.3013262053M1 bus1=BMT126585302.1.2.3.0,Phases=3,kv=13.8,kW=468.0248,pf=0.92,Vminpu=0.93,Vmaxpu=1.5,model=8,zipv=[0.5,0,0.5,1,0,0,0],daily=A4-7,status=variable
new load.3013262109M1 bus1=BMT150346069.1.2.3.0,Phases=3,kv=13.8,kW=307.43646,pf=0.92,Vminpu=0.93,Vmaxpu=1.5,model=8,zipv=[0.5,0,0.5,1,0,0,0],daily=A4-5,status=variable
new load.3013390526M1 bus1=BMT163199991.1.2.3.0,Phases=3,kv=13.8,kW=21.22364,pf=0.92,Vminpu=0.93,Vmaxpu=1.5,model=8,zipv=[0.5,0,0.5,1,0,0,0],daily=A4-6,status=variable
new load.3013390601M1 bus1=BMT163353640.1.2.3.0,Phases=3,kv=13.8,kW=27.74212,pf=0.92,Vminpu=0.93,Vmaxpu=1.5,model=8,zipv=[0.5,0,0.5,1,0,0,0],daily=A4-4,status=variable
new load.3013773439M1 bus1=BMT171743826.1.2.3.0,Phases=3,kv=13.8,kW=108.83446,pf=0.92,Vminpu=0.93,Vmaxpu=1.5,model=8,zipv=[0.5,0,0.5,1,0,0,0],daily=A4-4,status=variable
