new line.RML10050130 bus1=BBT2740037.1.2.0,bus2=RML1060050130.1.2.0,Phases=2,Linecode=CABBTG05_4_2,Length=0.017000000,Units=km
new line.RML10050137 bus1=BBT1082955.1.0,bus2=RML1060050137.1.0,Phases=1,Linecode=CABBTG02_4_1,Length=0.017000000,Units=km
new line.RML10050148 bus1=BBT1134139.1.0,bus2=RML1060050148.1.0,Phases=1,Linecode=CABBTG02_4_1,Length=0.017000000,Units=km
new line.RML10050174 bus1=BBT949080.2.0,bus2=RML1060050174.2.0,Phases=1,Linecode=CABBTG01_4_1,Length=0.017000000,Units=km
new line.RML10050181 bus1=BBT4656546.1.2.0,bus2=RML1060050181.1.2.0,Phases=2,Linecode=CABBTG05_4_2,Length=0.017000000,Units=km
new line.RML10055624 bus1=BBT949871.2.0,bus2=RML1060055624.2.0,Phases=1,Linecode=CABBTG01_4_1,Length=0.017000000,Units=km
new line.RML10055626 bus1=BBT1138535.1.0,bus2=RML1060055626.1.0,Phases=1,Linecode=CABBTG01_4_1,Length=0.017000000,Units=km
new line.RML10055628 bus1=BBT944971.1.2.0,bus2=RML1060055628.1.2.0,Phases=2,Linecode=CABBTG05_4_2,Length=0.017000000,Units=km
new line.RML10055630 bus1=BBT1111984.1.0,bus2=RML1060055630.1.0,Phases=1,Linecode=CABBTG02_4_1,Length=0.017000000,Units=km
new line.RML10055631 bus1=BBT133773966.1.3.0,bus2=RML1060055631.1.3.0,Phases=2,Linecode=CABBTG05_4_2,Length=0.017000000,Units=km
new line.RML10055636 bus1=BBT1243773.2.0,bus2=RML1060055636.2.0,Phases=1,Linecode=CABBTG01_4_1,Length=0.017000000,Units=km
new line.RML10055656 bus1=BBT140113131.2.3.0,bus2=RML1060055656.2.3.0,Phases=2,Linecode=CABBTG05_4_2,Length=0.017000000,Units=km
new line.RML10056394 bus1=BBT3080335.1.0,bus2=RML1060056394.1.0,Phases=1,Linecode=CABBTG02_4_1,Length=0.017000000,Units=km
new line.RML10056397 bus1=BBT3269048.1.0,bus2=RML1060056397.1.0,Phases=1,Linecode=CABBTG01_4_1,Length=0.017000000,Units=km
new line.RML10056399 bus1=BBT1078265.1.2.0,bus2=RML1060056399.1.2.0,Phases=2,Linecode=CABBTG05_4_2,Length=0.017000000,Units=km
new line.RML10056405 bus1=BBT1111662.2.3.0,bus2=RML1060056405.2.3.0,Phases=2,Linecode=CABBTG05_4_2,Length=0.017000000,Units=km
new line.RML10056408 bus1=BBT1079350.1.0,bus2=RML1060056408.1.0,Phases=1,Linecode=CABBTG01_4_1,Length=0.017000000,Units=km
new line.RML10056409 bus1=BBT1137674.2.0,bus2=RML1060056409.2.0,Phases=1,Linecode=CABBTG02_4_1,Length=0.017000000,Units=km
new line.RML10056411 bus1=BBT2905573.1.2.3.0,bus2=RML1060056411.1.2.3.0,Phases=3,Linecode=CABBTG06_4_3,Length=0.017000000,Units=km
new line.RML10056425 bus1=BBT1136526.1.0,bus2=RML1060056425.1.0,Phases=1,Linecode=CABBTG02_4_1,Length=0.017000000,Units=km
new line.RML10056427 bus1=BBT1088884.1.2.0,bus2=RML1060056427.1.2.0,Phases=2,Linecode=CABBTG05_4_2,Length=0.017000000,Units=km
new line.RML10056432 bus1=BBT1127930.2.0,bus2=RML1060056432.2.0,Phases=1,Linecode=CABBTG02_4_1,Length=0.017000000,Units=km
new line.RML10057401 bus1=BBT146899834.1.2.3.0,bus2=RML1060057401.1.2.3.0,Phases=3,Linecode=CABBTG08_4_3,Length=0.017000000,Units=km
new line.RML10057643 bus1=BBT148653038.1.2.3.0,bus2=RML1060057643.1.2.3.0,Phases=3,Linecode=CABBTG08_4_3,Length=0.017000000,Units=km
new line.RML10057935 bus1=BBT1082934.2.3.0,bus2=RML1060057935.2.3.0,Phases=2,Linecode=CABBTG05_4_2,Length=0.017000000,Units=km
new line.RML10057936 bus1=BBT1077754.1.2.0,bus2=RML1060057936.1.2.0,Phases=2,Linecode=CABBTG05_4_2,Length=0.017000000,Units=km
new line.RML10057937 bus1=BBT2700249.2.3.0,bus2=RML1060057937.2.3.0,Phases=2,Linecode=CABBTG05_4_2,Length=0.017000000,Units=km
new line.RML10057938 bus1=BBT953525.2.0,bus2=RML1060057938.2.0,Phases=1,Linecode=CABBTG01_4_1,Length=0.017000000,Units=km
new line.RML10057940 bus1=BBT1117052.1.0,bus2=RML1060057940.1.0,Phases=1,Linecode=CABBTG01_4_1,Length=0.017000000,Units=km
new line.RML10057968 bus1=BBT147286836.1.2.0,bus2=RML1060057968.1.2.0,Phases=2,Linecode=CABBTG05_4_2,Length=0.017000000,Units=km
new line.RML10057969 bus1=BBT148181715.1.2.3.0,bus2=RML1060057969.1.2.3.0,Phases=3,Linecode=CABBTG08_4_3,Length=0.017000000,Units=km
new line.RML10102194 bus1=BBT1117157.1.2.3.0,bus2=RML1060102194.1.2.3.0,Phases=3,Linecode=CABBTG08_4_3,Length=0.017000000,Units=km
new line.RML10102207 bus1=BBT954246.1.2.3.0,bus2=RML1060102207.1.2.3.0,Phases=3,Linecode=CABBTG06_4_3,Length=0.017000000,Units=km
new line.RML10102224 bus1=BBT3269041.1.2.0,bus2=RML1060102224.1.2.0,Phases=2,Linecode=CABBTG05_4_2,Length=0.017000000,Units=km
new line.RML10102434 bus1=BBT1119460.1.2.0,bus2=RML1060102434.1.2.0,Phases=2,Linecode=CABBTG05_4_2,Length=0.017000000,Units=km
new line.RML10102477 bus1=BBT1123289.3.0,bus2=RML1060102477.3.0,Phases=1,Linecode=CABBTG01_4_1,Length=0.017000000,Units=km
new line.RML10102485 bus1=BBT5227039.1.0,bus2=RML1060102485.1.0,Phases=1,Linecode=CABBTG01_4_1,Length=0.017000000,Units=km
new line.RML10102490 bus1=BBT1124346.1.2.0,bus2=RML1060102490.1.2.0,Phases=2,Linecode=CABBTG05_4_2,Length=0.017000000,Units=km
new line.RML10102499 bus1=BBT3269006.1.2.0,bus2=RML1060102499.1.2.0,Phases=2,Linecode=CABBTG05_4_2,Length=0.017000000,Units=km
new line.RML10102576 bus1=BBT2162278.1.2.0,bus2=RML1060102576.1.2.0,Phases=2,Linecode=CABBTG05_4_2,Length=0.017000000,Units=km
new line.RML10102582 bus1=BBT140113131.1.2.3.0,bus2=RML1060102582.1.2.3.0,Phases=3,Linecode=CABBTG07_4_3,Length=0.017000000,Units=km
new line.RML10102603 bus1=BBT133778677.1.2.0,bus2=RML1060102603.1.2.0,Phases=2,Linecode=CABBTG05_4_2,Length=0.017000000,Units=km
new line.RML10102617 bus1=BBT3087356.1.0,bus2=RML1060102617.1.0,Phases=1,Linecode=CABBTG02_4_1,Length=0.017000000,Units=km
new line.RML10102627 bus1=BBT129548304.2.3.0,bus2=RML1060102627.2.3.0,Phases=2,Linecode=CABBTG05_4_2,Length=0.017000000,Units=km
new line.RML10104494 bus1=BBT3288921.1.0,bus2=RML1060104494.1.0,Phases=1,Linecode=CABBTG02_4_1,Length=0.010000000,Units=km
new line.RML10171163 bus1=BBT1219035.1.2.3.0,bus2=RML1060171163.1.2.3.0,Phases=3,Linecode=CABBTG06_4_3,Length=0.017000000,Units=km
new line.RML10171175 bus1=BBT954225.1.2.0,bus2=RML1060171175.1.2.0,Phases=2,Linecode=CABBTG05_4_2,Length=0.017000000,Units=km
new line.RML10171182 bus1=BBT954309.1.2.0,bus2=RML1060171182.1.2.0,Phases=2,Linecode=CABBTG05_4_2,Length=0.017000000,Units=km
new line.RML10171191 bus1=BBT954309.1.2.0,bus2=RML1060171191.1.2.0,Phases=2,Linecode=CABBTG05_4_2,Length=0.017000000,Units=km
new line.RML10171194 bus1=BBT1100826.1.2.0,bus2=RML1060171194.1.2.0,Phases=2,Linecode=CABBTG05_4_2,Length=0.017000000,Units=km
new line.RML10171206 bus1=BBT955457.1.2.0,bus2=RML1060171206.1.2.0,Phases=2,Linecode=CABBTG05_4_2,Length=0.017000000,Units=km
new line.RML10171212 bus1=BBT1109149.1.2.0,bus2=RML1060171212.1.2.0,Phases=2,Linecode=CABBTG05_4_2,Length=0.029000000,Units=km
new line.RML10171216 bus1=BBT1078216.1.0,bus2=RML1060171216.1.0,Phases=1,Linecode=CABBTG02_4_1,Length=0.017000000,Units=km
new line.RML10171222 bus1=BBT1077516.1.2.0,bus2=RML1060171222.1.2.0,Phases=2,Linecode=CABBTG05_4_2,Length=0.017000000,Units=km
new line.RML10171225 bus1=BBT1077474.1.0,bus2=RML1060171225.1.0,Phases=1,Linecode=CABBTG02_4_1,Length=0.017000000,Units=km
new line.RML10171233 bus1=BBT1139018.1.2.0,bus2=RML1060171233.1.2.0,Phases=2,Linecode=CABBTG05_4_2,Length=0.017000000,Units=km
new line.RML10171240 bus1=BBT135282459.1.0,bus2=RML1060171240.1.0,Phases=1,Linecode=CABBTG02_4_1,Length=0.017000000,Units=km
new line.RML10171245 bus1=BBT1117241.1.2.0,bus2=RML1060171245.1.2.0,Phases=2,Linecode=CABBTG05_4_2,Length=0.017000000,Units=km
new line.RML10171254 bus1=BBT2248315.2.0,bus2=RML1060171254.2.0,Phases=1,Linecode=CABBTG02_4_1,Length=0.017000000,Units=km
new line.RML10171329 bus1=BBT2740884.2.0,bus2=RML1060171329.2.0,Phases=1,Linecode=CABBTG02_4_1,Length=0.017000000,Units=km
new line.RML10171334 bus1=BBT145790313.1.0,bus2=RML1060171334.1.0,Phases=1,Linecode=CABBTG02_4_1,Length=0.017000000,Units=km
new line.RML10171337 bus1=BBT145790313.2.0,bus2=RML1060171337.2.0,Phases=1,Linecode=CABBTG02_4_1,Length=0.017000000,Units=km
new line.RML10171338 bus1=BBT145790313.3.0,bus2=RML1060171338.3.0,Phases=1,Linecode=CABBTG02_4_1,Length=0.017000000,Units=km
new line.RML10171340 bus1=BBT145790306.2.0,bus2=RML1060171340.2.0,Phases=1,Linecode=CABBTG02_4_1,Length=0.017000000,Units=km
new line.RML10171342 bus1=BBT145790299.2.0,bus2=RML1060171342.2.0,Phases=1,Linecode=CABBTG02_4_1,Length=0.017000000,Units=km
new line.RML10171345 bus1=BBT145790299.2.0,bus2=RML1060171345.2.0,Phases=1,Linecode=CABBTG02_4_1,Length=0.017000000,Units=km
new line.RML10171347 bus1=BBT145790299.2.0,bus2=RML1060171347.2.0,Phases=1,Linecode=CABBTG02_4_1,Length=0.017000000,Units=km
new line.RML10171349 bus1=BBT145790299.1.0,bus2=RML1060171349.1.0,Phases=1,Linecode=CABBTG02_4_1,Length=0.017000000,Units=km
new line.RML10171352 bus1=BBT1119922.2.0,bus2=RML1060171352.2.0,Phases=1,Linecode=CABBTG02_4_1,Length=0.017000000,Units=km
new line.RML10171367 bus1=BBT1115701.1.2.0,bus2=RML1060171367.1.2.0,Phases=2,Linecode=CABBTG05_4_2,Length=0.017000000,Units=km
new line.RML10171370 bus1=BBT1127797.1.3.0,bus2=RML1060171370.1.3.0,Phases=2,Linecode=CABBTG05_4_2,Length=0.017000000,Units=km
new line.RML10171379 bus1=BBT5382138.1.2.0,bus2=RML1060171379.1.2.0,Phases=2,Linecode=CABBTG05_4_2,Length=0.017000000,Units=km
new line.RML10171392 bus1=BBT1136106.1.0,bus2=RML1060171392.1.0,Phases=1,Linecode=CABBTG02_4_1,Length=0.017000000,Units=km
new line.RML10171393 bus1=BBT1136106.1.0,bus2=RML1060171393.1.0,Phases=1,Linecode=CABBTG02_4_1,Length=0.017000000,Units=km
new line.RML10171402 bus1=BBT133775562.1.2.0,bus2=RML1060171402.1.2.0,Phases=2,Linecode=CABBTG05_4_2,Length=0.017000000,Units=km
new line.RML10171414 bus1=BBT133773966.2.0,bus2=RML1060171414.2.0,Phases=1,Linecode=CABBTG02_4_1,Length=0.017000000,Units=km
new line.RML10171416 bus1=BBT133778103.1.2.0,bus2=RML1060171416.1.2.0,Phases=2,Linecode=CABBTG05_4_2,Length=0.017000000,Units=km
new line.RML10171444 bus1=BBT1134685.1.0,bus2=RML1060171444.1.0,Phases=1,Linecode=CABBTG02_4_1,Length=0.017000000,Units=km
new line.RML10171445 bus1=BBT95247877.1.0,bus2=RML1060171445.1.0,Phases=1,Linecode=CABBTG02_4_1,Length=0.017000000,Units=km
new line.RML10171447 bus1=BBT94495244.1.0,bus2=RML1060171447.1.0,Phases=1,Linecode=CABBTG02_4_1,Length=0.017000000,Units=km
new line.RML10171453 bus1=BBT1117101.1.0,bus2=RML1060171453.1.0,Phases=1,Linecode=CABBTG02_4_1,Length=0.017000000,Units=km
new line.RML10171464 bus1=BBT1137233.1.0,bus2=RML1060171464.1.0,Phases=1,Linecode=CABBTG02_4_1,Length=0.017000000,Units=km
new line.RML10171467 bus1=BBT3087503.1.0,bus2=RML1060171467.1.0,Phases=1,Linecode=CABBTG02_4_1,Length=0.017000000,Units=km
new line.RML10171472 bus1=BBT1120454.1.2.0,bus2=RML1060171472.1.2.0,Phases=2,Linecode=CABBTG05_4_2,Length=0.017000000,Units=km
new line.RML10171474 bus1=BBT48603804.1.0,bus2=RML1060171474.1.0,Phases=1,Linecode=CABBTG02_4_1,Length=0.017000000,Units=km
new line.RML10171475 bus1=BBT48603804.1.0,bus2=RML1060171475.1.0,Phases=1,Linecode=CABBTG02_4_1,Length=0.017000000,Units=km
new line.RML10171478 bus1=BBT3267788.2.0,bus2=RML1060171478.2.0,Phases=1,Linecode=CABBTG02_4_1,Length=0.017000000,Units=km
new line.RML10171480 bus1=BBT3087097.1.2.0,bus2=RML1060171480.1.2.0,Phases=2,Linecode=CABBTG05_4_2,Length=0.017000000,Units=km
new line.RML10171482 bus1=BBT3086782.2.0,bus2=RML1060171482.2.0,Phases=1,Linecode=CABBTG02_4_1,Length=0.017000000,Units=km
new line.RML10171483 bus1=BBT3086782.1.0,bus2=RML1060171483.1.0,Phases=1,Linecode=CABBTG02_4_1,Length=0.017000000,Units=km
new line.RML10171484 bus1=BBT3086782.1.0,bus2=RML1060171484.1.0,Phases=1,Linecode=CABBTG02_4_1,Length=0.017000000,Units=km
new line.RML10171485 bus1=BBT3086782.2.0,bus2=RML1060171485.2.0,Phases=1,Linecode=CABBTG02_4_1,Length=0.017000000,Units=km
new line.RML10171488 bus1=BBT3086789.2.0,bus2=RML1060171488.2.0,Phases=1,Linecode=CABBTG02_4_1,Length=0.017000000,Units=km
new line.RML10171489 bus1=BBT3086789.1.0,bus2=RML1060171489.1.0,Phases=1,Linecode=CABBTG02_4_1,Length=0.017000000,Units=km
new line.RML10171490 bus1=BBT3086789.1.0,bus2=RML1060171490.1.0,Phases=1,Linecode=CABBTG02_4_1,Length=0.017000000,Units=km
new line.RML10171491 bus1=BBT3086789.1.0,bus2=RML1060171491.1.0,Phases=1,Linecode=CABBTG02_4_1,Length=0.017000000,Units=km
new line.RML10171492 bus1=BBT3086789.2.0,bus2=RML1060171492.2.0,Phases=1,Linecode=CABBTG02_4_1,Length=0.017000000,Units=km
new line.RML10171493 bus1=BBT3086789.2.0,bus2=RML1060171493.2.0,Phases=1,Linecode=CABBTG02_4_1,Length=0.017000000,Units=km
new line.RML10171496 bus1=BBT3081196.2.0,bus2=RML1060171496.2.0,Phases=1,Linecode=CABBTG02_4_1,Length=0.017000000,Units=km
new line.RML10171498 bus1=BBT3080979.2.0,bus2=RML1060171498.2.0,Phases=1,Linecode=CABBTG02_4_1,Length=0.017000000,Units=km
new line.RML10171500 bus1=BBT1133558.2.0,bus2=RML1060171500.2.0,Phases=1,Linecode=CABBTG02_4_1,Length=0.017000000,Units=km
new line.RML10173460 bus1=BBT1137863.1.0,bus2=RML1060173460.1.0,Phases=1,Linecode=CABBTG02_4_1,Length=0.017000000,Units=km
new line.RML10173548 bus1=BBT1081114.1.2.0,bus2=RML1060173548.1.2.0,Phases=2,Linecode=CABBTG05_4_2,Length=0.017000000,Units=km
new line.RML10173554 bus1=BBT133777445.2.3.0,bus2=RML1060173554.2.3.0,Phases=2,Linecode=CABBTG05_4_2,Length=0.017000000,Units=km
new line.RML10173556 bus1=BBT1072329.1.0,bus2=RML1060173556.1.0,Phases=1,Linecode=CABBTG02_4_1,Length=0.017000000,Units=km
new line.RML10173579 bus1=BBT1116758.1.3.0,bus2=RML1060173579.1.3.0,Phases=2,Linecode=CABBTG05_4_2,Length=0.017000000,Units=km
new line.RML10173664 bus1=BBT956591.1.2.0,bus2=RML1060173664.1.2.0,Phases=2,Linecode=CABBTG05_4_2,Length=0.017000000,Units=km
new line.RML10173672 bus1=BBT956591.2.0,bus2=RML1060173672.2.0,Phases=1,Linecode=CABBTG02_4_1,Length=0.017000000,Units=km
new line.RML10173676 bus1=BBT161413762.1.2.0,bus2=RML1060173676.1.2.0,Phases=2,Linecode=CABBTG05_4_2,Length=0.017000000,Units=km
new line.RML10173680 bus1=BBT946091.1.2.0,bus2=RML1060173680.1.2.0,Phases=2,Linecode=CABBTG05_4_2,Length=0.017000000,Units=km
new line.RML10173686 bus1=BBT5381907.1.2.0,bus2=RML1060173686.1.2.0,Phases=2,Linecode=CABBTG05_4_2,Length=0.017000000,Units=km
new line.RML10173742 bus1=BBT2493518.1.2.0,bus2=RML1060173742.1.2.0,Phases=2,Linecode=CABBTG04_4_2,Length=0.017000000,Units=km
new line.RML10173761 bus1=BBT1136778.3.0,bus2=RML1060173761.3.0,Phases=1,Linecode=CABBTG02_4_1,Length=0.017000000,Units=km
new line.RML10173798 bus1=BBT1128931.2.3.0,bus2=RML1060173798.2.3.0,Phases=2,Linecode=CABBTG04_4_2,Length=0.017000000,Units=km
new line.RML10035005 bus1=BBT3269202.2.0,bus2=RML1060035005.2.0,Phases=1,Linecode=CABBTG01_4_1,Length=0.017000000,Units=km
new line.RML10035011 bus1=BBT133776374.1.2.0,bus2=RML1060035011.1.2.0,Phases=2,Linecode=CABBTG04_4_2,Length=0.017000000,Units=km
new line.RML10035015 bus1=BBT3217087.1.2.0,bus2=RML1060035015.1.2.0,Phases=2,Linecode=CABBTG04_4_2,Length=0.017000000,Units=km
new line.RML10035055 bus1=BBT1088170.1.0,bus2=RML1060035055.1.0,Phases=1,Linecode=CABBTG02_4_1,Length=0.017000000,Units=km
new line.RML10035057 bus1=BBT1075605.1.0,bus2=RML1060035057.1.0,Phases=1,Linecode=CABBTG01_4_1,Length=0.017000000,Units=km
new line.RML10035058 bus1=BBT2490081.1.2.0,bus2=RML1060035058.1.2.0,Phases=2,Linecode=CABBTG04_4_2,Length=0.017000000,Units=km
new line.RML10035059 bus1=BBT129548255.1.2.0,bus2=RML1060035059.1.2.0,Phases=2,Linecode=CABBTG05_4_2,Length=0.017000000,Units=km
new line.RML10035060 bus1=BBT129548682.1.2.0,bus2=RML1060035060.1.2.0,Phases=2,Linecode=CABBTG05_4_2,Length=0.017000000,Units=km
new line.RML10035061 bus1=BBT5413666.1.2.3.0,bus2=RML1060035061.1.2.3.0,Phases=3,Linecode=CABBTG06_4_3,Length=0.017000000,Units=km
new line.RML10035914 bus1=BBT951425.2.0,bus2=RML1060035914.2.0,Phases=1,Linecode=CABBTG01_4_1,Length=0.017000000,Units=km
new line.RML10035916 bus1=BBT3269209.1.0,bus2=RML1060035916.1.0,Phases=1,Linecode=CABBTG01_4_1,Length=0.017000000,Units=km
new line.RML10035917 bus1=BBT1121791.1.3.0,bus2=RML1060035917.1.3.0,Phases=2,Linecode=CABBTG04_4_2,Length=0.017000000,Units=km
new line.RML10035918 bus1=BBT956024.1.0,bus2=RML1060035918.1.0,Phases=1,Linecode=CABBTG01_4_1,Length=0.017000000,Units=km
new line.RML10035936 bus1=BBT3267816.1.2.0,bus2=RML1060035936.1.2.0,Phases=2,Linecode=CABBTG05_4_2,Length=0.017000000,Units=km
new line.RML10035937 bus1=BBT1134321.1.0,bus2=RML1060035937.1.0,Phases=1,Linecode=CABBTG01_4_1,Length=0.017000000,Units=km
new line.RML10035939 bus1=BBT1087484.1.0,bus2=RML1060035939.1.0,Phases=1,Linecode=CABBTG01_4_1,Length=0.017000000,Units=km
new line.RML10038273 bus1=BBT148085900.1.2.0,bus2=RML1060038273.1.2.0,Phases=2,Linecode=CABBTG05_4_2,Length=0.017000000,Units=km
new line.RML10040910 bus1=BBT149470292.1.2.0,bus2=RML1060040910.1.2.0,Phases=2,Linecode=CABBTG05_4_2,Length=0.017000000,Units=km
new line.RML10040921 bus1=BBT3087370.1.0,bus2=RML1060040921.1.0,Phases=1,Linecode=CABBTG01_4_1,Length=0.017000000,Units=km
new line.RML10040929 bus1=BBT1120405.1.2.3.0,bus2=RML1060040929.1.2.3.0,Phases=3,Linecode=CABBTG06_4_3,Length=0.017000000,Units=km
new line.RML10041299 bus1=BBT1215416.1.0,bus2=RML1060041299.1.0,Phases=1,Linecode=CABBTG01_4_1,Length=0.017000000,Units=km
new line.RML10041595 bus1=BBT1129162.1.0,bus2=RML1060041595.1.0,Phases=1,Linecode=CABBTG01_4_1,Length=0.017000000,Units=km
new line.RML10041599 bus1=BBT953259.1.3.0,bus2=RML1060041599.1.3.0,Phases=2,Linecode=CABBTG05_4_2,Length=0.017000000,Units=km
new line.RML10041619 bus1=BBT133777445.1.2.0,bus2=RML1060041619.1.2.0,Phases=2,Linecode=CABBTG04_4_2,Length=0.017000000,Units=km
new line.RML10041622 bus1=BBT2254188.1.0,bus2=RML1060041622.1.0,Phases=1,Linecode=CABBTG01_4_1,Length=0.017000000,Units=km
new line.RML10107794 bus1=BBT3277490.1.2.0,bus2=RML1060107794.1.2.0,Phases=2,Linecode=CABBTG05_4_2,Length=0.017000000,Units=km
new line.RML10107805 bus1=BBT1079049.2.0,bus2=RML1060107805.2.0,Phases=1,Linecode=CABBTG02_4_1,Length=0.017000000,Units=km
new line.RML10107817 bus1=BBT1112838.1.2.0,bus2=RML1060107817.1.2.0,Phases=2,Linecode=CABBTG05_4_2,Length=0.017000000,Units=km
new line.RML10107848 bus1=BBT1136750.2.0,bus2=RML1060107848.2.0,Phases=1,Linecode=CABBTG02_4_1,Length=0.017000000,Units=km
new line.RML10107855 bus1=BBT3268957.1.0,bus2=RML1060107855.1.0,Phases=1,Linecode=CABBTG01_4_1,Length=0.017000000,Units=km
new line.RML10107874 bus1=BBT1120027.3.0,bus2=RML1060107874.3.0,Phases=1,Linecode=CABBTG01_4_1,Length=0.017000000,Units=km
new line.RML10107895 bus1=BBT2908709.1.0,bus2=RML1060107895.1.0,Phases=1,Linecode=CABBTG01_4_1,Length=0.017000000,Units=km
new line.RML10107972 bus1=BBT1134258.1.0,bus2=RML1060107972.1.0,Phases=1,Linecode=CABBTG01_4_1,Length=0.017000000,Units=km
new line.RML10107981 bus1=BBT133775618.1.2.0,bus2=RML1060107981.1.2.0,Phases=2,Linecode=CABBTG05_4_2,Length=0.017000000,Units=km
new line.RML10108030 bus1=BBT3080986.1.2.0,bus2=RML1060108030.1.2.0,Phases=2,Linecode=CABBTG05_4_2,Length=0.017000000,Units=km
new line.RML10108095 bus1=BBT149410211.1.2.0,bus2=RML1060108095.1.2.0,Phases=2,Linecode=CABBTG05_4_2,Length=0.013000000,Units=km
new line.RML10112120 bus1=BBT3288165.3.0,bus2=RML1060112120.3.0,Phases=1,Linecode=CABBTG01_4_1,Length=0.017000000,Units=km
new line.RML10112197 bus1=BBT95245763.2.0,bus2=RML1060112197.2.0,Phases=1,Linecode=CABBTG01_4_1,Length=0.017000000,Units=km
new line.RML10112379 bus1=BBT1123604.1.2.3.0,bus2=RML1060112379.1.2.3.0,Phases=3,Linecode=CABBTG08_4_3,Length=0.054,Units=km
new line.RML10164549 bus1=BBT3268992.1.0,bus2=RML1060164549.1.0,Phases=1,Linecode=CABBTG02_4_1,Length=0.017000000,Units=km
new line.RML10164578 bus1=BBT952209.1.2.3.0,bus2=RML1060164578.1.2.3.0,Phases=3,Linecode=CABBTG06_4_3,Length=0.017000000,Units=km
new line.RML10164611 bus1=BBT2897810.1.0,bus2=RML1060164611.1.0,Phases=1,Linecode=CABBTG01_4_1,Length=0.017000000,Units=km
new line.RML10170272 bus1=BBT1243514.1.0,bus2=RML1060170272.1.0,Phases=1,Linecode=CABBTG01_4_1,Length=0.017000000,Units=km
new line.RML10170303 bus1=BBT2907799.1.2.0,bus2=RML1060170303.1.2.0,Phases=2,Linecode=CABBTG05_4_2,Length=0.017000000,Units=km
new line.RML10170306 bus1=BBT1092678.1.2.3.0,bus2=RML1060170306.1.2.3.0,Phases=3,Linecode=CABBTG06_4_3,Length=0.017000000,Units=km
new line.RML10170307 bus1=BBT1092678.1.2.0,bus2=RML1060170307.1.2.0,Phases=2,Linecode=CABBTG05_4_2,Length=0.017000000,Units=km
new line.RML10170312 bus1=BBT1086168.1.0,bus2=RML1060170312.1.0,Phases=1,Linecode=CABBTG02_4_1,Length=0.017000000,Units=km
new line.RML10170319 bus1=BBT1083718.2.3.0,bus2=RML1060170319.2.3.0,Phases=2,Linecode=CABBTG05_4_2,Length=0.017000000,Units=km
new line.RML10170325 bus1=BBT2490501.1.2.0,bus2=RML1060170325.1.2.0,Phases=2,Linecode=CABBTG05_4_2,Length=0.017000000,Units=km
new line.RML10170335 bus1=BBT108178305.1.2.0,bus2=RML1060170335.1.2.0,Phases=2,Linecode=CABBTG05_4_2,Length=0.017000000,Units=km
new line.RML10170398 bus1=BBT1132487.2.0,bus2=RML1060170398.2.0,Phases=1,Linecode=CABBTG02_4_1,Length=0.017000000,Units=km
new line.RML10170410 bus1=BBT1086658.2.0,bus2=RML1060170410.2.0,Phases=1,Linecode=CABBTG02_4_1,Length=0.017000000,Units=km
new line.RML10170416 bus1=BBT3385913.2.0,bus2=RML1060170416.2.0,Phases=1,Linecode=CABBTG02_4_1,Length=0.017000000,Units=km
new line.RML10170442 bus1=BBT5599026.2.0,bus2=RML1060170442.2.0,Phases=1,Linecode=CABBTG02_4_1,Length=0.017000000,Units=km
new line.RML10170474 bus1=BBT146061619.1.0,bus2=RML1060170474.1.0,Phases=1,Linecode=CABBTG02_4_1,Length=0.017000000,Units=km
new line.RML10170488 bus1=BBT956507.1.0,bus2=RML1060170488.1.0,Phases=1,Linecode=CABBTG02_4_1,Length=0.017000000,Units=km
new line.RML10170496 bus1=BBT956920.2.0,bus2=RML1060170496.2.0,Phases=1,Linecode=CABBTG02_4_1,Length=0.017000000,Units=km
new line.RML10058783 bus1=BBT144984123.1.2.0,bus2=RML1060058783.1.2.0,Phases=2,Linecode=CABBTG05_4_2,Length=0.017000000,Units=km
new line.RML10058863 bus1=BBT145817130.1.2.0,bus2=RML1060058863.1.2.0,Phases=2,Linecode=CABBTG05_4_2,Length=0.017000000,Units=km
new line.RML10059295 bus1=BBT147232824.1.2.0,bus2=RML1060059295.1.2.0,Phases=2,Linecode=CABBTG05_4_2,Length=0.017000000,Units=km
new line.RML10059298 bus1=BBT147243646.1.2.0,bus2=RML1060059298.1.2.0,Phases=2,Linecode=CABBTG05_4_2,Length=0.017000000,Units=km
new line.RML10059299 bus1=BBT147261307.1.2.0,bus2=RML1060059299.1.2.0,Phases=2,Linecode=CABBTG05_4_2,Length=0.017000000,Units=km
new line.RML10059300 bus1=BBT147288103.1.2.0,bus2=RML1060059300.1.2.0,Phases=2,Linecode=CABBTG05_4_2,Length=0.017000000,Units=km
new line.RML10059528 bus1=BBT141300779.1.2.0,bus2=RML1060059528.1.2.0,Phases=2,Linecode=CABBTG05_4_2,Length=0.017000000,Units=km
new line.RML10059708 bus1=BBT145844143.1.2.0,bus2=RML1060059708.1.2.0,Phases=2,Linecode=CABBTG05_4_2,Length=0.017000000,Units=km
new line.RML10059710 bus1=BBT145844241.1.2.0,bus2=RML1060059710.1.2.0,Phases=2,Linecode=CABBTG05_4_2,Length=0.017000000,Units=km
new line.RML10059712 bus1=BBT145844430.1.2.0,bus2=RML1060059712.1.2.0,Phases=2,Linecode=CABBTG05_4_2,Length=0.017000000,Units=km
new line.RML10059714 bus1=BBT145844794.1.2.0,bus2=RML1060059714.1.2.0,Phases=2,Linecode=CABBTG05_4_2,Length=0.017000000,Units=km
new line.RML10059726 bus1=BBT146031379.1.2.0,bus2=RML1060059726.1.2.0,Phases=2,Linecode=CABBTG05_4_2,Length=0.017000000,Units=km
new line.RML10059729 bus1=BBT146089024.1.2.0,bus2=RML1060059729.1.2.0,Phases=2,Linecode=CABBTG05_4_2,Length=0.017000000,Units=km
new line.RML10059737 bus1=BBT146736930.1.2.0,bus2=RML1060059737.1.2.0,Phases=2,Linecode=CABBTG05_4_2,Length=0.017000000,Units=km
new line.RML10059748 bus1=BBT147244052.1.2.0,bus2=RML1060059748.1.2.0,Phases=2,Linecode=CABBTG05_4_2,Length=0.017000000,Units=km
new line.RML10059762 bus1=BBT148083095.1.2.0,bus2=RML1060059762.1.2.0,Phases=2,Linecode=CABBTG05_4_2,Length=0.017000000,Units=km
new line.RML10059876 bus1=BBT145844878.1.2.0,bus2=RML1060059876.1.2.0,Phases=2,Linecode=CABBTG05_4_2,Length=0.017000000,Units=km
new line.RML10061883 bus1=BBT3587891.1.2.0,bus2=RML1060061883.1.2.0,Phases=2,Linecode=CABBTG05_4_2,Length=0.017000000,Units=km
new line.RML10061887 bus1=BBT1120244.1.2.0,bus2=RML1060061887.1.2.0,Phases=2,Linecode=CABBTG05_4_2,Length=0.017000000,Units=km
new line.RML10061892 bus1=BBT1100238.1.2.0,bus2=RML1060061892.1.2.0,Phases=2,Linecode=CABBTG05_4_2,Length=0.017000000,Units=km
new line.RML10061942 bus1=BBT3929617.1.0,bus2=RML1060061942.1.0,Phases=1,Linecode=CABBTG01_4_1,Length=0.017000000,Units=km
new line.RML10061945 bus1=BBT133775618.1.3.0,bus2=RML1060061945.1.3.0,Phases=2,Linecode=CABBTG04_4_2,Length=0.017000000,Units=km
new line.RML10061954 bus1=BBT1123506.1.2.0,bus2=RML1060061954.1.2.0,Phases=2,Linecode=CABBTG04_4_2,Length=0.017000000,Units=km
new line.RML10061961 bus1=BBT952398.1.2.3.0,bus2=RML1060061961.1.2.3.0,Phases=3,Linecode=CABBTG07_4_3,Length=0.017000000,Units=km
new line.RML10061965 bus1=BBT2490431.1.2.0,bus2=RML1060061965.1.2.0,Phases=2,Linecode=CABBTG05_4_2,Length=0.017000000,Units=km
new line.RML10061999 bus1=BBT1093812.1.2.3.0,bus2=RML1060061999.1.2.3.0,Phases=3,Linecode=CABBTG06_4_3,Length=0.017000000,Units=km
new line.RML10062000 bus1=BBT956906.2.0,bus2=RML1060062000.2.0,Phases=1,Linecode=CABBTG02_4_1,Length=0.017000000,Units=km
new line.RML10062005 bus1=BBT956696.3.0,bus2=RML1060062005.3.0,Phases=1,Linecode=CABBTG01_4_1,Length=0.017000000,Units=km
new line.RML10062050 bus1=BBT135560667.1.2.0,bus2=RML1060062050.1.2.0,Phases=2,Linecode=CABBTG05_4_2,Length=0.017000000,Units=km
new line.RML10062056 bus1=BBT147517906.1.2.0,bus2=RML1060062056.1.2.0,Phases=2,Linecode=CABBTG05_4_2,Length=0.017000000,Units=km
new line.RML10062177 bus1=BBT148780388.1.2.0,bus2=RML1060062177.1.2.0,Phases=2,Linecode=CABBTG13_4_2,Length=0.017000000,Units=km
new line.RML10062758 bus1=BBT148789174.1.2.0,bus2=RML1060062758.1.2.0,Phases=2,Linecode=CABBTG05_4_2,Length=0.016000000,Units=km
new line.RML10062899 bus1=BBT148792108.1.2.0,bus2=RML1060062899.1.2.0,Phases=2,Linecode=CABBTG05_4_2,Length=0.022000000,Units=km
new line.RML10062934 bus1=BBT137405419.1.2.3.0,bus2=RML1060062934.1.2.3.0,Phases=3,Linecode=CABBTG08_4_3,Length=0.017000000,Units=km
new line.RML10130710 bus1=BBT133775660.1.2.0,bus2=RML1060130710.1.2.0,Phases=2,Linecode=CABBTG05_4_2,Length=0.017000000,Units=km
new line.RML10130766 bus1=BBT1078034.1.0,bus2=RML1060130766.1.0,Phases=1,Linecode=CABBTG02_4_1,Length=0.017000000,Units=km
new line.RML10130773 bus1=BBT1139249.1.2.0,bus2=RML1060130773.1.2.0,Phases=2,Linecode=CABBTG05_4_2,Length=0.020000000,Units=km
new line.RML10130875 bus1=BBT133776612.1.3.0,bus2=RML1060130875.1.3.0,Phases=2,Linecode=CABBTG05_4_2,Length=0.017000000,Units=km
new line.RML10130916 bus1=BBT1071818.1.0,bus2=RML1060130916.1.0,Phases=1,Linecode=CABBTG02_4_1,Length=0.017000000,Units=km
new line.RML10130952 bus1=BBT1134657.2.0,bus2=RML1060130952.2.0,Phases=1,Linecode=CABBTG02_4_1,Length=0.017000000,Units=km
new line.RML10130976 bus1=BBT949885.1.0,bus2=RML1060130976.1.0,Phases=1,Linecode=CABBTG02_4_1,Length=0.017000000,Units=km
new line.RML10131151 bus1=BBT140420641.1.2.0,bus2=RML1060131151.1.2.0,Phases=2,Linecode=CABBTG05_4_2,Length=0.017000000,Units=km
new line.RML10132235 bus1=BBT1085370.1.0,bus2=RML1060132235.1.0,Phases=1,Linecode=CABBTG02_4_1,Length=0.017000000,Units=km
new line.RML10134108 bus1=BBT1116989.2.3.0,bus2=RML1060134108.2.3.0,Phases=2,Linecode=CABBTG05_4_2,Length=0.017000000,Units=km
new line.RML10195935 bus1=BBT1086742.1.2.3.0,bus2=RML1060195935.1.2.3.0,Phases=3,Linecode=CABBTG06_4_3,Length=0.017000000,Units=km
new line.RML10196093 bus1=BBT1119845.1.2.3.0,bus2=RML1060196093.1.2.3.0,Phases=3,Linecode=CABBTG06_4_3,Length=0.017000000,Units=km
new line.RML10196129 bus1=BBT1115372.1.2.0,bus2=RML1060196129.1.2.0,Phases=2,Linecode=CABBTG05_4_2,Length=0.017000000,Units=km
new line.RML10196166 bus1=BBT3080972.1.0,bus2=RML1060196166.1.0,Phases=1,Linecode=CABBTG02_4_1,Length=0.017000000,Units=km
new line.RML10196168 bus1=BBT172128983.2.0,bus2=RML1060196168.2.0,Phases=1,Linecode=CABBTG02_4_1,Length=0.017000000,Units=km
new line.RML10196172 bus1=BBT1070229.1.2.0,bus2=RML1060196172.1.2.0,Phases=2,Linecode=CABBTG05_4_2,Length=0.017000000,Units=km
new line.RML10196179 bus1=BBT953322.1.3.0,bus2=RML1060196179.1.3.0,Phases=2,Linecode=CABBTG05_4_2,Length=0.017000000,Units=km
new line.RML10196239 bus1=BBT1125599.1.2.0,bus2=RML1060196239.1.2.0,Phases=2,Linecode=CABBTG05_4_2,Length=0.017000000,Units=km
new line.RML10196240 bus1=BBT1077229.1.2.0,bus2=RML1060196240.1.2.0,Phases=2,Linecode=CABBTG05_4_2,Length=0.017000000,Units=km
new line.RML10200619 bus1=BBT951894.1.2.0,bus2=RML1060200619.1.2.0,Phases=2,Linecode=CABBTG04_4_2,Length=0.017000000,Units=km
new line.RML10200693 bus1=BBT146061619.1.0,bus2=RML1060200693.1.0,Phases=1,Linecode=CABBTG02_4_1,Length=0.017000000,Units=km
new line.RML10200701 bus1=BBT95243299.1.2.0,bus2=RML1060200701.1.2.0,Phases=2,Linecode=CABBTG05_4_2,Length=0.017000000,Units=km
new line.RML10033176 bus1=BBT988665.1.0,bus2=RML1060033176.1.0,Phases=1,Linecode=CABBTG02_4_1,Length=0.017000000,Units=km
new line.RML10033407 bus1=BBT3542951.1.2.3.0,bus2=RML1060033407.1.2.3.0,Phases=3,Linecode=CABBTG06_4_3,Length=0.017000000,Units=km
new line.RML10033469 bus1=BBT1116786.1.3.0,bus2=RML1060033469.1.3.0,Phases=2,Linecode=CABBTG04_4_2,Length=0.017000000,Units=km
new line.RML10033470 bus1=BBT5477499.1.2.0,bus2=RML1060033470.1.2.0,Phases=2,Linecode=CABBTG05_4_2,Length=0.017000000,Units=km
new line.RML10033472 bus1=BBT951614.1.2.0,bus2=RML1060033472.1.2.0,Phases=2,Linecode=CABBTG04_4_2,Length=0.017000000,Units=km
new line.RML10033476 bus1=BBT1099153.1.2.0,bus2=RML1060033476.1.2.0,Phases=2,Linecode=CABBTG05_4_2,Length=0.017000000,Units=km
new line.RML10033477 bus1=BBT2493553.1.2.0,bus2=RML1060033477.1.2.0,Phases=2,Linecode=CABBTG05_4_2,Length=0.017000000,Units=km
new line.RML10033570 bus1=BBT2492384.2.0,bus2=RML1060033570.2.0,Phases=1,Linecode=CABBTG01_4_1,Length=0.017000000,Units=km
new line.RML10091628 bus1=BBT2488562.2.0,bus2=RML1060091628.2.0,Phases=1,Linecode=CABBTG02_4_1,Length=0.010000000,Units=km
new line.RML10091630 bus1=BBT2488555.1.2.0,bus2=RML1060091630.1.2.0,Phases=2,Linecode=CABBTG05_4_2,Length=0.010000000,Units=km
new line.RML10096763 bus1=BBT959335.1.2.0,bus2=RML1060096763.1.2.0,Phases=2,Linecode=CABBTG05_4_2,Length=0.017000000,Units=km