new transformer.1014019 Phases=1,Windings=3,Buses=[BMT153000831.2 BBT87881021.1.0 BBT87881021.0.2],Conns=[wye wye wye],kvs=[7.967 0.12 0.12],kvas=[5.000000000 5.000000000 5.000000000],Taps=[1,1.000000000,1.000000000],%loadloss=1.900000000,%noloadloss=0.600000000
new transformer.1014026 Phases=1,Windings=3,Buses=[BMT150056288.2 BBT87882932.1.0 BBT87882932.0.2],Conns=[wye wye wye],kvs=[7.967 0.12 0.12],kvas=[5.000000000 5.000000000 5.000000000],Taps=[1,1.000000000,1.000000000],%loadloss=1.900000000,%noloadloss=0.600000000
new transformer.1015608 Phases=1,Windings=3,Buses=[BMT126558954.1 BBT88909587.1.0 BBT88909587.0.2],Conns=[wye wye wye],kvs=[19.92 0.12 0.12],kvas=[5.000000000 5.000000000 5.000000000],Taps=[1,1.000000000,1.000000000],%loadloss=1.900000000,%noloadloss=0.600000000
new transformer.1015650 Phases=1,Windings=3,Buses=[BMT126558968.1 BBT88950341.1.0 BBT88950341.0.2],Conns=[wye wye wye],kvs=[19.92 0.12 0.12],kvas=[5.000000000 5.000000000 5.000000000],Taps=[1,1.000000000,1.000000000],%loadloss=1.900000000,%noloadloss=0.600000000
new transformer.1015783 Phases=1,Windings=3,Buses=[BMT126558940.1 BBT89268610.1.0 BBT89268610.0.2],Conns=[wye wye wye],kvs=[19.92 0.12 0.12],kvas=[10.000000000 10.000000000 10.000000000],Taps=[1,1.000000000,1.000000000],%loadloss=1.800000000,%noloadloss=0.450000000
new transformer.1015797 Phases=1,Windings=3,Buses=[BMT126558975.1 BBT89269331.1.0 BBT89269331.0.2],Conns=[wye wye wye],kvs=[19.92 0.12 0.12],kvas=[5.000000000 5.000000000 5.000000000],Taps=[1,1.000000000,1.000000000],%loadloss=1.900000000,%noloadloss=0.600000000
new transformer.1030301 Phases=1,Windings=3,Buses=[BMT126579681.3 BBT98175963.1.0 BBT98175963.0.2],Conns=[wye wye wye],kvs=[7.967 0.12 0.12],kvas=[5.000000000 5.000000000 5.000000000],Taps=[1,1.000000000,1.000000000],%loadloss=1.900000000,%noloadloss=0.600000000
new transformer.1030308 Phases=1,Windings=3,Buses=[BMT168522699.1 BBT98193337.1.0 BBT98193337.0.2],Conns=[wye wye wye],kvs=[19.92 0.12 0.12],kvas=[5.000000000 5.000000000 5.000000000],Taps=[1,1.000000000,1.000000000],%loadloss=1.900000000,%noloadloss=0.600000000
new transformer.1047269 Phases=1,Windings=3,Buses=[BMT149409975.3 BBT112929135.1.0 BBT112929135.0.2],Conns=[wye wye wye],kvs=[7.967 0.12 0.12],kvas=[15.000000000 15.000000000 15.000000000],Taps=[1,1.000000000,1.000000000],%loadloss=1.600000000,%noloadloss=0.400000000
new transformer.1048060 Phases=3,Windings=2,Buses=[BMT149580318.1.2.3 BBT113737572.1.2.3.0],Conns=[delta wye],kvs=[13.8 0.22],kvas=[30.000000000 30.000000000],Taps=[1,1.000000000],%loadloss=1.667000000,%noloadloss=0.433333000
new transformer.1064594 Phases=3,Windings=2,Buses=[BMT173098479.1.2.3 BBT130955136.1.2.3.0],Conns=[delta wye],kvs=[13.8 0.22],kvas=[45.000000000 45.000000000],Taps=[1,1.000000000],%loadloss=1.522000000,%noloadloss=0.377777000
new transformer.1065084 Phases=3,Windings=2,Buses=[BMT172948175.1.2.3 BBT131079421.1.2.3.0],Conns=[delta wye],kvs=[13.8 0.22],kvas=[30.000000000 30.000000000],Taps=[1,1.000000000],%loadloss=1.667000000,%noloadloss=0.433333000
new transformer.1104151 Phases=1,Windings=3,Buses=[BMT160171089.3 BBT142690293.1.0 BBT142690293.0.2],Conns=[wye wye wye],kvs=[7.967 0.12 0.12],kvas=[10.000000000 10.000000000 10.000000000],Taps=[1,1.000000000,1.000000000],%loadloss=1.800000000,%noloadloss=0.450000000
new transformer.1104522 Phases=1,Windings=3,Buses=[BMT142762092.1 BBT142761728.1.0 BBT142761728.0.2],Conns=[wye wye wye],kvs=[19.92 0.12 0.12],kvas=[10.000000000 10.000000000 10.000000000],Taps=[1,1.000000000,1.000000000],%loadloss=1.800000000,%noloadloss=0.450000000
new transformer.1105047 Phases=3,Windings=2,Buses=[BMT142983026.1.2.3 BBT142940081.1.2.3.0],Conns=[delta wye],kvs=[13.8 0.22],kvas=[15.000000000 15.000000000],Taps=[1,1.000000000],%loadloss=1.967000000,%noloadloss=0.500000000
new transformer.1105096 Phases=3,Windings=2,Buses=[BMT162961293.1.2.3 BBT142945765.1.2.3.0],Conns=[delta wye],kvs=[13.8 0.22],kvas=[45.000000000 45.000000000],Taps=[1,1.000000000],%loadloss=1.522000000,%noloadloss=0.377777000
new transformer.1121672 Phases=1,Windings=3,Buses=[BMT147232810.3 BBT147232817.1.0 BBT147232817.0.2],Conns=[wye wye wye],kvs=[19.92 0.12 0.12],kvas=[15.000000000 15.000000000 15.000000000],Taps=[1,1.000000000,1.000000000],%loadloss=1.600000000,%noloadloss=0.400000000
new transformer.1121714 Phases=1,Windings=3,Buses=[BMT161064272.3 BBT147243639.1.0 BBT147243639.0.2],Conns=[wye wye wye],kvs=[7.967 0.12 0.12],kvas=[15.000000000 15.000000000 15.000000000],Taps=[1,1.000000000,1.000000000],%loadloss=1.600000000,%noloadloss=0.400000000
new transformer.1121721 Phases=1,Windings=3,Buses=[BMT161064271.3 BBT147244045.1.0 BBT147244045.0.2],Conns=[wye wye wye],kvs=[7.967 0.12 0.12],kvas=[15.000000000 15.000000000 15.000000000],Taps=[1,1.000000000,1.000000000],%loadloss=1.600000000,%noloadloss=0.400000000
new transformer.1121777 Phases=1,Windings=3,Buses=[BMT166991640.2 BBT147261300.1.0 BBT147261300.0.2],Conns=[wye wye wye],kvs=[7.967 0.12 0.12],kvas=[10.000000000 10.000000000 10.000000000],Taps=[1,1.000000000,1.000000000],%loadloss=1.800000000,%noloadloss=0.450000000
new transformer.1121805 Phases=1,Windings=3,Buses=[BMT172844615.3 BBT147286829.1.0 BBT147286829.0.2],Conns=[wye wye wye],kvs=[7.967 0.12 0.12],kvas=[15.000000000 15.000000000 15.000000000],Taps=[1,1.000000000,1.000000000],%loadloss=1.600000000,%noloadloss=0.400000000
new transformer.1121812 Phases=1,Windings=3,Buses=[BMT163098194.2 BBT147288096.1.0 BBT147288096.0.2],Conns=[wye wye wye],kvs=[7.967 0.12 0.12],kvas=[15.000000000 15.000000000 15.000000000],Taps=[1,1.000000000,1.000000000],%loadloss=1.600000000,%noloadloss=0.400000000
new transformer.1122596 Phases=1,Windings=3,Buses=[BMT147490788.3 BBT147490949.1.0 BBT147490949.0.2],Conns=[wye wye wye],kvs=[19.92 0.12 0.12],kvas=[15.000000000 15.000000000 15.000000000],Taps=[1,1.000000000,1.000000000],%loadloss=1.600000000,%noloadloss=0.400000000
new transformer.1122715 Phases=1,Windings=3,Buses=[BMT171117963.1 BBT147517899.1.0 BBT147517899.0.2],Conns=[wye wye wye],kvs=[7.967 0.12 0.12],kvas=[35.000000000 35.000000000 35.000000000],Taps=[1,1.000000000,1.000000000],%loadloss=1.293000000,%noloadloss=0.342857000
new transformer.1122813 Phases=3,Windings=2,Buses=[BMT164499780.1.2.3 BBT147549658.1.2.3.0],Conns=[delta wye],kvs=[13.8 0.22],kvas=[75.000000000 75.000000000],Taps=[1,1.000000000],%loadloss=1.340000000,%noloadloss=0.340000000
new transformer.1393227 Phases=1,Windings=3,Buses=[BMT169802268.3 BBT148780387.1.0 BBT148780387.0.2],Conns=[wye wye wye],kvs=[7.967 0.12 0.12],kvas=[10.000000000 10.000000000 10.000000000],Taps=[1,1.000000000,1.000000000],%loadloss=1.800000000,%noloadloss=0.450000000
new transformer.1393271 Phases=1,Windings=3,Buses=[BMT162941006.1 BBT148789173.1.0 BBT148789173.0.2],Conns=[wye wye wye],kvs=[7.967 0.12 0.12],kvas=[10.000000000 10.000000000 10.000000000],Taps=[1,1.000000000,1.000000000],%loadloss=1.800000000,%noloadloss=0.450000000
new transformer.1393284 Phases=1,Windings=3,Buses=[BMT160159203.3 BBT148792107.1.0 BBT148792107.0.2],Conns=[wye wye wye],kvs=[7.967 0.12 0.12],kvas=[10.000000000 10.000000000 10.000000000],Taps=[1,1.000000000,1.000000000],%loadloss=1.800000000,%noloadloss=0.450000000
new transformer.1022769 Phases=1,Windings=3,Buses=[BMT165263771.2 BBT92682069.1.0 BBT92682069.0.2],Conns=[wye wye wye],kvs=[7.967 0.12 0.12],kvas=[5.000000000 5.000000000 5.000000000],Taps=[1,1.000000000,1.000000000],%loadloss=1.900000000,%noloadloss=0.600000000
new transformer.1039807 Phases=1,Windings=3,Buses=[BMT126581886.2 BBT104481934.1.0 BBT104481934.0.2],Conns=[wye wye wye],kvs=[7.967 0.12 0.12],kvas=[10.000000000 10.000000000 10.000000000],Taps=[1,1.000000000,1.000000000],%loadloss=1.800000000,%noloadloss=0.450000000
new transformer.1050993 Phases=1,Windings=3,Buses=[BMT160124492.2 BBT116487116.1.0 BBT116487116.0.2],Conns=[wye wye wye],kvs=[7.967 0.12 0.12],kvas=[10.000000000 10.000000000 10.000000000],Taps=[1,1.000000000,1.000000000],%loadloss=1.800000000,%noloadloss=0.450000000
new transformer.1063873 Phases=1,Windings=3,Buses=[BMT130655858.2 BBT130655865.1.0 BBT130655865.0.2],Conns=[wye wye wye],kvs=[7.967 0.12 0.12],kvas=[15.000000000 15.000000000 15.000000000],Taps=[1,1.000000000,1.000000000],%loadloss=1.600000000,%noloadloss=0.400000000
new transformer.1074723 Phases=1,Windings=3,Buses=[BMT172785749.1 BBT134426758.1.0 BBT134426758.0.2],Conns=[wye wye wye],kvs=[7.967 0.12 0.12],kvas=[15.000000000 15.000000000 15.000000000],Taps=[1,1.000000000,1.000000000],%loadloss=1.600000000,%noloadloss=0.400000000
new transformer.1074751 Phases=1,Windings=3,Buses=[BMT161378977.1 BBT134435277.1.0 BBT134435277.0.2],Conns=[wye wye wye],kvs=[7.967 0.12 0.12],kvas=[5.000000000 5.000000000 5.000000000],Taps=[1,1.000000000,1.000000000],%loadloss=1.900000000,%noloadloss=0.600000000
new transformer.1074884 Phases=1,Windings=3,Buses=[BMT164192519.3 BBT134473574.1.0 BBT134473574.0.2],Conns=[wye wye wye],kvs=[7.967 0.12 0.12],kvas=[35.000000000 35.000000000 35.000000000],Taps=[1,1.000000000,1.000000000],%loadloss=1.293000000,%noloadloss=0.342857000
new transformer.1075437 Phases=1,Windings=3,Buses=[BMT160356506.2 BBT134665038.1.0 BBT134665038.0.2],Conns=[wye wye wye],kvs=[7.967 0.12 0.12],kvas=[10.000000000 10.000000000 10.000000000],Taps=[1,1.000000000,1.000000000],%loadloss=1.800000000,%noloadloss=0.450000000
new transformer.1088100 Phases=1,Windings=3,Buses=[BMT173258926.2 BBT138413132.1.0 BBT138413132.0.2],Conns=[wye wye wye],kvs=[7.967 0.12 0.12],kvas=[10.000000000 10.000000000 10.000000000],Taps=[1,1.000000000,1.000000000],%loadloss=1.800000000,%noloadloss=0.450000000
new transformer.1088149 Phases=1,Windings=3,Buses=[BMT160709906.2 BBT138420601.1.0 BBT138420601.0.2],Conns=[wye wye wye],kvs=[7.967 0.12 0.12],kvas=[5.000000000 5.000000000 5.000000000],Taps=[1,1.000000000,1.000000000],%loadloss=1.900000000,%noloadloss=0.600000000
new transformer.1088205 Phases=3,Windings=2,Buses=[BMT170570626.1.2.3 BBT138433306.1.2.3.0],Conns=[delta wye],kvs=[13.8 0.22],kvas=[75.000000000 75.000000000],Taps=[1,1.000000000],%loadloss=1.340000000,%noloadloss=0.340000000
new transformer.1101715 Phases=1,Windings=3,Buses=[BMT172949022.3 BBT141974613.1.0 BBT141974613.0.2],Conns=[wye wye wye],kvs=[7.967 0.12 0.12],kvas=[10.000000000 10.000000000 10.000000000],Taps=[1,1.000000000,1.000000000],%loadloss=1.800000000,%noloadloss=0.450000000
new transformer.1101729 Phases=1,Windings=3,Buses=[BMT172949025.3 BBT141975481.1.0 BBT141975481.0.2],Conns=[wye wye wye],kvs=[7.967 0.12 0.12],kvas=[15.000000000 15.000000000 15.000000000],Taps=[1,1.000000000,1.000000000],%loadloss=1.600000000,%noloadloss=0.400000000
new transformer.1102660 Phases=3,Windings=2,Buses=[BMT142283656.1.2.3 BBT142282858.1.2.3.0],Conns=[delta wye],kvs=[13.8 0.22],kvas=[150.000000000 150.000000000],Taps=[1,1.000000000],%loadloss=1.127000000,%noloadloss=0.280000000
new transformer.1102933 Phases=1,Windings=3,Buses=[BMT163317581.1 BBT142338242.1.0 BBT142338242.0.2],Conns=[wye wye wye],kvs=[7.967 0.12 0.12],kvas=[15.000000000 15.000000000 15.000000000],Taps=[1,1.000000000,1.000000000],%loadloss=1.600000000,%noloadloss=0.400000000
new transformer.1115225 Phases=1,Windings=3,Buses=[BMT169820847.1 BBT145571234.1.0 BBT145571234.0.2],Conns=[wye wye wye],kvs=[19.92 0.12 0.12],kvas=[15.000000000 15.000000000 15.000000000],Taps=[1,1.000000000,1.000000000],%loadloss=1.600000000,%noloadloss=0.400000000
new transformer.1116121 Phases=1,Windings=3,Buses=[BMT164930796.2 BBT145817123.1.0 BBT145817123.0.2],Conns=[wye wye wye],kvs=[7.967 0.12 0.12],kvas=[15.000000000 15.000000000 15.000000000],Taps=[1,1.000000000,1.000000000],%loadloss=1.600000000,%noloadloss=0.400000000
new transformer.1116275 Phases=1,Windings=3,Buses=[BMT161566366.3 BBT145844136.1.0 BBT145844136.0.2],Conns=[wye wye wye],kvs=[7.967 0.12 0.12],kvas=[10.000000000 10.000000000 10.000000000],Taps=[1,1.000000000,1.000000000],%loadloss=1.800000000,%noloadloss=0.450000000
new transformer.1116282 Phases=1,Windings=3,Buses=[BMT161566365.3 BBT145844234.1.0 BBT145844234.0.2],Conns=[wye wye wye],kvs=[7.967 0.12 0.12],kvas=[10.000000000 10.000000000 10.000000000],Taps=[1,1.000000000,1.000000000],%loadloss=1.800000000,%noloadloss=0.450000000
new transformer.1116289 Phases=1,Windings=3,Buses=[BMT161566364.3 BBT145844423.1.0 BBT145844423.0.2],Conns=[wye wye wye],kvs=[7.967 0.12 0.12],kvas=[10.000000000 10.000000000 10.000000000],Taps=[1,1.000000000,1.000000000],%loadloss=1.800000000,%noloadloss=0.450000000
new transformer.1116296 Phases=1,Windings=3,Buses=[BMT161566045.3 BBT145844787.1.0 BBT145844787.0.2],Conns=[wye wye wye],kvs=[7.967 0.12 0.12],kvas=[15.000000000 15.000000000 15.000000000],Taps=[1,1.000000000,1.000000000],%loadloss=1.600000000,%noloadloss=0.400000000
new transformer.1116303 Phases=1,Windings=3,Buses=[BMT161565020.3 BBT145844871.1.0 BBT145844871.0.2],Conns=[wye wye wye],kvs=[7.967 0.12 0.12],kvas=[10.000000000 10.000000000 10.000000000],Taps=[1,1.000000000,1.000000000],%loadloss=1.800000000,%noloadloss=0.450000000
new transformer.1392044 Phases=3,Windings=2,Buses=[BMT156237082.1.2.3 BBT148531140.1.2.3.0],Conns=[delta wye],kvs=[13.8 0.22],kvas=[75.000000000 75.000000000],Taps=[1,1.000000000],%loadloss=1.340000000,%noloadloss=0.340000000
new transformer.1397005 Phases=3,Windings=2,Buses=[BMT167801979.1.2.3 BBT149681438.1.2.3.0],Conns=[delta wye],kvs=[13.8 0.22],kvas=[100.000000000 100.000000000],Taps=[1,1.000000000],%loadloss=1.218000000,%noloadloss=0.335000000
new transformer.1397258 Phases=3,Windings=2,Buses=[BMT165192126.1.2.3 BBT149738339.1.2.3.0],Conns=[delta wye],kvs=[13.8 0.22],kvas=[45.000000000 45.000000000],Taps=[1,1.000000000],%loadloss=1.522000000,%noloadloss=0.377777000
new transformer.1400304 Phases=3,Windings=2,Buses=[BMT171821724.1.2.3 BBT150502696.1.2.3.0],Conns=[delta wye],kvs=[13.8 0.22],kvas=[45.000000000 45.000000000],Taps=[1,1.000000000],%loadloss=1.522000000,%noloadloss=0.377777000
new transformer.1400316 Phases=3,Windings=2,Buses=[BMT171821726.1.2.3 BBT150506125.1.2.3.0],Conns=[delta wye],kvs=[13.8 0.22],kvas=[45.000000000 45.000000000],Taps=[1,1.000000000],%loadloss=1.522000000,%noloadloss=0.377777000
new transformer.1400325 Phases=3,Windings=2,Buses=[BMT171821738.1.2.3 BBT150507643.1.2.3.0],Conns=[delta wye],kvs=[13.8 0.22],kvas=[45.000000000 45.000000000],Taps=[1,1.000000000],%loadloss=1.522000000,%noloadloss=0.377777000
new transformer.1012773 Phases=1,Windings=3,Buses=[BMT169871161.2 BBT87458592.1.0 BBT87458592.0.2],Conns=[wye wye wye],kvs=[7.967 0.12 0.12],kvas=[5.000000000 5.000000000 5.000000000],Taps=[1,1.000000000,1.000000000],%loadloss=1.900000000,%noloadloss=0.600000000
new transformer.1012801 Phases=1,Windings=3,Buses=[BMT126590468.3 BBT87461644.1.0 BBT87461644.0.2],Conns=[wye wye wye],kvs=[7.967 0.12 0.12],kvas=[5.000000000 5.000000000 5.000000000],Taps=[1,1.000000000,1.000000000],%loadloss=1.900000000,%noloadloss=0.600000000
new transformer.1013774 Phases=1,Windings=3,Buses=[BMT172785751.3 BBT87851936.1.0 BBT87851936.0.2],Conns=[wye wye wye],kvs=[7.967 0.12 0.12],kvas=[5.000000000 5.000000000 5.000000000],Taps=[1,1.000000000,1.000000000],%loadloss=1.900000000,%noloadloss=0.600000000
new transformer.1013942 Phases=1,Windings=3,Buses=[BMT169871150.3 BBT87873027.1.0 BBT87873027.0.2],Conns=[wye wye wye],kvs=[7.967 0.12 0.12],kvas=[5.000000000 5.000000000 5.000000000],Taps=[1,1.000000000,1.000000000],%loadloss=1.900000000,%noloadloss=0.600000000
new transformer.1043048 Phases=1,Windings=3,Buses=[BMT172344386.3 BBT108040097.1.0 BBT108040097.0.2],Conns=[wye wye wye],kvs=[7.967 0.12 0.12],kvas=[35.000000000 35.000000000 35.000000000],Taps=[1,1.000000000,1.000000000],%loadloss=1.293000000,%noloadloss=0.342857000
new transformer.1055501 Phases=3,Windings=2,Buses=[BMT170217931.1.2.3 BBT127150034.1.2.3.0],Conns=[delta wye],kvs=[13.8 0.22],kvas=[30.000000000 30.000000000],Taps=[1,1.000000000],%loadloss=1.667000000,%noloadloss=0.433333000
new transformer.1071699 Phases=3,Windings=2,Buses=[BMT156875007.1.2.3 BBT133773560.1.2.3.0],Conns=[delta wye],kvs=[13.8 0.22],kvas=[45.000000000 45.000000000],Taps=[1,1.000000000],%loadloss=1.522000000,%noloadloss=0.377777000
new transformer.1071713 Phases=3,Windings=2,Buses=[BMT156137294.1.2.3 BBT133773798.1.2.3.0],Conns=[delta wye],kvs=[13.8 0.22],kvas=[45.000000000 45.000000000],Taps=[1,1.000000000],%loadloss=1.522000000,%noloadloss=0.377777000
new transformer.1071720 Phases=3,Windings=2,Buses=[BMT156137292.1.2.3 BBT133773959.1.2.3.0],Conns=[delta wye],kvs=[13.8 0.22],kvas=[45.000000000 45.000000000],Taps=[1,1.000000000],%loadloss=1.522000000,%noloadloss=0.377777000
new transformer.1083298 Phases=1,Windings=3,Buses=[BMT163190326.3 BBT137279027.1.0 BBT137279027.0.2],Conns=[wye wye wye],kvs=[7.967 0.12 0.12],kvas=[10.000000000 10.000000000 10.000000000],Taps=[1,1.000000000,1.000000000],%loadloss=1.800000000,%noloadloss=0.450000000
new transformer.1083536 Phases=3,Windings=2,Buses=[BMT173226752.1.2.3 BBT137405412.1.2.3.0],Conns=[delta wye],kvs=[13.8 0.22],kvas=[45.000000000 45.000000000],Taps=[1,1.000000000],%loadloss=1.522000000,%noloadloss=0.377777000
new transformer.1083578 Phases=3,Windings=2,Buses=[BMT169944046.1.2.3 BBT137409871.1.2.3.0],Conns=[delta wye],kvs=[13.8 0.22],kvas=[45.000000000 45.000000000],Taps=[1,1.000000000],%loadloss=1.522000000,%noloadloss=0.377777000
new transformer.1094330 Phases=1,Windings=3,Buses=[BMT140107972.2 BBT140107979.1.0 BBT140107979.0.2],Conns=[wye wye wye],kvs=[19.92 0.12 0.12],kvas=[15.000000000 15.000000000 15.000000000],Taps=[1,1.000000000,1.000000000],%loadloss=1.600000000,%noloadloss=0.400000000
new transformer.1094358 Phases=3,Windings=2,Buses=[BMT140112599.1.2.3 BBT140112613.1.2.3.0],Conns=[delta wye],kvs=[13.8 0.22],kvas=[45.000000000 45.000000000],Taps=[1,1.000000000],%loadloss=1.522000000,%noloadloss=0.377777000
new transformer.1105922 Phases=1,Windings=3,Buses=[BMT143176730.2 BBT143176737.1.0 BBT143176737.0.2],Conns=[wye wye wye],kvs=[7.967 0.12 0.12],kvas=[5.000000000 5.000000000 5.000000000],Taps=[1,1.000000000,1.000000000],%loadloss=1.900000000,%noloadloss=0.600000000
new transformer.1114756 Phases=1,Windings=3,Buses=[BMT164261740.1 BBT145467802.1.0 BBT145467802.0.2],Conns=[wye wye wye],kvs=[7.967 0.12 0.12],kvas=[5.000000000 5.000000000 5.000000000],Taps=[1,1.000000000,1.000000000],%loadloss=1.900000000,%noloadloss=0.600000000
new transformer.1114931 Phases=3,Windings=2,Buses=[BMT145514569.1.2.3 BBT145503264.1.2.3.0],Conns=[delta wye],kvs=[13.8 0.22],kvas=[45.000000000 45.000000000],Taps=[1,1.000000000],%loadloss=1.522000000,%noloadloss=0.377777000
new transformer.1391376 Phases=3,Windings=2,Buses=[BMT170497553.1.2.3 BBT148376891.1.2.3.0],Conns=[delta wye],kvs=[13.8 0.22],kvas=[150.000000000 150.000000000],Taps=[1,1.000000000],%loadloss=1.127000000,%noloadloss=0.280000000
new transformer.1394808 Phases=3,Windings=2,Buses=[BMT149158637.1.2.3 BBT149158116.1.2.3.0],Conns=[delta wye],kvs=[13.8 0.22],kvas=[45.000000000 45.000000000],Taps=[1,1.000000000],%loadloss=1.522000000,%noloadloss=0.377777000
new transformer.1394882 Phases=1,Windings=3,Buses=[BMT150933538.2 BBT149176624.1.0 BBT149176624.0.2],Conns=[wye wye wye],kvs=[7.967 0.12 0.12],kvas=[10.000000000 10.000000000 10.000000000],Taps=[1,1.000000000,1.000000000],%loadloss=1.800000000,%noloadloss=0.450000000
new transformer.1394927 Phases=1,Windings=3,Buses=[BMT150942131.3 BBT149190975.1.0 BBT149190975.0.2],Conns=[wye wye wye],kvs=[7.967 0.12 0.12],kvas=[5.000000000 5.000000000 5.000000000],Taps=[1,1.000000000,1.000000000],%loadloss=1.900000000,%noloadloss=0.600000000
new transformer.1395201 Phases=1,Windings=3,Buses=[BMT161184527.1 BBT149251939.1.0 BBT149251939.0.2],Conns=[wye wye wye],kvs=[7.967 0.12 0.12],kvas=[35.000000000 35.000000000 35.000000000],Taps=[1,1.000000000,1.000000000],%loadloss=1.293000000,%noloadloss=0.342857000
new transformer.1399356 Phases=1,Windings=3,Buses=[BMT150188753.1 BBT150180563.1.0 BBT150180563.0.2],Conns=[wye wye wye],kvs=[7.967 0.12 0.12],kvas=[5.000000000 5.000000000 5.000000000],Taps=[1,1.000000000,1.000000000],%loadloss=1.900000000,%noloadloss=0.600000000
new transformer.1399359 Phases=3,Windings=2,Buses=[BMT171281072.1.2.3 BBT150181379.1.2.3.0],Conns=[delta wye],kvs=[13.8 0.22],kvas=[30.000000000 30.000000000],Taps=[1,1.000000000],%loadloss=1.667000000,%noloadloss=0.433333000
new transformer.1399411 Phases=1,Windings=3,Buses=[BMT150194516.2 BBT150193836.1.0 BBT150193836.0.2],Conns=[wye wye wye],kvs=[7.967 0.12 0.12],kvas=[10.000000000 10.000000000 10.000000000],Taps=[1,1.000000000,1.000000000],%loadloss=1.800000000,%noloadloss=0.450000000
new transformer.1399437 Phases=3,Windings=2,Buses=[BMT170130684.1.2.3 BBT150202319.1.2.3.0],Conns=[delta wye],kvs=[13.8 0.22],kvas=[30.000000000 30.000000000],Taps=[1,1.000000000],%loadloss=1.667000000,%noloadloss=0.433333000
new transformer.1399522 Phases=1,Windings=3,Buses=[BMT150619589.2 BBT150232028.1.0 BBT150232028.0.2],Conns=[wye wye wye],kvs=[7.967 0.12 0.12],kvas=[5.000000000 5.000000000 5.000000000],Taps=[1,1.000000000,1.000000000],%loadloss=1.900000000,%noloadloss=0.600000000
new transformer.1399544 Phases=3,Windings=2,Buses=[BMT166662638.1.2.3 BBT150245159.1.2.3.0],Conns=[delta wye],kvs=[13.8 0.22],kvas=[45.000000000 45.000000000],Taps=[1,1.000000000],%loadloss=1.522000000,%noloadloss=0.377777000
new transformer.1019318 Phases=1,Windings=3,Buses=[BMT126560725.1 BBT91055976.1.0 BBT91055976.0.2],Conns=[wye wye wye],kvs=[7.967 0.12 0.12],kvas=[5.000000000 5.000000000 5.000000000],Taps=[1,1.000000000,1.000000000],%loadloss=1.900000000,%noloadloss=0.600000000
new transformer.1019570 Phases=1,Windings=3,Buses=[BMT126596726.2 BBT91150455.1.0 BBT91150455.0.2],Conns=[wye wye wye],kvs=[7.967 0.12 0.12],kvas=[5.000000000 5.000000000 5.000000000],Taps=[1,1.000000000,1.000000000],%loadloss=1.900000000,%noloadloss=0.600000000
new transformer.1019605 Phases=1,Windings=3,Buses=[BMT126596740.2 BBT91156517.1.0 BBT91156517.0.2],Conns=[wye wye wye],kvs=[7.967 0.12 0.12],kvas=[5.000000000 5.000000000 5.000000000],Taps=[1,1.000000000,1.000000000],%loadloss=1.900000000,%noloadloss=0.600000000
new transformer.1019661 Phases=1,Windings=3,Buses=[BMT126596754.2 BBT91164266.1.0 BBT91164266.0.2],Conns=[wye wye wye],kvs=[7.967 0.12 0.12],kvas=[10.000000000 10.000000000 10.000000000],Taps=[1,1.000000000,1.000000000],%loadloss=1.800000000,%noloadloss=0.450000000
new transformer.1058315 Phases=3,Windings=2,Buses=[BMT170901797.1.2.3 BBT128249545.1.2.3.0],Conns=[delta wye],kvs=[13.8 0.22],kvas=[30.000000000 30.000000000],Taps=[1,1.000000000],%loadloss=1.667000000,%noloadloss=0.433333000
new transformer.1059617 Phases=1,Windings=3,Buses=[BMT129045795.3 BBT128768420.1.0 BBT128768420.0.2],Conns=[wye wye wye],kvs=[7.967 0.12 0.12],kvas=[10.000000000 10.000000000 10.000000000],Taps=[1,1.000000000,1.000000000],%loadloss=1.800000000,%noloadloss=0.450000000
new transformer.1059666 Phases=3,Windings=2,Buses=[BMT142283677.1.2.3 BBT128791086.1.2.3.0],Conns=[delta wye],kvs=[13.8 0.22],kvas=[75.000000000 75.000000000],Taps=[1,1.000000000],%loadloss=1.340000000,%noloadloss=0.340000000
new transformer.1078342 Phases=1,Windings=3,Buses=[BMT170485353.3 BBT135560660.1.0 BBT135560660.0.2],Conns=[wye wye wye],kvs=[7.967 0.12 0.12],kvas=[10.000000000 10.000000000 10.000000000],Taps=[1,1.000000000,1.000000000],%loadloss=1.800000000,%noloadloss=0.450000000
new transformer.1097760 Phases=1,Windings=3,Buses=[BMT170159699.1 BBT140799747.1.0 BBT140799747.0.2],Conns=[wye wye wye],kvs=[7.967 0.12 0.12],kvas=[5.000000000 5.000000000 5.000000000],Taps=[1,1.000000000,1.000000000],%loadloss=1.900000000,%noloadloss=0.600000000
new transformer.1097900 Phases=1,Windings=3,Buses=[BMT160629186.1 BBT140831030.1.0 BBT140831030.0.2],Conns=[wye wye wye],kvs=[7.967 0.12 0.12],kvas=[10.000000000 10.000000000 10.000000000],Taps=[1,1.000000000,1.000000000],%loadloss=1.800000000,%noloadloss=0.450000000
new transformer.1098068 Phases=1,Windings=3,Buses=[BMT160634842.3 BBT140863874.1.0 BBT140863874.0.2],Conns=[wye wye wye],kvs=[7.967 0.12 0.12],kvas=[5.000000000 5.000000000 5.000000000],Taps=[1,1.000000000,1.000000000],%loadloss=1.900000000,%noloadloss=0.600000000
new transformer.1099286 Phases=1,Windings=3,Buses=[BMT163190329.3 BBT141250309.1.0 BBT141250309.0.2],Conns=[wye wye wye],kvs=[7.967 0.12 0.12],kvas=[10.000000000 10.000000000 10.000000000],Taps=[1,1.000000000,1.000000000],%loadloss=1.800000000,%noloadloss=0.450000000
new transformer.1119719 Phases=1,Windings=3,Buses=[BMT160520528.3 BBT146706949.1.0 BBT146706949.0.2],Conns=[wye wye wye],kvs=[19.92 0.12 0.12],kvas=[10.000000000 10.000000000 10.000000000],Taps=[1,1.000000000,1.000000000],%loadloss=1.800000000,%noloadloss=0.450000000
new transformer.1120272 Phases=3,Windings=2,Buses=[BMT162027424.1.2.3 BBT146899827.1.2.3.0],Conns=[delta wye],kvs=[13.8 0.22],kvas=[45.000000000 45.000000000],Taps=[1,1.000000000],%loadloss=1.522000000,%noloadloss=0.377777000
new transformer.1392607 Phases=1,Windings=3,Buses=[BMT172966960.3 BBT148647355.1.0 BBT148647355.0.2],Conns=[wye wye wye],kvs=[7.967 0.12 0.12],kvas=[35.000000000 35.000000000 35.000000000],Taps=[1,1.000000000,1.000000000],%loadloss=1.293000000,%noloadloss=0.342857000
new transformer.1392634 Phases=3,Windings=2,Buses=[BMT160600718.1.2.3 BBT148653037.1.2.3.0],Conns=[delta wye],kvs=[13.8 0.22],kvas=[45.000000000 45.000000000],Taps=[1,1.000000000],%loadloss=1.522000000,%noloadloss=0.377777000
new transformer.1399698 Phases=1,Windings=3,Buses=[BMT150287918.3 BBT150287919.1.0 BBT150287919.0.2],Conns=[wye wye wye],kvs=[7.967 0.12 0.12],kvas=[15.000000000 15.000000000 15.000000000],Taps=[1,1.000000000,1.000000000],%loadloss=1.600000000,%noloadloss=0.400000000
new transformer.1399701 Phases=3,Windings=2,Buses=[BMT170130677.1.2.3 BBT150288843.1.2.3.0],Conns=[delta wye],kvs=[13.8 0.22],kvas=[75.000000000 75.000000000],Taps=[1,1.000000000],%loadloss=1.340000000,%noloadloss=0.340000000
new transformer.1399846 Phases=3,Windings=2,Buses=[BMT173224147.1.2.3 BBT150380577.1.2.3.0],Conns=[delta wye],kvs=[13.8 0.22],kvas=[150.000000000 150.000000000],Taps=[1,1.000000000],%loadloss=1.127000000,%noloadloss=0.280000000
new transformer.1400165 Phases=3,Windings=2,Buses=[BMT172344720.1.2.3 BBT150462837.1.2.3.0],Conns=[delta wye],kvs=[13.8 0.22],kvas=[45.000000000 45.000000000],Taps=[1,1.000000000],%loadloss=1.522000000,%noloadloss=0.377777000
new transformer.1400168 Phases=3,Windings=2,Buses=[BMT172344721.1.2.3 BBT150463099.1.2.3.0],Conns=[delta wye],kvs=[13.8 0.22],kvas=[45.000000000 45.000000000],Taps=[1,1.000000000],%loadloss=1.522000000,%noloadloss=0.377777000
new transformer.1400181 Phases=3,Windings=2,Buses=[BMT172344741.1.2.3 BBT150467390.1.2.3.0],Conns=[delta wye],kvs=[13.8 0.22],kvas=[75.000000000 75.000000000],Taps=[1,1.000000000],%loadloss=1.340000000,%noloadloss=0.340000000
new transformer.1400182 Phases=3,Windings=2,Buses=[BMT172344743.1.2.3 BBT150467418.1.2.3.0],Conns=[delta wye],kvs=[13.8 0.22],kvas=[75.000000000 75.000000000],Taps=[1,1.000000000],%loadloss=1.340000000,%noloadloss=0.340000000
new transformer.1400183 Phases=3,Windings=2,Buses=[BMT172344744.1.2.3 BBT150467437.1.2.3.0],Conns=[delta wye],kvs=[13.8 0.22],kvas=[75.000000000 75.000000000],Taps=[1,1.000000000],%loadloss=1.340000000,%noloadloss=0.340000000
new transformer.1400186 Phases=3,Windings=2,Buses=[BMT172344733.1.2.3 BBT150467770.1.2.3.0],Conns=[delta wye],kvs=[13.8 0.22],kvas=[75.000000000 75.000000000],Taps=[1,1.000000000],%loadloss=1.340000000,%noloadloss=0.340000000
new transformer.1400188 Phases=3,Windings=2,Buses=[BMT172344734.1.2.3 BBT150467921.1.2.3.0],Conns=[delta wye],kvs=[13.8 0.22],kvas=[45.000000000 45.000000000],Taps=[1,1.000000000],%loadloss=1.522000000,%noloadloss=0.377777000
new transformer.1400205 Phases=3,Windings=2,Buses=[BMT165040624.1.2.3 BBT150471922.1.2.3.0],Conns=[delta wye],kvs=[13.8 0.22],kvas=[45.000000000 45.000000000],Taps=[1,1.000000000],%loadloss=1.522000000,%noloadloss=0.377777000
new transformer.1400206 Phases=3,Windings=2,Buses=[BMT165040623.1.2.3 BBT150471946.1.2.3.0],Conns=[delta wye],kvs=[13.8 0.22],kvas=[45.000000000 45.000000000],Taps=[1,1.000000000],%loadloss=1.522000000,%noloadloss=0.377777000
new transformer.1400207 Phases=3,Windings=2,Buses=[BMT172344717.1.2.3 BBT150471972.1.2.3.0],Conns=[delta wye],kvs=[13.8 0.22],kvas=[75.000000000 75.000000000],Taps=[1,1.000000000],%loadloss=1.340000000,%noloadloss=0.340000000
new transformer.1026199 Phases=1,Windings=3,Buses=[BMT126559003.1 BBT94762469.1.0 BBT94762469.0.2],Conns=[wye wye wye],kvs=[19.92 0.12 0.12],kvas=[10.000000000 10.000000000 10.000000000],Taps=[1,1.000000000,1.000000000],%loadloss=1.800000000,%noloadloss=0.450000000
new transformer.1026206 Phases=1,Windings=3,Buses=[BMT126558996.1 BBT94762749.1.0 BBT94762749.0.2],Conns=[wye wye wye],kvs=[19.92 0.12 0.12],kvas=[5.000000000 5.000000000 5.000000000],Taps=[1,1.000000000,1.000000000],%loadloss=1.900000000,%noloadloss=0.600000000
new transformer.1026997 Phases=3,Windings=2,Buses=[BMT171133309.1.2.3 BBT95243292.1.2.3.0],Conns=[delta wye],kvs=[13.8 0.22],kvas=[30.000000000 30.000000000],Taps=[1,1.000000000],%loadloss=1.667000000,%noloadloss=0.433333000
new transformer.1027067 Phases=3,Windings=2,Buses=[BMT168769152.1.2.3 BBT95290276.1.2.3.0],Conns=[delta wye],kvs=[13.8 0.22],kvas=[75.000000000 75.000000000],Taps=[1,1.000000000],%loadloss=1.340000000,%noloadloss=0.340000000
new transformer.1027193 Phases=3,Windings=2,Buses=[BMT173059747.1.2.3 BBT95359933.1.2.3.0],Conns=[delta wye],kvs=[13.8 0.22],kvas=[30.000000000 30.000000000],Taps=[1,1.000000000],%loadloss=1.667000000,%noloadloss=0.433333000
new transformer.1027466 Phases=3,Windings=2,Buses=[BMT173059745.1.2.3 BBT95463925.1.2.3.0],Conns=[delta wye],kvs=[13.8 0.22],kvas=[75.000000000 75.000000000],Taps=[1,1.000000000],%loadloss=1.340000000,%noloadloss=0.340000000