new line.1002140 bus1=BBT1075458.1.2.0,bus2=BBT1075465.1.2.0,Phases=2,Linecode=BT107_BT107_7_2_1,Length=0.027890000,Units=km
new line.1002147 bus1=BBT1075465.1.2.0,bus2=BBT1075472.1.2.0,Phases=2,Linecode=BT107_BT107_7_2_1,Length=0.021376000,Units=km
new line.1002154 bus1=BBT1075493.1.2.3.0,bus2=BBT1075486.1.2.3.0,Phases=3,Linecode=BT108_BT107_7_3_1,Length=0.033834000,Units=km
new line.1002161 bus1=BBT1075500.1.2.3.0,bus2=BBT1075493.1.2.3.0,Phases=3,Linecode=BT108_BT107_7_3_1,Length=0.036052000,Units=km
new line.1002168 bus1=BBT1075479.1.2.3.0,bus2=BBT1075500.1.2.3.0,Phases=3,Linecode=BT307_BT307_7_3_1,Length=0.000500000,Units=km
new line.1002175 bus1=BBT1075500.1.2.3.0,bus2=BBT1075507.1.2.3.0,Phases=3,Linecode=BT108_BT107_7_3_1,Length=0.033012000,Units=km
new line.1002182 bus1=BBT1075507.1.2.3.0,bus2=BBT1075514.1.2.3.0,Phases=3,Linecode=BT108_BT107_7_3_1,Length=0.037440000,Units=km
new line.1002189 bus1=BBT1075542.1.2.0,bus2=BBT1075528.1.2.0,Phases=2,Linecode=BT107_BT107_7_2_1,Length=0.030591000,Units=km
new line.1002196 bus1=BBT1075542.1.2.0,bus2=BBT1075535.1.2.0,Phases=2,Linecode=BT107_BT107_7_2_1,Length=0.032554000,Units=km
new line.1002203 bus1=BBT1075549.1.2.0,bus2=BBT1075542.1.2.0,Phases=2,Linecode=BT107_BT107_7_2_1,Length=0.034925000,Units=km
new line.1002210 bus1=BBT1075556.1.2.0,bus2=BBT1075549.1.2.0,Phases=2,Linecode=BT108_BT108_7_2_1,Length=0.037851000,Units=km
new line.1002217 bus1=BBT1075556.1.2.0,bus2=BBT1075563.1.2.0,Phases=2,Linecode=BT107_BT107_7_2_1,Length=0.019234000,Units=km
new line.1002224 bus1=BBT1075570.1.2.0,bus2=BBT1075556.1.2.0,Phases=2,Linecode=BT108_BT108_7_2_1,Length=0.025959000,Units=km
new line.1002231 bus1=BBT1075521.1.2.0,bus2=BBT1075570.1.2.0,Phases=2,Linecode=BT308_BT308_7_2_1,Length=0.000500000,Units=km
new line.1002238 bus1=BBT1075570.1.2.0,bus2=BBT1075584.1.2.0,Phases=2,Linecode=BT108_BT108_7_2_1,Length=0.033731000,Units=km
new line.1002245 bus1=BBT1075584.1.2.0,bus2=BBT1075577.1.2.0,Phases=2,Linecode=BT107_BT107_7_2_1,Length=0.032012000,Units=km
new line.1002252 bus1=BBT1075584.1.2.0,bus2=BBT1075591.1.2.0,Phases=2,Linecode=BT108_BT108_7_2_1,Length=0.031777000,Units=km
new line.1002259 bus1=BBT1075591.1.2.0,bus2=BBT1075605.1.2.0,Phases=2,Linecode=BT108_BT108_7_2_1,Length=0.039047000,Units=km
new line.1002266 bus1=BBT1075605.1.2.0,bus2=BBT1075598.1.2.0,Phases=2,Linecode=BT107_BT107_7_2_1,Length=0.032012000,Units=km
new line.1002273 bus1=BBT1075605.1.2.0,bus2=BBT1075612.1.2.0,Phases=2,Linecode=BT107_BT107_7_2_1,Length=0.022359000,Units=km
new line.1002280 bus1=BBT1075633.1.2.0,bus2=BBT1075626.1.2.0,Phases=2,Linecode=BT107_BT107_7_2_1,Length=0.033731000,Units=km
new line.1002287 bus1=BBT1075633.1.2.0,bus2=BBT1075640.1.2.0,Phases=2,Linecode=BT107_BT107_7_2_1,Length=0.020222000,Units=km
new line.1002294 bus1=BBT1075647.1.2.0,bus2=BBT1075633.1.2.0,Phases=2,Linecode=BT107_BT107_7_2_1,Length=0.032012000,Units=km
new line.1002301 bus1=BBT1075661.1.2.0,bus2=BBT1075654.1.2.0,Phases=2,Linecode=BT107_BT107_7_2_1,Length=0.028859000,Units=km
new line.1002308 bus1=BBT1075661.1.2.0,bus2=BBT1075647.1.2.0,Phases=2,Linecode=BT108_BT108_7_2_1,Length=0.036874000,Units=km
new line.1002315 bus1=BBT1075668.1.2.0,bus2=BBT1075661.1.2.0,Phases=2,Linecode=BT108_BT108_7_2_1,Length=0.028859000,Units=km
new line.1002322 bus1=BBT1075619.1.2.0,bus2=BBT1075668.1.2.0,Phases=2,Linecode=BT308_BT308_7_2_1,Length=0.000500000,Units=km
new line.1002329 bus1=BBT1075668.1.2.0,bus2=BBT1075675.1.2.0,Phases=2,Linecode=BT108_BT108_7_2_1,Length=0.031572000,Units=km
new line.1002336 bus1=BBT1075675.1.2.0,bus2=BBT1075682.1.2.0,Phases=2,Linecode=BT107_BT107_7_2_1,Length=0.020394000,Units=km
new line.1002343 bus1=BBT1075675.1.2.0,bus2=BBT1075689.1.2.0,Phases=2,Linecode=BT108_BT108_7_2_1,Length=0.031777000,Units=km
new line.1002350 bus1=BBT1075689.1.2.0,bus2=BBT1075696.1.2.0,Phases=2,Linecode=BT108_BT108_7_2_1,Length=0.039290000,Units=km
new line.1002357 bus1=BBT1075717.1.2.0,bus2=BBT1075710.1.2.0,Phases=2,Linecode=BT107_BT107_7_2_1,Length=0.033538000,Units=km
new line.1002364 bus1=BBT1075717.1.2.0,bus2=BBT1075724.1.2.0,Phases=2,Linecode=BT107_BT107_7_2_1,Length=0.020614000,Units=km
new line.1002371 bus1=BBT1075731.1.2.0,bus2=BBT1075717.1.2.0,Phases=2,Linecode=BT107_BT107_7_2_1,Length=0.028859000,Units=km
new line.1002378 bus1=BBT1075745.1.2.0,bus2=BBT1075738.1.2.0,Phases=2,Linecode=BT107_BT107_7_2_1,Length=0.033952000,Units=km
new line.1002385 bus1=BBT1075745.1.2.0,bus2=BBT1075731.1.2.0,Phases=2,Linecode=BT108_BT108_7_2_1,Length=0.034522000,Units=km
new line.1002392 bus1=BBT1075752.1.2.0,bus2=BBT1075745.1.2.0,Phases=2,Linecode=BT108_BT108_7_2_1,Length=0.031777000,Units=km
new line.1002399 bus1=BBT1075703.1.2.0,bus2=BBT1075752.1.2.0,Phases=2,Linecode=BT308_BT308_7_2_1,Length=0.000500000,Units=km
new line.1002406 bus1=BBT1075752.1.2.0,bus2=BBT1075759.1.2.0,Phases=2,Linecode=BT108_BT108_7_2_1,Length=0.028633000,Units=km
new line.1002413 bus1=BBT1075759.1.2.0,bus2=BBT1075766.1.2.0,Phases=2,Linecode=BT107_BT107_7_2_1,Length=0.020614000,Units=km
new line.1002420 bus1=BBT1075759.1.2.0,bus2=BBT1075773.1.2.0,Phases=2,Linecode=BT108_BT108_7_2_1,Length=0.031777000,Units=km
new line.1002427 bus1=BBT1075773.1.2.0,bus2=BBT1075787.1.2.0,Phases=2,Linecode=BT108_BT108_7_2_1,Length=0.039047000,Units=km
new line.1002434 bus1=BBT1075787.1.2.0,bus2=BBT1075780.1.2.0,Phases=2,Linecode=BT107_BT107_7_2_1,Length=0.032012000,Units=km
new line.1002441 bus1=BBT1075787.1.2.0,bus2=BBT1075794.1.2.0,Phases=2,Linecode=BT107_BT107_7_2_1,Length=0.021376000,Units=km
new line.10024685 bus1=BBT1119796.1.2.3.0,bus2=BBT145790299.1.2.3.0,Phases=3,Linecode=BT803_BT803_4_3_4,Length=0.032200000,Units=km
new line.10024692 bus1=BBT145790299.1.2.3.0,bus2=BBT145790306.1.2.3.0,Phases=3,Linecode=BT803_BT803_4_3_4,Length=0.032800000,Units=km
new line.10024699 bus1=BBT145790306.1.2.3.0,bus2=BBT145790313.1.2.3.0,Phases=3,Linecode=BT803_BT803_4_3_4,Length=0.033299000,Units=km
new line.10025819 bus1=BBT145817123.1.2.0,bus2=BBT145817130.1.2.0,Phases=2,Linecode=BT521_BT521_7_2_1,Length=0.000500000,Units=km
new line.10027317 bus1=BBT145844136.1.2.0,bus2=BBT145844143.1.2.0,Phases=2,Linecode=BT521_BT521_7_2_1,Length=0.000501000,Units=km
new line.10027324 bus1=BBT145844234.1.2.0,bus2=BBT145844241.1.2.0,Phases=2,Linecode=BT521_BT521_7_2_1,Length=0.000501000,Units=km
new line.10027331 bus1=BBT145844423.1.2.0,bus2=BBT145844430.1.2.0,Phases=2,Linecode=BT521_BT521_7_2_1,Length=0.000501000,Units=km
new line.10027338 bus1=BBT145844787.1.2.0,bus2=BBT145844794.1.2.0,Phases=2,Linecode=BT521_BT521_7_2_1,Length=0.000501000,Units=km
new line.10027345 bus1=BBT145844871.1.2.0,bus2=BBT145844878.1.2.0,Phases=2,Linecode=BT521_BT521_7_2_1,Length=0.000501000,Units=km
new line.10030796 bus1=BBT954386.1.2.0,bus2=BBT145895768.1.2.0,Phases=2,Linecode=BT808_BT808_4_2_3,Length=0.032246000,Units=km
new line.10030803 bus1=BBT145895768.1.2.0,bus2=BBT145895775.1.2.0,Phases=2,Linecode=BT808_BT808_4_2_3,Length=0.033612000,Units=km
new line.1003085 bus1=BBT1076438.1.2.0,bus2=BBT1076424.1.2.0,Phases=2,Linecode=BT107_BT107_7_2_1,Length=0.033731000,Units=km
new line.1003092 bus1=BBT1076438.1.2.0,bus2=BBT1076431.1.2.0,Phases=2,Linecode=BT107_BT107_7_2_1,Length=0.031777000,Units=km
new line.1003099 bus1=BBT1076445.1.2.0,bus2=BBT1076438.1.2.0,Phases=2,Linecode=BT107_BT107_7_2_1,Length=0.029830000,Units=km
new line.1003106 bus1=BBT1076452.1.2.0,bus2=BBT1076445.1.2.0,Phases=2,Linecode=BT108_BT108_7_2_1,Length=0.035690000,Units=km
new line.1003113 bus1=BBT1076452.1.2.0,bus2=BBT1076459.1.2.0,Phases=2,Linecode=BT107_BT107_7_2_1,Length=0.023343000,Units=km
new line.1003120 bus1=BBT1076466.1.2.0,bus2=BBT1076452.1.2.0,Phases=2,Linecode=BT108_BT108_7_2_1,Length=0.024736000,Units=km
new line.1003127 bus1=BBT1076417.1.2.0,bus2=BBT1076466.1.2.0,Phases=2,Linecode=BT308_BT308_7_2_1,Length=0.000500000,Units=km
new line.1003134 bus1=BBT1076466.1.2.0,bus2=BBT1076480.1.2.0,Phases=2,Linecode=BT108_BT108_7_2_1,Length=0.034710000,Units=km
new line.1003141 bus1=BBT1076480.1.2.0,bus2=BBT1076473.1.2.0,Phases=2,Linecode=BT107_BT107_7_2_1,Length=0.031045000,Units=km
new line.1003148 bus1=BBT1076480.1.2.0,bus2=BBT1076487.1.2.0,Phases=2,Linecode=BT108_BT108_7_2_1,Length=0.033731000,Units=km
new line.1003155 bus1=BBT1076487.1.2.0,bus2=BBT1076501.1.2.0,Phases=2,Linecode=BT108_BT108_7_2_1,Length=0.036135000,Units=km
new line.1003162 bus1=BBT1076501.1.2.0,bus2=BBT1076494.1.2.0,Phases=2,Linecode=BT107_BT107_7_2_1,Length=0.030080000,Units=km
new line.1003169 bus1=BBT1076501.1.2.0,bus2=BBT1076508.1.2.0,Phases=2,Linecode=BT107_BT107_7_2_1,Length=0.021376000,Units=km
new line.10036844 bus1=BBT146031372.1.2.0,bus2=BBT146031379.1.2.0,Phases=2,Linecode=BT521_BT521_7_2_1,Length=0.000500000,Units=km
new line.1003708 bus1=BBT1077061.1.2.0,bus2=BBT1077068.1.2.0,Phases=2,Linecode=BT107_BT107_7_2_1,Length=0.020879000,Units=km
new line.1003715 bus1=BBT1077061.1.2.0,bus2=BBT1077054.1.2.0,Phases=2,Linecode=BT107_BT107_7_2_1,Length=0.033538000,Units=km
new line.1003722 bus1=BBT1077075.1.2.0,bus2=BBT1077061.1.2.0,Phases=2,Linecode=BT107_BT107_7_2_1,Length=0.029830000,Units=km
new line.1003729 bus1=BBT1077089.1.2.0,bus2=BBT1077082.1.2.0,Phases=2,Linecode=BT107_BT107_7_2_1,Length=0.028859000,Units=km
new line.1003736 bus1=BBT1077089.1.2.0,bus2=BBT1077075.1.2.0,Phases=2,Linecode=BT108_BT108_7_2_1,Length=0.035507000,Units=km
new line.1003743 bus1=BBT1077096.1.2.0,bus2=BBT1077089.1.2.0,Phases=2,Linecode=BT108_BT108_7_2_1,Length=0.026923000,Units=km
new line.1003750 bus1=BBT1077047.1.2.0,bus2=BBT1077096.1.2.0,Phases=2,Linecode=BT308_BT308_7_2_1,Length=0.000500000,Units=km
new line.1003757 bus1=BBT1077096.1.2.0,bus2=BBT1077103.1.2.0,Phases=2,Linecode=BT108_BT108_7_2_1,Length=0.030411000,Units=km
new line.1003764 bus1=BBT1077103.1.2.0,bus2=BBT1077110.1.2.0,Phases=2,Linecode=BT107_BT107_7_2_1,Length=0.023085000,Units=km
new line.1003771 bus1=BBT1077103.1.2.0,bus2=BBT1077117.1.2.0,Phases=2,Linecode=BT108_BT108_7_2_1,Length=0.033731000,Units=km
new line.1003778 bus1=BBT1077117.1.2.0,bus2=BBT1077131.1.2.0,Phases=2,Linecode=BT108_BT108_7_2_1,Length=0.039047000,Units=km
new line.1003785 bus1=BBT1077131.1.2.0,bus2=BBT1077138.1.2.0,Phases=2,Linecode=BT107_BT107_7_2_1,Length=0.022559000,Units=km
new line.1003792 bus1=BBT1077131.1.2.0,bus2=BBT1077124.1.2.0,Phases=2,Linecode=BT107_BT107_7_2_1,Length=0.032012000,Units=km
new line.1003799 bus1=BBT1077180.1.2.0,bus2=BBT1077194.1.2.0,Phases=2,Linecode=BT107_BT107_7_2_1,Length=0.032446000,Units=km
new line.1003806 bus1=BBT1077187.1.2.0,bus2=BBT1077180.1.2.0,Phases=2,Linecode=BT107_BT107_7_2_1,Length=0.033012000,Units=km
new line.1003813 bus1=BBT1077194.1.2.0,bus2=BBT1077208.1.2.0,Phases=2,Linecode=BT107_BT107_7_2_1,Length=0.031619000,Units=km
new line.1003820 bus1=BBT1077201.1.2.0,bus2=BBT1077187.1.2.0,Phases=2,Linecode=BT107_BT107_7_2_1,Length=0.038271000,Units=km
new line.1003827 bus1=BBT1077208.1.2.0,bus2=BBT1077222.1.2.0,Phases=2,Linecode=BT107_BT107_7_2_1,Length=0.033012000,Units=km
new line.1003834 bus1=BBT1077215.1.2.0,bus2=BBT1077201.1.2.0,Phases=2,Linecode=BT108_BT108_7_2_1,Length=0.030229000,Units=km
new line.1003841 bus1=BBT1077222.1.2.0,bus2=BBT1077236.1.2.0,Phases=2,Linecode=BT107_BT107_7_2_1,Length=0.033012000,Units=km
new line.1003848 bus1=BBT1077229.1.2.0,bus2=BBT1077215.1.2.0,Phases=2,Linecode=BT108_BT108_7_2_1,Length=0.032199000,Units=km
new line.10038545 bus1=BBT146061612.1.2.3.0,bus2=BBT146061619.1.2.3.0,Phases=3,Linecode=BT518_BT518_7_3_1,Length=0.000500000,Units=km
new line.1003855 bus1=BBT1077243.1.2.0,bus2=BBT1077229.1.2.0,Phases=2,Linecode=BT108_BT108_7_2_1,Length=0.033012000,Units=km
new line.10038608 bus1=BBT146061619.1.2.3.0,bus2=BBT146061710.1.2.3.0,Phases=3,Linecode=BT803_BT803_4_3_4,Length=0.034055000,Units=km
new line.10038615 bus1=BBT146061619.1.2.3.0,bus2=BBT37809496.1.2.3.0,Phases=3,Linecode=BT803_BT803_4_3_4,Length=0.036218000,Units=km
new line.1003862 bus1=BBT1077173.1.2.0,bus2=BBT1077243.1.2.0,Phases=2,Linecode=BT508_BT508_7_2_1,Length=0.000500000,Units=km
new line.10038671 bus1=BBT146061710.1.2.3.0,bus2=BBT956941.1.2.3.0,Phases=3,Linecode=BT803_BT803_4_3_4,Length=0.034997000,Units=km
new line.1003869 bus1=BBT1077243.1.2.0,bus2=BBT1077257.1.2.0,Phases=2,Linecode=BT108_BT108_7_2_1,Length=0.035224000,Units=km
new line.1003876 bus1=BBT1077250.1.2.0,bus2=BBT2894989.1.2.0,Phases=2,Linecode=BT107_BT107_7_2_1,Length=0.033834000,Units=km
new line.10038776 bus1=BBT954393.1.2.0,bus2=BBT146066512.1.2.0,Phases=2,Linecode=BT108_BT108_7_2_1,Length=0.019923000,Units=km
new line.1003883 bus1=BBT1077257.1.2.0,bus2=BBT1077271.1.2.0,Phases=2,Linecode=BT108_BT108_7_2_1,Length=0.033012000,Units=km
new line.1003890 bus1=BBT1077264.1.2.0,bus2=BBT1077250.1.2.0,Phases=2,Linecode=BT107_BT107_7_2_1,Length=0.033012000,Units=km
new line.1003897 bus1=BBT1077271.1.2.0,bus2=BBT1077285.1.2.0,Phases=2,Linecode=BT108_BT108_7_2_1,Length=0.035801000,Units=km
new line.1003904 bus1=BBT1077278.1.2.0,bus2=BBT1077264.1.2.0,Phases=2,Linecode=BT107_BT107_7_2_1,Length=0.027200000,Units=km
new line.1003911 bus1=BBT1077285.1.2.0,bus2=BBT1077299.1.2.0,Phases=2,Linecode=BT107_BT107_7_2_1,Length=0.026398000,Units=km
new line.1003918 bus1=BBT1077292.1.2.0,bus2=BBT1077278.1.2.0,Phases=2,Linecode=BT107_BT107_7_2_1,Length=0.032199000,Units=km
new line.1003925 bus1=BBT1077299.1.2.0,bus2=BBT1077292.1.2.0,Phases=2,Linecode=BT107_BT107_7_2_1,Length=0.036616000,Units=km
new line.1003932 bus1=BBT1077299.1.2.0,bus2=BBT1077306.1.2.0,Phases=2,Linecode=BT107_BT107_7_2_1,Length=0.040220000,Units=km
new line.10039553 bus1=BBT146089017.1.2.0,bus2=BBT146089024.1.2.0,Phases=2,Linecode=BT521_BT521_7_2_1,Length=0.000500000,Units=km
new line.1004016 bus1=BBT1077411.1.2.0,bus2=BBT1077425.1.2.0,Phases=2,Linecode=BT107_BT107_7_2_1,Length=0.030229000,Units=km
new line.1004023 bus1=BBT1077418.1.2.0,bus2=BBT1077411.1.2.0,Phases=2,Linecode=BT107_BT107_7_2_1,Length=0.035801000,Units=km
new line.1004030 bus1=BBT1077425.1.2.0,bus2=BBT1077439.1.2.0,Phases=2,Linecode=BT107_BT107_7_2_1,Length=0.033012000,Units=km
new line.1004037 bus1=BBT1077432.1.2.0,bus2=BBT1077418.1.2.0,Phases=2,Linecode=BT107_BT107_7_2_1,Length=0.033834000,Units=km
new line.1004044 bus1=BBT1077439.1.2.0,bus2=BBT1077453.1.2.0,Phases=2,Linecode=BT107_BT107_7_2_1,Length=0.035224000,Units=km
new line.1004051 bus1=BBT1077446.1.2.0,bus2=BBT1077432.1.2.0,Phases=2,Linecode=BT108_BT108_7_2_1,Length=0.032753000,Units=km
new line.1004058 bus1=BBT1077453.1.2.0,bus2=BBT1077467.1.2.0,Phases=2,Linecode=BT107_BT107_7_2_1,Length=0.030803000,Units=km
new line.1004065 bus1=BBT1077460.1.2.0,bus2=BBT1077446.1.2.0,Phases=2,Linecode=BT108_BT108_7_2_1,Length=0.034406000,Units=km
new line.1004072 bus1=BBT1077474.1.2.0,bus2=BBT1077460.1.2.0,Phases=2,Linecode=BT108_BT108_7_2_1,Length=0.033012000,Units=km
new line.1004079 bus1=BBT1077404.1.2.0,bus2=BBT1077474.1.2.0,Phases=2,Linecode=BT308_BT308_7_2_1,Length=0.000500000,Units=km
new line.1004086 bus1=BBT1077474.1.2.0,bus2=BBT1077488.1.2.0,Phases=2,Linecode=BT108_BT108_7_2_1,Length=0.035224000,Units=km
new line.1004093 bus1=BBT1077481.1.2.0,bus2=BBT2897775.1.2.0,Phases=2,Linecode=BT107_BT107_7_2_1,Length=0.033834000,Units=km
new line.1004100 bus1=BBT1077488.1.2.0,bus2=BBT1077509.1.2.0,Phases=2,Linecode=BT108_BT108_7_2_1,Length=0.033834000,Units=km
new line.1004107 bus1=BBT1077495.1.2.0,bus2=BBT1077481.1.2.0,Phases=2,Linecode=BT107_BT107_7_2_1,Length=0.033834000,Units=km
new line.1004114 bus1=BBT1077509.1.2.0,bus2=BBT1077530.1.2.0,Phases=2,Linecode=BT108_BT108_7_2_1,Length=0.035801000,Units=km
new line.1004121 bus1=BBT1077516.1.2.0,bus2=BBT1077502.1.2.0,Phases=2,Linecode=BT107_BT107_7_2_1,Length=0.028015000,Units=km
new line.1004128 bus1=BBT1077516.1.2.0,bus2=BBT1077495.1.2.0,Phases=2,Linecode=BT107_BT107_7_2_1,Length=0.029066000,Units=km
new line.1004135 bus1=BBT1077523.1.2.0,bus2=BBT1077516.1.2.0,Phases=2,Linecode=BT107_BT107_7_2_1,Length=0.024411000,Units=km
new line.1004142 bus1=BBT1077523.1.2.0,bus2=BBT1077537.1.2.0,Phases=2,Linecode=BT107_BT107_7_2_1,Length=0.013341000,Units=km
new line.1004149 bus1=BBT1077530.1.2.0,bus2=BBT1077544.1.2.0,Phases=2,Linecode=BT107_BT107_7_2_1,Length=0.026568000,Units=km
new line.1004156 bus1=BBT1077537.1.2.0,bus2=BBT1077551.1.2.0,Phases=2,Linecode=BT107_BT107_7_2_1,Length=0.023598000,Units=km
new line.1004163 bus1=BBT1077544.1.2.0,bus2=BBT1077523.1.2.0,Phases=2,Linecode=BT107_BT107_7_2_1,Length=0.033597000,Units=km
new line.1004170 bus1=BBT1077544.1.2.0,bus2=BBT1077558.1.2.0,Phases=2,Linecode=BT107_BT107_7_2_1,Length=0.028841000,Units=km
new line.1004177 bus1=BBT1077558.1.2.0,bus2=BBT1077565.1.2.0,Phases=2,Linecode=BT107_BT107_7_2_1,Length=0.028598000,Units=km
new line.1004268 bus1=BBT1077656.1.2.0,bus2=BBT1077663.1.2.0,Phases=2,Linecode=BT508_BT508_7_2_1,Length=0.000500000,Units=km
new line.1004366 bus1=BBT1077726.1.2.0,bus2=BBT1077740.1.2.0,Phases=2,Linecode=BT107_BT107_7_2_1,Length=0.031061000,Units=km
new line.1004373 bus1=BBT1077733.1.2.0,bus2=BBT1077726.1.2.0,Phases=2,Linecode=BT107_BT107_7_2_1,Length=0.035224000,Units=km
new line.1004380 bus1=BBT1077740.1.2.0,bus2=BBT1077754.1.2.0,Phases=2,Linecode=BT107_BT107_7_2_1,Length=0.034406000,Units=km
new line.1004387 bus1=BBT1077747.1.2.0,bus2=BBT1077733.1.2.0,Phases=2,Linecode=BT107_BT107_7_2_1,Length=0.033012000,Units=km
new line.1004394 bus1=BBT1077754.1.2.0,bus2=BBT1077768.1.2.0,Phases=2,Linecode=BT107_BT107_7_2_1,Length=0.033012000,Units=km
new line.1004401 bus1=BBT1077761.1.2.0,bus2=BBT1077747.1.2.0,Phases=2,Linecode=BT108_BT108_7_2_1,Length=0.030525000,Units=km
new line.1004408 bus1=BBT1077768.1.2.0,bus2=BBT1077782.1.2.0,Phases=2,Linecode=BT107_BT107_7_2_1,Length=0.034406000,Units=km
new line.1004415 bus1=BBT1077775.1.2.0,bus2=BBT1077761.1.2.0,Phases=2,Linecode=BT108_BT108_7_2_1,Length=0.033012000,Units=km
new line.1004422 bus1=BBT1077782.1.2.0,bus2=BBT2880954.1.2.0,Phases=2,Linecode=BT107_BT107_7_2_1,Length=0.035224000,Units=km
new line.1004429 bus1=BBT1077789.1.2.0,bus2=BBT1077775.1.2.0,Phases=2,Linecode=BT108_BT108_7_2_1,Length=0.033012000,Units=km
new line.1004436 bus1=BBT1077719.1.2.0,bus2=BBT1077789.1.2.0,Phases=2,Linecode=BT513_BT513_7_2_1,Length=0.000500000,Units=km
new line.1004443 bus1=BBT1077789.1.2.0,bus2=BBT1077803.1.2.0,Phases=2,Linecode=BT108_BT108_7_2_1,Length=0.034406000,Units=km
new line.1004450 bus1=BBT1077803.1.2.0,bus2=BBT1077824.1.2.0,Phases=2,Linecode=BT108_BT108_7_2_1,Length=0.033012000,Units=km
new line.1004457 bus1=BBT1077810.1.2.0,bus2=BBT1077796.1.2.0,Phases=2,Linecode=BT107_BT107_7_2_1,Length=0.034406000,Units=km
new line.1004464 bus1=BBT1077824.1.2.0,bus2=BBT1077838.1.2.0,Phases=2,Linecode=BT108_BT108_7_2_1,Length=0.034406000,Units=km
new line.1004471 bus1=BBT1077831.1.2.0,bus2=BBT1077817.1.2.0,Phases=2,Linecode=BT107_BT107_7_2_1,Length=0.024696000,Units=km
new line.1004478 bus1=BBT1077831.1.2.0,bus2=BBT1077810.1.2.0,Phases=2,Linecode=BT107_BT107_7_2_1,Length=0.023343000,Units=km
new line.1004485 bus1=BBT1077838.1.2.0,bus2=BBT1077852.1.2.0,Phases=2,Linecode=BT108_BT108_7_2_1,Length=0.028422000,Units=km
new line.1004492 bus1=BBT1077845.1.2.0,bus2=BBT1077831.1.2.0,Phases=2,Linecode=BT107_BT107_7_2_1,Length=0.034406000,Units=km
new line.1004499 bus1=BBT1077852.1.2.0,bus2=BBT1077845.1.2.0,Phases=2,Linecode=BT107_BT107_7_2_1,Length=0.035801000,Units=km
new line.1004506 bus1=BBT1077852.1.2.0,bus2=BBT1077859.1.2.0,Phases=2,Linecode=BT107_BT107_7_2_1,Length=0.024411000,Units=km
new line.1004513 bus1=BBT1078447.1.2.0,bus2=BBT1078461.1.2.0,Phases=2,Linecode=BT107_BT107_7_2_1,Length=0.011179000,Units=km
new line.1004660 bus1=BBT1078020.1.2.0,bus2=BBT1078013.1.2.0,Phases=2,Linecode=BT107_BT107_7_2_1,Length=0.033283000,Units=km
new line.1004667 bus1=BBT1078027.1.2.0,bus2=BBT1078020.1.2.0,Phases=2,Linecode=BT107_BT107_7_2_1,Length=0.030229000,Units=km
new line.1004674 bus1=BBT1078034.1.2.0,bus2=BBT1078027.1.2.0,Phases=2,Linecode=BT107_BT107_7_2_1,Length=0.036397000,Units=km
new line.1004681 bus1=BBT1078041.1.2.0,bus2=BBT1078034.1.2.0,Phases=2,Linecode=BT107_BT107_7_2_1,Length=0.029408000,Units=km
new line.1004688 bus1=BBT1078048.1.2.0,bus2=BBT1078041.1.2.0,Phases=2,Linecode=BT807_BT807_4_2_3,Length=0.038009000,Units=km
new line.1004695 bus1=BBT1078048.1.2.0,bus2=BBT1078062.1.2.0,Phases=2,Linecode=BT807_BT807_4_2_3,Length=0.034666000,Units=km
new line.1004702 bus1=BBT1078041.1.2.0,bus2=BBT1078055.1.2.0,Phases=2,Linecode=BT807_BT807_4_2_3,Length=0.033117000,Units=km
new line.1004709 bus1=BBT1078062.1.2.0,bus2=BBT1078076.1.2.0,Phases=2,Linecode=BT807_BT807_4_2_3,Length=0.025551000,Units=km
new line.1004716 bus1=BBT1078055.1.2.0,bus2=BBT1078069.1.2.0,Phases=2,Linecode=BT807_BT807_4_2_3,Length=0.033834000,Units=km
new line.1004723 bus1=BBT1078076.1.2.0,bus2=BBT1078090.1.2.0,Phases=2,Linecode=BT807_BT807_4_2_3,Length=0.031619000,Units=km
new line.1004730 bus1=BBT1078125.1.2.3.0,bus2=BBT1078083.1.2.3.0,Phases=3,Linecode=BT807_BT807_4_3_3,Length=0.040995000,Units=km
new line.1004737 bus1=BBT1078006.1.2.0,bus2=BBT1078048.1.2.0,Phases=2,Linecode=BT309_BT309_7_2_1,Length=0.000500000,Units=km
new line.1004751 bus1=BBT1078090.1.2.0,bus2=BBT2895024.1.2.0,Phases=2,Linecode=BT807_BT807_4_2_3,Length=0.033834000,Units=km
new line.1004758 bus1=BBT1078104.1.2.3.0,bus2=BBT1078118.1.2.3.0,Phases=3,Linecode=BT803_BT803_4_3_4,Length=0.036616000,Units=km
new line.1004765 bus1=BBT2895024.1.2.0,bus2=BBT172876200.1.2.0,Phases=2,Linecode=BT807_BT807_4_2_3,Length=0.031619000,Units=km
new line.1004772 bus1=BBT1078118.1.2.3.0,bus2=BBT1078132.1.2.3.0,Phases=3,Linecode=BT803_BT803_4_3_4,Length=0.031619000,Units=km
new line.1004786 bus1=BBT1078132.1.2.3.0,bus2=BBT1078139.1.2.3.0,Phases=3,Linecode=BT803_BT803_4_3_4,Length=0.032646000,Units=km
new line.1004800 bus1=BBT1078139.1.2.3.0,bus2=BBT1078153.1.2.3.0,Phases=3,Linecode=BT803_BT803_4_3_4,Length=0.026074000,Units=km
new line.1004807 bus1=BBT1078146.1.2.3.0,bus2=BBT1078125.1.2.3.0,Phases=3,Linecode=BT107_BT107_7_3_1,Length=0.033597000,Units=km
new line.1004814 bus1=BBT1078083.1.2.3.0,bus2=BBT1078153.1.2.3.0,Phases=3,Linecode=BT107_BT107_7_3_1,Length=0.056844000,Units=km
new line.1004842 bus1=BBT1078195.1.2.0,bus2=BBT1078181.1.2.0,Phases=2,Linecode=BT107_BT107_7_2_1,Length=0.025236000,Units=km
new line.1000005 bus1=BBT1073337.1.2.0,bus2=BBT2291904.1.2.0,Phases=2,Linecode=BT808_BT808_4_2_3,Length=0.032753000,Units=km
new line.1000012 bus1=BBT1073344.1.2.0,bus2=BBT1073337.1.2.0,Phases=2,Linecode=BT808_BT808_4_2_3,Length=0.029611000,Units=km
new line.1000019 bus1=BBT1073351.1.2.0,bus2=BBT1073316.1.2.0,Phases=2,Linecode=BT807_BT807_4_2_3,Length=0.023343000,Units=km
new line.1000026 bus1=BBT1073358.1.2.0,bus2=BBT1073344.1.2.0,Phases=2,Linecode=BT808_BT808_4_2_3,Length=0.036874000,Units=km
new line.1000033 bus1=BBT1073365.1.2.0,bus2=BBT1073358.1.2.0,Phases=2,Linecode=BT808_BT808_4_2_3,Length=0.039619000,Units=km
new line.1000040 bus1=BBT1073372.1.2.0,bus2=BBT1073407.1.2.0,Phases=2,Linecode=BT807_BT807_4_2_3,Length=0.026681000,Units=km
new line.1000047 bus1=BBT1073372.1.2.0,bus2=BBT1073351.1.2.0,Phases=2,Linecode=BT807_BT807_4_2_3,Length=0.029830000,Units=km
new line.1000054 bus1=BBT1073379.1.2.0,bus2=BBT1073372.1.2.0,Phases=2,Linecode=BT807_BT807_4_2_3,Length=0.029408000,Units=km
new line.1000061 bus1=BBT1073386.1.2.0,bus2=BBT1073365.1.2.0,Phases=2,Linecode=BT807_BT807_4_2_3,Length=0.033238000,Units=km
new line.1000068 bus1=BBT1073393.1.2.0,bus2=BBT1073379.1.2.0,Phases=2,Linecode=BT807_BT807_4_2_3,Length=0.032012000,Units=km
new line.1000075 bus1=BBT1073400.1.2.0,bus2=BBT1073393.1.2.0,Phases=2,Linecode=BT807_BT807_4_2_3,Length=0.032554000,Units=km
new line.1000082 bus1=BBT1073309.1.2.0,bus2=BBT1073400.1.2.0,Phases=2,Linecode=BT521_BT521_7_2_1,Length=0.000500000,Units=km
new line.1000089 bus1=BBT1073400.1.2.0,bus2=BBT1073414.1.2.0,Phases=2,Linecode=BT807_BT807_4_2_3,Length=0.032012000,Units=km
new line.1000096 bus1=BBT1073414.1.2.0,bus2=BBT1073421.1.2.0,Phases=2,Linecode=BT807_BT807_4_2_3,Length=0.035899000,Units=km
new line.1000103 bus1=BBT1073421.1.2.0,bus2=BBT1073428.1.2.0,Phases=2,Linecode=BT807_BT807_4_2_3,Length=0.031824000,Units=km
new line.1000110 bus1=BBT1073421.1.2.0,bus2=BBT1073386.1.2.0,Phases=2,Linecode=BT807_BT807_4_2_3,Length=0.036793000,Units=km
new line.1000117 bus1=BBT1073463.1.2.0,bus2=BBT1073456.1.2.0,Phases=2,Linecode=BT107_BT107_7_2_1,Length=0.026681000,Units=km
new line.1000124 bus1=BBT1073470.1.2.0,bus2=BBT1073449.1.2.0,Phases=2,Linecode=BT107_BT107_7_2_1,Length=0.037104000,Units=km
new line.1000131 bus1=BBT1073470.1.2.0,bus2=BBT1073463.1.2.0,Phases=2,Linecode=BT107_BT107_7_2_1,Length=0.032277000,Units=km
new line.1000138 bus1=BBT1073477.1.2.0,bus2=BBT2881437.1.2.0,Phases=2,Linecode=BT107_BT107_7_2_1,Length=0.038829000,Units=km
new line.1000145 bus1=BBT1073484.1.2.0,bus2=BBT1073470.1.2.0,Phases=2,Linecode=BT107_BT107_7_2_1,Length=0.031572000,Units=km
new line.1000152 bus1=BBT1073498.1.2.0,bus2=BBT1073505.1.2.0,Phases=2,Linecode=BT808_BT808_4_2_3,Length=0.018680000,Units=km
new line.1000159 bus1=BBT1073498.1.2.0,bus2=BBT1073484.1.2.0,Phases=2,Linecode=BT108_BT108_7_2_1,Length=0.034925000,Units=km
new line.1000166 bus1=BBT1073512.1.2.0,bus2=BBT1073491.1.2.0,Phases=2,Linecode=BT107_BT107_7_2_1,Length=0.026681000,Units=km
new line.1000173 bus1=BBT1073519.1.2.0,bus2=BBT1073498.1.2.0,Phases=2,Linecode=BT108_BT108_7_2_1,Length=0.028633000,Units=km
new line.1000180 bus1=BBT1073435.1.2.0,bus2=BBT1073519.1.2.0,Phases=2,Linecode=BT309_BT309_7_2_1,Length=0.000500000,Units=km
new line.1000187 bus1=BBT1073519.1.2.0,bus2=BBT1073540.1.2.0,Phases=2,Linecode=BT108_BT108_7_2_1,Length=0.033731000,Units=km
new line.1000194 bus1=BBT1073533.1.2.0,bus2=BBT1073526.1.2.0,Phases=2,Linecode=BT107_BT107_7_2_1,Length=0.027890000,Units=km
new line.1000201 bus1=BBT1073540.1.2.0,bus2=BBT1073533.1.2.0,Phases=2,Linecode=BT107_BT107_7_2_1,Length=0.032753000,Units=km
new line.1000208 bus1=BBT1073540.1.2.0,bus2=BBT1073547.1.2.0,Phases=2,Linecode=BT108_BT108_7_2_1,Length=0.032753000,Units=km
new line.1000215 bus1=BBT1073547.1.2.0,bus2=BBT1073554.1.2.0,Phases=2,Linecode=BT107_BT107_7_2_1,Length=0.036874000,Units=km
new line.1000222 bus1=BBT1073554.1.2.0,bus2=BBT1073561.1.2.0,Phases=2,Linecode=BT107_BT107_7_2_1,Length=0.019415000,Units=km
new line.1000229 bus1=BBT1073554.1.2.0,bus2=BBT1073568.1.2.0,Phases=2,Linecode=BT107_BT107_7_2_1,Length=0.031777000,Units=km
new line.1000432 bus1=BBT1073778.1.2.0,bus2=BBT1073771.1.2.0,Phases=2,Linecode=BT107_BT107_7_2_1,Length=0.028015000,Units=km
new line.1000439 bus1=BBT1073778.1.2.0,bus2=BBT1073799.1.2.0,Phases=2,Linecode=BT107_BT107_7_2_1,Length=0.033012000,Units=km
new line.1000446 bus1=BBT1073785.1.2.0,bus2=BBT1073778.1.2.0,Phases=2,Linecode=BT107_BT107_7_2_1,Length=0.020247000,Units=km
new line.1000453 bus1=BBT1073792.1.2.0,bus2=BBT1073806.1.2.0,Phases=2,Linecode=BT107_BT107_7_2_1,Length=0.021631000,Units=km
new line.1000460 bus1=BBT1073792.1.2.0,bus2=BBT1073785.1.2.0,Phases=2,Linecode=BT107_BT107_7_2_1,Length=0.025236000,Units=km
new line.1000467 bus1=BBT1073799.1.2.0,bus2=BBT2884461.1.2.0,Phases=2,Linecode=BT107_BT107_7_2_1,Length=0.035801000,Units=km
new line.1000474 bus1=BBT1073813.1.2.0,bus2=BBT1073792.1.2.0,Phases=2,Linecode=BT108_BT108_7_2_1,Length=0.028842000,Units=km
new line.1000481 bus1=BBT1073827.1.2.0,bus2=BBT1073813.1.2.0,Phases=2,Linecode=BT108_BT108_7_2_1,Length=0.031903000,Units=km
new line.1000488 bus1=BBT1073764.1.2.0,bus2=BBT1073827.1.2.0,Phases=2,Linecode=BT513_BT513_7_2_1,Length=0.000500000,Units=km
new line.1000495 bus1=BBT1073827.1.2.0,bus2=BBT1073841.1.2.0,Phases=2,Linecode=BT108_BT108_7_2_1,Length=0.030803000,Units=km
new line.1000502 bus1=BBT1073834.1.2.0,bus2=BBT1073820.1.2.0,Phases=2,Linecode=BT107_BT107_7_2_1,Length=0.034406000,Units=km
new line.1000509 bus1=BBT1073841.1.2.0,bus2=BBT1073869.1.2.0,Phases=2,Linecode=BT108_BT108_7_2_1,Length=0.034129000,Units=km
new line.1000516 bus1=BBT1073855.1.2.0,bus2=BBT1073848.1.2.0,Phases=2,Linecode=BT107_BT107_7_2_1,Length=0.029118000,Units=km
new line.1000523 bus1=BBT1073855.1.2.0,bus2=BBT1073834.1.2.0,Phases=2,Linecode=BT107_BT107_7_2_1,Length=0.038829000,Units=km
new line.1000530 bus1=BBT1073862.1.2.0,bus2=BBT1073855.1.2.0,Phases=2,Linecode=BT107_BT107_7_2_1,Length=0.024039000,Units=km
new line.1000537 bus1=BBT1073869.1.2.0,bus2=BBT1073876.1.2.0,Phases=2,Linecode=BT107_BT107_7_2_1,Length=0.027200000,Units=km
new line.1000544 bus1=BBT1073869.1.2.0,bus2=BBT1073862.1.2.0,Phases=2,Linecode=BT107_BT107_7_2_1,Length=0.028859000,Units=km
new line.1000691 bus1=BBT1074023.1.2.0,bus2=BBT1074016.1.2.0,Phases=2,Linecode=BT107_BT107_7_2_1,Length=0.033731000,Units=km
new line.1000698 bus1=BBT1074023.1.2.0,bus2=BBT1074030.1.2.0,Phases=2,Linecode=BT107_BT107_7_2_1,Length=0.021585000,Units=km
new line.1000705 bus1=BBT1074037.1.2.0,bus2=BBT1074023.1.2.0,Phases=2,Linecode=BT107_BT107_7_2_1,Length=0.032982000,Units=km
new line.1000712 bus1=BBT1074051.1.2.0,bus2=BBT1074044.1.2.0,Phases=2,Linecode=BT107_BT107_7_2_1,Length=0.026681000,Units=km
new line.1000719 bus1=BBT1074051.1.2.0,bus2=BBT1074037.1.2.0,Phases=2,Linecode=BT108_BT108_7_2_1,Length=0.037851000,Units=km
new line.1000726 bus1=BBT1074058.1.2.0,bus2=BBT1074051.1.2.0,Phases=2,Linecode=BT108_BT108_7_2_1,Length=0.028633000,Units=km
new line.1000733 bus1=BBT1074009.1.2.0,bus2=BBT1074058.1.2.0,Phases=2,Linecode=BT308_BT308_7_2_1,Length=0.000500000,Units=km
new line.1000740 bus1=BBT1074058.1.2.0,bus2=BBT1074065.1.2.0,Phases=2,Linecode=BT108_BT108_7_2_1,Length=0.031777000,Units=km
new line.1000747 bus1=BBT1074065.1.2.0,bus2=BBT1074072.1.2.0,Phases=2,Linecode=BT107_BT107_7_2_1,Length=0.020394000,Units=km
new line.1004849 bus1=BBT1078202.1.2.0,bus2=BBT1078188.1.2.0,Phases=2,Linecode=BT107_BT107_7_2_1,Length=0.024411000,Units=km
new line.1004856 bus1=BBT1078202.1.2.0,bus2=BBT1078195.1.2.0,Phases=2,Linecode=BT107_BT107_7_2_1,Length=0.009055000,Units=km
new line.1004863 bus1=BBT1078209.1.2.0,bus2=BBT1078202.1.2.0,Phases=2,Linecode=BT107_BT107_7_2_1,Length=0.035801000,Units=km