new line.RML10000054 bus1=BBT905570.1.2.0,bus2=RML1010000054.1.2.0,Phases=2,Linecode=CABBTG05_4_2,Length=0.017000000,Units=km
new line.RML10001097 bus1=BBT4930164.1.2.3.0,bus2=RML1010001097.1.2.3.0,Phases=3,Linecode=CABBTG07_4_3,Length=0.017000000,Units=km
new line.RML10001111 bus1=BBT787186.1.2.3.0,bus2=RML1010001111.1.2.3.0,Phases=3,Linecode=CABBTG07_4_3,Length=0.017000000,Units=km
new line.RML10001377 bus1=BBT756050.1.2.3.0,bus2=RML1010001377.1.2.3.0,Phases=3,Linecode=CABBTG06_4_3,Length=0.017000000,Units=km
new line.RML10001398 bus1=BBT775223.1.2.0,bus2=RML1010001398.1.2.0,Phases=2,Linecode=CABBTG04_4_2,Length=0.017000000,Units=km
new line.RML10001587 bus1=BBT782370.1.2.0,bus2=RML1010001587.1.2.0,Phases=2,Linecode=CABBTG04_4_2,Length=0.017000000,Units=km
new line.RML10002266 bus1=BBT5128432.1.2.3.0,bus2=RML1010002266.1.2.3.0,Phases=3,Linecode=CABBTG06_4_3,Length=0.017000000,Units=km
new line.RML10003113 bus1=BBT761811.1.2.0,bus2=RML1010003113.1.2.0,Phases=2,Linecode=CABBTG05_4_2,Length=0.017000000,Units=km
new line.RML10003246 bus1=BBT751437.1.0,bus2=RML1010003246.1.0,Phases=1,Linecode=CABBTG02_4_1,Length=0.017000000,Units=km
new line.RML10003281 bus1=BBT905598.1.0,bus2=RML1010003281.1.0,Phases=1,Linecode=CABBTG02_4_1,Length=0.017000000,Units=km
new line.RML10004086 bus1=BBT3111851.1.2.3.0,bus2=RML1010004086.1.2.3.0,Phases=3,Linecode=CABBTG10_4_3,Length=0.017000000,Units=km
new line.RML10008524 bus1=BBT2949150.1.2.0,bus2=RML1010008524.1.2.0,Phases=2,Linecode=CABBTG04_4_2,Length=0.017000000,Units=km
new line.RML10009028 bus1=BBT782258.1.0,bus2=RML1010009028.1.0,Phases=1,Linecode=CABBTG02_4_1,Length=0.010000000,Units=km
new line.RML10009042 bus1=BBT784365.1.2.0,bus2=RML1010009042.1.2.0,Phases=2,Linecode=CABBTG05_4_2,Length=0.017000000,Units=km
new line.RML10009091 bus1=BBT4366930.1.2.0,bus2=RML1010009091.1.2.0,Phases=2,Linecode=CABBTG04_4_2,Length=0.017000000,Units=km
new line.RML10009126 bus1=BBT703732.1.2.0,bus2=RML1010009126.1.2.0,Phases=2,Linecode=CABBTG04_4_2,Length=0.017000000,Units=km
new line.RML10009161 bus1=BBT4932894.1.2.3.0,bus2=RML1010009161.1.2.3.0,Phases=3,Linecode=CABBT805_4_3,Length=0.017000000,Units=km
new line.RML10009196 bus1=BBT788110.1.0,bus2=RML1010009196.1.0,Phases=1,Linecode=CABBTG02_4_1,Length=0.017000000,Units=km
new line.RML10009707 bus1=BBT776525.1.2.0,bus2=RML1010009707.1.2.0,Phases=2,Linecode=CABBTG05_4_2,Length=0.017000000,Units=km
new line.RML10009840 bus1=BBT5289285.1.2.0,bus2=RML1010009840.1.2.0,Phases=2,Linecode=CABBTG05_4_2,Length=0.017000000,Units=km
new line.RML10015293 bus1=BBT5310775.1.2.0,bus2=RML1010015293.1.2.0,Phases=2,Linecode=CABBTG04_4_2,Length=0.017000000,Units=km
new line.RML10015335 bus1=BBT785415.1.2.3.0,bus2=RML1010015335.1.2.3.0,Phases=3,Linecode=CABBTG06_4_3,Length=0.017000000,Units=km
new line.RML10015377 bus1=BBT3534973.1.2.3.0,bus2=RML1010015377.1.2.3.0,Phases=3,Linecode=CABBTG06_4_3,Length=0.017000000,Units=km
new line.RML10015391 bus1=BBT784512.1.2.3.0,bus2=RML1010015391.1.2.3.0,Phases=3,Linecode=CABBTG11_4_3,Length=0.017000000,Units=km
new line.RML10015405 bus1=BBT3718016.1.2.0,bus2=RML1010015405.1.2.0,Phases=2,Linecode=CABBTG05_4_2,Length=0.017000000,Units=km
new line.RML10015531 bus1=BBT15675718.1.2.3.0,bus2=RML1010015531.1.2.3.0,Phases=3,Linecode=CABBTG07_4_3,Length=0.017000000,Units=km
new line.RML10015538 bus1=BBT4929128.1.2.3.0,bus2=RML1010015538.1.2.3.0,Phases=3,Linecode=CABBTG07_4_3,Length=0.017000000,Units=km
new line.RML10015559 bus1=BBT721715.1.2.0,bus2=RML1010015559.1.2.0,Phases=2,Linecode=CABBTG05_4_2,Length=0.017000000,Units=km
new line.RML10015678 bus1=BBT725922.1.2.0,bus2=RML1010015678.1.2.0,Phases=2,Linecode=CABBTG05_4_2,Length=0.017000000,Units=km
new line.RML10015699 bus1=BBT136808639.1.0,bus2=RML1010015699.1.0,Phases=1,Linecode=CABBTG01_4_1,Length=0.017000000,Units=km
new line.RML10015741 bus1=BBT15705139.1.2.3.0,bus2=RML1010015741.1.2.3.0,Phases=3,Linecode=CABBTG07_4_3,Length=0.017000000,Units=km
new line.RML10015776 bus1=BBT783217.1.0,bus2=RML1010015776.1.0,Phases=1,Linecode=CABBTG02_4_1,Length=0.017000000,Units=km
new line.RML10015804 bus1=BBT725383.1.2.0,bus2=RML1010015804.1.2.0,Phases=2,Linecode=CABBTG04_4_2,Length=0.017000000,Units=km
new line.RML10016077 bus1=BBT776392.1.2.3.0,bus2=RML1010016077.1.2.3.0,Phases=3,Linecode=CABBTG06_4_3,Length=0.017000000,Units=km
new line.RML10016105 bus1=BBT3563953.1.2.0,bus2=RML1010016105.1.2.0,Phases=2,Linecode=CABBTG05_4_2,Length=0.017000000,Units=km
new line.RML10016224 bus1=BBT769672.1.2.0,bus2=RML1010016224.1.2.0,Phases=2,Linecode=CABBTG05_4_2,Length=0.017000000,Units=km
new line.RML10016322 bus1=BBT724102.1.2.0,bus2=RML1010016322.1.2.0,Phases=2,Linecode=CABBTG05_4_2,Length=0.017000000,Units=km
new line.RML10016329 bus1=BBT724585.1.2.0,bus2=RML1010016329.1.2.0,Phases=2,Linecode=CABBTG05_4_2,Length=0.017000000,Units=km
new line.RML10016392 bus1=BBT771219.1.2.0,bus2=RML1010016392.1.2.0,Phases=2,Linecode=CABBTG05_4_2,Length=0.017000000,Units=km
new line.RML10016420 bus1=BBT749498.1.2.0,bus2=RML1010016420.1.2.0,Phases=2,Linecode=CABBTG04_4_2,Length=0.017000000,Units=km
new line.RML10016455 bus1=BBT4929898.1.2.3.0,bus2=RML1010016455.1.2.3.0,Phases=3,Linecode=CABBTG06_4_3,Length=0.017000000,Units=km
new line.RML10040699 bus1=BBT774320.1.2.0,bus2=RML1010040699.1.2.0,Phases=2,Linecode=CABBTG05_4_2,Length=0.017000000,Units=km
new line.RML10040700 bus1=BBT4934714.1.2.3.0,bus2=RML1010040700.1.2.3.0,Phases=3,Linecode=CABBTG07_4_3,Length=0.017000000,Units=km
new line.RML10059469 bus1=BBT727231.1.2.0,bus2=RML1010059469.1.2.0,Phases=2,Linecode=CABBTG05_4_2,Length=0.017000000,Units=km
new line.RML10073632 bus1=BBT3929724.1.0,bus2=RML1010073632.1.0,Phases=1,Linecode=CABBTG02_4_1,Length=0.017000000,Units=km
new line.RML10073633 bus1=BBT3930144.1.2.0,bus2=RML1010073633.1.2.0,Phases=2,Linecode=CABBTG05_4_2,Length=0.017000000,Units=km
new line.RML10073635 bus1=BBT906011.2.0,bus2=RML1010073635.2.0,Phases=1,Linecode=CABBTG02_4_1,Length=0.017000000,Units=km
new line.RML10073648 bus1=BBT2850702.1.2.0,bus2=RML1010073648.1.2.0,Phases=2,Linecode=CABBTG05_4_2,Length=0.017000000,Units=km
new line.RML10073653 bus1=BBT3633995.1.0,bus2=RML1010073653.1.0,Phases=1,Linecode=CABBTG02_4_1,Length=0.017000000,Units=km
new line.RML10073655 bus1=BBT905843.1.0,bus2=RML1010073655.1.0,Phases=1,Linecode=CABBTG02_4_1,Length=0.017000000,Units=km
new line.RML10073665 bus1=BBT776021.1.0,bus2=RML1010073665.1.0,Phases=1,Linecode=CABBTG03_4_1,Length=0.017000000,Units=km
new line.RML10073670 bus1=BBT3929976.1.2.0,bus2=RML1010073670.1.2.0,Phases=2,Linecode=CABBTG05_4_2,Length=0.017000000,Units=km
new line.RML10073673 bus1=BBT2850730.1.2.0,bus2=RML1010073673.1.2.0,Phases=2,Linecode=CABBTG05_4_2,Length=0.017000000,Units=km
new line.RML10073873 bus1=BBT767383.1.2.0,bus2=RML1010073873.1.2.0,Phases=2,Linecode=CABBTG05_4_2,Length=0.017000000,Units=km
new line.RML10073896 bus1=BBT786206.1.2.0,bus2=RML1010073896.1.2.0,Phases=2,Linecode=CABBTG05_4_2,Length=0.017000000,Units=km
new line.RML10073900 bus1=BBT746978.1.2.3.0,bus2=RML1010073900.1.2.3.0,Phases=3,Linecode=CABBTG06_4_3,Length=0.017000000,Units=km
new line.RML10073902 bus1=BBT702010.1.2.0,bus2=RML1010073902.1.2.0,Phases=2,Linecode=CABBTG05_4_2,Length=0.017000000,Units=km
new line.RML10039044 bus1=BBT15693225.1.2.0,bus2=RML1010039044.1.2.0,Phases=2,Linecode=CABBT801_4_2,Length=0.017000000,Units=km
new line.RML10039051 bus1=BBT4059854.1.2.0,bus2=RML1010039051.1.2.0,Phases=2,Linecode=CABBT811_4_2,Length=0.017000000,Units=km
new line.RML10039480 bus1=BBT2850982.1.2.0,bus2=RML1010039480.1.2.0,Phases=2,Linecode=CABBTG05_4_2,Length=0.017000000,Units=km
new line.RML10048716 bus1=BBT3505272.1.2.0,bus2=RML1010048716.1.2.0,Phases=2,Linecode=CABBTG04_4_2,Length=0.017000000,Units=km
new line.RML10048735 bus1=BBT763204.1.0,bus2=RML1010048735.1.0,Phases=1,Linecode=CABBTG02_4_1,Length=0.017000000,Units=km
new line.RML10048739 bus1=BBT71734728.1.2.0,bus2=RML1010048739.1.2.0,Phases=2,Linecode=CABBTG05_4_2,Length=0.017000000,Units=km
new line.RML10048752 bus1=BBT129835694.1.0,bus2=RML1010048752.1.0,Phases=1,Linecode=CABBTG02_4_1,Length=0.017000000,Units=km
new line.RML10048755 bus1=BBT25829344.1.2.3.0,bus2=RML1010048755.1.2.3.0,Phases=3,Linecode=CABBTG06_4_3,Length=0.017000000,Units=km
new line.RML10049345 bus1=BBT788418.2.0,bus2=RML1010049345.2.0,Phases=1,Linecode=CABBTG02_4_1,Length=0.017000000,Units=km
new line.RML10049346 bus1=BBT4072244.1.2.0,bus2=RML1010049346.1.2.0,Phases=2,Linecode=CABBTG05_4_2,Length=0.017000000,Units=km
new line.RML10051544 bus1=BBT3668498.1.2.3.0,bus2=RML1010051544.1.2.3.0,Phases=3,Linecode=CABBTG12_4_3,Length=0.017000000,Units=km
new line.RML10051667 bus1=BBT703137.3.0,bus2=RML1010051667.3.0,Phases=1,Linecode=CABBTG01_4_1,Length=0.017000000,Units=km
new line.RML10061443 bus1=BBT750646.1.2.0,bus2=RML1010061443.1.2.0,Phases=2,Linecode=CABBT807_4_2,Length=0.017000000,Units=km
new line.RML10061449 bus1=BBT750835.1.2.0,bus2=RML1010061449.1.2.0,Phases=2,Linecode=CABBTG04_4_2,Length=0.017000000,Units=km
new line.RML10061454 bus1=BBT770953.1.2.0,bus2=RML1010061454.1.2.0,Phases=2,Linecode=CABBTG05_4_2,Length=0.017000000,Units=km
new line.RML10061457 bus1=BBT784533.1.2.0,bus2=RML1010061457.1.2.0,Phases=2,Linecode=CABBTG05_4_2,Length=0.017000000,Units=km
new line.RML10061464 bus1=BBT767194.1.2.0,bus2=RML1010061464.1.2.0,Phases=2,Linecode=CABBTG05_4_2,Length=0.017000000,Units=km
new line.RML10061604 bus1=BBT725502.1.2.0,bus2=RML1010061604.1.2.0,Phases=2,Linecode=CABBTG05_4_2,Length=0.017000000,Units=km
new line.RML10061607 bus1=BBT727581.1.0,bus2=RML1010061607.1.0,Phases=1,Linecode=CABBTG02_4_1,Length=0.017000000,Units=km
new line.RML10061653 bus1=BBT725852.2.0,bus2=RML1010061653.2.0,Phases=1,Linecode=CABBTG02_4_1,Length=0.017000000,Units=km
new line.RML10061657 bus1=BBT725411.1.0,bus2=RML1010061657.1.0,Phases=1,Linecode=CABBTG02_4_1,Length=0.017000000,Units=km
new line.RML10061663 bus1=BBT725131.2.0,bus2=RML1010061663.2.0,Phases=1,Linecode=CABBTG02_4_1,Length=0.017000000,Units=km
new line.RML10061667 bus1=BBT82631565.1.0,bus2=RML1010061667.1.0,Phases=1,Linecode=CABBTG02_4_1,Length=0.017000000,Units=km
new line.RML10061673 bus1=BBT727721.2.0,bus2=RML1010061673.2.0,Phases=1,Linecode=CABBTG02_4_1,Length=0.017000000,Units=km
new line.RML10061680 bus1=BBT3810115.2.0,bus2=RML1010061680.2.0,Phases=1,Linecode=CABBTG02_4_1,Length=0.017000000,Units=km
new line.RML10061689 bus1=BBT3319779.1.2.0,bus2=RML1010061689.1.2.0,Phases=2,Linecode=CABBTG05_4_2,Length=0.017000000,Units=km
new line.RML10061704 bus1=BBT728246.1.0,bus2=RML1010061704.1.0,Phases=1,Linecode=CABBTG02_4_1,Length=0.017000000,Units=km
new line.RML10061708 bus1=BBT725180.1.0,bus2=RML1010061708.1.0,Phases=1,Linecode=CABBTG02_4_1,Length=0.017000000,Units=km
new line.RML10061718 bus1=BBT725887.1.0,bus2=RML1010061718.1.0,Phases=1,Linecode=CABBTG02_4_1,Length=0.017000000,Units=km
new line.RML10061729 bus1=BBT783819.1.0,bus2=RML1010061729.1.0,Phases=1,Linecode=CABBTG02_4_1,Length=0.017000000,Units=km
new line.RML10061731 bus1=BBT784372.1.0,bus2=RML1010061731.1.0,Phases=1,Linecode=CABBTG02_4_1,Length=0.017000000,Units=km
new line.RML10061792 bus1=BBT723990.1.0,bus2=RML1010061792.1.0,Phases=1,Linecode=CABBTG01_4_1,Length=0.017000000,Units=km
new line.RML10061795 bus1=BBT5019701.1.2.0,bus2=RML1010061795.1.2.0,Phases=2,Linecode=CABBTG04_4_2,Length=0.017000000,Units=km
new line.RML10061799 bus1=BBT5019701.1.2.0,bus2=RML1010061799.1.2.0,Phases=2,Linecode=CABBTG05_4_2,Length=0.017000000,Units=km
new line.RML10061802 bus1=BBT749834.1.2.0,bus2=RML1010061802.1.2.0,Phases=2,Linecode=CABBTG05_4_2,Length=0.017000000,Units=km
new line.RML10061809 bus1=BBT781537.1.0,bus2=RML1010061809.1.0,Phases=1,Linecode=CABBTG02_4_1,Length=0.017000000,Units=km
new line.RML10061816 bus1=BBT727882.2.0,bus2=RML1010061816.2.0,Phases=1,Linecode=CABBTG02_4_1,Length=0.017000000,Units=km
new line.RML10063604 bus1=BBT760509.1.2.0,bus2=RML1010063604.1.2.0,Phases=2,Linecode=CABBTG13_4_2,Length=0.017000000,Units=km
new line.RML10076751 bus1=BBT3549414.1.2.0,bus2=RML1010076751.1.2.0,Phases=2,Linecode=CABBTG05_4_2,Length=0.017000000,Units=km
new line.RML10076754 bus1=BBT3549414.1.2.0,bus2=RML1010076754.1.2.0,Phases=2,Linecode=CABBTG05_4_2,Length=0.017000000,Units=km
new line.RML10076755 bus1=BBT3549414.1.2.0,bus2=RML1010076755.1.2.0,Phases=2,Linecode=CABBTG05_4_2,Length=0.017000000,Units=km
new line.RML10076756 bus1=BBT3549414.1.2.0,bus2=RML1010076756.1.2.0,Phases=2,Linecode=CABBTG05_4_2,Length=0.017000000,Units=km
new line.RML10091540 bus1=BBT4709104.1.0,bus2=RML1010091540.1.0,Phases=1,Linecode=CABBTG02_4_1,Length=0.017000000,Units=km
new line.RML10091543 bus1=BBT148129962.1.2.0,bus2=RML1010091543.1.2.0,Phases=2,Linecode=CABBTG05_4_2,Length=0.017000000,Units=km
new line.RML10091565 bus1=BBT726937.1.0,bus2=RML1010091565.1.0,Phases=1,Linecode=CABBTG02_4_1,Length=0.017000000,Units=km
new line.RML10091579 bus1=BBT898437.1.0,bus2=RML1010091579.1.0,Phases=1,Linecode=CABBTG02_4_1,Length=0.017000000,Units=km
new line.RML10091840 bus1=BBT898444.1.0,bus2=RML1010091840.1.0,Phases=1,Linecode=CABBTG02_4_1,Length=0.017000000,Units=km
new line.RML10093757 bus1=BBT901531.1.2.0,bus2=RML1010093757.1.2.0,Phases=2,Linecode=CABBTG05_4_2,Length=0.017000000,Units=km
new line.RML10093776 bus1=BBT905619.1.2.0,bus2=RML1010093776.1.2.0,Phases=2,Linecode=CABBTG05_4_2,Length=0.017000000,Units=km
new line.RML10093821 bus1=BBT779773.1.2.0,bus2=RML1010093821.1.2.0,Phases=2,Linecode=CABBTG05_4_2,Length=0.017000000,Units=km
new line.RML10094574 bus1=BBT770127.1.2.3.0,bus2=RML1010094574.1.2.3.0,Phases=3,Linecode=CABBTG06_4_3,Length=0.017000000,Units=km
new line.RML10106880 bus1=BBT747013.1.2.0,bus2=RML1010106880.1.2.0,Phases=2,Linecode=CABBTG05_4_2,Length=0.017000000,Units=km
new line.RML10106881 bus1=BBT746950.1.2.0,bus2=RML1010106881.1.2.0,Phases=2,Linecode=CABBTG05_4_2,Length=0.017000000,Units=km
new line.RML10106882 bus1=BBT763372.1.2.0,bus2=RML1010106882.1.2.0,Phases=2,Linecode=CABBTG05_4_2,Length=0.017000000,Units=km
new line.RML10106884 bus1=BBT744878.1.2.0,bus2=RML1010106884.1.2.0,Phases=2,Linecode=CABBTG05_4_2,Length=0.017000000,Units=km
new line.RML10106905 bus1=BBT758913.1.2.0,bus2=RML1010106905.1.2.0,Phases=2,Linecode=CABBTG05_4_2,Length=0.017000000,Units=km
new line.RML10106907 bus1=BBT747363.1.0,bus2=RML1010106907.1.0,Phases=1,Linecode=CABBTG02_4_1,Length=0.017000000,Units=km
new line.RML10108238 bus1=BBT763834.1.2.0,bus2=RML1010108238.1.2.0,Phases=2,Linecode=CABBTG05_4_2,Length=0.017000000,Units=km
new line.RML10073912 bus1=BBT762042.1.0,bus2=RML1010073912.1.0,Phases=1,Linecode=CABBTG02_4_1,Length=0.017000000,Units=km
new line.RML10074206 bus1=BBT58399455.2.0,bus2=RML1010074206.2.0,Phases=1,Linecode=CABBTG02_4_1,Length=0.017000000,Units=km
new line.RML10074229 bus1=BBT785303.1.2.0,bus2=RML1010074229.1.2.0,Phases=2,Linecode=CABBTG05_4_2,Length=0.017000000,Units=km
new line.RML10074261 bus1=BBT4933188.1.2.3.0,bus2=RML1010074261.1.2.3.0,Phases=3,Linecode=CABBTG06_4_3,Length=0.017000000,Units=km
new line.RML10074271 bus1=BBT725845.2.0,bus2=RML1010074271.2.0,Phases=1,Linecode=CABBTG02_4_1,Length=0.017000000,Units=km
new line.RML10074301 bus1=BBT785758.1.0,bus2=RML1010074301.1.0,Phases=1,Linecode=CABBTG02_4_1,Length=0.017000000,Units=km
new line.RML10074314 bus1=BBT746712.1.2.0,bus2=RML1010074314.1.2.0,Phases=2,Linecode=CABBTG05_4_2,Length=0.017000000,Units=km
new line.RML10074341 bus1=BBT727749.1.2.0,bus2=RML1010074341.1.2.0,Phases=2,Linecode=CABBTG05_4_2,Length=0.017000000,Units=km
new line.RML10074371 bus1=BBT703487.1.2.0,bus2=RML1010074371.1.2.0,Phases=2,Linecode=CABBTG05_4_2,Length=0.017000000,Units=km
new line.RML10085247 bus1=BBT2850093.1.2.0,bus2=RML1010085247.1.2.0,Phases=2,Linecode=CABBTG05_4_2,Length=0.017000000,Units=km
new line.RML10104193 bus1=BBT4728088.1.2.3.0,bus2=RML1010104193.1.2.3.0,Phases=3,Linecode=CABBTG06_4_3,Length=0.015000000,Units=km
new line.RML10104194 bus1=BBT725915.1.2.0,bus2=RML1010104194.1.2.0,Phases=2,Linecode=CABBTG05_4_2,Length=0.012000000,Units=km
new line.RML10104303 bus1=BBT768237.1.0,bus2=RML1010104303.1.0,Phases=1,Linecode=CABBTG01_4_1,Length=0.006000000,Units=km
new line.RML10104306 bus1=BBT762441.1.0,bus2=RML1010104306.1.0,Phases=1,Linecode=CABBTG03_4_1,Length=0.015000000,Units=km
new line.RML10104310 bus1=BBT726832.1.2.0,bus2=RML1010104310.1.2.0,Phases=2,Linecode=CABBTG05_4_2,Length=0.011000000,Units=km
new line.RML10104341 bus1=BBT136808639.1.2.0,bus2=RML1010104341.1.2.0,Phases=2,Linecode=CABBTG05_4_2,Length=0.018000000,Units=km
new line.RML10104352 bus1=BBT3105425.1.2.0,bus2=RML1010104352.1.2.0,Phases=2,Linecode=CABBTG05_4_2,Length=0.017000000,Units=km
new line.RML10104377 bus1=BBT782706.1.2.0,bus2=RML1010104377.1.2.0,Phases=2,Linecode=CABBTG05_4_2,Length=0.012000000,Units=km
new line.RML10104384 bus1=BBT786241.1.0,bus2=RML1010104384.1.0,Phases=1,Linecode=CABBTG01_4_1,Length=0.010000000,Units=km
new line.RML10104387 bus1=BBT768132.1.2.0,bus2=RML1010104387.1.2.0,Phases=2,Linecode=CABBTG05_4_2,Length=0.010000000,Units=km
new line.RML10104401 bus1=BBT789608.1.2.0,bus2=RML1010104401.1.2.0,Phases=2,Linecode=CABBTG05_4_2,Length=0.017000000,Units=km
new line.RML10104439 bus1=BBT4481513.1.2.0,bus2=RML1010104439.1.2.0,Phases=2,Linecode=CABBTG05_4_2,Length=0.017000000,Units=km
new line.RML10104468 bus1=BBT762070.1.2.0,bus2=RML1010104468.1.2.0,Phases=2,Linecode=CABBTG05_4_2,Length=0.012000000,Units=km
new line.RML10104487 bus1=BBT770456.1.2.0,bus2=RML1010104487.1.2.0,Phases=2,Linecode=CABBTG05_4_2,Length=0.015000000,Units=km
new line.RML10104499 bus1=BBT722156.1.0,bus2=RML1010104499.1.0,Phases=1,Linecode=CABBTG02_4_1,Length=0.015000000,Units=km
new line.RML10104518 bus1=BBT3839907.1.0,bus2=RML1010104518.1.0,Phases=1,Linecode=CABBTG01_4_1,Length=0.017000000,Units=km
new line.RML10104544 bus1=BBT789237.1.0,bus2=RML1010104544.1.0,Phases=1,Linecode=CABBTG01_4_1,Length=0.017000000,Units=km
new line.RML10104578 bus1=BBT4927623.1.2.3.0,bus2=RML1010104578.1.2.3.0,Phases=3,Linecode=CABBTG06_4_3,Length=0.017000000,Units=km
new line.RML10104610 bus1=BBT748511.1.0,bus2=RML1010104610.1.0,Phases=1,Linecode=CABBTG02_4_1,Length=0.017000000,Units=km
new line.RML10104630 bus1=BBT751367.1.2.0,bus2=RML1010104630.1.2.0,Phases=2,Linecode=CABBTG05_4_2,Length=0.012000000,Units=km
new line.RML10104703 bus1=BBT3930025.1.0,bus2=RML1010104703.1.0,Phases=1,Linecode=CABBTG01_4_1,Length=0.016000000,Units=km
new line.RML10104891 bus1=BBT782664.1.2.3.0,bus2=RML1010104891.1.2.3.0,Phases=3,Linecode=CABBTG06_4_3,Length=0.017000000,Units=km
new line.RML10104895 bus1=BBT775489.1.2.3.0,bus2=RML1010104895.1.2.3.0,Phases=3,Linecode=CABBTG06_4_3,Length=0.017000000,Units=km
new line.RML10104897 bus1=BBT726741.1.2.3.0,bus2=RML1010104897.1.2.3.0,Phases=3,Linecode=CABBTG06_4_3,Length=0.017000000,Units=km
new line.RML10104902 bus1=BBT12310916.1.2.0,bus2=RML1010104902.1.2.0,Phases=2,Linecode=CABBTG05_4_2,Length=0.017000000,Units=km
new line.RML10104909 bus1=BBT783490.1.2.0,bus2=RML1010104909.1.2.0,Phases=2,Linecode=CABBTG05_4_2,Length=0.017000000,Units=km
new line.RML10104927 bus1=BBT3670892.1.2.3.0,bus2=RML1010104927.1.2.3.0,Phases=3,Linecode=CABBTG06_4_3,Length=0.017000000,Units=km
new line.RML10121226 bus1=BBT747741.1.2.0,bus2=RML1010121226.1.2.0,Phases=2,Linecode=CABBTG05_4_2,Length=0.010000000,Units=km
new line.RML10121231 bus1=BBT131865757.1.0,bus2=RML1010121231.1.0,Phases=1,Linecode=CABBTG02_4_1,Length=0.006000000,Units=km
new line.RML10121246 bus1=BBT762637.1.2.0,bus2=RML1010121246.1.2.0,Phases=2,Linecode=CABBTG05_4_2,Length=0.020000000,Units=km
new line.RML10121257 bus1=BBT782146.1.0,bus2=RML1010121257.1.0,Phases=1,Linecode=CABBTG01_4_1,Length=0.010000000,Units=km
new line.RML10121266 bus1=BBT3434894.1.0,bus2=RML1010121266.1.0,Phases=1,Linecode=CABBTG01_4_1,Length=0.010000000,Units=km
new line.RML10121273 bus1=BBT772108.1.0,bus2=RML1010121273.1.0,Phases=1,Linecode=CABBTG01_4_1,Length=0.011000000,Units=km
new line.RML10121277 bus1=BBT760278.1.2.0,bus2=RML1010121277.1.2.0,Phases=2,Linecode=CABBTG05_4_2,Length=0.015000000,Units=km
new line.RML10121285 bus1=BBT746936.1.0,bus2=RML1010121285.1.0,Phases=1,Linecode=CABBTG02_4_1,Length=0.017000000,Units=km
new line.RML10121289 bus1=BBT766312.1.2.3.0,bus2=RML1010121289.1.2.3.0,Phases=3,Linecode=CABBTG06_4_3,Length=0.013000000,Units=km
new line.RML10121298 bus1=BBT4065132.1.2.0,bus2=RML1010121298.1.2.0,Phases=2,Linecode=CABBTG04_4_2,Length=0.010000000,Units=km
new line.RML10121317 bus1=BBT2849904.1.2.3.0,bus2=RML1010121317.1.2.3.0,Phases=3,Linecode=CABBTG06_4_3,Length=0.017000000,Units=km
new line.RML10121323 bus1=BBT15711593.1.2.0,bus2=RML1010121323.1.2.0,Phases=2,Linecode=CABBTG13_4_2,Length=0.017000000,Units=km
new line.RML10121353 bus1=BBT773403.1.2.3.0,bus2=RML1010121353.1.2.3.0,Phases=3,Linecode=CABBTG06_4_3,Length=0.017000000,Units=km
new line.RML10121359 bus1=BBT4562370.1.2.0,bus2=RML1010121359.1.2.0,Phases=2,Linecode=CABBTG05_4_2,Length=0.016000000,Units=km
new line.RML10121372 bus1=BBT4929828.1.2.3.0,bus2=RML1010121372.1.2.3.0,Phases=3,Linecode=CABBTG07_4_3,Length=0.017000000,Units=km
new line.RML10121379 bus1=BBT4929821.1.2.3.0,bus2=RML1010121379.1.2.3.0,Phases=3,Linecode=CABBTG07_4_3,Length=0.017000000,Units=km
new line.RML10121382 bus1=BBT4951192.1.2.3.0,bus2=RML1010121382.1.2.3.0,Phases=3,Linecode=CABBTG06_4_3,Length=0.023000000,Units=km
new line.RML10121399 bus1=BBT5019701.1.0,bus2=RML1010121399.1.0,Phases=1,Linecode=CABBTG02_4_1,Length=0.017000000,Units=km
new line.RML10121756 bus1=BBT3929913.1.2.0,bus2=RML1010121756.1.2.0,Phases=2,Linecode=CABBTG05_4_2,Length=0.017000000,Units=km
new line.RML10121807 bus1=BBT703452.1.2.0,bus2=RML1010121807.1.2.0,Phases=2,Linecode=CABBTG05_4_2,Length=0.028000000,Units=km
new line.RML10018471 bus1=BBT129835687.1.0,bus2=RML1010018471.1.0,Phases=1,Linecode=CABBTG01_4_1,Length=0.017000000,Units=km
new line.RML10018737 bus1=BBT3538802.1.2.3.0,bus2=RML1010018737.1.2.3.0,Phases=3,Linecode=CABBTG06_4_3,Length=0.017000000,Units=km
new line.RML10019787 bus1=BBT744661.1.2.0,bus2=RML1010019787.1.2.0,Phases=2,Linecode=CABBTG05_4_2,Length=0.017000000,Units=km
new line.RML10019794 bus1=BBT767859.1.2.0,bus2=RML1010019794.1.2.0,Phases=2,Linecode=CABBTG05_4_2,Length=0.017000000,Units=km
new line.RML10020256 bus1=BBT3929913.1.0,bus2=RML1010020256.1.0,Phases=1,Linecode=CABBTG02_4_1,Length=0.017000000,Units=km
new line.RML10020277 bus1=BBT764394.1.0,bus2=RML1010020277.1.0,Phases=1,Linecode=CABBTG02_4_1,Length=0.017000000,Units=km
new line.RML10020319 bus1=BBT724319.1.0,bus2=RML1010020319.1.0,Phases=1,Linecode=CABBTG02_4_1,Length=0.017000000,Units=km
new line.RML10020333 bus1=BBT3532782.1.0,bus2=RML1010020333.1.0,Phases=1,Linecode=CABBTG02_4_1,Length=0.017000000,Units=km
new line.RML10022041 bus1=BBT776917.1.0,bus2=RML1010022041.1.0,Phases=1,Linecode=CABBTG02_4_1,Length=0.017000000,Units=km
new line.RML10022209 bus1=BBT777029.1.0,bus2=RML1010022209.1.0,Phases=1,Linecode=CABBTG01_4_1,Length=0.017000000,Units=km
new line.RML10022244 bus1=BBT774628.1.2.0,bus2=RML1010022244.1.2.0,Phases=2,Linecode=CABBTG05_4_2,Length=0.017000000,Units=km
new line.RML10022265 bus1=BBT755070.1.0,bus2=RML1010022265.1.0,Phases=1,Linecode=CABBTG02_4_1,Length=0.017000000,Units=km
new line.RML10022286 bus1=BBT25829344.1.2.0,bus2=RML1010022286.1.2.0,Phases=2,Linecode=CABBTG05_4_2,Length=0.017000000,Units=km
new line.RML10053772 bus1=BBT724361.1.2.0,bus2=RML1010053772.1.2.0,Phases=2,Linecode=CABBTG05_4_2,Length=0.017000000,Units=km
new line.RML10053775 bus1=BBT725810.1.2.0,bus2=RML1010053775.1.2.0,Phases=2,Linecode=CABBTG05_4_2,Length=0.017000000,Units=km
new line.RML10053776 bus1=BBT725936.1.2.0,bus2=RML1010053776.1.2.0,Phases=2,Linecode=CABBTG05_4_2,Length=0.017000000,Units=km
new line.RML10053777 bus1=BBT783574.1.2.0,bus2=RML1010053777.1.2.0,Phases=2,Linecode=CABBTG05_4_2,Length=0.017000000,Units=km
new line.RML10068317 bus1=BBT686274.1.2.0,bus2=RML1010068317.1.2.0,Phases=2,Linecode=CABBTG05_4_2,Length=0.017000000,Units=km
new line.RML10070762 bus1=BBT763155.1.0,bus2=RML1010070762.1.0,Phases=1,Linecode=CABBTG02_4_1,Length=0.017000000,Units=km
new line.RML10070764 bus1=BBT762336.1.0,bus2=RML1010070764.1.0,Phases=1,Linecode=CABBTG02_4_1,Length=0.017000000,Units=km
new line.RML10070769 bus1=BBT763169.1.2.0,bus2=RML1010070769.1.2.0,Phases=2,Linecode=CABBTG05_4_2,Length=0.017000000,Units=km
new line.RML10070981 bus1=BBT2849897.1.2.0,bus2=RML1010070981.1.2.0,Phases=2,Linecode=CABBTG05_4_2,Length=0.017000000,Units=km
new line.RML10071140 bus1=BBT3083949.1.2.3.0,bus2=RML1010071140.1.2.3.0,Phases=3,Linecode=CABBTG06_4_3,Length=0.017000000,Units=km
new line.RML10071141 bus1=BBT3078237.1.2.0,bus2=RML1010071141.1.2.0,Phases=2,Linecode=CABBTG05_4_2,Length=0.017000000,Units=km
new line.RML10071145 bus1=BBT703816.1.2.0,bus2=RML1010071145.1.2.0,Phases=2,Linecode=CABBTG05_4_2,Length=0.017000000,Units=km
new line.RML10088515 bus1=BBT770428.1.0,bus2=RML1010088515.1.0,Phases=1,Linecode=CABBTG02_4_1,Length=0.017000000,Units=km
new line.RML10088516 bus1=BBT785933.1.2.0,bus2=RML1010088516.1.2.0,Phases=2,Linecode=CABBTG05_4_2,Length=0.017000000,Units=km
new line.RML10088729 bus1=BBT2850730.2.0,bus2=RML1010088729.2.0,Phases=1,Linecode=CABBTG01_4_1,Length=0.017000000,Units=km
new line.RML10089575 bus1=BBT4929821.1.2.3.0,bus2=RML1010089575.1.2.3.0,Phases=3,Linecode=CABBTG09_4_3,Length=0.010000000,Units=km
new line.RML10089598 bus1=BBT3929955.1.2.0,bus2=RML1010089598.1.2.0,Phases=2,Linecode=CABBTG05_4_2,Length=0.017000000,Units=km
new line.RML10089626 bus1=BBT780767.1.2.0,bus2=RML1010089626.1.2.0,Phases=2,Linecode=CABBTG05_4_2,Length=0.027000000,Units=km
new line.RML10089660 bus1=BBT904072.1.0,bus2=RML1010089660.1.0,Phases=1,Linecode=CABBTG02_4_1,Length=0.006000000,Units=km
new line.RML10089675 bus1=BBT903197.1.2.0,bus2=RML1010089675.1.2.0,Phases=2,Linecode=CABBTG05_4_2,Length=0.006000000,Units=km
new line.RML10089677 bus1=BBT904233.1.2.0,bus2=RML1010089677.1.2.0,Phases=2,Linecode=CABBTG05_4_2,Length=0.010000000,Units=km
new line.RML10089991 bus1=BBT3107707.1.2.0,bus2=RML1010089991.1.2.0,Phases=2,Linecode=CABBTG05_4_2,Length=0.017000000,Units=km
new line.RML10090624 bus1=BBT780438.1.0,bus2=RML1010090624.1.0,Phases=1,Linecode=CABBTG02_4_1,Length=0.015000000,Units=km
new line.RML10090667 bus1=BBT2851038.1.2.3.0,bus2=RML1010090667.1.2.3.0,Phases=3,Linecode=CABBTG06_4_3,Length=0.014000000,Units=km
new line.RML10097498 bus1=BBT779542.1.2.0,bus2=RML1010097498.1.2.0,Phases=2,Linecode=CABBTG05_4_2,Length=0.017000000,Units=km
new line.RML10097510 bus1=BBT909413.1.2.0,bus2=RML1010097510.1.2.0,Phases=2,Linecode=CABBTG05_4_2,Length=0.017000000,Units=km
new line.RML10097525 bus1=BBT778121.1.2.0,bus2=RML1010097525.1.2.0,Phases=2,Linecode=CABBTG05_4_2,Length=0.017000000,Units=km
new line.RML10097529 bus1=BBT2850996.1.0,bus2=RML1010097529.1.0,Phases=1,Linecode=CABBTG02_4_1,Length=0.017000000,Units=km
new line.RML10097545 bus1=BBT702906.1.2.0,bus2=RML1010097545.1.2.0,Phases=2,Linecode=CABBTG05_4_2,Length=0.017000000,Units=km
new line.RML10097549 bus1=BBT704453.1.2.0,bus2=RML1010097549.1.2.0,Phases=2,Linecode=CABBTG05_4_2,Length=0.017000000,Units=km
new line.RML10110626 bus1=BBT769133.1.0,bus2=RML1010110626.1.0,Phases=1,Linecode=CABBTG02_4_1,Length=0.017000000,Units=km
new line.RML10110638 bus1=BBT752662.1.2.0,bus2=RML1010110638.1.2.0,Phases=2,Linecode=CABBTG05_4_2,Length=0.010000000,Units=km
new line.RML10110691 bus1=BBT726398.1.0,bus2=RML1010110691.1.0,Phases=1,Linecode=CABBTG02_4_1,Length=0.010000000,Units=km
new line.RML10110693 bus1=BBT3668477.1.2.0,bus2=RML1010110693.1.2.0,Phases=2,Linecode=CABBTG04_4_2,Length=0.017000000,Units=km
new line.RML10110723 bus1=BBT4341436.1.0,bus2=RML1010110723.1.0,Phases=1,Linecode=CABBTG02_4_1,Length=0.013000000,Units=km
new line.RML10110730 bus1=BBT3535008.1.0,bus2=RML1010110730.1.0,Phases=1,Linecode=CABBTG01_4_1,Length=0.020000000,Units=km
new line.RML10110746 bus1=BBT743408.1.2.0,bus2=RML1010110746.1.2.0,Phases=2,Linecode=CABBTG05_4_2,Length=0.008000000,Units=km
new line.RML10110777 bus1=BBT744416.1.0,bus2=RML1010110777.1.0,Phases=1,Linecode=CABBTG02_4_1,Length=0.018000000,Units=km
new line.RML10126576 bus1=BBT768769.1.2.3.0,bus2=RML1010126576.1.2.3.0,Phases=3,Linecode=CABBTG06_4_3,Length=0.017000000,Units=km
new line.RML10126582 bus1=BBT763736.1.2.3.0,bus2=RML1010126582.1.2.3.0,Phases=3,Linecode=CABBTG06_4_3,Length=0.017000000,Units=km
new line.RML10126587 bus1=BBT703207.1.2.0,bus2=RML1010126587.1.2.0,Phases=2,Linecode=CABBTG05_4_2,Length=0.017000000,Units=km
new line.RML10126591 bus1=BBT4933713.1.2.3.0,bus2=RML1010126591.1.2.3.0,Phases=3,Linecode=CABBTG06_4_3,Length=0.017000000,Units=km
new line.RML10126719 bus1=BBT753726.1.2.0,bus2=RML1010126719.1.2.0,Phases=2,Linecode=CABBTG05_4_2,Length=0.017000000,Units=km
new line.RML10126749 bus1=BBT776889.1.0,bus2=RML1010126749.1.0,Phases=1,Linecode=CABBTG02_4_1,Length=0.017000000,Units=km
new line.RML10127850 bus1=BBT3929983.1.0,bus2=RML1010127850.1.0,Phases=1,Linecode=CABBTG02_4_1,Length=0.017000000,Units=km
new line.RML10127856 bus1=BBT909392.1.2.3.0,bus2=RML1010127856.1.2.3.0,Phases=3,Linecode=CABBTG06_4_3,Length=0.017000000,Units=km
new line.RML10127861 bus1=BBT909427.1.2.0,bus2=RML1010127861.1.2.0,Phases=2,Linecode=CABBTG05_4_2,Length=0.017000000,Units=km
new line.RML10127898 bus1=BBT905633.1.0,bus2=RML1010127898.1.0,Phases=1,Linecode=CABBTG02_4_1,Length=0.017000000,Units=km
new line.RML10128063 bus1=BBT3322159.1.2.3.0,bus2=RML1010128063.1.2.3.0,Phases=3,Linecode=CABBTG06_4_3,Length=0.017000000,Units=km
new line.RML10128520 bus1=BBT770974.1.2.0,bus2=RML1010128520.1.2.0,Phases=2,Linecode=CABBTG05_4_2,Length=0.017000000,Units=km
new line.RML10128610 bus1=BBT769854.1.2.0,bus2=RML1010128610.1.2.0,Phases=2,Linecode=CABBTG05_4_2,Length=0.017000000,Units=km
new line.RML10128623 bus1=BBT775216.1.2.0,bus2=RML1010128623.1.2.0,Phases=2,Linecode=CABBTG05_4_2,Length=0.017000000,Units=km
new line.RML10128638 bus1=BBT789118.1.3.0,bus2=RML1010128638.1.3.0,Phases=2,Linecode=CABBTG04_4_2,Length=0.017000000,Units=km