new load.3009000171M1 bus1=BMT101928045.1.2.3,Phases=3,kv=13.8,kW=1.24038,pf=0.92,Vminpu=0.93,Vmaxpu=1.5,model=1,daily=MT1_1,status=variable
new load.3009000338M1 bus1=BMT170521967.1.2.3,Phases=3,kv=13.8,kW=9.737,pf=0.92,Vminpu=0.93,Vmaxpu=1.5,model=1,daily=MT1_1,status=variable
new load.3009000339M1 bus1=BMT170886813.1.2.3,Phases=3,kv=13.8,kW=8.74258,pf=0.92,Vminpu=0.93,Vmaxpu=1.5,model=1,daily=MT3_1,status=variable
new load.3009000497M1 bus1=BMT170218311.1.2.3,Phases=3,kv=13.8,kW=29.33504,pf=0.92,Vminpu=0.93,Vmaxpu=1.5,model=1,daily=MT1_1,status=variable
new load.3009001294M1 bus1=BMT170886911.1.2.3,Phases=3,kv=13.8,kW=3.34904,pf=0.92,Vminpu=0.93,Vmaxpu=1.5,model=1,daily=MT1_1,status=variable
new load.3009008571M1 bus1=BMT174510269.1.2.3,Phases=3,kv=13.8,kW=98.63218,pf=0.92,Vminpu=0.93,Vmaxpu=1.5,model=1,daily=MT4_1,status=variable
new load.3009009783M1 bus1=BMT148532606.1.2.3,Phases=3,kv=13.8,kW=10.29518,pf=0.92,Vminpu=0.93,Vmaxpu=1.5,model=1,daily=MT1_1,status=variable
new load.3009011869M1 bus1=BMT105671470.1.2.3,Phases=3,kv=13.8,kW=34.39532,pf=0.92,Vminpu=0.93,Vmaxpu=1.5,model=1,daily=MT4_1,status=variable
new load.3009012305M1 bus1=BMT170218977.1.2.3,Phases=3,kv=13.8,kW=3.34904,pf=0.92,Vminpu=0.93,Vmaxpu=1.5,model=1,daily=MT1_1,status=variable
new load.3009015364M1 bus1=BMT101930698.1.2.3,Phases=3,kv=13.8,kW=1.11634,pf=0.92,Vminpu=0.93,Vmaxpu=1.5,model=1,daily=MT1_1,status=variable
new load.3009016304M1 bus1=BMT170674479.1.2.3,Phases=3,kv=13.8,kW=106.91704,pf=0.92,Vminpu=0.93,Vmaxpu=1.5,model=1,daily=MT5_2,status=variable
new load.3009017479M1 bus1=BMT170886907.1.2.3,Phases=3,kv=13.8,kW=14.42502,pf=0.92,Vminpu=0.93,Vmaxpu=1.5,model=1,daily=MT2_1,status=variable
new load.3009017788M1 bus1=BMT101918938.1.2.3,Phases=3,kv=13.8,kW=13.45814,pf=0.92,Vminpu=0.93,Vmaxpu=1.5,model=1,daily=MT1_1,status=variable
new load.3009017790M1 bus1=BMT101927723.1.2.3,Phases=3,kv=13.8,kW=1.98462,pf=0.92,Vminpu=0.93,Vmaxpu=1.5,model=1,daily=MT1_1,status=variable
new load.3009021516M1 bus1=BMT170886752.1.2.3,Phases=3,kv=13.8,kW=39.5173,pf=0.92,Vminpu=0.93,Vmaxpu=1.5,model=1,daily=MT2_1,status=variable
new load.3009021800M1 bus1=BMT101926911.1.2.3,Phases=3,kv=13.8,kW=43.4687,pf=0.92,Vminpu=0.93,Vmaxpu=1.5,model=1,daily=MT3_1,status=variable
new load.3009021983M1 bus1=BMT170218439.1.2.3,Phases=3,kv=13.8,kW=92.27818,pf=0.92,Vminpu=0.93,Vmaxpu=1.5,model=1,daily=MT5_1,status=variable
new load.3010178526M1 bus1=BMT101927933.1.2.3,Phases=3,kv=13.8,kW=58.60038,pf=0.92,Vminpu=0.93,Vmaxpu=1.5,model=1,daily=MT2_1,status=variable
new load.3010185441M1 bus1=BMT156759804.1.2.3,Phases=3,kv=13.8,kW=18.38662,pf=0.92,Vminpu=0.93,Vmaxpu=1.5,model=1,daily=MT4_1,status=variable
new load.3010377745M1 bus1=BMT101921423.1.2.3,Phases=3,kv=13.8,kW=2.35672,pf=0.92,Vminpu=0.93,Vmaxpu=1.5,model=1,daily=MT1_1,status=variable
new load.3010946060M1 bus1=BMT170218309.1.2.3,Phases=3,kv=13.8,kW=9.6975,pf=0.92,Vminpu=0.93,Vmaxpu=1.5,model=1,daily=MT2_1,status=variable
new load.3011444061M1 bus1=BMT170886907.1.2.3,Phases=3,kv=13.8,kW=59.30996,pf=0.92,Vminpu=0.93,Vmaxpu=1.5,model=1,daily=MT2_1,status=variable
new load.3011842218M1 bus1=BMT139754211.1.2.3,Phases=3,kv=13.8,kW=7.8186,pf=0.92,Vminpu=0.93,Vmaxpu=1.5,model=1,daily=MT2_1,status=variable
new load.3012640548M1 bus1=BMT172590005.1.2.3,Phases=3,kv=13.8,kW=62.1695,pf=0.92,Vminpu=0.93,Vmaxpu=1.5,model=1,daily=MT3_1,status=variable
new load.3013256832M1 bus1=BMT172590005.1.2.3,Phases=3,kv=13.8,kW=92.89066,pf=0.92,Vminpu=0.93,Vmaxpu=1.5,model=1,daily=MT3_1,status=variable
new load.3013590516M1 bus1=BMT170218304.1.2.3,Phases=3,kv=13.8,kW=14.36442,pf=0.92,Vminpu=0.93,Vmaxpu=1.5,model=1,daily=MT2_1,status=variable
new load.3013928438M1 bus1=BMT172701522.1.2.3,Phases=3,kv=13.8,kW=25.76638,pf=0.92,Vminpu=0.93,Vmaxpu=1.5,model=1,daily=MT2_1,status=variable
new load.3014013855M1 bus1=BMT170218224.1.2.3,Phases=3,kv=13.8,kW=32.73612,pf=0.92,Vminpu=0.93,Vmaxpu=1.5,model=1,daily=MT3_1,status=variable
