new line.10480779 bus1=BBT3119208.1.2.0,bus2=BBT3119215.1.2.0,Phases=2,Linecode=BT503_BT503_5_2_1,Length=0.005002000,Units=km
new line.10480905 bus1=BBT3119187.1.2.3.0,bus2=BBT3119194.1.2.3.0,Phases=3,Linecode=BT518_BT518_5_3_1,Length=0.034089000,Units=km
new line.10480961 bus1=BBT3072154.1.2.3.0,bus2=BBT3072161.1.2.3.0,Phases=3,Linecode=BT514_BT514_7_3_1,Length=0.000529000,Units=km
new line.10480968 bus1=BBT3072161.1.2.3.0,bus2=BBT3119145.1.2.3.0,Phases=3,Linecode=BT514_BT514_5_3_1,Length=0.005168000,Units=km
new line.10480975 bus1=BBT3072161.1.2.3.0,bus2=BBT3119313.1.2.3.0,Phases=3,Linecode=BT518_BT518_5_3_1,Length=0.018464000,Units=km
new line.10481010 bus1=BBT3119334.1.2.3.0,bus2=BBT3119341.1.2.3.0,Phases=3,Linecode=BT518_BT518_5_3_1,Length=0.037361000,Units=km
new line.10481031 bus1=BBT3119341.1.2.3.0,bus2=BBT3119348.1.2.3.0,Phases=3,Linecode=BT518_BT518_5_3_1,Length=0.005392000,Units=km
new line.10481073 bus1=BBT3119355.1.2.3.0,bus2=BBT3119362.1.2.3.0,Phases=3,Linecode=BT518_BT518_5_3_1,Length=0.006627000,Units=km
new line.10481129 bus1=BBT3119404.1.2.3.0,bus2=BBT3119418.1.2.3.0,Phases=3,Linecode=BT521_BT521_5_3_1,Length=0.028608000,Units=km
new line.10481185 bus1=BBT3119481.1.2.0,bus2=BBT3119502.1.2.0,Phases=2,Linecode=BT521_BT521_5_2_1,Length=0.041360000,Units=km
new line.10482221 bus1=BBT3115169.1.2.3.0,bus2=BBT3115190.1.2.3.0,Phases=3,Linecode=BT521_BT521_5_3_1,Length=0.004246000,Units=km
new line.10482242 bus1=BBT3115113.1.2.3.0,bus2=BBT3115162.1.2.3.0,Phases=3,Linecode=BT521_BT521_5_3_1,Length=0.005002000,Units=km
new line.10482284 bus1=BBT3115106.1.2.3.0,bus2=BBT3115113.1.2.3.0,Phases=3,Linecode=BT521_BT521_5_3_1,Length=0.023310000,Units=km
new line.10482361 bus1=BBT3114819.1.2.3.0,bus2=BBT3114833.1.2.3.0,Phases=3,Linecode=BT508_BT508_5_3_1,Length=0.004633000,Units=km
new line.10482396 bus1=BBT3114868.1.2.3.0,bus2=BBT3114875.1.2.3.0,Phases=3,Linecode=BT521_BT521_5_3_1,Length=0.037890000,Units=km
new line.10482431 bus1=BBT3114882.1.2.3.0,bus2=BBT3114889.1.2.3.0,Phases=3,Linecode=BT521_BT521_5_3_1,Length=0.032624000,Units=km
new line.10482550 bus1=BBT3116758.1.2.3.0,bus2=BBT3116772.1.2.3.0,Phases=3,Linecode=BT521_BT521_5_3_1,Length=0.020632000,Units=km
new line.10482578 bus1=BBT3116730.1.2.3.0,bus2=BBT3116744.1.2.3.0,Phases=3,Linecode=BT521_BT521_5_3_1,Length=0.034542000,Units=km
new line.10482613 bus1=BBT3116716.1.2.3.0,bus2=BBT3116723.1.2.3.0,Phases=3,Linecode=BT518_BT518_5_3_1,Length=0.026177000,Units=km
new line.10482655 bus1=BBT3115092.1.2.3.0,bus2=BBT3115099.1.2.3.0,Phases=3,Linecode=BT521_BT521_5_3_1,Length=0.019121000,Units=km
new line.10482690 bus1=BBT3115078.1.2.3.0,bus2=BBT3115085.1.2.3.0,Phases=3,Linecode=BT521_BT521_5_3_1,Length=0.012465000,Units=km
new line.10482711 bus1=BBT3072420.1.2.3.0,bus2=BBT3072427.1.2.3.0,Phases=3,Linecode=BT513_BT513_7_3_1,Length=0.000534000,Units=km
new line.10482725 bus1=BBT3072427.1.2.3.0,bus2=BBT3114973.1.2.3.0,Phases=3,Linecode=BT513_BT513_5_3_1,Length=0.006028000,Units=km
new line.10482732 bus1=BBT3072427.1.2.3.0,bus2=BBT3114770.1.2.3.0,Phases=3,Linecode=BT513_BT513_5_3_1,Length=0.011542000,Units=km
new line.10483187 bus1=BBT3111900.1.2.3.0,bus2=BBT3111907.1.2.3.0,Phases=3,Linecode=BT508_BT508_5_3_1,Length=0.004074000,Units=km
new line.10483292 bus1=BBT3111851.1.2.3.0,bus2=BBT3111858.1.2.3.0,Phases=3,Linecode=BT518_BT518_5_3_1,Length=0.009428000,Units=km
new line.10483705 bus1=BBT3111823.1.2.3.0,bus2=BBT3111851.1.2.3.0,Phases=3,Linecode=BT518_BT518_5_3_1,Length=0.029677000,Units=km
new line.10483768 bus1=BBT3111809.1.2.3.0,bus2=BBT3111816.1.2.3.0,Phases=3,Linecode=BT518_BT518_5_3_1,Length=0.038348000,Units=km
new line.10483796 bus1=BBT3111795.1.2.3.0,bus2=BBT3111802.1.2.3.0,Phases=3,Linecode=BT513_BT513_5_3_1,Length=0.038707000,Units=km
new line.10483824 bus1=BBT3072735.1.2.3.0,bus2=BBT3072742.1.2.3.0,Phases=3,Linecode=BT518_BT518_7_3_1,Length=0.000501000,Units=km
new line.10483838 bus1=BBT3072742.1.2.3.0,bus2=BBT3111494.1.2.3.0,Phases=3,Linecode=BT513_BT513_5_3_1,Length=0.007813000,Units=km
new line.10483845 bus1=BBT3072742.1.2.3.0,bus2=BBT3111487.1.2.3.0,Phases=3,Linecode=BT513_BT513_5_3_1,Length=0.037665000,Units=km
new line.10483880 bus1=BBT3111501.1.3.0,bus2=BBT3111508.1.3.0,Phases=2,Linecode=BT503_BT503_5_2_1,Length=0.007073000,Units=km
new line.10484965 bus1=BBT3110591.1.2.3.0,bus2=BBT3110598.1.2.3.0,Phases=3,Linecode=BT521_BT521_5_3_1,Length=0.006710000,Units=km
new line.10485077 bus1=BBT3110493.1.2.0,bus2=BBT3110514.1.2.0,Phases=2,Linecode=BT503_BT503_5_2_1,Length=0.005659000,Units=km
new line.10485105 bus1=BBT3110374.1.2.3.0,bus2=BBT3110381.1.2.3.0,Phases=3,Linecode=BT521_BT521_5_3_1,Length=0.053267000,Units=km
new line.10485133 bus1=BBT3110360.1.2.3.0,bus2=BBT3110367.1.2.3.0,Phases=3,Linecode=BT521_BT521_5_3_1,Length=0.033295000,Units=km
new line.10485161 bus1=BBT3110290.1.2.3.0,bus2=BBT3110311.1.2.3.0,Phases=3,Linecode=BT518_BT518_5_3_1,Length=0.025213000,Units=km
new line.10485196 bus1=BBT3110269.1.2.3.0,bus2=BBT3110276.1.2.3.0,Phases=3,Linecode=BT518_BT518_5_3_1,Length=0.008758000,Units=km
new line.10485224 bus1=BBT3073120.1.2.3.0,bus2=BBT3073127.1.2.3.0,Phases=3,Linecode=BT518_BT518_7_3_1,Length=0.000606000,Units=km
new line.10485231 bus1=BBT3073127.1.2.3.0,bus2=BBT3110220.1.2.3.0,Phases=3,Linecode=BT513_BT513_5_3_1,Length=0.024899000,Units=km
new line.10485238 bus1=BBT3073127.1.2.3.0,bus2=BBT3110262.1.2.3.0,Phases=3,Linecode=BT513_BT513_5_3_1,Length=0.006166000,Units=km
new line.10487730 bus1=BBT3109744.1.2.3.0,bus2=BBT3109751.1.2.3.0,Phases=3,Linecode=BT521_BT521_5_3_1,Length=0.024936000,Units=km
new line.10487765 bus1=BBT3109583.1.2.3.0,bus2=BBT3109730.1.2.3.0,Phases=3,Linecode=BT518_BT518_5_3_1,Length=0.004303000,Units=km
new line.10487814 bus1=BBT3109576.1.2.3.0,bus2=BBT3109583.1.2.3.0,Phases=3,Linecode=BT518_BT518_5_3_1,Length=0.030917000,Units=km
new line.10487849 bus1=BBT3074086.1.2.3.0,bus2=BBT3074093.1.2.3.0,Phases=3,Linecode=BT513_BT513_7_3_1,Length=0.000509000,Units=km
new line.10487863 bus1=BBT3074093.1.2.3.0,bus2=BBT3107567.1.2.3.0,Phases=3,Linecode=BT513_BT513_5_3_1,Length=0.004147000,Units=km
new line.10487870 bus1=BBT3074093.1.2.3.0,bus2=BBT3109450.1.2.3.0,Phases=3,Linecode=BT521_BT521_5_3_1,Length=0.032865000,Units=km
new line.10487877 bus1=BBT3074093.1.2.3.0,bus2=BBT3109499.1.2.3.0,Phases=3,Linecode=BT513_BT513_5_3_1,Length=0.053312000,Units=km
new line.10487905 bus1=BBT3107595.1.2.3.0,bus2=BBT3107630.1.2.3.0,Phases=3,Linecode=BT513_BT513_5_3_1,Length=0.004155000,Units=km
new line.10487933 bus1=BBT3107679.1.2.3.0,bus2=BBT3107686.1.2.3.0,Phases=3,Linecode=BT521_BT521_5_3_1,Length=0.005518000,Units=km
new line.10487961 bus1=BBT3107693.1.2.3.0,bus2=BBT3107700.1.2.3.0,Phases=3,Linecode=BT508_BT508_5_3_1,Length=0.003066000,Units=km
new line.10487996 bus1=BBT3107707.2.3.0,bus2=BBT3107714.2.3.0,Phases=2,Linecode=BT521_BT521_5_2_1,Length=0.005771000,Units=km
new line.10488024 bus1=BBT3109345.1.2.0,bus2=BBT3109352.1.2.0,Phases=2,Linecode=BT521_BT521_5_2_1,Length=0.008754000,Units=km
new line.10488052 bus1=BBT3106146.1.2.3.0,bus2=BBT3106153.1.2.3.0,Phases=3,Linecode=BT518_BT518_5_3_1,Length=0.016354000,Units=km
new line.10488108 bus1=BBT3105726.1.2.3.0,bus2=BBT3106013.1.2.3.0,Phases=3,Linecode=BT521_BT521_5_3_1,Length=0.018698000,Units=km
new line.10488143 bus1=BBT3106111.1.2.3.0,bus2=BBT3106118.1.2.3.0,Phases=3,Linecode=BT518_BT518_5_3_1,Length=0.021718000,Units=km
new line.10488171 bus1=BBT3106048.1.2.3.0,bus2=BBT3106055.1.2.3.0,Phases=3,Linecode=BT513_BT513_5_3_1,Length=0.028007000,Units=km
new line.10488213 bus1=BBT3074170.1.2.3.0,bus2=BBT3074177.1.2.3.0,Phases=3,Linecode=BT518_BT518_7_3_1,Length=0.000501000,Units=km
new line.10488227 bus1=BBT3074177.1.2.3.0,bus2=BBT3104809.1.2.3.0,Phases=3,Linecode=BT513_BT513_5_3_1,Length=0.004125000,Units=km
new line.10488234 bus1=BBT3074177.1.2.3.0,bus2=BBT3104816.1.2.3.0,Phases=3,Linecode=BT513_BT513_5_3_1,Length=0.018362000,Units=km
new line.10488283 bus1=BBT3104823.1.2.3.0,bus2=BBT3105418.1.2.3.0,Phases=3,Linecode=BT513_BT513_5_3_1,Length=0.015372000,Units=km
new line.10488360 bus1=BBT3105425.1.2.3.0,bus2=BBT3105432.1.2.3.0,Phases=3,Linecode=BT513_BT513_5_3_1,Length=0.010820000,Units=km
new line.10495472 bus1=BBT3114980.1.2.3.0,bus2=BBT3114987.1.2.3.0,Phases=3,Linecode=BT518_BT518_5_3_1,Length=0.004166000,Units=km
new line.10495500 bus1=BBT3115008.1.2.3.0,bus2=BBT3115015.1.2.3.0,Phases=3,Linecode=BT521_BT521_5_3_1,Length=0.010821000,Units=km
new line.10495521 bus1=BBT3115022.1.2.3.0,bus2=BBT3115029.1.2.3.0,Phases=3,Linecode=BT521_BT521_5_3_1,Length=0.038134000,Units=km
new line.10495556 bus1=BBT3115029.1.2.3.0,bus2=BBT3115036.1.2.3.0,Phases=3,Linecode=BT521_BT521_5_3_1,Length=0.005695000,Units=km
new line.10495584 bus1=BBT3115043.1.2.3.0,bus2=BBT3115050.1.2.3.0,Phases=3,Linecode=BT521_BT521_5_3_1,Length=0.005043000,Units=km
new line.10495605 bus1=BBT3076872.1.2.3.0,bus2=BBT3076879.1.2.3.0,Phases=3,Linecode=BT518_BT518_7_3_1,Length=0.000504000,Units=km
new line.10495619 bus1=BBT3115057.1.2.3.0,bus2=BBT3115064.1.2.3.0,Phases=3,Linecode=BT521_BT521_5_3_1,Length=0.006137000,Units=km
new line.10495682 bus1=BBT3122813.1.2.3.0,bus2=BBT3122904.1.2.3.0,Phases=3,Linecode=BT518_BT518_5_3_1,Length=0.016140000,Units=km
new line.10495689 bus1=BBT3122813.1.2.3.0,bus2=BBT3122820.1.2.3.0,Phases=3,Linecode=BT518_BT518_5_3_1,Length=0.037239000,Units=km
new line.10495836 bus1=BBT3122799.1.2.3.0,bus2=BBT3122806.1.2.3.0,Phases=3,Linecode=BT518_BT518_5_3_1,Length=0.014519000,Units=km
new line.10495920 bus1=BBT3122827.1.2.0,bus2=BBT3122834.1.2.0,Phases=2,Linecode=BT503_BT503_5_2_1,Length=0.032391000,Units=km
new line.10496312 bus1=BBT3124017.1.2.3.0,bus2=BBT3124024.1.2.3.0,Phases=3,Linecode=BT521_BT521_5_3_1,Length=0.016027000,Units=km
new line.10496340 bus1=BBT3076956.1.2.3.0,bus2=BBT3076963.1.2.3.0,Phases=3,Linecode=BT518_BT518_7_3_1,Length=0.000517000,Units=km
new line.10496347 bus1=BBT3076963.1.2.3.0,bus2=BBT3123912.1.2.3.0,Phases=3,Linecode=BT513_BT513_5_3_1,Length=0.004563000,Units=km
new line.10496354 bus1=BBT3076963.1.2.3.0,bus2=BBT3123898.1.2.3.0,Phases=3,Linecode=BT513_BT513_5_3_1,Length=0.009044000,Units=km
new line.10496389 bus1=BBT3122771.1.2.3.0,bus2=BBT3122778.1.2.3.0,Phases=3,Linecode=BT513_BT513_5_3_1,Length=0.009224000,Units=km
new line.10496424 bus1=BBT3122862.1.2.3.0,bus2=BBT3122869.1.2.3.0,Phases=3,Linecode=BT518_BT518_5_3_1,Length=0.008081000,Units=km
new line.10496452 bus1=BBT3122848.1.2.3.0,bus2=BBT3122855.1.2.3.0,Phases=3,Linecode=BT518_BT518_5_3_1,Length=0.008081000,Units=km
new line.10496487 bus1=BBT3084600.1.2.3.0,bus2=BBT3084607.1.2.3.0,Phases=3,Linecode=BT513_BT513_7_3_1,Length=0.000517000,Units=km
new line.10496501 bus1=BBT3084607.1.2.3.0,bus2=BBT3122736.1.2.3.0,Phases=3,Linecode=BT513_BT513_5_3_1,Length=0.026700000,Units=km
new line.10496508 bus1=BBT3084607.1.2.3.0,bus2=BBT3122953.1.2.3.0,Phases=3,Linecode=BT513_BT513_5_3_1,Length=0.005284000,Units=km
new line.10496536 bus1=BBT3122960.1.2.3.0,bus2=BBT3122967.1.2.3.0,Phases=3,Linecode=BT518_BT518_5_3_1,Length=0.004274000,Units=km
new line.10496571 bus1=BBT3123051.1.2.3.0,bus2=BBT3123058.1.2.3.0,Phases=3,Linecode=BT521_BT521_5_3_1,Length=0.022755000,Units=km
new line.10496599 bus1=BBT3122988.1.2.3.0,bus2=BBT3122995.1.2.3.0,Phases=3,Linecode=BT521_BT521_5_3_1,Length=0.014888000,Units=km
new line.10496655 bus1=BBT3123079.1.2.3.0,bus2=BBT3123086.1.2.3.0,Phases=3,Linecode=BT508_BT508_5_3_1,Length=0.013086000,Units=km
new line.10496718 bus1=BBT3123016.1.2.3.0,bus2=BBT3123023.1.2.3.0,Phases=3,Linecode=BT521_BT521_5_3_1,Length=0.030290000,Units=km
new line.10498426 bus1=BBT3123023.1.2.3.0,bus2=BBT3123030.1.2.3.0,Phases=3,Linecode=BT521_BT521_5_3_1,Length=0.004481000,Units=km
new line.10498538 bus1=BBT3129267.1.2.3.0,bus2=BBT3129274.1.2.3.0,Phases=3,Linecode=BT521_BT521_5_3_1,Length=0.006335000,Units=km
new line.10498566 bus1=BBT3129239.2.3.0,bus2=BBT3129246.2.3.0,Phases=2,Linecode=BT521_BT521_5_2_1,Length=0.028130000,Units=km
new line.10498601 bus1=BBT3129211.1.2.3.0,bus2=BBT3129225.1.2.3.0,Phases=3,Linecode=BT521_BT521_5_3_1,Length=0.016773000,Units=km
new line.10499399 bus1=BBT3129176.1.2.3.0,bus2=BBT3129183.1.2.3.0,Phases=3,Linecode=BT518_BT518_5_3_1,Length=0.004346000,Units=km
new line.10499448 bus1=BBT3129134.1.2.3.0,bus2=BBT3129148.1.2.3.0,Phases=3,Linecode=BT513_BT513_5_3_1,Length=0.002237000,Units=km
new line.10499511 bus1=BBT3129120.1.2.3.0,bus2=BBT3129134.1.2.3.0,Phases=3,Linecode=BT513_BT513_5_3_1,Length=0.022028000,Units=km
new line.10499581 bus1=BBT3077649.1.2.3.0,bus2=BBT3077656.1.2.3.0,Phases=3,Linecode=BT518_BT518_7_3_1,Length=0.000512000,Units=km
new line.10499595 bus1=BBT3077656.1.2.3.0,bus2=BBT3128938.1.2.3.0,Phases=3,Linecode=BT513_BT513_5_3_1,Length=0.004604000,Units=km
new line.10499602 bus1=BBT3077656.1.2.3.0,bus2=BBT3129113.1.2.3.0,Phases=3,Linecode=BT513_BT513_5_3_1,Length=0.038052000,Units=km
new line.10499686 bus1=BBT3128966.1.2.3.0,bus2=BBT3128973.1.2.3.0,Phases=3,Linecode=BT513_BT513_5_3_1,Length=0.025804000,Units=km
new line.10499742 bus1=BBT3128980.1.2.3.0,bus2=BBT3128987.1.2.3.0,Phases=3,Linecode=BT513_BT513_5_3_1,Length=0.010456000,Units=km
new line.10499798 bus1=BBT3128994.1.2.3.0,bus2=BBT3129001.1.2.3.0,Phases=3,Linecode=BT508_BT508_5_3_1,Length=0.004273000,Units=km
new line.10500015 bus1=BBT3128399.1.2.3.0,bus2=BBT3128406.1.2.3.0,Phases=3,Linecode=BT521_BT521_5_3_1,Length=0.025564000,Units=km
new line.10500855 bus1=BBT3077712.1.2.3.0,bus2=BBT3077719.1.2.3.0,Phases=3,Linecode=BT518_BT518_7_3_1,Length=0.000541000,Units=km
new line.10501282 bus1=BBT4607394.1.2.0,bus2=BBT4607527.1.2.0,Phases=2,Linecode=BT808_BT808_4_2_3,Length=0.029728000,Units=km
new line.10501310 bus1=BBT4607387.1.2.0,bus2=BBT4607394.1.2.0,Phases=2,Linecode=BT807_BT807_4_2_3,Length=0.027143000,Units=km
new line.10501338 bus1=BBT4607380.1.2.0,bus2=BBT5019491.1.2.0,Phases=2,Linecode=BT807_BT807_4_2_3,Length=0.020622000,Units=km
new line.10502640 bus1=BBT3128378.1.2.3.0,bus2=BBT3128392.1.2.3.0,Phases=3,Linecode=BT521_BT521_5_3_1,Length=0.035115000,Units=km
new line.10502710 bus1=BBT3128343.1.2.3.0,bus2=BBT3128357.1.2.3.0,Phases=3,Linecode=BT518_BT518_5_3_1,Length=0.005102000,Units=km
new line.10502752 bus1=BBT3128315.1.2.3.0,bus2=BBT3128322.1.2.3.0,Phases=3,Linecode=BT518_BT518_5_3_1,Length=0.011489000,Units=km
new line.10503137 bus1=BBT3078230.1.2.3.0,bus2=BBT3078237.1.2.3.0,Phases=3,Linecode=BT518_BT518_7_3_1,Length=0.000520000,Units=km
new line.10503151 bus1=BBT3078237.1.2.3.0,bus2=BBT3128231.1.2.3.0,Phases=3,Linecode=BT518_BT518_5_3_1,Length=0.005979000,Units=km
new line.10503158 bus1=BBT3078237.1.2.3.0,bus2=BBT3128308.1.2.3.0,Phases=3,Linecode=BT518_BT518_5_3_1,Length=0.036717000,Units=km
new line.10503249 bus1=BBT3128448.1.2.3.0,bus2=BBT3128462.1.2.3.0,Phases=3,Linecode=BT508_BT508_5_3_1,Length=0.038977000,Units=km
new line.10503305 bus1=BBT3128462.1.2.3.0,bus2=BBT3128469.1.2.3.0,Phases=3,Linecode=BT521_BT521_5_3_1,Length=0.004413000,Units=km
new line.10503368 bus1=BBT3128476.1.2.3.0,bus2=BBT3128483.1.2.3.0,Phases=3,Linecode=BT508_BT508_5_3_1,Length=0.008145000,Units=km
new line.10151247 bus1=BBT2949094.1.2.3.0,bus2=BBT2949101.1.2.3.0,Phases=3,Linecode=BT810_BT810_4_3_4,Length=0.034456000,Units=km
new line.10151310 bus1=BBT2949108.1.2.3.0,bus2=BBT2949479.1.2.3.0,Phases=3,Linecode=BT810_BT810_4_3_4,Length=0.035589000,Units=km
new line.10151359 bus1=BBT2949115.1.2.3.0,bus2=BBT2949108.1.2.3.0,Phases=3,Linecode=BT810_BT810_4_3_4,Length=0.020524000,Units=km
new line.10151380 bus1=BBT2949122.1.2.3.0,bus2=BBT2949115.1.2.3.0,Phases=3,Linecode=BT810_BT810_4_3_4,Length=0.022163000,Units=km
new line.10151401 bus1=BBT2949129.1.2.3.0,bus2=BBT2949122.1.2.3.0,Phases=3,Linecode=BT810_BT810_4_3_4,Length=0.023984000,Units=km
new line.10151422 bus1=BBT2949143.1.2.3.0,bus2=BBT2949129.1.2.3.0,Phases=3,Linecode=BT803_BT803_4_3_4,Length=0.030364000,Units=km
new line.10154215 bus1=BBT2949150.1.2.3.0,bus2=BBT2949143.1.2.3.0,Phases=3,Linecode=BT803_BT803_4_3_4,Length=0.032067000,Units=km
new line.10154222 bus1=BBT2949444.1.2.3.0,bus2=BBT2949150.1.2.3.0,Phases=3,Linecode=BT518_BT518_7_3_1,Length=0.000504000,Units=km
new line.10154229 bus1=BBT2949150.1.2.3.0,bus2=BBT2949157.1.2.3.0,Phases=3,Linecode=BT803_BT803_4_3_4,Length=0.024625000,Units=km
new line.10154334 bus1=BBT2949157.1.2.3.0,bus2=BBT2949164.1.2.3.0,Phases=3,Linecode=BT803_BT803_4_3_4,Length=0.019346000,Units=km
new line.10154362 bus1=BBT2949164.1.2.3.0,bus2=BBT2949353.1.2.3.0,Phases=3,Linecode=BT810_BT810_4_3_4,Length=0.034005000,Units=km
new line.10154369 bus1=BBT2949164.1.2.3.0,bus2=BBT2949339.1.2.3.0,Phases=3,Linecode=BT810_BT810_4_3_4,Length=0.037605000,Units=km
new line.10154425 bus1=BBT2949353.1.2.3.0,bus2=BBT2949360.1.2.3.0,Phases=3,Linecode=BT810_BT810_4_3_4,Length=0.034207000,Units=km
new line.10460269 bus1=BBT3068367.1.2.0,bus2=BBT3068381.1.2.0,Phases=2,Linecode=BT108_BT108_7_2_1,Length=0.038989000,Units=km
new line.10469530 bus1=BBT3492287.1.2.3.0,bus2=BBT3492294.1.2.3.0,Phases=3,Linecode=BT809_BT809_4_3_4,Length=0.034447000,Units=km
new line.10565493 bus1=BBT3101057.1.2.3.0,bus2=BBT720595.1.2.3.0,Phases=3,Linecode=BT803_BT803_4_3_4,Length=0.023027000,Units=km
new line.10565563 bus1=BBT3101071.1.2.3.0,bus2=BBT54405542.1.2.3.0,Phases=3,Linecode=BT803_BT803_4_3_4,Length=0.020030000,Units=km
new line.10565626 bus1=BBT721939.1.2.3.0,bus2=BBT3101071.1.2.3.0,Phases=3,Linecode=BT803_BT803_4_3_4,Length=0.028078000,Units=km
new line.10575111 bus1=BBT3104809.1.2.3.0,bus2=BBT3105383.1.2.3.0,Phases=3,Linecode=BT513_BT513_5_3_1,Length=0.016975000,Units=km
new line.10575146 bus1=BBT3104816.1.2.3.0,bus2=BBT3104823.1.2.3.0,Phases=3,Linecode=BT513_BT513_5_3_1,Length=0.004125000,Units=km
new line.10576175 bus1=BBT3105418.1.2.3.0,bus2=BBT3105425.1.2.3.0,Phases=3,Linecode=BT513_BT513_5_3_1,Length=0.006553000,Units=km
new line.10576196 bus1=BBT3105432.1.2.3.0,bus2=BBT3105453.1.2.3.0,Phases=3,Linecode=BT518_BT518_5_3_1,Length=0.038022000,Units=km
new line.10576217 bus1=BBT3105453.1.2.3.0,bus2=BBT3105642.1.2.3.0,Phases=3,Linecode=BT518_BT518_5_3_1,Length=0.027301000,Units=km
new line.10576252 bus1=BBT3105642.1.2.3.0,bus2=BBT3105579.1.2.3.0,Phases=3,Linecode=BT518_BT518_5_3_1,Length=0.031329000,Units=km
new line.10576259 bus1=BBT3105642.1.2.3.0,bus2=BBT3105670.1.2.3.0,Phases=3,Linecode=BT503_BT503_5_3_1,Length=0.010633000,Units=km
new line.10576287 bus1=BBT3105579.1.2.3.0,bus2=BBT3105586.1.2.3.0,Phases=3,Linecode=BT518_BT518_5_3_1,Length=0.033928000,Units=km
new line.10576301 bus1=BBT3105586.1.2.3.0,bus2=BBT3105593.1.2.3.0,Phases=3,Linecode=BT521_BT521_5_3_1,Length=0.037165000,Units=km
new line.10576308 bus1=BBT3105586.1.2.0,bus2=BBT3105614.1.2.0,Phases=2,Linecode=BT503_BT503_5_2_1,Length=0.009058000,Units=km
new line.10576329 bus1=BBT3105593.1.2.3.0,bus2=BBT3106237.1.2.3.0,Phases=3,Linecode=BT521_BT521_5_3_1,Length=0.042920000,Units=km
new line.10576392 bus1=BBT3105600.1.2.3.0,bus2=BBT3105607.1.2.3.0,Phases=3,Linecode=BT521_BT521_5_3_1,Length=0.018253000,Units=km
new line.10576469 bus1=BBT3105670.1.2.3.0,bus2=BBT3105684.1.2.3.0,Phases=3,Linecode=BT503_BT503_5_3_1,Length=0.025560000,Units=km
new line.10576546 bus1=BBT3106335.1.2.3.0,bus2=BBT3106342.1.2.3.0,Phases=3,Linecode=BT521_BT521_5_3_1,Length=0.026877000,Units=km
new line.10576581 bus1=BBT3106223.1.2.3.0,bus2=BBT3106335.1.2.3.0,Phases=3,Linecode=BT521_BT521_5_3_1,Length=0.020621000,Units=km
new line.10576602 bus1=BBT3106216.1.2.3.0,bus2=BBT3106223.1.2.3.0,Phases=3,Linecode=BT521_BT521_5_3_1,Length=0.013932000,Units=km
new line.10576623 bus1=BBT3106209.1.2.3.0,bus2=BBT3106216.1.2.3.0,Phases=3,Linecode=BT521_BT521_5_3_1,Length=0.028799000,Units=km
new line.10576644 bus1=BBT3106041.1.2.3.0,bus2=BBT3106048.1.2.3.0,Phases=3,Linecode=BT513_BT513_5_3_1,Length=0.008249000,Units=km
new line.10576651 bus1=BBT3106041.1.2.3.0,bus2=BBT3106209.1.2.3.0,Phases=3,Linecode=BT521_BT521_5_3_1,Length=0.021266000,Units=km
new line.10576707 bus1=BBT3106055.1.2.3.0,bus2=BBT3106111.1.2.3.0,Phases=3,Linecode=BT518_BT518_5_3_1,Length=0.018871000,Units=km
new line.10576728 bus1=BBT3106118.1.2.3.0,bus2=BBT3106125.1.2.3.0,Phases=3,Linecode=BT518_BT518_5_3_1,Length=0.035959000,Units=km
new line.10576798 bus1=BBT3106125.1.2.3.0,bus2=BBT3106132.1.2.3.0,Phases=3,Linecode=BT518_BT518_5_3_1,Length=0.027833000,Units=km
new line.10576854 bus1=BBT3106013.1.2.0,bus2=BBT3106020.1.2.0,Phases=2,Linecode=BT521_BT521_5_2_1,Length=0.024204000,Units=km
new line.10576896 bus1=BBT3105719.1.2.3.0,bus2=BBT3105726.1.2.3.0,Phases=3,Linecode=BT521_BT521_5_3_1,Length=0.003375000,Units=km
new line.10576917 bus1=BBT3105705.1.2.3.0,bus2=BBT3105719.1.2.3.0,Phases=3,Linecode=BT521_BT521_5_3_1,Length=0.046644000,Units=km
new line.10576945 bus1=BBT3105383.1.2.3.0,bus2=BBT3106041.1.2.3.0,Phases=3,Linecode=BT513_BT513_5_3_1,Length=0.011405000,Units=km
new line.10576952 bus1=BBT3105383.1.2.3.0,bus2=BBT3105705.1.2.3.0,Phases=3,Linecode=BT521_BT521_5_3_1,Length=0.041395000,Units=km
new line.10577001 bus1=BBT3106020.1.2.0,bus2=BBT3106027.1.2.0,Phases=2,Linecode=BT521_BT521_5_2_1,Length=0.004444000,Units=km
new line.10577022 bus1=BBT3106132.1.2.3.0,bus2=BBT3106139.1.2.3.0,Phases=3,Linecode=BT518_BT518_5_3_1,Length=0.012415000,Units=km
new line.10577050 bus1=BBT3106139.1.2.3.0,bus2=BBT3106146.1.2.3.0,Phases=3,Linecode=BT518_BT518_5_3_1,Length=0.004222000,Units=km
new line.10577078 bus1=BBT3106153.1.2.3.0,bus2=BBT3106160.1.2.3.0,Phases=3,Linecode=BT521_BT521_5_3_1,Length=0.023428000,Units=km
new line.10577141 bus1=BBT3106160.1.2.3.0,bus2=BBT3106167.1.2.3.0,Phases=3,Linecode=BT521_BT521_5_3_1,Length=0.028432000,Units=km
new line.10577162 bus1=BBT3106167.1.2.3.0,bus2=BBT3106181.1.2.3.0,Phases=3,Linecode=BT521_BT521_5_3_1,Length=0.029254000,Units=km
new line.10577204 bus1=BBT3106181.1.2.3.0,bus2=BBT3106188.1.2.3.0,Phases=3,Linecode=BT521_BT521_5_3_1,Length=0.017456000,Units=km
new line.10577218 bus1=BBT3106188.1.2.3.0,bus2=BBT3106195.1.2.3.0,Phases=3,Linecode=BT521_BT521_5_3_1,Length=0.028919000,Units=km
new line.10579010 bus1=BBT3106237.1.2.3.0,bus2=BBT3105600.1.2.3.0,Phases=3,Linecode=BT521_BT521_5_3_1,Length=0.025084000,Units=km
new line.10581404 bus1=BBT3107567.1.2.3.0,bus2=BBT3107574.1.2.3.0,Phases=3,Linecode=BT513_BT513_5_3_1,Length=0.009441000,Units=km
new line.10581453 bus1=BBT3107574.1.2.3.0,bus2=BBT3107581.1.2.3.0,Phases=3,Linecode=BT513_BT513_5_3_1,Length=0.017257000,Units=km
new line.10581460 bus1=BBT3107574.1.2.3.0,bus2=BBT3107665.1.2.3.0,Phases=3,Linecode=BT513_BT513_5_3_1,Length=0.017983000,Units=km
new line.10581488 bus1=BBT3107581.1.2.3.0,bus2=BBT3107595.1.2.3.0,Phases=3,Linecode=BT513_BT513_5_3_1,Length=0.017854000,Units=km
new line.10061206 bus1=BBT3562938.1.2.3.0,bus2=BBT3562931.1.2.3.0,Phases=3,Linecode=BT810_BT810_4_3_4,Length=0.030031000,Units=km
new line.10061234 bus1=BBT3562945.1.2.3.0,bus2=BBT3562938.1.2.3.0,Phases=3,Linecode=BT810_BT810_4_3_4,Length=0.030093000,Units=km
new line.10061262 bus1=BBT3562952.1.2.3.0,bus2=BBT3562959.1.2.3.0,Phases=3,Linecode=BT810_BT810_4_3_4,Length=0.007694000,Units=km
new line.10061269 bus1=BBT3562952.1.2.3.0,bus2=BBT3562945.1.2.3.0,Phases=3,Linecode=BT810_BT810_4_3_4,Length=0.036074000,Units=km
new line.10417051 bus1=BBT3404626.1.2.0,bus2=BBT901783.1.2.0,Phases=2,Linecode=BT808_BT808_4_2_3,Length=0.037492000,Units=km
new line.10516577 bus1=BBT3123996.1.2.3.0,bus2=BBT3124003.1.2.3.0,Phases=3,Linecode=BT518_BT518_5_3_1,Length=0.039500000,Units=km
new line.10516605 bus1=BBT3124304.1.2.3.0,bus2=BBT3124311.1.2.3.0,Phases=3,Linecode=BT518_BT518_5_3_1,Length=0.035789000,Units=km
new line.10516647 bus1=BBT3124311.1.2.3.0,bus2=BBT3124339.1.2.3.0,Phases=3,Linecode=BT518_BT518_5_3_1,Length=0.007350000,Units=km
new line.10516682 bus1=BBT3124353.1.2.3.0,bus2=BBT3124360.1.2.3.0,Phases=3,Linecode=BT508_BT508_5_3_1,Length=0.004179000,Units=km
new line.10516710 bus1=BBT3124367.1.2.3.0,bus2=BBT3124374.1.2.3.0,Phases=3,Linecode=BT521_BT521_5_3_1,Length=0.004515000,Units=km
new line.10516752 bus1=BBT3124388.1.2.3.0,bus2=BBT3124395.1.2.3.0,Phases=3,Linecode=BT521_BT521_5_3_1,Length=0.013258000,Units=km
new line.10516794 bus1=BBT3124423.1.2.3.0,bus2=BBT3124444.1.2.3.0,Phases=3,Linecode=BT521_BT521_5_3_1,Length=0.020573000,Units=km
new line.10516822 bus1=BBT3127727.1.2.0,bus2=BBT3127734.1.2.0,Phases=2,Linecode=BT503_BT503_5_2_1,Length=0.004475000,Units=km
new line.10516857 bus1=BBT3127685.1.2.3.0,bus2=BBT3127692.1.2.3.0,Phases=3,Linecode=BT518_BT518_5_3_1,Length=0.005123000,Units=km
new line.10516892 bus1=BBT3127671.1.2.3.0,bus2=BBT3127678.1.2.3.0,Phases=3,Linecode=BT518_BT518_5_3_1,Length=0.023013000,Units=km
new line.10516920 bus1=BBT3127657.1.2.3.0,bus2=BBT3127664.1.2.3.0,Phases=3,Linecode=BT518_BT518_5_3_1,Length=0.004145000,Units=km
new line.10516955 bus1=BBT3127643.1.2.3.0,bus2=BBT3127650.1.2.3.0,Phases=3,Linecode=BT518_BT518_5_3_1,Length=0.006154000,Units=km
new line.10516983 bus1=BBT3083669.1.2.3.0,bus2=BBT3127643.1.2.3.0,Phases=3,Linecode=BT518_BT518_5_3_1,Length=0.016415000,Units=km
new line.10516990 bus1=BBT3083662.1.2.3.0,bus2=BBT3083669.1.2.3.0,Phases=3,Linecode=BT518_BT518_7_3_1,Length=0.000503000,Units=km
new line.10516997 bus1=BBT3083669.1.2.3.0,bus2=BBT3127510.1.2.3.0,Phases=3,Linecode=BT513_BT513_5_3_1,Length=0.003607000,Units=km
new line.10517088 bus1=BBT3125333.1.2.3.0,bus2=BBT3125347.1.2.3.0,Phases=3,Linecode=BT513_BT513_5_3_1,Length=0.022384000,Units=km
new line.10517102 bus1=BBT3083676.1.2.3.0,bus2=BBT3083683.1.2.3.0,Phases=3,Linecode=BT513_BT513_7_3_1,Length=0.000519000,Units=km
new line.10517109 bus1=BBT3083683.1.2.3.0,bus2=BBT3125277.1.2.3.0,Phases=3,Linecode=BT513_BT513_5_3_1,Length=0.006013000,Units=km
new line.10517116 bus1=BBT3083683.1.2.3.0,bus2=BBT3125305.1.2.3.0,Phases=3,Linecode=BT513_BT513_5_3_1,Length=0.036333000,Units=km
new line.10517501 bus1=BBT3083942.1.2.3.0,bus2=BBT3083949.1.2.3.0,Phases=3,Linecode=BT518_BT518_7_3_1,Length=0.000508000,Units=km
new line.10517508 bus1=BBT3083949.1.2.3.0,bus2=BBT3116429.1.2.3.0,Phases=3,Linecode=BT518_BT518_5_3_1,Length=0.004217000,Units=km
new line.10517515 bus1=BBT3083949.1.2.3.0,bus2=BBT3116674.1.2.3.0,Phases=3,Linecode=BT518_BT518_5_3_1,Length=0.022282000,Units=km
new line.10517767 bus1=BBT3116681.1.2.3.0,bus2=BBT3116695.1.2.3.0,Phases=3,Linecode=BT518_BT518_5_3_1,Length=0.022167000,Units=km
new line.10623530 bus1=BBT3122736.1.2.3.0,bus2=BBT3122848.1.2.3.0,Phases=3,Linecode=BT518_BT518_5_3_1,Length=0.013607000,Units=km
new line.10623537 bus1=BBT3122736.1.2.3.0,bus2=BBT3122750.1.2.3.0,Phases=3,Linecode=BT513_BT513_5_3_1,Length=0.012391000,Units=km
new line.10623558 bus1=BBT3122750.1.2.3.0,bus2=BBT3122757.1.2.3.0,Phases=3,Linecode=BT513_BT513_5_3_1,Length=0.024371000,Units=km
new line.10623565 bus1=BBT3122750.1.2.3.0,bus2=BBT3123037.1.2.3.0,Phases=3,Linecode=BT518_BT518_5_3_1,Length=0.025855000,Units=km
new line.10623593 bus1=BBT3122757.1.2.3.0,bus2=BBT3122764.1.2.3.0,Phases=3,Linecode=BT513_BT513_5_3_1,Length=0.037995000,Units=km
new line.10623621 bus1=BBT3122855.1.2.3.0,bus2=BBT3122862.1.2.3.0,Phases=3,Linecode=BT518_BT518_5_3_1,Length=0.021546000,Units=km
new line.10623642 bus1=BBT3122764.1.2.3.0,bus2=BBT3122771.1.2.3.0,Phases=3,Linecode=BT513_BT513_5_3_1,Length=0.017353000,Units=km
new line.10623663 bus1=BBT3122869.1.2.3.0,bus2=BBT3122876.1.2.3.0,Phases=3,Linecode=BT518_BT518_5_3_1,Length=0.031572000,Units=km
new line.10623684 bus1=BBT3122778.1.2.3.0,bus2=BBT3122785.1.2.3.0,Phases=3,Linecode=BT518_BT518_5_3_1,Length=0.013835000,Units=km
new line.10623705 bus1=BBT3122785.1.2.3.0,bus2=BBT3122792.1.2.3.0,Phases=3,Linecode=BT518_BT518_5_3_1,Length=0.029522000,Units=km
new line.10623726 bus1=BBT3122792.1.2.3.0,bus2=BBT3122799.1.2.3.0,Phases=3,Linecode=BT518_BT518_5_3_1,Length=0.004589000,Units=km
new line.10623747 bus1=BBT3122876.1.2.3.0,bus2=BBT3122883.1.2.3.0,Phases=3,Linecode=BT521_BT521_5_3_1,Length=0.025199000,Units=km
new line.10623768 bus1=BBT3122883.1.2.3.0,bus2=BBT3122890.1.2.3.0,Phases=3,Linecode=BT521_BT521_5_3_1,Length=0.037203000,Units=km
new line.10623810 bus1=BBT3122890.1.2.3.0,bus2=BBT3122897.1.2.3.0,Phases=3,Linecode=BT508_BT508_5_3_1,Length=0.006127000,Units=km
new line.10623866 bus1=BBT3122918.1.2.3.0,bus2=BBT3122925.1.2.3.0,Phases=3,Linecode=BT521_BT521_5_3_1,Length=0.025011000,Units=km
new line.10623894 bus1=BBT3122911.1.2.3.0,bus2=BBT3122918.1.2.3.0,Phases=3,Linecode=BT521_BT521_5_3_1,Length=0.016950000,Units=km
new line.10623915 bus1=BBT3122904.1.2.3.0,bus2=BBT3122911.1.2.3.0,Phases=3,Linecode=BT521_BT521_5_3_1,Length=0.024867000,Units=km
new line.10623922 bus1=BBT3122904.1.2.3.0,bus2=BBT3122932.1.2.3.0,Phases=3,Linecode=BT521_BT521_5_3_1,Length=0.019423000,Units=km
new line.10623936 bus1=BBT3122806.1.2.3.0,bus2=BBT3122813.1.2.3.0,Phases=3,Linecode=BT518_BT518_5_3_1,Length=0.005233000,Units=km
new line.10623957 bus1=BBT3122820.1.2.3.0,bus2=BBT3122827.1.2.3.0,Phases=3,Linecode=BT503_BT503_5_3_1,Length=0.008605000,Units=km
new line.10623971 bus1=BBT3122932.1.2.3.0,bus2=BBT3122939.1.2.3.0,Phases=3,Linecode=BT521_BT521_5_3_1,Length=0.038107000,Units=km
new line.10623992 bus1=BBT3122939.1.2.3.0,bus2=BBT3122946.1.2.3.0,Phases=3,Linecode=BT521_BT521_5_3_1,Length=0.033151000,Units=km
new line.10624013 bus1=BBT3122834.1.2.0,bus2=BBT3122841.1.2.0,Phases=2,Linecode=BT503_BT503_5_2_1,Length=0.007826000,Units=km
new line.10624048 bus1=BBT3122953.1.2.3.0,bus2=BBT3122960.1.2.3.0,Phases=3,Linecode=BT518_BT518_5_3_1,Length=0.018590000,Units=km
new line.10624083 bus1=BBT3122967.1.2.3.0,bus2=BBT3122974.1.2.3.0,Phases=3,Linecode=BT518_BT518_5_3_1,Length=0.035270000,Units=km
new line.10624104 bus1=BBT3123037.1.2.3.0,bus2=BBT3123044.1.2.3.0,Phases=3,Linecode=BT518_BT518_5_3_1,Length=0.037997000,Units=km
new line.10624132 bus1=BBT3123044.1.2.3.0,bus2=BBT3123051.1.2.3.0,Phases=3,Linecode=BT521_BT521_5_3_1,Length=0.005284000,Units=km
new line.10624139 bus1=BBT3123044.1.2.3.0,bus2=BBT4480813.1.2.3.0,Phases=3,Linecode=BT518_BT518_5_3_1,Length=0.053034000,Units=km
new line.10624160 bus1=BBT3122974.1.2.3.0,bus2=BBT3122981.1.2.3.0,Phases=3,Linecode=BT521_BT521_5_3_1,Length=0.016014000,Units=km