new line.RML10069227 bus1=BBT2410124.2.3.0,bus2=RML1010069227.2.3.0,Phases=2,Linecode=CABBT801_4_2,Length=0.02,Units=km
new line.RML10079978 bus1=BBT4406643.3.0,bus2=RML1010079978.3.0,Phases=1,Linecode=CABBTG02_4_1,Length=0.016,Units=km
new line.RML10111336 bus1=BBT122090.1.2.0,bus2=RML1010111336.1.2.0,Phases=2,Linecode=CABBTG05_4_2,Length=0.012,Units=km
new line.RML10111465 bus1=BBT148956127.1.2.3.0,bus2=RML1010111465.1.2.3.0,Phases=3,Linecode=CABBTG07_4_3,Length=0.02,Units=km
new line.RML10111475 bus1=BBT148956127.1.2.3.0,bus2=RML1010111475.1.2.3.0,Phases=3,Linecode=CABBTG07_4_3,Length=0.02,Units=km
new line.RML10111481 bus1=BBT148947700.1.2.3.0,bus2=RML1010111481.1.2.3.0,Phases=3,Linecode=CABBTG07_4_3,Length=0.02,Units=km
new line.RML10111620 bus1=BBT148956448.1.2.3.0,bus2=RML1010111620.1.2.3.0,Phases=3,Linecode=CABBTG07_4_3,Length=0.02,Units=km
new line.RML10111625 bus1=BBT148956448.1.2.3.0,bus2=RML1010111625.1.2.3.0,Phases=3,Linecode=CABBTG07_4_3,Length=0.02,Units=km
new line.RML10111628 bus1=BBT148947745.1.2.3.0,bus2=RML1010111628.1.2.3.0,Phases=3,Linecode=CABBTG07_4_3,Length=0.02,Units=km
new line.RML10111632 bus1=BBT148947745.1.2.3.0,bus2=RML1010111632.1.2.3.0,Phases=3,Linecode=CABBTG07_4_3,Length=0.02,Units=km
new line.RML10111634 bus1=BBT148955898.1.2.3.0,bus2=RML1010111634.1.2.3.0,Phases=3,Linecode=CABBTG07_4_3,Length=0.02,Units=km
new line.RML10111638 bus1=BBT148947731.1.2.3.0,bus2=RML1010111638.1.2.3.0,Phases=3,Linecode=CABBTG07_4_3,Length=0.02,Units=km
new line.RML10111646 bus1=BBT148956127.1.2.3.0,bus2=RML1010111646.1.2.3.0,Phases=3,Linecode=CABBTG07_4_3,Length=0.02,Units=km
new line.RML10111649 bus1=BBT148947700.1.2.3.0,bus2=RML1010111649.1.2.3.0,Phases=3,Linecode=CABBTG07_4_3,Length=0.02,Units=km
new line.RML10124840 bus1=BBT146261.1.2.3.0,bus2=RML1010124840.1.2.3.0,Phases=3,Linecode=CABBT813_4_3,Length=0.02,Units=km
new line.RML10125020 bus1=BBT117771.1.2.3.0,bus2=RML1010125020.1.2.3.0,Phases=3,Linecode=CABBTG06_4_3,Length=0.023,Units=km
new line.RML10161287 bus1=BBT120865.3.0,bus2=RML1010161287.3.0,Phases=1,Linecode=CABBTG02_4_1,Length=0.026,Units=km
new line.RML10173224 bus1=BBT122097.1.2.3.0,bus2=RML1010173224.1.2.3.0,Phases=3,Linecode=CABBTG07_4_3,Length=0.02,Units=km
new line.RML10174619 bus1=BBT122174.1.3.0,bus2=RML1010174619.1.3.0,Phases=2,Linecode=CABBTG05_4_2,Length=0.02,Units=km
new line.RML10211924 bus1=BBT148955433.1.2.3.0,bus2=RML1010211924.1.2.3.0,Phases=3,Linecode=CABBTG07_4_3,Length=0.02,Units=km
new line.RML10211938 bus1=BBT148955527.1.2.3.0,bus2=RML1010211938.1.2.3.0,Phases=3,Linecode=CABBTG07_4_3,Length=0.02,Units=km
new line.RML10212065 bus1=BBT148947745.1.2.3.0,bus2=RML1010212065.1.2.3.0,Phases=3,Linecode=CABBTG07_4_3,Length=0.02,Units=km
new line.RML10212079 bus1=BBT148947731.1.2.3.0,bus2=RML1010212079.1.2.3.0,Phases=3,Linecode=CABBTG07_4_3,Length=0.02,Units=km
new line.RML10212101 bus1=BBT148947731.1.2.3.0,bus2=RML1010212101.1.2.3.0,Phases=3,Linecode=CABBTG07_4_3,Length=0.02,Units=km
new line.RML10212120 bus1=BBT148956127.1.2.3.0,bus2=RML1010212120.1.2.3.0,Phases=3,Linecode=CABBTG07_4_3,Length=0.02,Units=km
new line.RML10212126 bus1=BBT148956448.1.2.3.0,bus2=RML1010212126.1.2.3.0,Phases=3,Linecode=CABBTG07_4_3,Length=0.02,Units=km
new line.RML10212221 bus1=BBT148947700.1.2.3.0,bus2=RML1010212221.1.2.3.0,Phases=3,Linecode=CABBT809_4_3,Length=0.02,Units=km
new line.RML10213244 bus1=BBT148955898.1.2.3.0,bus2=RML1010213244.1.2.3.0,Phases=3,Linecode=CABBTG07_4_3,Length=0.02,Units=km
new line.RML10215037 bus1=BBT4406643.1.3.0,bus2=RML1010215037.1.3.0,Phases=2,Linecode=CABBTG05_4_2,Length=0.02,Units=km
new line.RML10221092 bus1=BBT354378.1.2.3.0,bus2=RML1010221092.1.2.3.0,Phases=3,Linecode=CABBTG12_4_3,Length=0.02,Units=km
new line.RML10251161 bus1=BBT2985559.1.0,bus2=RML1010251161.1.0,Phases=1,Linecode=CABBTG02_4_1,Length=0.02,Units=km
new line.RML10251308 bus1=BBT100299.1.2.3.0,bus2=RML1010251308.1.2.3.0,Phases=3,Linecode=CABBTG08_4_3,Length=0.02,Units=km
new line.RML10259635 bus1=BBT28549.1.0,bus2=RML1010259635.1.0,Phases=1,Linecode=CABBTG02_4_1,Length=0.02,Units=km
new line.RML10261172 bus1=BBT140094.1.2.3.0,bus2=RML1010261172.1.2.3.0,Phases=3,Linecode=CABBTG06_4_3,Length=0.02,Units=km
new line.RML10261535 bus1=BBT120886.3.0,bus2=RML1010261535.3.0,Phases=1,Linecode=CABBTG02_4_1,Length=0.02,Units=km
new line.RML10261537 bus1=BBT120886.3.0,bus2=RML1010261537.3.0,Phases=1,Linecode=CABBTG02_4_1,Length=0.02,Units=km
new line.RML10262046 bus1=BBT107180.1.2.3.0,bus2=RML1010262046.1.2.3.0,Phases=3,Linecode=CABBT803_4_3,Length=0.02,Units=km
new line.RML10295726 bus1=BBT133528.1.3.0,bus2=RML1010295726.1.3.0,Phases=2,Linecode=CABBTG05_4_2,Length=0.02,Units=km
new line.RML10317598 bus1=BBT116749.2.3.0,bus2=RML1010317598.2.3.0,Phases=2,Linecode=CABBTG05_4_2,Length=0.02,Units=km
new line.RML10319198 bus1=BBT148955433.1.2.3.0,bus2=RML1010319198.1.2.3.0,Phases=3,Linecode=CABBTG07_4_3,Length=0.02,Units=km
new line.RML10332247 bus1=BBT116490.1.3.0,bus2=RML1010332247.1.3.0,Phases=2,Linecode=CABBTG05_4_2,Length=0.02,Units=km
new line.RML10348572 bus1=BBT152420470.1.2.3.0,bus2=RML1010348572.1.2.3.0,Phases=3,Linecode=CABBT809_4_3,Length=0.02,Units=km
new line.RML10348577 bus1=BBT152420523.1.2.3.0,bus2=RML1010348577.1.2.3.0,Phases=3,Linecode=CABBTG07_4_3,Length=0.02,Units=km
new line.RML10348588 bus1=BBT152420666.1.2.3.0,bus2=RML1010348588.1.2.3.0,Phases=3,Linecode=CABBTG07_4_3,Length=0.013,Units=km
new line.RML10366617 bus1=BBT343136.1.3.0,bus2=RML1010366617.1.3.0,Phases=2,Linecode=CABBTG05_4_2,Length=0.02,Units=km
new line.RML10366620 bus1=BBT4606773.1.3.0,bus2=RML1010366620.1.3.0,Phases=2,Linecode=CABBTG05_4_2,Length=0.02,Units=km
new line.RML10367792 bus1=BBT32345238.1.3.0,bus2=RML1010367792.1.3.0,Phases=2,Linecode=CABBTG05_4_2,Length=0.023,Units=km
new line.RML10376540 bus1=BBT152420470.1.2.3.0,bus2=RML1010376540.1.2.3.0,Phases=3,Linecode=CABBTG07_4_3,Length=0.02,Units=km
new line.RML10377998 bus1=BBT116686.2.3.0,bus2=RML1010377998.2.3.0,Phases=2,Linecode=CABBTG05_4_2,Length=0.02,Units=km
new line.RML10379061 bus1=BBT2330625.3.0,bus2=RML1010379061.3.0,Phases=1,Linecode=CABBTG02_4_1,Length=0.02,Units=km
new line.RML10379063 bus1=BBT124701.2.3.0,bus2=RML1010379063.2.3.0,Phases=2,Linecode=CABBTG05_4_2,Length=0.02,Units=km
new line.RML10390669 bus1=BBT152420523.1.2.3.0,bus2=RML1010390669.1.2.3.0,Phases=3,Linecode=CABBTG07_4_3,Length=0.02,Units=km
new line.RML10419348 bus1=BBT116882.1.2.3.0,bus2=RML1010419348.1.2.3.0,Phases=3,Linecode=CABBT803_4_3,Length=0.017,Units=km
new line.RML10421004 bus1=BBT116994.2.3.0,bus2=RML1010421004.2.3.0,Phases=2,Linecode=CABBTG05_4_2,Length=0.02,Units=km
new line.RML10421033 bus1=BBT103225.1.2.3.0,bus2=RML1010421033.1.2.3.0,Phases=3,Linecode=CABBTG07_4_3,Length=0.02,Units=km
new line.RML10421085 bus1=BBT152420666.1.2.3.0,bus2=RML1010421085.1.2.3.0,Phases=3,Linecode=CABBTG07_4_3,Length=0.013,Units=km
new line.RML10009182 bus1=BBT101769.1.2.3.0,bus2=RML1010009182.1.2.3.0,Phases=3,Linecode=CABBT813_4_3,Length=0.02,Units=km
new line.RML10009357 bus1=BBT106592.1.3.0,bus2=RML1010009357.1.3.0,Phases=2,Linecode=CABBTG05_4_2,Length=0.02,Units=km
new line.RML10055945 bus1=BBT112220.1.2.0,bus2=RML1010055945.1.2.0,Phases=2,Linecode=CABBTG05_4_2,Length=0.028,Units=km
new line.RML10057652 bus1=BBT4620003.1.0,bus2=RML1010057652.1.0,Phases=1,Linecode=CABBTG02_4_1,Length=0.015,Units=km
new line.RML10057656 bus1=BBT116903.1.2.3.0,bus2=RML1010057656.1.2.3.0,Phases=3,Linecode=CABBTG07_4_3,Length=0.02,Units=km
new line.RML10131203 bus1=BBT2410131.1.0,bus2=RML1010131203.1.0,Phases=1,Linecode=CABBTG02_4_1,Length=0.02,Units=km
new line.RML10161129 bus1=BBT2344702.1.0,bus2=RML1010161129.1.0,Phases=1,Linecode=CABBTG02_4_1,Length=0.02,Units=km
new line.RML10217168 bus1=BBT29824391.2.3.0,bus2=RML1010217168.2.3.0,Phases=2,Linecode=CABBTG05_4_2,Length=0.02,Units=km
new line.RML10230210 bus1=BBT100831.1.2.3.0,bus2=RML1010230210.1.2.3.0,Phases=3,Linecode=CABBT815_4_3,Length=0.02,Units=km
new line.RML10230313 bus1=BBT130847.1.3.0,bus2=RML1010230313.1.3.0,Phases=2,Linecode=CABBTG05_4_2,Length=0.02,Units=km
new line.RML10239257 bus1=BBT99494.1.2.3.0,bus2=RML1010239257.1.2.3.0,Phases=3,Linecode=CABBTG06_4_3,Length=0.017,Units=km
new line.RML10239264 bus1=BBT150753990.1.2.0,bus2=RML1010239264.1.2.0,Phases=2,Linecode=CABBT811_4_2,Length=0.02,Units=km
new line.RML10239414 bus1=BBT165763.1.2.3.0,bus2=RML1010239414.1.2.3.0,Phases=3,Linecode=CABBTG06_4_3,Length=0.02,Units=km
new line.RML10240730 bus1=BBT23537.1.3.0,bus2=RML1010240730.1.3.0,Phases=2,Linecode=CABBTG05_4_2,Length=0.02,Units=km
new line.RML10281398 bus1=BBT148648.1.0,bus2=RML1010281398.1.0,Phases=1,Linecode=CABBTG01_4_1,Length=0.02,Units=km
new line.RML10290296 bus1=BBT120851.1.3.0,bus2=RML1010290296.1.3.0,Phases=2,Linecode=CABBTG05_4_2,Length=0.02,Units=km
new line.RML10301691 bus1=BBT114999.1.2.0,bus2=RML1010301691.1.2.0,Phases=2,Linecode=CABBTG13_4_2,Length=0.02,Units=km
new line.RML10301787 bus1=BBT100299.1.2.3.0,bus2=RML1010301787.1.2.3.0,Phases=3,Linecode=CABBT809_4_3,Length=0.02,Units=km
new line.RML10301812 bus1=BBT114397.1.2.3.0,bus2=RML1010301812.1.2.3.0,Phases=3,Linecode=CABBT815_4_3,Length=0.02,Units=km
new line.RML10301868 bus1=BBT98899.1.2.3.0,bus2=RML1010301868.1.2.3.0,Phases=3,Linecode=CABBT815_4_3,Length=0.02,Units=km
new line.RML10304465 bus1=BBT112304.3.0,bus2=RML1010304465.3.0,Phases=1,Linecode=CABBTG02_4_1,Length=0.02,Units=km
new line.RML10333606 bus1=BBT2410131.1.2.0,bus2=RML1010333606.1.2.0,Phases=2,Linecode=CABBTG05_4_2,Length=0.017,Units=km
new line.RML10333707 bus1=BBT152420666.1.2.3.0,bus2=RML1010333707.1.2.3.0,Phases=3,Linecode=CABBTG07_4_3,Length=0.013,Units=km
new line.RML10333752 bus1=BBT152420667.1.2.3.0,bus2=RML1010333752.1.2.3.0,Phases=3,Linecode=CABBTG07_4_3,Length=0.02,Units=km
new line.RML10333793 bus1=BBT152420470.1.2.3.0,bus2=RML1010333793.1.2.3.0,Phases=3,Linecode=CABBTG07_4_3,Length=0.02,Units=km
new line.RML10333804 bus1=BBT152420561.1.2.3.0,bus2=RML1010333804.1.2.3.0,Phases=3,Linecode=CABBTG07_4_3,Length=0.02,Units=km
new line.RML10333846 bus1=BBT152420499.1.2.3.0,bus2=RML1010333846.1.2.3.0,Phases=3,Linecode=CABBTG07_4_3,Length=0.02,Units=km
new line.RML10334525 bus1=BBT152420567.1.2.3.0,bus2=RML1010334525.1.2.3.0,Phases=3,Linecode=CABBTG07_4_3,Length=0.02,Units=km
new line.RML10353312 bus1=BBT152420523.1.2.3.0,bus2=RML1010353312.1.2.3.0,Phases=3,Linecode=CABBTG07_4_3,Length=0.02,Units=km
new line.RML10370296 bus1=BBT121831.1.3.0,bus2=RML1010370296.1.3.0,Phases=2,Linecode=CABBTG05_4_2,Length=0.02,Units=km
new line.RML10379878 bus1=BBT152420561.1.2.3.0,bus2=RML1010379878.1.2.3.0,Phases=3,Linecode=CABBTG08_4_3,Length=0.011,Units=km
new line.RML10401201 bus1=BBT108790.1.2.0,bus2=RML1010401201.1.2.0,Phases=2,Linecode=CABBT811_4_2,Length=0.02,Units=km
new line.RML10416178 bus1=BBT4500296.1.0,bus2=RML1010416178.1.0,Phases=1,Linecode=CABBTG02_4_1,Length=0.02,Units=km
new line.RML10449164 bus1=BBT125079.1.2.3.0,bus2=RML1010449164.1.2.3.0,Phases=3,Linecode=CABBTG11_4_3,Length=0.02,Units=km
new line.RML10477823 bus1=BBT103246.1.2.0,bus2=RML1010477823.1.2.0,Phases=2,Linecode=CABBT811_4_2,Length=0.02,Units=km
new line.RML10494919 bus1=BBT2146602.2.3.0,bus2=RML1010494919.2.3.0,Phases=2,Linecode=CABBTG05_4_2,Length=0.031,Units=km
new line.RML10495614 bus1=BBT112059.1.2.0,bus2=RML1010495614.1.2.0,Phases=2,Linecode=CABBT811_4_2,Length=0.02,Units=km
new line.RML10496212 bus1=BBT98913.1.2.0,bus2=RML1010496212.1.2.0,Phases=2,Linecode=CABBTG05_4_2,Length=0.02,Units=km
new line.RML10496475 bus1=BBT4652238.1.2.0,bus2=RML1010496475.1.2.0,Phases=2,Linecode=CABBT811_4_2,Length=0.025,Units=km
new line.RML10515017 bus1=BBT112934.1.2.3.0,bus2=RML1010515017.1.2.3.0,Phases=3,Linecode=CABBT808_4_3,Length=0.009,Units=km
new line.RML10531473 bus1=BBT29824398.2.3.0,bus2=RML1010531473.2.3.0,Phases=2,Linecode=CABBTG05_4_2,Length=0.015,Units=km
new line.RML10533249 bus1=BBT152806902.1.2.3.0,bus2=RML1010533249.1.2.3.0,Phases=3,Linecode=CABBTG07_4_3,Length=0.015,Units=km
new line.RML10548160 bus1=BBT144469.1.2.3.0,bus2=RML1010548160.1.2.3.0,Phases=3,Linecode=CABBT810_4_3,Length=0.015,Units=km
new line.RML10550832 bus1=BBT105479.2.0,bus2=RML1010550832.2.0,Phases=1,Linecode=CABBTG02_4_1,Length=0.019,Units=km
new line.RML10581396 bus1=BBT107215.1.2.3.0,bus2=RML1010581396.1.2.3.0,Phases=3,Linecode=CABBTG06_4_3,Length=0.03,Units=km
new line.RML10604460 bus1=BBT4606780.1.2.3.0,bus2=RML1010604460.1.2.3.0,Phases=3,Linecode=CABBTG06_4_3,Length=0.023,Units=km
new line.RML10604566 bus1=BBT4606780.1.2.3.0,bus2=RML1010604566.1.2.3.0,Phases=3,Linecode=CABBTG06_4_3,Length=0.023,Units=km
new line.RML10605365 bus1=BBT343080.3.0,bus2=RML1010605365.3.0,Phases=1,Linecode=CABBTG02_4_1,Length=0.01,Units=km
new line.RML10618942 bus1=BBT130819.1.2.3.0,bus2=RML1010618942.1.2.3.0,Phases=3,Linecode=CABBTG12_4_3,Length=0.031,Units=km
new line.RML10621599 bus1=BBT122783.1.0,bus2=RML1010621599.1.0,Phases=1,Linecode=CABBTG02_4_1,Length=0.02,Units=km
new line.RML10664071 bus1=BBT32345140.2.3.0,bus2=RML1010664071.2.3.0,Phases=2,Linecode=CABBTG05_4_2,Length=0.02,Units=km
new line.RML10665777 bus1=BBT124771.1.2.3.0,bus2=RML1010665777.1.2.3.0,Phases=3,Linecode=CABBTG08_4_3,Length=0.019,Units=km
new line.RML10682701 bus1=BBT4606773.1.3.0,bus2=RML1010682701.1.3.0,Phases=2,Linecode=CABBTG05_4_2,Length=0.01,Units=km
new line.RML10740610 bus1=BBT113123.1.2.3.0,bus2=RML1010740610.1.2.3.0,Phases=3,Linecode=CABBTG07_4_3,Length=0.018,Units=km
new line.RML10757534 bus1=BBT4500296.1.0,bus2=RML1010757534.1.0,Phases=1,Linecode=CABBTG02_4_1,Length=0.02,Units=km
new line.RML10757581 bus1=BBT108818.1.2.0,bus2=RML1010757581.1.2.0,Phases=2,Linecode=CABBTG05_4_2,Length=0.02,Units=km
new line.RML10789966 bus1=BBT114929.2.3.0,bus2=RML1010789966.2.3.0,Phases=2,Linecode=CABBTG05_4_2,Length=0.016,Units=km
new line.RML10039694 bus1=BBT122139.2.3.0,bus2=RML1010039694.2.3.0,Phases=2,Linecode=CABBT811_4_2,Length=0.02,Units=km
new line.RML10040009 bus1=BBT103218.1.2.3.0,bus2=RML1010040009.1.2.3.0,Phases=3,Linecode=CABBTG06_4_3,Length=0.02,Units=km
new line.RML10055840 bus1=BBT4652238.1.2.0,bus2=RML1010055840.1.2.0,Phases=2,Linecode=CABBTG05_4_2,Length=0.015,Units=km
new line.RML10083089 bus1=BBT124715.2.3.0,bus2=RML1010083089.2.3.0,Phases=2,Linecode=CABBTG05_4_2,Length=0.024,Units=km
new line.RML10086903 bus1=BBT112220.2.3.0,bus2=RML1010086903.2.3.0,Phases=2,Linecode=CABBTG05_4_2,Length=0.02,Units=km
new line.RML10118540 bus1=BBT32345140.1.3.0,bus2=RML1010118540.1.3.0,Phases=2,Linecode=CABBTG05_4_2,Length=0.012,Units=km
new line.RML10120474 bus1=BBT114383.1.2.0,bus2=RML1010120474.1.2.0,Phases=2,Linecode=CABBTG05_4_2,Length=0.02,Units=km
new line.RML10121434 bus1=BBT121873.1.2.0,bus2=RML1010121434.1.2.0,Phases=2,Linecode=CABBTG05_4_2,Length=0.02,Units=km
new line.RML10121736 bus1=BBT109200863.1.3.0,bus2=RML1010121736.1.3.0,Phases=2,Linecode=CABBTG05_4_2,Length=0.02,Units=km
new line.RML10121868 bus1=BBT4606773.1.2.0,bus2=RML1010121868.1.2.0,Phases=2,Linecode=CABBTG05_4_2,Length=0.02,Units=km
new line.RML10121971 bus1=BBT2385862.1.2.3.0,bus2=RML1010121971.1.2.3.0,Phases=3,Linecode=CABBTG07_4_3,Length=0.02,Units=km
new line.RML10147915 bus1=BBT100817.1.2.3.0,bus2=RML1010147915.1.2.3.0,Phases=3,Linecode=CABBTG06_4_3,Length=0.018,Units=km
new line.RML10165076 bus1=BBT148956574.1.2.3.0,bus2=RML1010165076.1.2.3.0,Phases=3,Linecode=CABBT813_4_3,Length=0.02,Units=km
new line.RML10165528 bus1=BBT29824398.2.0,bus2=RML1010165528.2.0,Phases=1,Linecode=CABBTG02_4_1,Length=0.011,Units=km
new line.RML10165537 bus1=BBT112864.1.2.3.0,bus2=RML1010165537.1.2.3.0,Phases=3,Linecode=CABBTG06_4_3,Length=0.016,Units=km
new line.RML10181135 bus1=BBT2852972.1.0,bus2=RML1010181135.1.0,Phases=1,Linecode=CABBTG02_4_1,Length=0.02,Units=km
new line.RML10181378 bus1=BBT3759024.1.3.0,bus2=RML1010181378.1.3.0,Phases=2,Linecode=CABBTG05_4_2,Length=0.02,Units=km
new line.RML10193555 bus1=BBT148956448.1.2.3.0,bus2=RML1010193555.1.2.3.0,Phases=3,Linecode=CABBTG07_4_3,Length=0.02,Units=km
new line.RML10194779 bus1=BBT148947804.1.2.3.0,bus2=RML1010194779.1.2.3.0,Phases=3,Linecode=CABBTG07_4_3,Length=0.018,Units=km
new line.RML10194793 bus1=BBT148955606.1.2.3.0,bus2=RML1010194793.1.2.3.0,Phases=3,Linecode=CABBTG07_4_3,Length=0.02,Units=km
new line.RML10194796 bus1=BBT148947745.1.2.3.0,bus2=RML1010194796.1.2.3.0,Phases=3,Linecode=CABBTG07_4_3,Length=0.02,Units=km
new line.RML10194799 bus1=BBT148956127.1.2.3.0,bus2=RML1010194799.1.2.3.0,Phases=3,Linecode=CABBTG07_4_3,Length=0.02,Units=km
new line.RML10197183 bus1=BBT100873.1.2.3.0,bus2=RML1010197183.1.2.3.0,Phases=3,Linecode=CABBTG06_4_3,Length=0.02,Units=km
new line.RML10200240 bus1=BBT148947804.1.2.3.0,bus2=RML1010200240.1.2.3.0,Phases=3,Linecode=CABBT809_4_3,Length=0.02,Units=km
new line.RML10336924 bus1=BBT152420666.1.2.3.0,bus2=RML1010336924.1.2.3.0,Phases=3,Linecode=CABBTG07_4_3,Length=0.013,Units=km
new line.RML10336931 bus1=BBT100012.1.3.0,bus2=RML1010336931.1.3.0,Phases=2,Linecode=CABBTG05_4_2,Length=0.02,Units=km
new line.RML10347312 bus1=BBT152420523.1.2.3.0,bus2=RML1010347312.1.2.3.0,Phases=3,Linecode=CABBTG07_4_3,Length=0.02,Units=km
new line.RML10347313 bus1=BBT152420663.1.2.3.0,bus2=RML1010347313.1.2.3.0,Phases=3,Linecode=CABBTG07_4_3,Length=0.02,Units=km
new line.RML10361764 bus1=BBT4563100.1.2.0,bus2=RML1010361764.1.2.0,Phases=2,Linecode=CABBTG05_4_2,Length=0.02,Units=km
new line.RML10361879 bus1=BBT152420668.1.2.3.0,bus2=RML1010361879.1.2.3.0,Phases=3,Linecode=CABBTG12_4_3,Length=0.013,Units=km
new line.RML10363369 bus1=BBT24741.2.0,bus2=RML1010363369.2.0,Phases=1,Linecode=CABBTG02_4_1,Length=0.02,Units=km
new line.RML10363371 bus1=BBT100299.2.0,bus2=RML1010363371.2.0,Phases=1,Linecode=CABBTG02_4_1,Length=0.02,Units=km
new line.RML10384766 bus1=BBT115006.2.0,bus2=RML1010384766.2.0,Phases=1,Linecode=CABBTG02_4_1,Length=0.02,Units=km
new line.RML10397176 bus1=BBT32345238.1.3.0,bus2=RML1010397176.1.3.0,Phases=2,Linecode=CABBT811_4_2,Length=0.02,Units=km
new line.RML10397295 bus1=BBT343129.3.0,bus2=RML1010397295.3.0,Phases=1,Linecode=CABBTG02_4_1,Length=0.02,Units=km
new line.RML10397456 bus1=BBT4406643.1.3.0,bus2=RML1010397456.1.3.0,Phases=2,Linecode=CABBTG05_4_2,Length=0.02,Units=km
new line.RML10398327 bus1=BBT32345238.1.3.0,bus2=RML1010398327.1.3.0,Phases=2,Linecode=CABBTG05_4_2,Length=0.02,Units=km
new line.RML10428992 bus1=BBT343080.3.0,bus2=RML1010428992.3.0,Phases=1,Linecode=CABBTG02_4_1,Length=0.01,Units=km
new line.RML10501008 bus1=BBT155899023.1.2.0,bus2=RML1010501008.1.2.0,Phases=2,Linecode=CABBTG05_4_2,Length=0.013,Units=km
new line.RML10529370 bus1=BBT99522.1.2.3.0,bus2=RML1010529370.1.2.3.0,Phases=3,Linecode=CABBTG07_4_3,Length=0.013,Units=km
new line.RML10530261 bus1=BBT148683.1.0,bus2=RML1010530261.1.0,Phases=1,Linecode=CABBTG02_4_1,Length=0.03,Units=km
new line.RML10544983 bus1=BBT47417372.1.2.0,bus2=RML1010544983.1.2.0,Phases=2,Linecode=CABBTG05_4_2,Length=0.029,Units=km
new line.RML10575552 bus1=BBT115923.1.3.0,bus2=RML1010575552.1.3.0,Phases=2,Linecode=CABBTG05_4_2,Length=0.014,Units=km
new line.RML10588646 bus1=BBT26414.1.2.0,bus2=RML1010588646.1.2.0,Phases=2,Linecode=CABBTG05_4_2,Length=0.019,Units=km
new line.RML10598450 bus1=BBT115006.1.2.3.0,bus2=RML1010598450.1.2.3.0,Phases=3,Linecode=CABBT815_4_3,Length=0.021,Units=km
new line.RML10600817 bus1=BBT32345238.1.0,bus2=RML1010600817.1.0,Phases=1,Linecode=CABBT802_4_1,Length=0.026,Units=km
new line.RML10641522 bus1=BBT4430429.1.3.0,bus2=RML1010641522.1.3.0,Phases=2,Linecode=CABBTG05_4_2,Length=0.02,Units=km
new line.RML10648623 bus1=BBT117071.2.0,bus2=RML1010648623.2.0,Phases=1,Linecode=CABBTG02_4_1,Length=0.02,Units=km
new line.RML10733376 bus1=BBT100397.1.2.3.0,bus2=RML1010733376.1.2.3.0,Phases=3,Linecode=CABBTG06_4_3,Length=0.02,Units=km
new line.RML10735366 bus1=BBT122076.1.2.3.0,bus2=RML1010735366.1.2.3.0,Phases=3,Linecode=CABBTG07_4_3,Length=0.018,Units=km
new line.RML10735396 bus1=BBT25721.1.2.3.0,bus2=RML1010735396.1.2.3.0,Phases=3,Linecode=CABBTG07_4_3,Length=0.018,Units=km
new line.RML10735414 bus1=BBT105528.3.0,bus2=RML1010735414.3.0,Phases=1,Linecode=CABBTG01_4_1,Length=0.018,Units=km
new line.RML10735416 bus1=BBT111758.1.2.3.0,bus2=RML1010735416.1.2.3.0,Phases=3,Linecode=CABBTG07_4_3,Length=0.018,Units=km
new line.RML10770186 bus1=BBT115867.1.2.0,bus2=RML1010770186.1.2.0,Phases=2,Linecode=CABBTG05_4_2,Length=0.018,Units=km
new line.RML10786383 bus1=BBT164282447.1.2.0,bus2=RML1010786383.1.2.0,Phases=2,Linecode=CABBTG05_4_2,Length=0.011,Units=km
new line.RML10786570 bus1=BBT115006.1.2.0,bus2=RML1010786570.1.2.0,Phases=2,Linecode=CABBTG05_4_2,Length=0.017,Units=km
new line.RML10797677 bus1=BBT120921.1.2.3.0,bus2=RML1010797677.1.2.3.0,Phases=3,Linecode=CABBTG06_4_3,Length=0.023,Units=km
new line.RML10033328 bus1=BBT111597.2.0,bus2=RML1010033328.2.0,Phases=1,Linecode=CABBTG02_4_1,Length=0.02,Units=km
new line.RML10045135 bus1=BBT140010.1.2.3.0,bus2=RML1010045135.1.2.3.0,Phases=3,Linecode=CABBTG06_4_3,Length=0.02,Units=km
new line.RML10046704 bus1=BBT354385.1.3.0,bus2=RML1010046704.1.3.0,Phases=2,Linecode=CABBTG05_4_2,Length=0.018,Units=km
new line.RML10046707 bus1=BBT112220.1.2.0,bus2=RML1010046707.1.2.0,Phases=2,Linecode=CABBTG05_4_2,Length=0.02,Units=km
new line.RML10129404 bus1=BBT148947804.2.3.0,bus2=RML1010129404.2.3.0,Phases=2,Linecode=CABBT801_4_2,Length=0.02,Units=km
new line.RML10129409 bus1=BBT148955527.1.2.3.0,bus2=RML1010129409.1.2.3.0,Phases=3,Linecode=CABBTG07_4_3,Length=0.02,Units=km
new line.RML10129420 bus1=BBT148955433.1.2.3.0,bus2=RML1010129420.1.2.3.0,Phases=3,Linecode=CABBTG07_4_3,Length=0.02,Units=km
new line.RML10129424 bus1=BBT148955527.1.2.3.0,bus2=RML1010129424.1.2.3.0,Phases=3,Linecode=CABBTG07_4_3,Length=0.02,Units=km
new line.RML10129430 bus1=BBT148947804.1.2.3.0,bus2=RML1010129430.1.2.3.0,Phases=3,Linecode=CABBTG07_4_3,Length=0.02,Units=km
new line.RML10129433 bus1=BBT148955433.1.2.3.0,bus2=RML1010129433.1.2.3.0,Phases=3,Linecode=CABBTG07_4_3,Length=0.02,Units=km
new line.RML10129523 bus1=BBT26323.2.3.0,bus2=RML1010129523.2.3.0,Phases=2,Linecode=CABBTG05_4_2,Length=0.02,Units=km
new line.RML10141825 bus1=BBT107124.2.0,bus2=RML1010141825.2.0,Phases=1,Linecode=CABBTG02_4_1,Length=0.02,Units=km
new line.RML10141919 bus1=BBT354385.1.2.0,bus2=RML1010141919.1.2.0,Phases=2,Linecode=CABBTG05_4_2,Length=0.02,Units=km
new line.RML10170453 bus1=BBT100831.1.2.0,bus2=RML1010170453.1.2.0,Phases=2,Linecode=CABBTG05_4_2,Length=0.02,Units=km
new line.RML10247921 bus1=BBT133549.2.3.0,bus2=RML1010247921.2.3.0,Phases=2,Linecode=CABBTG05_4_2,Length=0.02,Units=km
new line.RML10262445 bus1=BBT115881.1.2.3.0,bus2=RML1010262445.1.2.3.0,Phases=3,Linecode=CABBTG07_4_3,Length=0.02,Units=km
new line.RML10265927 bus1=BBT115923.3.0,bus2=RML1010265927.3.0,Phases=1,Linecode=CABBTG02_4_1,Length=0.02,Units=km
new line.RML10309794 bus1=BBT2198283.1.2.0,bus2=RML1010309794.1.2.0,Phases=2,Linecode=CABBT807_4_2,Length=0.02,Units=km
new line.RML10328139 bus1=BBT453967.2.3.0,bus2=RML1010328139.2.3.0,Phases=2,Linecode=CABBTG05_4_2,Length=0.02,Units=km
new line.RML10340401 bus1=BBT152420567.1.2.3.0,bus2=RML1010340401.1.2.3.0,Phases=3,Linecode=CABBTG07_4_3,Length=0.02,Units=km
new line.RML10340413 bus1=BBT152420561.1.2.3.0,bus2=RML1010340413.1.2.3.0,Phases=3,Linecode=CABBTG07_4_3,Length=0.02,Units=km
new line.RML10340912 bus1=BBT152420561.1.2.3.0,bus2=RML1010340912.1.2.3.0,Phases=3,Linecode=CABBT810_4_3,Length=0.02,Units=km
new line.RML10342269 bus1=BBT100299.1.2.3.0,bus2=RML1010342269.1.2.3.0,Phases=3,Linecode=CABBTG08_4_3,Length=0.02,Units=km
new line.RML10342288 bus1=BBT116490.1.3.0,bus2=RML1010342288.1.3.0,Phases=2,Linecode=CABBTG05_4_2,Length=0.02,Units=km
new line.RML10342437 bus1=BBT152420650.1.2.3.0,bus2=RML1010342437.1.2.3.0,Phases=3,Linecode=CABBTG07_4_3,Length=0.02,Units=km
new line.RML10342570 bus1=BBT152420666.1.2.3.0,bus2=RML1010342570.1.2.3.0,Phases=3,Linecode=CABBTG07_4_3,Length=0.013,Units=km
new line.RML10343754 bus1=BBT140115.1.2.3.0,bus2=RML1010343754.1.2.3.0,Phases=3,Linecode=CABBT809_4_3,Length=0.02,Units=km
new line.RML10374912 bus1=BBT126052.1.2.0,bus2=RML1010374912.1.2.0,Phases=2,Linecode=CABBTG05_4_2,Length=0.02,Units=km
new line.RML10393340 bus1=BBT354385.1.2.0,bus2=RML1010393340.1.2.0,Phases=2,Linecode=CABBTG05_4_2,Length=0.02,Units=km
new line.RML10408239 bus1=BBT3759024.1.2.0,bus2=RML1010408239.1.2.0,Phases=2,Linecode=CABBTG05_4_2,Length=0.02,Units=km
new line.RML10408244 bus1=BBT3759024.1.2.0,bus2=RML1010408244.1.2.0,Phases=2,Linecode=CABBTG05_4_2,Length=0.02,Units=km
new line.RML10408408 bus1=BBT152420663.1.2.3.0,bus2=RML1010408408.1.2.3.0,Phases=3,Linecode=CABBTG07_4_3,Length=0.02,Units=km
new line.RML10408445 bus1=BBT3759024.1.3.0,bus2=RML1010408445.1.3.0,Phases=2,Linecode=CABBTG05_4_2,Length=0.02,Units=km
new line.RML10408660 bus1=BBT116728.1.2.0,bus2=RML1010408660.1.2.0,Phases=2,Linecode=CABBTG05_4_2,Length=0.02,Units=km
new line.RML10408834 bus1=BBT4652238.2.0,bus2=RML1010408834.2.0,Phases=1,Linecode=CABBTG02_4_1,Length=0.02,Units=km
new line.RML10408915 bus1=BBT3759024.2.3.0,bus2=RML1010408915.2.3.0,Phases=2,Linecode=CABBTG05_4_2,Length=0.02,Units=km
new line.RML10409200 bus1=BBT100481.1.2.3.0,bus2=RML1010409200.1.2.3.0,Phases=3,Linecode=CABBTG06_4_3,Length=0.02,Units=km
new line.RML10423493 bus1=BBT25742.1.3.0,bus2=RML1010423493.1.3.0,Phases=2,Linecode=CABBTG05_4_2,Length=0.021,Units=km
new line.RML10423605 bus1=BBT136575308.1.3.0,bus2=RML1010423605.1.3.0,Phases=2,Linecode=CABBTG05_4_2,Length=0.02,Units=km
new line.RML10425767 bus1=BBT152420499.1.2.3.0,bus2=RML1010425767.1.2.3.0,Phases=3,Linecode=CABBTG07_4_3,Length=0.02,Units=km
new line.RML10523450 bus1=BBT4500296.1.2.0,bus2=RML1010523450.1.2.0,Phases=2,Linecode=CABBTG05_4_2,Length=0.02,Units=km
new line.RML10526567 bus1=BBT2386016.1.2.0,bus2=RML1010526567.1.2.0,Phases=2,Linecode=CABBT814_4_2,Length=0.013,Units=km
new line.RML10559442 bus1=BBT112724.2.3.0,bus2=RML1010559442.2.3.0,Phases=2,Linecode=CABBTG05_4_2,Length=0.031,Units=km
new line.RML10570620 bus1=BBT354385.1.2.0,bus2=RML1010570620.1.2.0,Phases=2,Linecode=CABBTG05_4_2,Length=0.026,Units=km
new line.RML10607565 bus1=BBT100019.1.2.3.0,bus2=RML1010607565.1.2.3.0,Phases=3,Linecode=CABBTG06_4_3,Length=0.011,Units=km
new line.RML10655779 bus1=BBT118219.3.0,bus2=RML1010655779.3.0,Phases=1,Linecode=CABBTG02_4_1,Length=0.033,Units=km
new line.RML10672405 bus1=BBT114999.1.2.3.0,bus2=RML1010672405.1.2.3.0,Phases=3,Linecode=CABBTG07_4_3,Length=0.02,Units=km
new line.RML10673406 bus1=BBT122580.1.2.3.0,bus2=RML1010673406.1.2.3.0,Phases=3,Linecode=CABBTG06_4_3,Length=0.02,Units=km
new line.RML10673436 bus1=BBT112934.1.2.3.0,bus2=RML1010673436.1.2.3.0,Phases=3,Linecode=CABBTG06_4_3,Length=0.02,Units=km
new line.RML10673580 bus1=BBT354392.1.2.0,bus2=RML1010673580.1.2.0,Phases=2,Linecode=CABBTG05_4_2,Length=0.013,Units=km
new line.RML10745001 bus1=BBT111037.2.0,bus2=RML1010745001.2.0,Phases=1,Linecode=CABBTG01_4_1,Length=0.018,Units=km
new line.RML10745066 bus1=BBT136575308.3.0,bus2=RML1010745066.3.0,Phases=1,Linecode=CABBTG01_4_1,Length=0.018,Units=km
new line.RML10747916 bus1=BBT354378.1.2.3.0,bus2=RML1010747916.1.2.3.0,Phases=3,Linecode=CABBTG07_4_3,Length=0.018,Units=km
new line.RML10747917 bus1=BBT354378.1.2.3.0,bus2=RML1010747917.1.2.3.0,Phases=3,Linecode=CABBTG07_4_3,Length=0.018,Units=km
new line.RML10748047 bus1=BBT354378.1.2.3.0,bus2=RML1010748047.1.2.3.0,Phases=3,Linecode=CABBTG07_4_3,Length=0.018,Units=km
new line.RML10783955 bus1=BBT29824398.2.3.0,bus2=RML1010783955.2.3.0,Phases=2,Linecode=CABBTG05_4_2,Length=0.026,Units=km
new line.RML10797250 bus1=BBT165791.1.3.0,bus2=RML1010797250.1.3.0,Phases=2,Linecode=CABBTG05_4_2,Length=0.02,Units=km
new line.RML10421453 bus1=BBT152420650.1.2.3.0,bus2=RML1010421453.1.2.3.0,Phases=3,Linecode=CABBT809_4_3,Length=0.02,Units=km
new line.RML10436954 bus1=BBT2344688.3.0,bus2=RML1010436954.3.0,Phases=1,Linecode=CABBTG02_4_1,Length=0.02,Units=km
new line.RML10450149 bus1=BBT100453.1.2.0,bus2=RML1010450149.1.2.0,Phases=2,Linecode=CABBTG05_4_2,Length=0.02,Units=km
new line.RML10453401 bus1=BBT152420667.1.2.3.0,bus2=RML1010453401.1.2.3.0,Phases=3,Linecode=CABBTG12_4_3,Length=0.013,Units=km
new line.RML10453662 bus1=BBT29824398.2.3.0,bus2=RML1010453662.2.3.0,Phases=2,Linecode=CABBTG05_4_2,Length=0.02,Units=km
new line.RML10463712 bus1=BBT107173.3.0,bus2=RML1010463712.3.0,Phases=1,Linecode=CABBTG02_4_1,Length=0.02,Units=km
new line.RML10463937 bus1=BBT152420470.1.2.3.0,bus2=RML1010463937.1.2.3.0,Phases=3,Linecode=CABBTG07_4_3,Length=0.02,Units=km
new line.RML10492895 bus1=BBT100341.1.2.3.0,bus2=RML1010492895.1.2.3.0,Phases=3,Linecode=CABBTG12_4_3,Length=0.011,Units=km
new line.RML10503411 bus1=BBT155815302.2.0,bus2=RML1010503411.2.0,Phases=1,Linecode=CABBTG02_4_1,Length=0.022,Units=km
new line.RML10503425 bus1=BBT116847.1.2.3.0,bus2=RML1010503425.1.2.3.0,Phases=3,Linecode=CABBTG12_4_3,Length=0.019,Units=km
new line.RML10503426 bus1=BBT115489.1.2.0,bus2=RML1010503426.1.2.0,Phases=2,Linecode=CABBTG05_4_2,Length=0.009,Units=km
new line.RML10519183 bus1=BBT28563.1.2.0,bus2=RML1010519183.1.2.0,Phases=2,Linecode=CABBTG05_4_2,Length=0.018,Units=km
new line.RML10535494 bus1=BBT117071.2.3.0,bus2=RML1010535494.2.3.0,Phases=2,Linecode=CABBTG05_4_2,Length=0.011,Units=km
new line.RML10538270 bus1=BBT117071.1.2.0,bus2=RML1010538270.1.2.0,Phases=2,Linecode=CABBTG05_4_2,Length=0.026,Units=km
new line.RML10552547 bus1=BBT100460.1.2.3.0,bus2=RML1010552547.1.2.3.0,Phases=3,Linecode=CABBTG06_4_3,Length=0.016,Units=km
new line.RML10577780 bus1=BBT100068.3.0,bus2=RML1010577780.3.0,Phases=1,Linecode=CABBTG02_4_1,Length=0.024,Units=km
new line.RML10579847 bus1=BBT29824398.2.3.0,bus2=RML1010579847.2.3.0,Phases=2,Linecode=CABBTG05_4_2,Length=0.018,Units=km
new line.RML10667568 bus1=BBT2344695.1.2.3.0,bus2=RML1010667568.1.2.3.0,Phases=3,Linecode=CABBTG08_4_3,Length=0.02,Units=km
new line.RML10668038 bus1=BBT25742.1.2.3.0,bus2=RML1010668038.1.2.3.0,Phases=3,Linecode=CABBT813_4_3,Length=0.02,Units=km