new load.3001676034M1 bus1=RML1000171153.2.0,Phases=1,kv=0.127,kW=0.97778,pf=0.92,Vminpu=0.92,Vmaxpu=1.5,model=8,zipv=[0.5,0,0.5,1,0,0,0],daily=RES2_10,status=variable
new load.3001676035M1 bus1=RML1000171160.1.3.0,Phases=2,kv=0.22,kW=0.771,pf=0.92,Vminpu=0.92,Vmaxpu=1.5,model=8,zipv=[0.5,0,0.5,1,0,0,0],daily=RES3_11,status=variable
new load.3001676036M1 bus1=RML1000171405.2.3.0,Phases=2,kv=0.22,kW=0.79206,pf=0.92,Vminpu=0.92,Vmaxpu=1.5,model=8,zipv=[0.5,0,0.5,1,0,0,0],daily=RES3_11,status=variable
new load.3003890698M1 bus1=RML1000171461.3.0,Phases=1,kv=0.127,kW=1.30372,pf=0.92,Vminpu=0.92,Vmaxpu=1.5,model=8,zipv=[0.5,0,0.5,1,0,0,0],daily=RES2_10,status=variable
new load.3003890699M1 bus1=RML1000171496.1.0,Phases=1,kv=0.127,kW=0.67846,pf=0.92,Vminpu=0.92,Vmaxpu=1.5,model=8,zipv=[0.5,0,0.5,1,0,0,0],daily=RES2_10,status=variable
new load.3004468751M1 bus1=RML1000171146.2.0,Phases=1,kv=0.127,kW=0.43826,pf=0.92,Vminpu=0.92,Vmaxpu=1.5,model=8,zipv=[0.5,0,0.5,1,0,0,0],daily=RES2_2,status=variable
new load.3004581348M1 bus1=RML1000171468.2.3.0,Phases=2,kv=0.22,kW=0.49028,pf=0.92,Vminpu=0.92,Vmaxpu=1.5,model=8,zipv=[0.5,0,0.5,1,0,0,0],daily=RES1_2,status=variable
new load.3004890374M1 bus1=RML1000171174.1.2.0,Phases=2,kv=0.22,kW=2.0717,pf=0.92,Vminpu=0.92,Vmaxpu=1.5,model=8,zipv=[0.5,0,0.5,1,0,0,0],daily=RES4_11,status=variable
new load.3005173492M1 bus1=RML1000171300.3.0,Phases=1,kv=0.127,kW=1.14698,pf=0.92,Vminpu=0.92,Vmaxpu=1.5,model=8,zipv=[0.5,0,0.5,1,0,0,0],daily=RES3_14,status=variable
new load.3005198181M1 bus1=RML1000171433.1.2.0,Phases=2,kv=0.22,kW=0.5416,pf=0.92,Vminpu=0.92,Vmaxpu=1.5,model=8,zipv=[0.5,0,0.5,1,0,0,0],daily=RES2_17,status=variable
new load.3005602388M1 bus1=RML1000171419.1.0,Phases=1,kv=0.127,kW=0.55322,pf=0.92,Vminpu=0.92,Vmaxpu=1.5,model=8,zipv=[0.5,0,0.5,1,0,0,0],daily=RES2_2,status=variable
new load.3005692408M1 bus1=RML1000171447.2.0,Phases=1,kv=0.127,kW=1.03436,pf=0.92,Vminpu=0.92,Vmaxpu=1.5,model=8,zipv=[0.5,0,0.5,1,0,0,0],daily=RES3_4,status=variable
new load.3010561006M1 bus1=RML1008300090.1.2.0,Phases=2,kv=0.22,kW=0.27732,pf=0.92,Vminpu=0.92,Vmaxpu=1.5,model=8,zipv=[0.5,0,0.5,1,0,0,0],daily=RES1_10,status=variable
new load.3004158683M1 bus1=RML1000240929.2.0,Phases=1,kv=0.127,kW=0.63218,pf=0.92,Vminpu=0.92,Vmaxpu=1.5,model=8,zipv=[0.5,0,0.5,1,0,0,0],daily=RES2_20,status=variable
new load.3005654719M1 bus1=RML1000117526.3.0,Phases=1,kv=0.127,kW=1.1833,pf=0.92,Vminpu=0.92,Vmaxpu=1.5,model=8,zipv=[0.5,0,0.5,1,0,0,0],daily=RES2_4,status=variable
new load.3005763013M1 bus1=RML1000789302.1.0,Phases=1,kv=0.127,kW=0.58822,pf=0.92,Vminpu=0.92,Vmaxpu=1.5,model=8,zipv=[0.5,0,0.5,1,0,0,0],daily=RES1_5,status=variable
new load.3005403620M1 bus1=RML1000117505.2.3.0,Phases=2,kv=0.22,kW=0.53468,pf=0.92,Vminpu=0.92,Vmaxpu=1.5,model=8,zipv=[0.5,0,0.5,1,0,0,0],daily=RES2_27,status=variable
new load.3010321325M1 bus1=RML1004008847.1.2.0,Phases=2,kv=0.22,kW=2.18032,pf=0.92,Vminpu=0.92,Vmaxpu=1.5,model=8,zipv=[0.5,0,0.5,1,0,0,0],daily=RES3_6,status=variable
new load.3010409636M1 bus1=RML1004030918.3.0,Phases=1,kv=0.127,kW=1.09072,pf=0.92,Vminpu=0.92,Vmaxpu=1.5,model=8,zipv=[0.5,0,0.5,1,0,0,0],daily=RES2_6,status=variable
new load.3003531727M1 bus1=RML1000171454.2.0,Phases=1,kv=0.127,kW=1.0544,pf=0.92,Vminpu=0.92,Vmaxpu=1.5,model=8,zipv=[0.5,0,0.5,1,0,0,0],daily=RES4_5,status=variable
new load.3004761200M1 bus1=RML1000171426.2.3.0,Phases=2,kv=0.22,kW=0.95282,pf=0.92,Vminpu=0.92,Vmaxpu=1.5,model=8,zipv=[0.5,0,0.5,1,0,0,0],daily=RES2_6,status=variable
new load.3004959149M1 bus1=RML1000171475.1.2.3.0,Phases=3,kv=0.22,kW=0.6053,pf=0.92,Vminpu=0.92,Vmaxpu=1.5,model=8,zipv=[0.5,0,0.5,1,0,0,0],daily=RES2_10,status=variable
new load.3005112413M1 bus1=RML1000171440.1.0,Phases=1,kv=0.127,kW=0.75164,pf=0.92,Vminpu=0.92,Vmaxpu=1.5,model=8,zipv=[0.5,0,0.5,1,0,0,0],daily=RES2_14,status=variable
new load.3005664445M1 bus1=RML1000171412.1.3.0,Phases=2,kv=0.22,kW=1.05824,pf=0.92,Vminpu=0.92,Vmaxpu=1.5,model=8,zipv=[0.5,0,0.5,1,0,0,0],daily=RES2_4,status=variable
new load.3005680594M1 bus1=RML1000171433.1.2.0,Phases=2,kv=0.22,kW=1.51786,pf=0.92,Vminpu=0.92,Vmaxpu=1.5,model=8,zipv=[0.5,0,0.5,1,0,0,0],daily=RES3_4,status=variable
new load.3010768915M1 bus1=RML1010181378.1.3.0,Phases=2,kv=0.22,kW=0.99592,pf=0.92,Vminpu=0.92,Vmaxpu=1.5,model=8,zipv=[0.5,0,0.5,1,0,0,0],daily=RES2_14,status=variable
new load.3003130342M1 bus1=RML1000240936.1.2.0,Phases=2,kv=0.22,kW=0.35306,pf=0.92,Vminpu=0.92,Vmaxpu=1.5,model=8,zipv=[0.5,0,0.5,1,0,0,0],daily=RES2_23,status=variable
new load.3003130343M1 bus1=RML1000240936.1.2.0,Phases=2,kv=0.22,kW=0.50606,pf=0.92,Vminpu=0.92,Vmaxpu=1.5,model=8,zipv=[0.5,0,0.5,1,0,0,0],daily=RES2_23,status=variable
new load.3003130344M1 bus1=RML1000240908.2.3.0,Phases=2,kv=0.22,kW=0.70664,pf=0.92,Vminpu=0.92,Vmaxpu=1.5,model=8,zipv=[0.5,0,0.5,1,0,0,0],daily=RES4_19,status=variable
new load.3003130345M1 bus1=RML1000240887.2.0,Phases=1,kv=0.127,kW=0.16714,pf=0.92,Vminpu=0.92,Vmaxpu=1.5,model=8,zipv=[0.5,0,0.5,1,0,0,0],daily=RES1_20,status=variable
new load.3003130346M1 bus1=RML1000240887.2.0,Phases=1,kv=0.127,kW=0.17828,pf=0.92,Vminpu=0.92,Vmaxpu=1.5,model=8,zipv=[0.5,0,0.5,1,0,0,0],daily=RES1_20,status=variable
new load.3003130348M1 bus1=RML1000240866.1.0,Phases=1,kv=0.127,kW=0.55706,pf=0.92,Vminpu=0.92,Vmaxpu=1.5,model=8,zipv=[0.5,0,0.5,1,0,0,0],daily=RES2_23,status=variable
new load.3003130350M1 bus1=RML1000240901.1.3.0,Phases=2,kv=0.22,kW=0.3256,pf=0.92,Vminpu=0.92,Vmaxpu=1.5,model=8,zipv=[0.5,0,0.5,1,0,0,0],daily=RES2_23,status=variable
new load.3003130355M1 bus1=RML1000240922.1.0,Phases=1,kv=0.127,kW=0.45498,pf=0.92,Vminpu=0.92,Vmaxpu=1.5,model=8,zipv=[0.5,0,0.5,1,0,0,0],daily=RES5_17,status=variable
new load.3003130356M1 bus1=RML1000240915.1.0,Phases=1,kv=0.127,kW=0.5829,pf=0.92,Vminpu=0.92,Vmaxpu=1.5,model=8,zipv=[0.5,0,0.5,1,0,0,0],daily=RES3_19,status=variable
new load.3003130357M1 bus1=RML1000261817.3.0,Phases=1,kv=0.127,kW=0.39622,pf=0.92,Vminpu=0.92,Vmaxpu=1.5,model=8,zipv=[0.5,0,0.5,1,0,0,0],daily=RES2_23,status=variable
new load.3003130358M1 bus1=RML1000261845.2.0,Phases=1,kv=0.127,kW=0.50214,pf=0.92,Vminpu=0.92,Vmaxpu=1.5,model=8,zipv=[0.5,0,0.5,1,0,0,0],daily=RES2_23,status=variable
new load.3003130359M1 bus1=RML1000262083.3.0,Phases=1,kv=0.127,kW=0.4786,pf=0.92,Vminpu=0.92,Vmaxpu=1.5,model=8,zipv=[0.5,0,0.5,1,0,0,0],daily=RES2_23,status=variable
new load.3003130360M1 bus1=RML1000262062.3.0,Phases=1,kv=0.127,kW=0.40112,pf=0.92,Vminpu=0.92,Vmaxpu=1.5,model=8,zipv=[0.5,0,0.5,1,0,0,0],daily=RES1_20,status=variable
new load.3003130361M1 bus1=RML1000262223.2.0,Phases=1,kv=0.127,kW=0.3064,pf=0.92,Vminpu=0.92,Vmaxpu=1.5,model=8,zipv=[0.5,0,0.5,1,0,0,0],daily=RES1_20,status=variable
new load.3003130362M1 bus1=RML1000262146.1.2.3.0,Phases=3,kv=0.22,kW=0.56098,pf=0.92,Vminpu=0.92,Vmaxpu=1.5,model=8,zipv=[0.5,0,0.5,1,0,0,0],daily=RES2_23,status=variable
new load.3003130365M1 bus1=RML1000262188.1.2.3.0,Phases=3,kv=0.22,kW=0.49026,pf=0.92,Vminpu=0.92,Vmaxpu=1.5,model=8,zipv=[0.5,0,0.5,1,0,0,0],daily=RES1_20,status=variable
new load.3003130368M1 bus1=RML1000262153.1.2.0,Phases=2,kv=0.22,kW=0.00392,pf=0.92,Vminpu=0.92,Vmaxpu=1.5,model=8,zipv=[0.5,0,0.5,1,0,0,0],daily=RES2_23,status=variable
new load.3003130369M1 bus1=RML1000262139.1.2.0,Phases=2,kv=0.22,kW=0.2746,pf=0.92,Vminpu=0.92,Vmaxpu=1.5,model=8,zipv=[0.5,0,0.5,1,0,0,0],daily=RES2_23,status=variable
new load.3003130370M1 bus1=RML1000262139.1.2.0,Phases=2,kv=0.22,kW=0.38998,pf=0.92,Vminpu=0.92,Vmaxpu=1.5,model=8,zipv=[0.5,0,0.5,1,0,0,0],daily=RES1_20,status=variable
new load.3003130371M1 bus1=RML1010750547.1.0,Phases=1,kv=0.127,kW=0.40112,pf=0.92,Vminpu=0.92,Vmaxpu=1.5,model=8,zipv=[0.5,0,0.5,1,0,0,0],daily=RES1_20,status=variable
new load.3003130372M1 bus1=RML1000262097.2.3.0,Phases=2,kv=0.22,kW=0.38052,pf=0.92,Vminpu=0.92,Vmaxpu=1.5,model=8,zipv=[0.5,0,0.5,1,0,0,0],daily=RES2_23,status=variable
new load.3003130373M1 bus1=RML1000262125.1.0,Phases=1,kv=0.127,kW=0.40668,pf=0.92,Vminpu=0.92,Vmaxpu=1.5,model=8,zipv=[0.5,0,0.5,1,0,0,0],daily=RES1_20,status=variable
new load.3003130374M1 bus1=RML1000262111.1.2.3.0,Phases=3,kv=0.22,kW=0.47076,pf=0.92,Vminpu=0.92,Vmaxpu=1.5,model=8,zipv=[0.5,0,0.5,1,0,0,0],daily=RES2_23,status=variable
new load.3003130375M1 bus1=RML1000262111.1.2.3.0,Phases=3,kv=0.22,kW=0.73908,pf=0.92,Vminpu=0.92,Vmaxpu=1.5,model=8,zipv=[0.5,0,0.5,1,0,0,0],daily=COM1_21,status=variable
new load.3003130378M1 bus1=RML1000262195.1.2.3.0,Phases=3,kv=0.22,kW=0.45506,pf=0.92,Vminpu=0.92,Vmaxpu=1.5,model=8,zipv=[0.5,0,0.5,1,0,0,0],daily=RES2_23,status=variable
new load.3003130380M1 bus1=RML1000262160.3.0,Phases=1,kv=0.127,kW=0.71172,pf=0.92,Vminpu=0.92,Vmaxpu=1.5,model=8,zipv=[0.5,0,0.5,1,0,0,0],daily=RES3_19,status=variable
new load.3010424684M1 bus1=RML1003240919.2.3.0,Phases=2,kv=0.22,kW=0.7961,pf=0.92,Vminpu=0.92,Vmaxpu=1.5,model=8,zipv=[0.5,0,0.5,1,0,0,0],daily=RES2_6,status=variable
new load.3001676133M1 bus1=RML1000124316.2.3.0,Phases=2,kv=0.22,kW=1.17546,pf=0.92,Vminpu=0.92,Vmaxpu=1.5,model=8,zipv=[0.5,0,0.5,1,0,0,0],daily=RES3_11,status=variable
new load.3001676135M1 bus1=RML1000124330.2.3.0,Phases=2,kv=0.22,kW=0.98444,pf=0.92,Vminpu=0.92,Vmaxpu=1.5,model=8,zipv=[0.5,0,0.5,1,0,0,0],daily=RES2_10,status=variable
new load.3001676136M1 bus1=RML1000124337.1.2.3.0,Phases=3,kv=0.22,kW=0.09428,pf=0.92,Vminpu=0.92,Vmaxpu=1.5,model=8,zipv=[0.5,0,0.5,1,0,0,0],daily=RES1_10,status=variable
new load.3001676137M1 bus1=RML1000124337.1.2.3.0,Phases=3,kv=0.22,kW=0.8381,pf=0.92,Vminpu=0.92,Vmaxpu=1.5,model=8,zipv=[0.5,0,0.5,1,0,0,0],daily=RES2_10,status=variable
new load.3001676138M1 bus1=RML1000124337.1.2.3.0,Phases=3,kv=0.22,kW=0.84476,pf=0.92,Vminpu=0.92,Vmaxpu=1.5,model=8,zipv=[0.5,0,0.5,1,0,0,0],daily=RES2_10,status=variable
new load.3001676139M1 bus1=RML1000124337.1.2.3.0,Phases=3,kv=0.22,kW=1.20182,pf=0.92,Vminpu=0.92,Vmaxpu=1.5,model=8,zipv=[0.5,0,0.5,1,0,0,0],daily=RES4_12,status=variable
new load.3001676142M1 bus1=RML1000124309.2.3.0,Phases=2,kv=0.22,kW=0.44926,pf=0.92,Vminpu=0.92,Vmaxpu=1.5,model=8,zipv=[0.5,0,0.5,1,0,0,0],daily=RES1_10,status=variable
new load.3001676146M1 bus1=RML1003155967.1.3.0,Phases=2,kv=0.22,kW=1.01104,pf=0.92,Vminpu=0.92,Vmaxpu=1.5,model=8,zipv=[0.5,0,0.5,1,0,0,0],daily=RES2_10,status=variable
new load.3001676148M1 bus1=RML1000124267.1.2.3.0,Phases=3,kv=0.22,kW=3.16984,pf=0.92,Vminpu=0.92,Vmaxpu=1.5,model=8,zipv=[0.5,0,0.5,1,0,0,0],daily=COM2_12,status=variable
new load.3001676149M1 bus1=RML1000124239.1.2.3.0,Phases=3,kv=0.22,kW=0.87518,pf=0.92,Vminpu=0.92,Vmaxpu=1.5,model=8,zipv=[0.5,0,0.5,1,0,0,0],daily=RES4_12,status=variable
new load.3005096205M1 bus1=RML1000124281.1.2.0,Phases=2,kv=0.22,kW=1.02274,pf=0.92,Vminpu=0.92,Vmaxpu=1.5,model=8,zipv=[0.5,0,0.5,1,0,0,0],daily=RES3_13,status=variable
new load.3003841517M1 bus1=RML1000124246.1.2.3.0,Phases=3,kv=0.22,kW=0.72502,pf=0.92,Vminpu=0.92,Vmaxpu=1.5,model=8,zipv=[0.5,0,0.5,1,0,0,0],daily=RES2_10,status=variable
new load.3001676159M1 bus1=RML1000124260.2.3.0,Phases=2,kv=0.22,kW=0.78364,pf=0.92,Vminpu=0.92,Vmaxpu=1.5,model=8,zipv=[0.5,0,0.5,1,0,0,0],daily=RES3_11,status=variable
new load.3001676160M1 bus1=RML1000124253.1.0,Phases=1,kv=0.127,kW=0.16366,pf=0.92,Vminpu=0.92,Vmaxpu=1.5,model=8,zipv=[0.5,0,0.5,1,0,0,0],daily=RES5_11,status=variable
new load.3003907893M1 bus1=RML1000128432.1.2.3.0,Phases=3,kv=0.22,kW=1.81176,pf=0.92,Vminpu=0.92,Vmaxpu=1.5,model=8,zipv=[0.5,0,0.5,1,0,0,0],daily=COM2_14,status=variable
new load.3004317333M1 bus1=RML1000128446.1.2.3.0,Phases=3,kv=0.22,kW=2.10644,pf=0.92,Vminpu=0.92,Vmaxpu=1.5,model=8,zipv=[0.5,0,0.5,1,0,0,0],daily=COM1_24,status=variable
new load.3004317334M1 bus1=RML1000128439.1.2.3.0,Phases=3,kv=0.22,kW=0.9064,pf=0.92,Vminpu=0.92,Vmaxpu=1.5,model=8,zipv=[0.5,0,0.5,1,0,0,0],daily=COM1_24,status=variable
new load.3003130381M1 bus1=RML1000262209.1.0,Phases=1,kv=0.127,kW=0.30206,pf=0.92,Vminpu=0.92,Vmaxpu=1.5,model=8,zipv=[0.5,0,0.5,1,0,0,0],daily=RES2_23,status=variable
new load.3003130382M1 bus1=RML1000262216.2.0,Phases=1,kv=0.127,kW=0.40406,pf=0.92,Vminpu=0.92,Vmaxpu=1.5,model=8,zipv=[0.5,0,0.5,1,0,0,0],daily=RES2_23,status=variable
new load.3003130416M1 bus1=RML1000262048.3.0,Phases=1,kv=0.127,kW=0.72138,pf=0.92,Vminpu=0.92,Vmaxpu=1.5,model=8,zipv=[0.5,0,0.5,1,0,0,0],daily=RES3_19,status=variable
new load.3003130419M1 bus1=RML1000262076.1.0,Phases=1,kv=0.127,kW=0.38846,pf=0.92,Vminpu=0.92,Vmaxpu=1.5,model=8,zipv=[0.5,0,0.5,1,0,0,0],daily=RES5_17,status=variable
new load.3003130420M1 bus1=RML1000261852.1.3.0,Phases=2,kv=0.22,kW=0.18384,pf=0.92,Vminpu=0.92,Vmaxpu=1.5,model=8,zipv=[0.5,0,0.5,1,0,0,0],daily=RES1_20,status=variable
new load.3003130421M1 bus1=RML1000261838.1.2.0,Phases=2,kv=0.22,kW=0.57968,pf=0.92,Vminpu=0.92,Vmaxpu=1.5,model=8,zipv=[0.5,0,0.5,1,0,0,0],daily=RES3_19,status=variable
new load.3003130423M1 bus1=RML1000261824.1.2.0,Phases=2,kv=0.22,kW=0.43936,pf=0.92,Vminpu=0.92,Vmaxpu=1.5,model=8,zipv=[0.5,0,0.5,1,0,0,0],daily=RES2_23,status=variable
new load.3003130482M1 bus1=RML1000262272.2.3.0,Phases=2,kv=0.22,kW=0.9307,pf=0.92,Vminpu=0.92,Vmaxpu=1.5,model=8,zipv=[0.5,0,0.5,1,0,0,0],daily=RES3_19,status=variable
new load.3003130483M1 bus1=RML1000262265.3.0,Phases=1,kv=0.127,kW=0.47076,pf=0.92,Vminpu=0.92,Vmaxpu=1.5,model=8,zipv=[0.5,0,0.5,1,0,0,0],daily=RES2_23,status=variable
new load.3003130484M1 bus1=RML1000262258.3.0,Phases=1,kv=0.127,kW=0.41866,pf=0.92,Vminpu=0.92,Vmaxpu=1.5,model=8,zipv=[0.5,0,0.5,1,0,0,0],daily=RES3_19,status=variable
new load.3004916633M1 bus1=RML1003218393.3.0,Phases=1,kv=0.127,kW=0.57822,pf=0.92,Vminpu=0.92,Vmaxpu=1.5,model=8,zipv=[0.5,0,0.5,1,0,0,0],daily=RES2_9,status=variable
new load.3004217174M1 bus1=RML1000262174.1.2.3.0,Phases=3,kv=0.22,kW=0.31882,pf=0.92,Vminpu=0.92,Vmaxpu=1.5,model=8,zipv=[0.5,0,0.5,1,0,0,0],daily=RES3_19,status=variable
new load.3003488472M1 bus1=RML1000262090.2.3.0,Phases=2,kv=0.22,kW=2.1209,pf=0.92,Vminpu=0.92,Vmaxpu=1.5,model=8,zipv=[0.5,0,0.5,1,0,0,0],daily=RES2_3,status=variable
new load.3004112490M1 bus1=RML1000170894.1.2.0,Phases=2,kv=0.22,kW=1.13214,pf=0.92,Vminpu=0.92,Vmaxpu=1.5,model=8,zipv=[0.5,0,0.5,1,0,0,0],daily=RES1_15,status=variable
new load.3003936643M1 bus1=RML1000170894.1.2.0,Phases=2,kv=0.22,kW=0.9209,pf=0.92,Vminpu=0.92,Vmaxpu=1.5,model=8,zipv=[0.5,0,0.5,1,0,0,0],daily=RES2_12,status=variable
new load.3005639221M1 bus1=RML1000117519.1.0,Phases=1,kv=0.127,kW=0.95116,pf=0.92,Vminpu=0.92,Vmaxpu=1.5,model=8,zipv=[0.5,0,0.5,1,0,0,0],daily=RES1_2,status=variable
new load.3003739479M1 bus1=RML1000124246.1.2.3.0,Phases=3,kv=0.22,kW=0.45954,pf=0.92,Vminpu=0.92,Vmaxpu=1.5,model=8,zipv=[0.5,0,0.5,1,0,0,0],daily=RES1_5,status=variable
new load.3003967906M1 bus1=RML1000124246.1.2.3.0,Phases=3,kv=0.22,kW=0.49364,pf=0.92,Vminpu=0.92,Vmaxpu=1.5,model=8,zipv=[0.5,0,0.5,1,0,0,0],daily=RES2_13,status=variable
new load.3004686888M1 bus1=RML1009807190.1.2.3.0,Phases=3,kv=0.22,kW=0.26134,pf=0.92,Vminpu=0.92,Vmaxpu=1.5,model=8,zipv=[0.5,0,0.5,1,0,0,0],daily=COM1_7,status=variable
new load.3004418506M1 bus1=RML1000128418.1.2.3.0,Phases=3,kv=0.22,kW=0.39888,pf=0.92,Vminpu=0.92,Vmaxpu=1.5,model=8,zipv=[0.5,0,0.5,1,0,0,0],daily=RES1_1,status=variable
new load.3005577166M1 bus1=RML1000128320.1.2.3.0,Phases=3,kv=0.22,kW=0.22106,pf=0.92,Vminpu=0.92,Vmaxpu=1.5,model=8,zipv=[0.5,0,0.5,1,0,0,0],daily=COM1_4,status=variable
new load.3005230909M1 bus1=RML1000128306.1.2.0,Phases=2,kv=0.22,kW=1.5269,pf=0.92,Vminpu=0.92,Vmaxpu=1.5,model=8,zipv=[0.5,0,0.5,1,0,0,0],daily=RES3_15,status=variable
new load.3005429736M1 bus1=RML1000128376.1.2.0,Phases=2,kv=0.22,kW=5.12744,pf=0.92,Vminpu=0.92,Vmaxpu=1.5,model=8,zipv=[0.5,0,0.5,1,0,0,0],daily=RES6_17,status=variable
new load.3010810752M1 bus1=RML1008300223.1.2.3.0,Phases=3,kv=0.22,kW=0.63818,pf=0.92,Vminpu=0.92,Vmaxpu=1.5,model=8,zipv=[0.5,0,0.5,1,0,0,0],daily=COM1_20,status=variable
new load.3010569678M1 bus1=RML1000129566.2.3.0,Phases=2,kv=0.22,kW=0.46562,pf=0.92,Vminpu=0.92,Vmaxpu=1.5,model=8,zipv=[0.5,0,0.5,1,0,0,0],daily=RES2_10,status=variable
new load.3004266070M1 bus1=RML1000129377.1.0,Phases=1,kv=0.127,kW=0.8406,pf=0.92,Vminpu=0.92,Vmaxpu=1.5,model=8,zipv=[0.5,0,0.5,1,0,0,0],daily=RES2_24,status=variable
new load.3003890702M1 bus1=RML1000129489.1.2.3.0,Phases=3,kv=0.22,kW=1.56612,pf=0.92,Vminpu=0.92,Vmaxpu=1.5,model=8,zipv=[0.5,0,0.5,1,0,0,0],daily=RES4_12,status=variable
new load.3003753099M1 bus1=RML1000129195.3.0,Phases=1,kv=0.127,kW=0.87276,pf=0.92,Vminpu=0.92,Vmaxpu=1.5,model=8,zipv=[0.5,0,0.5,1,0,0,0],daily=RES2_7,status=variable
new load.3003754514M1 bus1=RML1000129279.1.0,Phases=1,kv=0.127,kW=0.5718,pf=0.92,Vminpu=0.92,Vmaxpu=1.5,model=8,zipv=[0.5,0,0.5,1,0,0,0],daily=RES2_7,status=variable
new load.3001676394M1 bus1=RML1000129531.3.0,Phases=1,kv=0.127,kW=0.4523,pf=0.92,Vminpu=0.92,Vmaxpu=1.5,model=8,zipv=[0.5,0,0.5,1,0,0,0],daily=RES2_10,status=variable
new load.3001676395M1 bus1=RML1000129545.2.0,Phases=1,kv=0.127,kW=0.3938,pf=0.92,Vminpu=0.92,Vmaxpu=1.5,model=8,zipv=[0.5,0,0.5,1,0,0,0],daily=RES1_10,status=variable
new load.3001676396M1 bus1=RML1000129538.1.2.3.0,Phases=3,kv=0.22,kW=1.26392,pf=0.92,Vminpu=0.92,Vmaxpu=1.5,model=8,zipv=[0.5,0,0.5,1,0,0,0],daily=RES3_11,status=variable
new load.3001676397M1 bus1=RML1000129538.1.2.3.0,Phases=3,kv=0.22,kW=0.46314,pf=0.92,Vminpu=0.92,Vmaxpu=1.5,model=8,zipv=[0.5,0,0.5,1,0,0,0],daily=IND1_15,status=variable
new load.3001676398M1 bus1=RML1000129496.1.2.3.0,Phases=3,kv=0.22,kW=0.27732,pf=0.92,Vminpu=0.92,Vmaxpu=1.5,model=8,zipv=[0.5,0,0.5,1,0,0,0],daily=RES1_10,status=variable
new load.3001676400M1 bus1=RML1000129517.2.3.0,Phases=2,kv=0.22,kW=2.40206,pf=0.92,Vminpu=0.92,Vmaxpu=1.5,model=8,zipv=[0.5,0,0.5,1,0,0,0],daily=RES5_11,status=variable
new load.3001676401M1 bus1=RML1000129482.3.0,Phases=1,kv=0.127,kW=0.64504,pf=0.92,Vminpu=0.92,Vmaxpu=1.5,model=8,zipv=[0.5,0,0.5,1,0,0,0],daily=RES5_11,status=variable
new load.3001676402M1 bus1=RML1000129510.1.0,Phases=1,kv=0.127,kW=0.78784,pf=0.92,Vminpu=0.92,Vmaxpu=1.5,model=8,zipv=[0.5,0,0.5,1,0,0,0],daily=RES3_11,status=variable
new load.3003999760M1 bus1=RML1000124323.1.3.0,Phases=2,kv=0.22,kW=1.7058,pf=0.92,Vminpu=0.92,Vmaxpu=1.5,model=8,zipv=[0.5,0,0.5,1,0,0,0],daily=RES2_15,status=variable
new load.3003531728M1 bus1=RML1000124204.1.2.0,Phases=2,kv=0.22,kW=1.45054,pf=0.92,Vminpu=0.92,Vmaxpu=1.5,model=8,zipv=[0.5,0,0.5,1,0,0,0],daily=RES3_4,status=variable
new load.3010497885M1 bus1=RML1003970879.1.2.3.0,Phases=3,kv=0.22,kW=1.23794,pf=0.92,Vminpu=0.92,Vmaxpu=1.5,model=8,zipv=[0.5,0,0.5,1,0,0,0],daily=COM1_13,status=variable
new load.3001496581M1 bus1=RML1000126619.1.2.0,Phases=2,kv=0.22,kW=3.61636,pf=0.92,Vminpu=0.92,Vmaxpu=1.5,model=8,zipv=[0.5,0,0.5,1,0,0,0],daily=RES4_9,status=variable
new load.3001496583M1 bus1=RML1000126633.1.2.0,Phases=2,kv=0.22,kW=1.10326,pf=0.92,Vminpu=0.92,Vmaxpu=1.5,model=8,zipv=[0.5,0,0.5,1,0,0,0],daily=RES2_6,status=variable
new load.3001496611M1 bus1=RML1000126661.2.3.0,Phases=2,kv=0.22,kW=1.80266,pf=0.92,Vminpu=0.92,Vmaxpu=1.5,model=8,zipv=[0.5,0,0.5,1,0,0,0],daily=RES3_7,status=variable
new load.3005631420M1 bus1=RML1000126647.2.3.0,Phases=2,kv=0.22,kW=1.40526,pf=0.92,Vminpu=0.92,Vmaxpu=1.5,model=8,zipv=[0.5,0,0.5,1,0,0,0],daily=RES2_3,status=variable
new load.3005411590M1 bus1=RML1000128369.1.2.3.0,Phases=3,kv=0.22,kW=3.27406,pf=0.92,Vminpu=0.92,Vmaxpu=1.5,model=8,zipv=[0.5,0,0.5,1,0,0,0],daily=COM3_25,status=variable
new load.3003582799M1 bus1=RML1000128341.1.3.0,Phases=2,kv=0.22,kW=1.13228,pf=0.92,Vminpu=0.92,Vmaxpu=1.5,model=8,zipv=[0.5,0,0.5,1,0,0,0],daily=RES3_4,status=variable
new load.3001496574M1 bus1=RML1000128558.1.2.3.0,Phases=3,kv=0.22,kW=0.89678,pf=0.92,Vminpu=0.92,Vmaxpu=1.5,model=8,zipv=[0.5,0,0.5,1,0,0,0],daily=RES1_6,status=variable
new load.3001496576M1 bus1=RML1000128516.1.0,Phases=1,kv=0.127,kW=2.10428,pf=0.92,Vminpu=0.92,Vmaxpu=1.5,model=8,zipv=[0.5,0,0.5,1,0,0,0],daily=RES3_7,status=variable
new load.3001496577M1 bus1=RML1000128544.1.2.3.0,Phases=3,kv=0.22,kW=2.49874,pf=0.92,Vminpu=0.92,Vmaxpu=1.5,model=8,zipv=[0.5,0,0.5,1,0,0,0],daily=RES4_9,status=variable
new load.3001496579M1 bus1=RML1000128551.1.3.0,Phases=2,kv=0.22,kW=1.05312,pf=0.92,Vminpu=0.92,Vmaxpu=1.5,model=8,zipv=[0.5,0,0.5,1,0,0,0],daily=RES2_6,status=variable
new load.3010410632M1 bus1=RML1004030911.2.0,Phases=1,kv=0.127,kW=0.9779,pf=0.92,Vminpu=0.92,Vmaxpu=1.5,model=8,zipv=[0.5,0,0.5,1,0,0,0],daily=RES2_6,status=variable
new load.3010726027M1 bus1=RML1008274134.2.0,Phases=1,kv=0.127,kW=0.8738,pf=0.92,Vminpu=0.92,Vmaxpu=1.5,model=8,zipv=[0.5,0,0.5,1,0,0,0],daily=RES3_13,status=variable
new load.3003582826M1 bus1=RML1000129216.3.0,Phases=1,kv=0.127,kW=0.57778,pf=0.92,Vminpu=0.92,Vmaxpu=1.5,model=8,zipv=[0.5,0,0.5,1,0,0,0],daily=RES2_5,status=variable
new load.3003937375M1 bus1=RML1000129132.2.0,Phases=1,kv=0.127,kW=1.19612,pf=0.92,Vminpu=0.92,Vmaxpu=1.5,model=8,zipv=[0.5,0,0.5,1,0,0,0],daily=RES2_12,status=variable
new load.3004691388M1 bus1=RML1000129300.1.2.0,Phases=2,kv=0.22,kW=2.30074,pf=0.92,Vminpu=0.92,Vmaxpu=1.5,model=8,zipv=[0.5,0,0.5,1,0,0,0],daily=RES3_5,status=variable
new load.3001676413M1 bus1=RML1000129314.1.2.0,Phases=2,kv=0.22,kW=0.81238,pf=0.92,Vminpu=0.92,Vmaxpu=1.5,model=8,zipv=[0.5,0,0.5,1,0,0,0],daily=RES4_12,status=variable
new load.3001676417M1 bus1=RML1000129307.3.0,Phases=1,kv=0.127,kW=0.11092,pf=0.92,Vminpu=0.92,Vmaxpu=1.5,model=8,zipv=[0.5,0,0.5,1,0,0,0],daily=RES1_10,status=variable
new load.3001676418M1 bus1=RML1000129321.3.0,Phases=1,kv=0.127,kW=1.35028,pf=0.92,Vminpu=0.92,Vmaxpu=1.5,model=8,zipv=[0.5,0,0.5,1,0,0,0],daily=RES2_10,status=variable
new load.3001676420M1 bus1=RML1000129370.3.0,Phases=1,kv=0.127,kW=0.24404,pf=0.92,Vminpu=0.92,Vmaxpu=1.5,model=8,zipv=[0.5,0,0.5,1,0,0,0],daily=RES1_10,status=variable
new load.3001676421M1 bus1=RML1000129475.3.0,Phases=1,kv=0.127,kW=0.77824,pf=0.92,Vminpu=0.92,Vmaxpu=1.5,model=8,zipv=[0.5,0,0.5,1,0,0,0],daily=RES2_10,status=variable
new load.3001676423M1 bus1=RML1000129363.2.0,Phases=1,kv=0.127,kW=0.73832,pf=0.92,Vminpu=0.92,Vmaxpu=1.5,model=8,zipv=[0.5,0,0.5,1,0,0,0],daily=RES2_10,status=variable
new load.3001676424M1 bus1=RML1000129356.1.2.0,Phases=2,kv=0.22,kW=0.15298,pf=0.92,Vminpu=0.92,Vmaxpu=1.5,model=8,zipv=[0.5,0,0.5,1,0,0,0],daily=RES2_10,status=variable
new load.3001676425M1 bus1=RML1000129349.2.0,Phases=1,kv=0.127,kW=1.0443,pf=0.92,Vminpu=0.92,Vmaxpu=1.5,model=8,zipv=[0.5,0,0.5,1,0,0,0],daily=RES2_10,status=variable
new load.3001676426M1 bus1=RML1000129293.1.2.3.0,Phases=3,kv=0.22,kW=0.8248,pf=0.92,Vminpu=0.92,Vmaxpu=1.5,model=8,zipv=[0.5,0,0.5,1,0,0,0],daily=RES2_10,status=variable
new load.3001676427M1 bus1=RML1000129125.1.0,Phases=1,kv=0.127,kW=0.42708,pf=0.92,Vminpu=0.92,Vmaxpu=1.5,model=8,zipv=[0.5,0,0.5,1,0,0,0],daily=RES1_10,status=variable
new load.3001676428M1 bus1=RML1000129118.1.0,Phases=1,kv=0.127,kW=0.33278,pf=0.92,Vminpu=0.92,Vmaxpu=1.5,model=8,zipv=[0.5,0,0.5,1,0,0,0],daily=RES1_10,status=variable
new load.3001676429M1 bus1=RML1000129139.2.0,Phases=1,kv=0.127,kW=0.94452,pf=0.92,Vminpu=0.92,Vmaxpu=1.5,model=8,zipv=[0.5,0,0.5,1,0,0,0],daily=RES2_10,status=variable
new load.3001676430M1 bus1=RML1000129146.2.0,Phases=1,kv=0.127,kW=0.11648,pf=0.92,Vminpu=0.92,Vmaxpu=1.5,model=8,zipv=[0.5,0,0.5,1,0,0,0],daily=RES1_10,status=variable
new load.3001676432M1 bus1=RML1000129167.3.0,Phases=1,kv=0.127,kW=0.44372,pf=0.92,Vminpu=0.92,Vmaxpu=1.5,model=8,zipv=[0.5,0,0.5,1,0,0,0],daily=RES1_10,status=variable
new load.3001676434M1 bus1=RML1000129174.1.0,Phases=1,kv=0.127,kW=0.97114,pf=0.92,Vminpu=0.92,Vmaxpu=1.5,model=8,zipv=[0.5,0,0.5,1,0,0,0],daily=RES2_10,status=variable
new load.3001676435M1 bus1=RML1000129202.3.0,Phases=1,kv=0.127,kW=0.98586,pf=0.92,Vminpu=0.92,Vmaxpu=1.5,model=8,zipv=[0.5,0,0.5,1,0,0,0],daily=RES3_11,status=variable
new load.3001676436M1 bus1=RML1000129265.3.0,Phases=1,kv=0.127,kW=1.20072,pf=0.92,Vminpu=0.92,Vmaxpu=1.5,model=8,zipv=[0.5,0,0.5,1,0,0,0],daily=RES3_11,status=variable
new load.3001676437M1 bus1=RML1000129237.1.0,Phases=1,kv=0.127,kW=0.23294,pf=0.92,Vminpu=0.92,Vmaxpu=1.5,model=8,zipv=[0.5,0,0.5,1,0,0,0],daily=RES1_10,status=variable
new load.3003429651M1 bus1=RML1000129503.1.3.0,Phases=2,kv=0.22,kW=0.47068,pf=0.92,Vminpu=0.92,Vmaxpu=1.5,model=8,zipv=[0.5,0,0.5,1,0,0,0],daily=RES1_2,status=variable
new load.3003416346M1 bus1=RML1000129209.1.2.0,Phases=2,kv=0.22,kW=0.73284,pf=0.92,Vminpu=0.92,Vmaxpu=1.5,model=8,zipv=[0.5,0,0.5,1,0,0,0],daily=RES2_2,status=variable
new load.3003341525M1 bus1=RML1000129405.1.2.0,Phases=2,kv=0.22,kW=0.94488,pf=0.92,Vminpu=0.92,Vmaxpu=1.5,model=8,zipv=[0.5,0,0.5,1,0,0,0],daily=RES2_1,status=variable
new load.3003352034M1 bus1=RML1000129454.2.0,Phases=1,kv=0.127,kW=1.1672,pf=0.92,Vminpu=0.92,Vmaxpu=1.5,model=8,zipv=[0.5,0,0.5,1,0,0,0],daily=RES2_1,status=variable
new load.3003352035M1 bus1=RML1000129461.2.0,Phases=1,kv=0.127,kW=1.08074,pf=0.92,Vminpu=0.92,Vmaxpu=1.5,model=8,zipv=[0.5,0,0.5,1,0,0,0],daily=RES2_1,status=variable
new load.3004908560M1 bus1=RML1000129328.2.3.0,Phases=2,kv=0.22,kW=1.42428,pf=0.92,Vminpu=0.92,Vmaxpu=1.5,model=8,zipv=[0.5,0,0.5,1,0,0,0],daily=RES2_8,status=variable
new load.3005058919M1 bus1=RML1000129153.1.0,Phases=1,kv=0.127,kW=1.2067,pf=0.92,Vminpu=0.92,Vmaxpu=1.5,model=8,zipv=[0.5,0,0.5,1,0,0,0],daily=RES2_12,status=variable
new load.3005085047M1 bus1=RML1000130140.1.2.3.0,Phases=3,kv=0.22,kW=0.51612,pf=0.92,Vminpu=0.92,Vmaxpu=1.5,model=8,zipv=[0.5,0,0.5,1,0,0,0],daily=COM1_19,status=variable
new load.3005098215M1 bus1=RML1000130126.1.2.3.0,Phases=3,kv=0.22,kW=0.81688,pf=0.92,Vminpu=0.92,Vmaxpu=1.5,model=8,zipv=[0.5,0,0.5,1,0,0,0],daily=COM1_19,status=variable
new load.3005098216M1 bus1=RML1000130119.1.2.3.0,Phases=3,kv=0.22,kW=0.16708,pf=0.92,Vminpu=0.92,Vmaxpu=1.5,model=8,zipv=[0.5,0,0.5,1,0,0,0],daily=COM1_19,status=variable
new load.3005098217M1 bus1=RML1000130112.1.2.3.0,Phases=3,kv=0.22,kW=2.2799,pf=0.92,Vminpu=0.92,Vmaxpu=1.5,model=8,zipv=[0.5,0,0.5,1,0,0,0],daily=COM2_15,status=variable
new load.3005098218M1 bus1=RML1000130091.1.2.3.0,Phases=3,kv=0.22,kW=0.43228,pf=0.92,Vminpu=0.92,Vmaxpu=1.5,model=8,zipv=[0.5,0,0.5,1,0,0,0],daily=RES1_15,status=variable
new load.3004299688M1 bus1=RML1000129965.1.2.3.0,Phases=3,kv=0.22,kW=0.027,pf=0.92,Vminpu=0.92,Vmaxpu=1.5,model=8,zipv=[0.5,0,0.5,1,0,0,0],daily=RES1_21,status=variable
new load.3004299689M1 bus1=RML1000129965.1.2.3.0,Phases=3,kv=0.22,kW=0.89326,pf=0.92,Vminpu=0.92,Vmaxpu=1.5,model=8,zipv=[0.5,0,0.5,1,0,0,0],daily=RES4_20,status=variable
new load.3004670950M1 bus1=RML1000130357.1.2.0,Phases=2,kv=0.22,kW=2.62508,pf=0.92,Vminpu=0.92,Vmaxpu=1.5,model=8,zipv=[0.5,0,0.5,1,0,0,0],daily=RES3_5,status=variable
new load.3003606230M1 bus1=RML1000130063.2.0,Phases=1,kv=0.127,kW=2.15884,pf=0.92,Vminpu=0.92,Vmaxpu=1.5,model=8,zipv=[0.5,0,0.5,1,0,0,0],daily=RES3_5,status=variable
new load.3003631682M1 bus1=RML1000130245.1.3.0,Phases=2,kv=0.22,kW=0.95388,pf=0.92,Vminpu=0.92,Vmaxpu=1.5,model=8,zipv=[0.5,0,0.5,1,0,0,0],daily=RES3_6,status=variable
new load.3005622380M1 bus1=RML1000130294.1.2.3.0,Phases=3,kv=0.22,kW=1.06334,pf=0.92,Vminpu=0.92,Vmaxpu=1.5,model=8,zipv=[0.5,0,0.5,1,0,0,0],daily=RES2_2,status=variable
new load.3001676438M1 bus1=RML1000129251.1.2.3.0,Phases=3,kv=0.22,kW=1.07434,pf=0.92,Vminpu=0.92,Vmaxpu=1.5,model=8,zipv=[0.5,0,0.5,1,0,0,0],daily=RES3_11,status=variable
new load.3001676440M1 bus1=RML1000129258.1.2.0,Phases=2,kv=0.22,kW=0.41044,pf=0.92,Vminpu=0.92,Vmaxpu=1.5,model=8,zipv=[0.5,0,0.5,1,0,0,0],daily=RES1_10,status=variable
new load.3001676441M1 bus1=RML1000129209.1.2.0,Phases=2,kv=0.22,kW=0.2163,pf=0.92,Vminpu=0.92,Vmaxpu=1.5,model=8,zipv=[0.5,0,0.5,1,0,0,0],daily=RES1_10,status=variable
new load.3001676442M1 bus1=RML1000129223.1.2.3.0,Phases=3,kv=0.22,kW=0.27178,pf=0.92,Vminpu=0.92,Vmaxpu=1.5,model=8,zipv=[0.5,0,0.5,1,0,0,0],daily=RES1_10,status=variable
new load.3001676443M1 bus1=RML1000129188.1.2.3.0,Phases=3,kv=0.22,kW=1.17734,pf=0.92,Vminpu=0.92,Vmaxpu=1.5,model=8,zipv=[0.5,0,0.5,1,0,0,0],daily=RES2_10,status=variable
new load.3001676456M1 bus1=RML1000129272.1.2.3.0,Phases=3,kv=0.22,kW=0.0266,pf=0.92,Vminpu=0.92,Vmaxpu=1.5,model=8,zipv=[0.5,0,0.5,1,0,0,0],daily=RES2_10,status=variable
new load.3001676457M1 bus1=RML1000129272.1.2.3.0,Phases=3,kv=0.22,kW=0.88578,pf=0.92,Vminpu=0.92,Vmaxpu=1.5,model=8,zipv=[0.5,0,0.5,1,0,0,0],daily=COM1_13,status=variable
new load.3001676458M1 bus1=RML1000129342.1.0,Phases=1,kv=0.127,kW=0.6585,pf=0.92,Vminpu=0.92,Vmaxpu=1.5,model=8,zipv=[0.5,0,0.5,1,0,0,0],daily=RES2_10,status=variable
new load.3001676459M1 bus1=RML1000129426.2.0,Phases=1,kv=0.127,kW=0.00666,pf=0.92,Vminpu=0.92,Vmaxpu=1.5,model=8,zipv=[0.5,0,0.5,1,0,0,0],daily=RES2_10,status=variable
new load.3001676460M1 bus1=RML1000129440.3.0,Phases=1,kv=0.127,kW=0.51026,pf=0.92,Vminpu=0.92,Vmaxpu=1.5,model=8,zipv=[0.5,0,0.5,1,0,0,0],daily=RES1_10,status=variable
new load.3001676461M1 bus1=RML1000129573.1.0,Phases=1,kv=0.127,kW=0.28602,pf=0.92,Vminpu=0.92,Vmaxpu=1.5,model=8,zipv=[0.5,0,0.5,1,0,0,0],daily=RES2_10,status=variable
new load.3001676464M1 bus1=RML1010577780.3.0,Phases=1,kv=0.127,kW=0.30598,pf=0.92,Vminpu=0.92,Vmaxpu=1.5,model=8,zipv=[0.5,0,0.5,1,0,0,0],daily=RES2_10,status=variable
new load.3001676465M1 bus1=RML1000129552.2.0,Phases=1,kv=0.127,kW=0.13312,pf=0.92,Vminpu=0.92,Vmaxpu=1.5,model=8,zipv=[0.5,0,0.5,1,0,0,0],daily=RES1_10,status=variable
new load.3005508021M1 bus1=RML1000130007.1.3.0,Phases=2,kv=0.22,kW=3.91682,pf=0.92,Vminpu=0.92,Vmaxpu=1.5,model=8,zipv=[0.5,0,0.5,1,0,0,0],daily=RES4_2,status=variable
new load.3004649768M1 bus1=RML1000130154.3.0,Phases=1,kv=0.127,kW=0.97044,pf=0.92,Vminpu=0.92,Vmaxpu=1.5,model=8,zipv=[0.5,0,0.5,1,0,0,0],daily=RES2_5,status=variable
new load.3010540835M1 bus1=RML1008034223.2.3.0,Phases=2,kv=0.22,kW=0.62946,pf=0.92,Vminpu=0.92,Vmaxpu=1.5,model=8,zipv=[0.5,0,0.5,1,0,0,0],daily=RES2_9,status=variable