new transformer.RT6112-1 Phases=1,windings=2,buses=[BMT136860943.1.0 BMT171237448.1.0],conns=[LN LN],kvs=[7.967 7.967],kvas=[1500.000000000 1500.000000000],xhl=0.700000000,%loadloss=0.115000000,%noloadloss=0.0279
new RegControl.RC6112-1 transformer=RT6112-1,winding=2,PTphase=1,ptratio=66.4,band=2,vreg=125.004
new transformer.RT6112-2 Phases=1,windings=2,buses=[BMT136860943.2.0 BMT171237448.2.0],conns=[LN LN],kvs=[7.967 7.967],kvas=[1500.000000000 1500.000000000],xhl=0.700000000,%loadloss=0.115000000,%noloadloss=0.0279
new RegControl.RC6112-2 transformer=RT6112-2,winding=2,PTphase=1,ptratio=66.4,band=2,vreg=125.004
new transformer.RT6112-3 Phases=1,windings=2,buses=[BMT136860943.3.0 BMT171237448.3.0],conns=[LN LN],kvs=[7.967 7.967],kvas=[1500.000000000 1500.000000000],xhl=0.700000000,%loadloss=0.115000000,%noloadloss=0.0279
new RegControl.RC6112-3 transformer=RT6112-3,winding=2,PTphase=1,ptratio=66.4,band=2,vreg=125.004
