! manter este comentario para compatibilidade do C#
new circuit.alimDVLU13 bus1=BMT148371443.1.2.3,basekv=13.800000000,pu=1.040000000

