new line.TR10702504 bus1=BMT100355103.2,bus2=BMT96085B.2,Phases=1,Linecode=CABA06_3_1,Length=0.034799000,Units=km
new line.TR10702511 bus1=BMT96085B.2,bus2=BMT96092B.2,Phases=1,Linecode=CABA06_3_1,Length=0.038291000,Units=km
new line.TR10702518 bus1=BMT96092B.2,bus2=BMT6964554B.2,Phases=1,Linecode=CABA06_3_1,Length=0.036703000,Units=km
new line.TR10702525 bus1=BMT6964554B.2,bus2=BMT6964582B.2,Phases=1,Linecode=CABA06_3_1,Length=0.032907000,Units=km
new line.TR10702532 bus1=BMT6964582B.2,bus2=BMT6964624B.2,Phases=1,Linecode=CABA06_3_1,Length=0.041127000,Units=km
new line.TR10702539 bus1=BMT6964624B.2,bus2=BMT6964631B.2,Phases=1,Linecode=CABA06_3_1,Length=0.025010000,Units=km
new line.TR10702546 bus1=BMT6964631B.2,bus2=BMT6964673B.2,Phases=1,Linecode=CABA06_3_1,Length=0.035750000,Units=km
new line.TR10702553 bus1=BMT6964673B.2,bus2=BMT100355110.2,Phases=1,Linecode=CABA06_3_1,Length=0.038343000,Units=km
new line.TR11538612 bus1=BMT119766B.1.2.3,bus2=BMT119745B.1.2.3,Phases=3,Linecode=CABA08_3_3,Length=0.041802000,Units=km
new line.TR11539046 bus1=BMT14661C.1.2.3,bus2=BMT14822B.1.2.3,Phases=3,Linecode=CABA08_3_3,Length=0.037499000,Units=km
new line.TR11539053 bus1=BMT14822B.1.2.3,bus2=BMT14815B.1.2.3,Phases=3,Linecode=CABA08_3_3,Length=0.025309000,Units=km
new line.TR11539060 bus1=BMT14815B.1.2.3,bus2=BMT14808B.1.2.3,Phases=3,Linecode=CABA08_3_3,Length=0.023419000,Units=km
new line.TR11539067 bus1=BMT14808B.1.2.3,bus2=BMT14801B.1.2.3,Phases=3,Linecode=CABA08_3_3,Length=0.036703000,Units=km
new line.TR11539074 bus1=BMT14801B.1.2.3,bus2=BMT17097B.1.2.3,Phases=3,Linecode=CABA08_3_3,Length=0.038913000,Units=km
new line.TR11539081 bus1=BMT17097B.1.2.3,bus2=BMT7748386B.1.2.3,Phases=3,Linecode=CABA08_3_3,Length=0.023419000,Units=km
new line.TR11539088 bus1=BMT7748386B.1.2.3,bus2=BMT17090B.1.2.3,Phases=3,Linecode=CABA08_3_3,Length=0.016650000,Units=km
new line.TR116306 bus1=BMT73692B.1.2.3,bus2=BMT176571779.1.2.3,Phases=3,Linecode=CAB107_3_3,Length=0.035130000,Units=km
new line.TR116327 bus1=BMT176571779.1.2.3,bus2=BMT73699B.1.2.3,Phases=3,Linecode=CAB107_3_3,Length=0.007078000,Units=km
new line.TR116334 bus1=BMT176571779.1.2.3,bus2=BMT73713B.1.2.3,Phases=3,Linecode=CAB107_3_3,Length=0.007284000,Units=km
new line.TR116341 bus1=BMT176571779.1.2.3,bus2=BMT73741B.1.2.3,Phases=3,Linecode=CAB102_3_3,Length=0.028188000,Units=km
new line.TR116355 bus1=BMT73713B.1.2.3,bus2=BMT73720B.1.2.3,Phases=3,Linecode=CAB107_3_3,Length=0.030690000,Units=km
new line.TR116376 bus1=BMT73720B.1.2.3,bus2=BMT73734B.1.2.3,Phases=3,Linecode=CAB107_3_3,Length=0.035750000,Units=km
new line.TR116411 bus1=BMT73734B.1.2.3,bus2=BMT176571780.1.2.3,Phases=3,Linecode=CAB107_3_3,Length=0.005003000,Units=km
new line.TR116432 bus1=BMT73741B.1.2.3,bus2=BMT176571781.1.2.3,Phases=3,Linecode=CAB102_3_3,Length=0.031287000,Units=km
new line.TR118371 bus1=BMT100355229.1.2.3,bus2=BMT174157396.1.2.3,Phases=3,Linecode=CAB107_3_3,Length=0.027555000,Units=km
new line.TR118385 bus1=BMT74924B.1.2.3,bus2=BMT176571785.1.2.3,Phases=3,Linecode=CAB107_3_3,Length=0.033889000,Units=km
new line.TR118406 bus1=BMT74931B.1.2.3,bus2=BMT176571782.1.2.3,Phases=3,Linecode=CAB107_3_3,Length=0.031968000,Units=km
new line.TR118427 bus1=BMT176571782.1.2.3,bus2=BMT74945B.1.2.3,Phases=3,Linecode=CAB107_3_3,Length=0.030689000,Units=km
new line.TR118448 bus1=BMT74945B.1.2.3,bus2=BMT74924B.1.2.3,Phases=3,Linecode=CAB107_3_3,Length=0.034226000,Units=km
new line.TR119295 bus1=BMT75491B.1.2.3,bus2=BMT174157397.1.2.3,Phases=3,Linecode=CAB107_3_3,Length=0.029456000,Units=km
new line.TR119309 bus1=BMT75512B.1.2.3,bus2=BMT174157400.1.2.3,Phases=3,Linecode=CABA04_3_3,Length=0.030689000,Units=km
new line.TR119330 bus1=BMT75519B.1.2.3,bus2=BMT75491B.1.2.3,Phases=3,Linecode=CAB107_3_3,Length=0.031671000,Units=km
new line.TR119358 bus1=BMT174157399.1.2.3,bus2=BMT75512B.1.2.3,Phases=3,Linecode=CABA04_3_3,Length=0.031968000,Units=km
new line.TR119379 bus1=BMT174157396.1.2.3,bus2=BMT75519B.1.2.3,Phases=3,Linecode=CAB107_3_3,Length=0.007628000,Units=km
new line.TR119393 bus1=BMT174157396.1.2.3,bus2=BMT75547B.1.2.3,Phases=3,Linecode=CABA04_3_3,Length=0.023097000,Units=km
new line.TR119407 bus1=BMT75547B.1.2.3,bus2=BMT174157398.1.2.3,Phases=3,Linecode=CABA04_3_3,Length=0.032587000,Units=km
new line.TR120219 bus1=BMT75911B.1.2.3,bus2=BMT176035297.1.2.3,Phases=3,Linecode=CAB102_3_3,Length=0.024749000,Units=km
new line.TR120240 bus1=BMT75932B.1.2.3,bus2=BMT75939B.1.2.3,Phases=3,Linecode=CAB102_3_3,Length=0.040278000,Units=km
new line.TR120268 bus1=BMT75939B.1.2.3,bus2=BMT75911B.1.2.3,Phases=3,Linecode=CAB102_3_3,Length=0.033255000,Units=km
new line.TR120303 bus1=BMT176035296.1.2.3,bus2=BMT75932B.1.2.3,Phases=3,Linecode=CAB102_3_3,Length=0.032029000,Units=km
new line.TR120345 bus1=BMT75974B.1.2.3,bus2=BMT176035296.1.2.3,Phases=3,Linecode=CAB102_3_3,Length=0.031334000,Units=km
new line.TR120359 bus1=BMT100356195.1.2.3,bus2=BMT100356202.1.2.3,Phases=3,Linecode=CAB103_3_3,Length=0.019858000,Units=km
new line.TR120394 bus1=BMT76002B.1.2.3,bus2=BMT75974B.1.2.3,Phases=3,Linecode=CAB102_3_3,Length=0.026937000,Units=km
new line.TR121094 bus1=BMT76387B.1.2.3,bus2=BMT176571778.1.2.3,Phases=3,Linecode=CAB107_3_3,Length=0.007619000,Units=km
new line.TR121101 bus1=BMT176571778.1.2.3,bus2=BMT76380B.1.2.3,Phases=3,Linecode=CABA06_3_3,Length=0.011195000,Units=km
new line.TR121108 bus1=BMT176571778.1.2.3,bus2=BMT76401B.1.2.3,Phases=3,Linecode=CAB107_3_3,Length=0.025723000,Units=km
new line.TR121115 bus1=BMT176571778.1.2.3,bus2=BMT100355187.1.2.3,Phases=3,Linecode=CABA06_3_3,Length=0.021614000,Units=km
new line.TR121129 bus1=BMT76401B.1.2.3,bus2=BMT73685B.1.2.3,Phases=3,Linecode=CAB107_3_3,Length=0.029746000,Units=km
new line.TR12133139 bus1=BMT173437890.1.2.3,bus2=BMT148947864.1.2.3,Phases=3,Linecode=CABA06_3_3,Length=0.042172000,Units=km
new line.TR12133140 bus1=BMT153825698.1.2.3,bus2=BMT153825699.1.2.3,Phases=3,Linecode=CABA06_3_3,Length=0.044029000,Units=km
new line.TR12133141 bus1=BMT153825699.1.2.3,bus2=BMT153825700.1.2.3,Phases=3,Linecode=CABA06_3_3,Length=0.044963000,Units=km
new line.TR12133142 bus1=BMT153825700.1.2.3,bus2=BMT8726951B.1.2.3,Phases=3,Linecode=CABA06_3_3,Length=0.025643000,Units=km
new line.TR12133143 bus1=BMT8726951B.1.2.3,bus2=BMT153825701.1.2.3,Phases=3,Linecode=CABA06_3_3,Length=0.022145000,Units=km
new line.TR12133151 bus1=BMT153825700.1.2.3,bus2=BMT8726957B.1.2.3,Phases=3,Linecode=CABA06_3_3,Length=0.020624000,Units=km
new line.TR12133152 bus1=BMT8726957B.1.2.3,bus2=BMT153825702.1.2.3,Phases=3,Linecode=CABA06_3_3,Length=0.043192000,Units=km
new line.TR12133153 bus1=BMT153825702.1.2.3,bus2=BMT8726959B.1.2.3,Phases=3,Linecode=CABA06_3_3,Length=0.021596000,Units=km
new line.TR12133154 bus1=BMT8726959B.1.2.3,bus2=BMT8726960B.1.2.3,Phases=3,Linecode=CABA06_3_3,Length=0.029167000,Units=km
new line.TR11381259 bus1=BMT107404B.1.2.3,bus2=BMT172299539.1.2.3,Phases=3,Linecode=CABA08_3_3,Length=0.009439000,Units=km
new line.TR11381266 bus1=BMT108979B.1.2.3,bus2=BMT172299539.1.2.3,Phases=3,Linecode=CABA08_3_3,Length=0.030013000,Units=km
new line.TR11381280 bus1=BMT172299539.1.2.3,bus2=BMT3602560B.1.2.3,Phases=3,Linecode=CABA08_3_3,Length=0.026092000,Units=km
new line.TR11381287 bus1=BMT3602560B.1.2.3,bus2=BMT108986B.1.2.3,Phases=3,Linecode=CABA08_3_3,Length=0.018038000,Units=km
new line.TR11381294 bus1=BMT172299543.1.2.3,bus2=BMT110078B.1.2.3,Phases=3,Linecode=CABA08_3_3,Length=0.037823000,Units=km
new line.TR11472371 bus1=BMT290384B.1.2.3,bus2=BMT290398B.1.2.3,Phases=3,Linecode=CABA06_3_3,Length=0.034727000,Units=km
new line.TR11472378 bus1=BMT290398B.1.2.3,bus2=BMT173437888.1.2.3,Phases=3,Linecode=CABA06_3_3,Length=0.041610000,Units=km
new line.TR11472385 bus1=BMT173437889.1.2.3,bus2=BMT2440021B.1.2.3,Phases=3,Linecode=CABA06_3_3,Length=0.033315000,Units=km
new line.TR11472392 bus1=BMT2440021B.1.2.3,bus2=BMT2440028B.1.2.3,Phases=3,Linecode=CABA06_3_3,Length=0.035820000,Units=km
new line.TR11472399 bus1=BMT2440028B.1.2.3,bus2=BMT2440035B.1.2.3,Phases=3,Linecode=CABA06_3_3,Length=0.045823000,Units=km
new line.TR11472406 bus1=BMT2440035B.1.2.3,bus2=BMT173437890.1.2.3,Phases=3,Linecode=CABA06_3_3,Length=0.044063000,Units=km
new line.TR11472420 bus1=BMT152420544.1.2.3,bus2=BMT2440056B.1.2.3,Phases=3,Linecode=CABA06_3_3,Length=0.025010000,Units=km
new line.TR11472427 bus1=BMT2440056B.1.2.3,bus2=BMT3713783B.1.2.3,Phases=3,Linecode=CABA06_3_3,Length=0.021269000,Units=km
new line.TR11472434 bus1=BMT3713783B.1.2.3,bus2=BMT3713790B.1.2.3,Phases=3,Linecode=CABA06_3_3,Length=0.032816000,Units=km
new line.TR11567543 bus1=BMT119766B.1.2.3,bus2=BMT176035561.1.2.3,Phases=3,Linecode=CABA08_3_3,Length=0.030377000,Units=km
new line.TR11567823 bus1=BMT176035565.1.2.3,bus2=BMT17090B.1.2.3,Phases=3,Linecode=CABA08_3_3,Length=0.026317000,Units=km
new line.TR11567984 bus1=BMT176035567.1.2.3,bus2=BMT176035569.1.2.3,Phases=3,Linecode=CABA06_3_3,Length=0.036140000,Units=km
new line.TR11756277 bus1=BMT175946632.1.2.3,bus2=BMT91465B.1.2.3,Phases=3,Linecode=CABA06_3_3,Length=0.020263000,Units=km
new line.TR11756298 bus1=BMT91465B.1.2.3,bus2=BMT91458B.1.2.3,Phases=3,Linecode=CABA06_3_3,Length=0.037029000,Units=km
new line.TR11756319 bus1=BMT91458B.1.2.3,bus2=BMT91514B.1.2.3,Phases=3,Linecode=CABA06_3_3,Length=0.037978000,Units=km
new line.TR11756340 bus1=BMT91514B.1.2.3,bus2=BMT175946633.1.2.3,Phases=3,Linecode=CABA06_3_3,Length=0.036083000,Units=km
new line.TR119428 bus1=BMT174157398.1.2.3,bus2=BMT75568B.1.2.3,Phases=3,Linecode=CABA04_3_3,Length=0.033852000,Units=km
new line.TR119477 bus1=BMT75568B.1.2.3,bus2=BMT174157401.1.2.3,Phases=3,Linecode=CABA04_3_3,Length=0.004125000,Units=km
new line.TR119498 bus1=BMT174157401.1.2.3,bus2=BMT75561B.1.2.3,Phases=3,Linecode=CAB108_3_3,Length=0.006719000,Units=km
new line.TR119505 bus1=BMT174157401.1.2.3,bus2=BMT100355278.1.2.3,Phases=3,Linecode=CABA04_3_3,Length=0.031029000,Units=km
new line.TR119512 bus1=BMT174157401.1.2.3,bus2=BMT75589B.1.2.3,Phases=3,Linecode=CAB102_3_3,Length=0.026611000,Units=km
new line.TR119533 bus1=BMT171673978.1.2.3,bus2=BMT76737B.1.2.3,Phases=3,Linecode=CAB108_3_3,Length=0.031967000,Units=km
new line.TR119554 bus1=BMT75589B.1.2.3,bus2=BMT75596B.1.2.3,Phases=3,Linecode=CAB102_3_3,Length=0.031671000,Units=km
new line.TR119575 bus1=BMT75596B.1.2.3,bus2=BMT174157402.1.2.3,Phases=3,Linecode=CAB102_3_3,Length=0.032622000,Units=km
new line.TR119589 bus1=BMT100355292.1.2.3,bus2=BMT100355985.1.2.3,Phases=3,Linecode=CAB102_3_3,Length=0.032001000,Units=km
new line.TR120408 bus1=BMT163651305.1.2.3,bus2=BMT100356181.1.2.3,Phases=3,Linecode=CAB103_3_3,Length=0.032907000,Units=km
new line.TR12041191 bus1=BMT97093B.1.2.3,bus2=BMT8167252B.1.2.3,Phases=3,Linecode=CAB107_3_3,Length=0.023355000,Units=km
new line.TR12041205 bus1=BMT97086B.1.2.3,bus2=BMT8167259B.1.2.3,Phases=3,Linecode=CAB107_3_3,Length=0.024093000,Units=km
new line.TR12041219 bus1=BMT8167252B.1.2.3,bus2=BMT136860943.1.2.3,Phases=3,Linecode=CAB107_3_3,Length=0.005660000,Units=km
new line.TR12041226 bus1=BMT8167259B.1.2.3,bus2=BMT171237448.1.2.3,Phases=3,Linecode=CAB107_3_3,Length=0.005002000,Units=km
new line.TR120415 bus1=BMT163651305.1.2.3,bus2=BMT100356188.1.2.3,Phases=3,Linecode=CAB102_3_3,Length=0.038343000,Units=km
new line.TR120422 bus1=BMT176035295.1.2.3,bus2=BMT76030B.1.2.3,Phases=3,Linecode=CAB102_3_3,Length=0.032029000,Units=km
new line.TR120436 bus1=BMT76030B.1.2.3,bus2=BMT76002B.1.2.3,Phases=3,Linecode=CAB102_3_3,Length=0.024362000,Units=km
new line.TR120443 bus1=BMT76037B.1.2.3,bus2=BMT163651305.1.2.3,Phases=3,Linecode=CAB102_3_3,Length=0.030607000,Units=km
new line.TR121150 bus1=BMT105200181.1.2.3,bus2=BMT105200188.1.2.3,Phases=3,Linecode=CAB102_3_3,Length=0.031663000,Units=km
new line.TR12116035 bus1=BMT152551678.1.2.3,bus2=BMT8708931E.1.2.3,Phases=3,Linecode=CAB907_4_3,Length=0.005388000,Units=km
new line.TR12116036 bus1=BMT140136D.1.2.3,bus2=BMT8708931E.1.2.3,Phases=3,Linecode=CAB907_4_3,Length=0.020624000,Units=km
new line.TR12116043 bus1=BMT148371443.1.2.3,bus2=BMT148448848.1.2.3,Phases=3,Linecode=CABA08_3_3,Length=0.018689000,Units=km
new line.TR12116046 bus1=BMT148448849.1.2.3,bus2=BMT152551678.1.2.3,Phases=3,Linecode=CAB907_4_3,Length=0.017472000,Units=km
new line.TR121164 bus1=BMT105200188.1.2.3,bus2=BMT76422B.1.2.3,Phases=3,Linecode=CAB102_3_3,Length=0.027549000,Units=km
new line.TR121178 bus1=BMT76422B.1.2.3,bus2=BMT76436B.1.2.3,Phases=3,Linecode=CAB102_3_3,Length=0.011720000,Units=km
new line.TR12147227 bus1=BMT152551678.1.2.3,bus2=BMT152551679.1.2.3,Phases=3,Linecode=CAB907_4_3,Length=0.024709000,Units=km
new line.TR12230063 bus1=BMT176035303.1.2.3,bus2=BMT371507B.1.2.3,Phases=3,Linecode=CABA06_3_3,Length=0.031398000,Units=km
new line.TR12230067 bus1=BMT153827590.1.2.3,bus2=BMT8831102B.1.2.3,Phases=3,Linecode=CABA06_3_3,Length=0.019244000,Units=km
new line.TR12230069 bus1=BMT8831103B.1.2.3,bus2=BMT8831113B.1.2.3,Phases=3,Linecode=CABA06_3_3,Length=0.021480000,Units=km
new line.TR12230070 bus1=BMT8831113B.1.2.3,bus2=BMT153827592.1.2.3,Phases=3,Linecode=CABA06_3_3,Length=0.044166000,Units=km
new line.TR12230073 bus1=BMT8831103B.1.2.3,bus2=BMT153827591.1.2.3,Phases=3,Linecode=CABA06_3_3,Length=0.019008000,Units=km
new line.TR12230074 bus1=BMT153827591.1.2.3,bus2=BMT153827593.1.2.3,Phases=3,Linecode=CABA06_3_3,Length=0.044740000,Units=km
new line.TR12230075 bus1=BMT153827593.1.2.3,bus2=BMT8831107B.1.2.3,Phases=3,Linecode=CABA06_3_3,Length=0.024423000,Units=km
new line.TR12230076 bus1=BMT8831107B.1.2.3,bus2=BMT153827594.1.2.3,Phases=3,Linecode=CABA06_3_3,Length=0.045812000,Units=km
new line.TR123229 bus1=BMT77598B.1.2.3,bus2=BMT77605B.1.2.3,Phases=3,Linecode=CAB108_3_3,Length=0.032917000,Units=km
new line.TR11350893 bus1=BMT168072632.1.2.3,bus2=BMT168072633.1.2.3,Phases=3,Linecode=CABA06_3_3,Length=0.050000000,Units=km
new line.TR11457895 bus1=BMT108367940.1.2.3,bus2=BMT108367933.1.2.3,Phases=3,Linecode=CABA08_3_3,Length=0.026940000,Units=km
new line.TR11457902 bus1=BMT103826942.1.2.3,bus2=BMT100354375.1.2.3,Phases=3,Linecode=CABA08_3_3,Length=0.015820000,Units=km
new line.TR11457958 bus1=BMT7658583B.1.2.3,bus2=BMT103826942.1.2.3,Phases=3,Linecode=CABA08_3_3,Length=0.036030000,Units=km
new line.TR11458168 bus1=BMT103826949.1.2.3,bus2=BMT114593B.1.2.3,Phases=3,Linecode=CABA08_3_3,Length=0.041458000,Units=km
new line.TR11458189 bus1=BMT114593B.1.2.3,bus2=BMT100354382.1.2.3,Phases=3,Linecode=CABA08_3_3,Length=0.021941000,Units=km
new line.TR11458224 bus1=BMT172299544.1.2.3,bus2=BMT110113B.1.2.3,Phases=3,Linecode=CABA08_3_3,Length=0.067038000,Units=km
new line.TR11458231 bus1=BMT110113B.1.2.3,bus2=BMT3763581B.1.2.3,Phases=3,Linecode=CABA08_3_3,Length=0.025509000,Units=km
new line.TR11458238 bus1=BMT3763581B.1.2.3,bus2=BMT110099B.1.2.3,Phases=3,Linecode=CABA08_3_3,Length=0.020820000,Units=km
new line.TR11512824 bus1=BMT175683432.1.2.3,bus2=BMT175683433.1.2.3,Phases=3,Linecode=CAB107_3_3,Length=0.009853000,Units=km
new line.TR11512831 bus1=BMT175683433.1.2.3,bus2=BMT175683434.1.2.3,Phases=3,Linecode=CAB107_3_3,Length=0.022145000,Units=km
new line.TR11512845 bus1=BMT7725335C.1.2.3,bus2=BMT7725342C.1.2.3,Phases=3,Linecode=CABA08_3_3,Length=0.029744000,Units=km
new line.TR11512852 bus1=BMT7725342C.1.2.3,bus2=BMT103839283.1.2.3,Phases=3,Linecode=CABA08_3_3,Length=0.021199000,Units=km
new line.TR11512859 bus1=BMT176035568.1.2.3,bus2=BMT176035567.1.2.3,Phases=3,Linecode=CABA08_3_3,Length=0.032262000,Units=km
new line.TR11512866 bus1=BMT176035567.1.2.3,bus2=BMT14661C.1.2.3,Phases=3,Linecode=CABA08_3_3,Length=0.045670000,Units=km
new line.TR11513034 bus1=BMT175683433.1.2.3,bus2=BMT7725335C.1.2.3,Phases=3,Linecode=CABA08_3_3,Length=0.030096000,Units=km
new line.TR11513860 bus1=BMT110078B.1.2.3,bus2=BMT110099B.1.2.3,Phases=3,Linecode=CABA08_3_3,Length=0.030246000,Units=km
new line.TR116292 bus1=BMT73685B.1.2.3,bus2=BMT73692B.1.2.3,Phases=3,Linecode=CAB107_3_3,Length=0.022482000,Units=km
new line.TR120926 bus1=BMT176571776.1.2.3,bus2=BMT176571777.1.2.3,Phases=3,Linecode=CAB107_3_3,Length=0.008555000,Units=km
new line.TR120933 bus1=BMT176571776.1.2.3,bus2=BMT76289B.1.2.3,Phases=3,Linecode=CAB102_3_3,Length=0.009225000,Units=km
new line.TR120940 bus1=BMT176571776.1.2.3,bus2=BMT76303B.1.2.3,Phases=3,Linecode=CAB102_3_3,Length=0.023780000,Units=km
new line.TR120968 bus1=BMT76317B.1.2.3,bus2=BMT176571776.1.2.3,Phases=3,Linecode=CAB107_3_3,Length=0.022164000,Units=km
new line.TR120996 bus1=BMT76324B.1.2.3,bus2=BMT76317B.1.2.3,Phases=3,Linecode=CAB107_3_3,Length=0.034199000,Units=km
new line.TR121255 bus1=BMT76457B.1.2.3,bus2=BMT105200195.1.2.3,Phases=3,Linecode=CAB102_3_3,Length=0.031663000,Units=km
new line.TR121619 bus1=BMT171673979.1.2.3,bus2=BMT76765B.1.2.3,Phases=3,Linecode=CAB108_3_3,Length=0.038304000,Units=km
new line.TR12220844 bus1=BMT176035305.1.2.3,bus2=BMT8821481B.1.2.3,Phases=3,Linecode=CABA06_3_3,Length=0.010203000,Units=km
new line.TR12220868 bus1=BMT371507B.1.2.3,bus2=BMT176035304.1.2.3,Phases=3,Linecode=CABA06_3_3,Length=0.025070000,Units=km
new line.TR12220869 bus1=BMT176035304.1.2.3,bus2=BMT371521B.1.2.3,Phases=3,Linecode=CABA06_3_3,Length=0.031919000,Units=km
new line.TR12220870 bus1=BMT371521B.1.2.3,bus2=BMT3807051B.1.2.3,Phases=3,Linecode=CABA06_3_3,Length=0.033135000,Units=km
new line.TR12220871 bus1=BMT3807051B.1.2.3,bus2=BMT8821376B.1.2.3,Phases=3,Linecode=CABA06_3_3,Length=0.024197000,Units=km
new line.TR12220872 bus1=BMT8821376B.1.2.3,bus2=BMT8821408B.1.2.3,Phases=3,Linecode=CABA06_3_3,Length=0.039462000,Units=km
new line.TR12220873 bus1=BMT8821408B.1.2.3,bus2=BMT8821385B.1.2.3,Phases=3,Linecode=CABA06_3_3,Length=0.035862000,Units=km
new line.TR12220874 bus1=BMT8821385B.1.2.3,bus2=BMT8821429B.1.2.3,Phases=3,Linecode=CABA06_3_3,Length=0.042207000,Units=km
new line.TR12220875 bus1=BMT8821429B.1.2.3,bus2=BMT8821418B.1.2.3,Phases=3,Linecode=CABA06_3_3,Length=0.042207000,Units=km
new line.TR12220880 bus1=BMT8821418B.1.2.3,bus2=BMT8821431B.1.2.3,Phases=3,Linecode=CABA06_3_3,Length=0.043584000,Units=km
new line.TR12220881 bus1=BMT8821431B.1.2.3,bus2=BMT8821425B.1.2.3,Phases=3,Linecode=CABA06_3_3,Length=0.045812000,Units=km
new line.TR12220882 bus1=BMT8821425B.1.2.3,bus2=BMT8821456B.1.2.3,Phases=3,Linecode=CABA06_3_3,Length=0.039979000,Units=km
new line.TR12220883 bus1=BMT8821456B.1.2.3,bus2=BMT8821450B.1.2.3,Phases=3,Linecode=CABA06_3_3,Length=0.042562000,Units=km
new line.TR12220884 bus1=BMT8821450B.1.2.3,bus2=BMT8821457B.1.2.3,Phases=3,Linecode=CABA06_3_3,Length=0.044437000,Units=km
new line.TR12220885 bus1=BMT8821457B.1.2.3,bus2=BMT8821458B.1.2.3,Phases=3,Linecode=CABA06_3_3,Length=0.040241000,Units=km
new line.TR12220886 bus1=BMT8821458B.1.2.3,bus2=BMT8821463B.1.2.3,Phases=3,Linecode=CABA06_3_3,Length=0.039979000,Units=km
new line.TR12220893 bus1=BMT8821463B.1.2.3,bus2=BMT8821461B.1.2.3,Phases=3,Linecode=CABA06_3_3,Length=0.039979000,Units=km
new line.TR12220894 bus1=BMT8821461B.1.2.3,bus2=BMT8821474B.1.2.3,Phases=3,Linecode=CABA06_3_3,Length=0.038616000,Units=km
new line.TR12220895 bus1=BMT8821474B.1.2.3,bus2=BMT8821476B.1.2.3,Phases=3,Linecode=CABA06_3_3,Length=0.039640000,Units=km
new line.TR12220896 bus1=BMT8821476B.1.2.3,bus2=BMT8821475B.1.2.3,Phases=3,Linecode=CABA06_3_3,Length=0.039475000,Units=km
new line.TR12220897 bus1=BMT8821475B.1.2.3,bus2=BMT8821469D.1.2.3,Phases=3,Linecode=CABA06_3_3,Length=0.040625000,Units=km
new line.TR12220913 bus1=BMT8821469D.1.2.3,bus2=BMT8821483B.1.2.3,Phases=3,Linecode=CABA06_3_3,Length=0.032770000,Units=km
new line.TR12220915 bus1=BMT8821483B.1.2.3,bus2=BMT8821481B.1.2.3,Phases=3,Linecode=CABA06_3_3,Length=0.033555000,Units=km
new line.TR12237871 bus1=BMT173437890.1.2.3,bus2=BMT8839340B.1.2.3,Phases=3,Linecode=CABA06_3_3,Length=0.027670000,Units=km
new line.TR12237872 bus1=BMT8839340B.1.2.3,bus2=BMT152420544.1.2.3,Phases=3,Linecode=CABA06_3_3,Length=0.027670000,Units=km
new line.TR123131 bus1=BMT77556B.1.2.3,bus2=BMT89400B.1.2.3,Phases=3,Linecode=CAB108_3_3,Length=0.037965000,Units=km
new line.TR123327 bus1=BMT77633B.1.2.3,bus2=BMT171673981.1.2.3,Phases=3,Linecode=CAB108_3_3,Length=0.031645000,Units=km
new line.TR125896 bus1=BMT79040B.1.2.3,bus2=BMT79089B.1.2.3,Phases=3,Linecode=CAB102_3_3,Length=0.008259000,Units=km
new line.TR12742497 bus1=BMT172215040.1.2.3,bus2=BMT172215041.1.2.3,Phases=3,Linecode=CAB108_3_3,Length=0.021200000,Units=km
new line.TR12742498 bus1=BMT172215041.1.2.3,bus2=BMT172215042.1.2.3,Phases=3,Linecode=CAB108_3_3,Length=0.005388000,Units=km
new line.TR128157 bus1=BMT176035307.1.2.3,bus2=BMT176035305.1.2.3,Phases=3,Linecode=CAB103_3_3,Length=0.034540000,Units=km
new line.TR10427110 bus1=BMT175946717.1.2.3,bus2=BMT175946498.1.2.3,Phases=3,Linecode=CAB103_3_3,Length=0.008577000,Units=km
new line.TR10427145 bus1=BMT175946498.1.2.3,bus2=BMT175946724.1.2.3,Phases=3,Linecode=CAB103_3_3,Length=0.019045000,Units=km
new line.TR10427180 bus1=BMT175946498.1.2.3,bus2=BMT91486B.1.2.3,Phases=3,Linecode=CAB103_3_3,Length=0.022154000,Units=km
new line.TR10427327 bus1=BMT175946631.1.2.3,bus2=BMT91479B.1.2.3,Phases=3,Linecode=CAB103_3_3,Length=0.008551000,Units=km
new line.TR11223941 bus1=BMT91479B.1.2.3,bus2=BMT175946632.1.2.3,Phases=3,Linecode=CAB103_3_3,Length=0.014878000,Units=km
new line.TR11493749 bus1=BMT121908B.1.2.3,bus2=BMT7658583B.1.2.3,Phases=3,Linecode=CABA08_3_3,Length=0.030013000,Units=km
new line.TR11493987 bus1=BMT108367940.1.2.3,bus2=BMT108367947.1.2.3,Phases=3,Linecode=CABA08_3_3,Length=0.031967000,Units=km
new line.TR11494001 bus1=BMT108367947.1.2.3,bus2=BMT121964B.1.2.3,Phases=3,Linecode=CABA08_3_3,Length=0.041802000,Units=km
new line.TR11494008 bus1=BMT121964B.1.2.3,bus2=BMT119703B.1.2.3,Phases=3,Linecode=CABA08_3_3,Length=0.026582000,Units=km
new line.TR11494148 bus1=BMT114649B.1.2.3,bus2=BMT100354410.1.2.3,Phases=3,Linecode=CABA08_3_3,Length=0.013607000,Units=km
new line.TR11494155 bus1=BMT167872472.1.2.3,bus2=BMT117617B.1.2.3,Phases=3,Linecode=CABA08_3_3,Length=0.095673000,Units=km
new line.TR11512467 bus1=BMT119703B.1.2.3,bus2=BMT119717B.1.2.3,Phases=3,Linecode=CABA08_3_3,Length=0.032262000,Units=km
new line.TR11512474 bus1=BMT119717B.1.2.3,bus2=BMT119731B.1.2.3,Phases=3,Linecode=CABA08_3_3,Length=0.028648000,Units=km
new line.TR11512481 bus1=BMT119731B.1.2.3,bus2=BMT108367954.1.2.3,Phases=3,Linecode=CABA08_3_3,Length=0.024093000,Units=km
new line.TR11512488 bus1=BMT103829749.1.2.3,bus2=BMT119745B.1.2.3,Phases=3,Linecode=CABA08_3_3,Length=0.025506000,Units=km
new line.TR120800 bus1=BMT76240B.1.2.3,bus2=BMT100355166.1.2.3,Phases=3,Linecode=CAB107_3_3,Length=0.029425000,Units=km
new line.TR120814 bus1=BMT100355166.1.2.3,bus2=BMT76387B.1.2.3,Phases=3,Linecode=CAB107_3_3,Length=0.027869000,Units=km
new line.TR120821 bus1=BMT100356069.1.2.3,bus2=BMT100356076.1.2.3,Phases=3,Linecode=CAB902_4_3,Length=0.021217000,Units=km
new line.TR120835 bus1=BMT76254B.1.2.3,bus2=BMT76233B.1.2.3,Phases=3,Linecode=CAB107_3_3,Length=0.026605000,Units=km
new line.TR120849 bus1=BMT76261B.1.2.3,bus2=BMT76254B.1.2.3,Phases=3,Linecode=CAB107_3_3,Length=0.027549000,Units=km
new line.TR120870 bus1=BMT100356083.1.2.3,bus2=BMT100356090.1.2.3,Phases=3,Linecode=CAB102_3_3,Length=0.005392000,Units=km
new line.TR120891 bus1=BMT176571777.1.2.3,bus2=BMT76261B.1.2.3,Phases=3,Linecode=CAB107_3_3,Length=0.028496000,Units=km
new line.TR120912 bus1=BMT76289B.1.2.3,bus2=BMT100355159.1.2.3,Phases=3,Linecode=CAB102_3_3,Length=0.031967000,Units=km
new line.TR121206 bus1=BMT76436B.1.2.3,bus2=BMT76457B.1.2.3,Phases=3,Linecode=CAB102_3_3,Length=0.022877000,Units=km
new line.TR121598 bus1=BMT76737B.1.2.3,bus2=BMT171673979.1.2.3,Phases=3,Linecode=CAB108_3_3,Length=0.026582000,Units=km
new line.TR12271161 bus1=BMT8831102B.1.2.3,bus2=BMT153827591.1.2.3,Phases=3,Linecode=CABA06_3_3,Length=0.025090000,Units=km
new line.TR123285 bus1=BMT171673980.1.2.3,bus2=BMT77626B.1.2.3,Phases=3,Linecode=CAB108_3_3,Length=0.031645000,Units=km
new line.TR12328715 bus1=BMT3713790B.1.2.3,bus2=BMT3713797B.1.2.3,Phases=3,Linecode=CABA06_3_3,Length=0.029423000,Units=km
new line.TR12328716 bus1=BMT3713797B.1.2.3,bus2=BMT173437891.1.2.3,Phases=3,Linecode=CABA06_3_3,Length=0.043296000,Units=km
new line.TR123313 bus1=BMT77626B.1.2.3,bus2=BMT77633B.1.2.3,Phases=3,Linecode=CAB108_3_3,Length=0.031038000,Units=km
new line.TR125315 bus1=BMT171673981.1.2.3,bus2=BMT78753B.1.2.3,Phases=3,Linecode=CAB108_3_3,Length=0.030697000,Units=km
new line.TR125329 bus1=BMT78753B.1.2.3,bus2=BMT171673982.1.2.3,Phases=3,Linecode=CAB108_3_3,Length=0.038302000,Units=km
new line.TR125861 bus1=BMT79026B.1.2.3,bus2=BMT79040B.1.2.3,Phases=3,Linecode=CAB102_3_3,Length=0.029777000,Units=km
new line.TR12606103 bus1=BMT176035304.1.2.3,bus2=BMT371528B.1.2.3,Phases=3,Linecode=CABA06_3_3,Length=0.032770000,Units=km
new line.TR12606106 bus1=BMT371528B.1.2.3,bus2=BMT371535B.1.2.3,Phases=3,Linecode=CABA06_3_3,Length=0.029167000,Units=km
new line.TR12606107 bus1=BMT371535B.1.2.3,bus2=BMT371542B.1.2.3,Phases=3,Linecode=CABA06_3_3,Length=0.031398000,Units=km
new line.TR12606108 bus1=BMT371542B.1.2.3,bus2=BMT371549B.1.2.3,Phases=3,Linecode=CABA06_3_3,Length=0.028314000,Units=km
new line.TR12606109 bus1=BMT371549B.1.2.3,bus2=BMT2355538B.1.2.3,Phases=3,Linecode=CABA06_3_3,Length=0.028314000,Units=km
new line.TR12606110 bus1=BMT2355538B.1.2.3,bus2=BMT176035306.1.2.3,Phases=3,Linecode=CABA06_3_3,Length=0.044796000,Units=km
new line.TR138293 bus1=BMT168072628.1.2.3,bus2=BMT90569B.1.2.3,Phases=3,Linecode=CAB107_3_3,Length=0.031966000,Units=km
new line.TR138335 bus1=BMT86698B.1.2.3,bus2=BMT168072628.1.2.3,Phases=3,Linecode=CAB107_3_3,Length=0.035129000,Units=km
new line.TR138342 bus1=BMT168072627.1.2.3,bus2=BMT86698B.1.2.3,Phases=3,Linecode=CAB107_3_3,Length=0.011185000,Units=km
new line.TR138349 bus1=BMT168072627.1.2.3,bus2=BMT86705B.1.2.3,Phases=3,Linecode=CAB102_3_3,Length=0.004125000,Units=km
new line.TR138356 bus1=BMT168072627.1.2.3,bus2=BMT86726B.1.2.3,Phases=3,Linecode=CAB102_3_3,Length=0.028804000,Units=km
new line.TR138377 bus1=BMT86726B.1.2.3,bus2=BMT168072629.1.2.3,Phases=3,Linecode=CAB102_3_3,Length=0.029133000,Units=km
new line.TR138384 bus1=BMT168072626.1.2.3,bus2=BMT168072627.1.2.3,Phases=3,Linecode=CAB107_3_3,Length=0.022571000,Units=km
new line.TR138412 bus1=BMT86775B.1.2.3,bus2=BMT168072626.1.2.3,Phases=3,Linecode=CAB107_3_3,Length=0.031966000,Units=km
new line.TR138447 bus1=BMT86810B.1.2.3,bus2=BMT86775B.1.2.3,Phases=3,Linecode=CAB107_3_3,Length=0.029744000,Units=km
new line.TR138461 bus1=BMT86838B.1.2.3,bus2=BMT86810B.1.2.3,Phases=3,Linecode=CAB107_3_3,Length=0.037963000,Units=km
new line.TR138594 bus1=BMT171673982.1.2.3,bus2=BMT86915B.1.2.3,Phases=3,Linecode=CAB108_3_3,Length=0.028481000,Units=km
new line.TR138608 bus1=BMT86915B.1.2.3,bus2=BMT100355866.1.2.3,Phases=3,Linecode=CAB108_3_3,Length=0.028481000,Units=km
new line.TR140491 bus1=BMT87993B.1.2.3,bus2=BMT175946723.1.2.3,Phases=3,Linecode=CAB102_3_3,Length=0.030700000,Units=km
new line.TR140540 bus1=BMT88014B.1.2.3,bus2=BMT87993B.1.2.3,Phases=3,Linecode=CAB102_3_3,Length=0.031648000,Units=km
new line.TR140561 bus1=BMT88021B.1.2.3,bus2=BMT88014B.1.2.3,Phases=3,Linecode=CAB102_3_3,Length=0.035140000,Units=km
new line.TR140876 bus1=BMT88245B.1.2.3,bus2=BMT88259B.1.2.3,Phases=3,Linecode=CAB102_3_3,Length=0.030697000,Units=km
new line.TR140890 bus1=BMT88252B.1.2.3,bus2=BMT175946720.1.2.3,Phases=3,Linecode=CAB102_3_3,Length=0.033853000,Units=km
new line.TR140911 bus1=BMT88259B.1.2.3,bus2=BMT175946719.1.2.3,Phases=3,Linecode=CAB102_3_3,Length=0.010448000,Units=km
new line.TR123250 bus1=BMT77605B.1.2.3,bus2=BMT171673980.1.2.3,Phases=3,Linecode=CAB108_3_3,Length=0.030697000,Units=km
new line.TR125826 bus1=BMT100355985.1.2.3,bus2=BMT79026B.1.2.3,Phases=3,Linecode=CAB102_3_3,Length=0.032001000,Units=km
new line.TR125966 bus1=BMT79089B.1.2.3,bus2=BMT79061B.1.2.3,Phases=3,Linecode=CAB102_3_3,Length=0.021573000,Units=km
new line.TR12774688 bus1=BMT172210626.1.2.3,bus2=BMT87349B.1.2.3,Phases=3,Linecode=CABA08_3_3,Length=0.030390000,Units=km
new line.TR12774689 bus1=BMT87349B.1.2.3,bus2=BMT87342B.1.2.3,Phases=3,Linecode=CABA08_3_3,Length=0.009495000,Units=km
new line.TR12774690 bus1=BMT87342B.1.2.3,bus2=BMT87335B.1.2.3,Phases=3,Linecode=CABA08_3_3,Length=0.016167000,Units=km
new line.TR12774691 bus1=BMT87342B.1.2.3,bus2=BMT87356B.1.2.3,Phases=3,Linecode=CABA08_3_3,Length=0.008096000,Units=km
new line.TR12774692 bus1=BMT87342B.1.2.3,bus2=BMT87307B.1.2.3,Phases=3,Linecode=CABA08_3_3,Length=0.030477000,Units=km
new line.TR12774698 bus1=BMT87307B.1.2.3,bus2=BMT87279B.1.2.3,Phases=3,Linecode=CABA08_3_3,Length=0.031975000,Units=km
new line.TR12774700 bus1=BMT87279B.1.2.3,bus2=BMT87265B.1.2.3,Phases=3,Linecode=CABA08_3_3,Length=0.026583000,Units=km
new line.TR12774701 bus1=BMT87265B.1.2.3,bus2=BMT91710B.1.2.3,Phases=3,Linecode=CABA08_3_3,Length=0.030690000,Units=km
new line.TR12774704 bus1=BMT91710B.1.2.3,bus2=BMT91668B.1.2.3,Phases=3,Linecode=CABA08_3_3,Length=0.030690000,Units=km
new line.TR12774705 bus1=BMT91668B.1.2.3,bus2=BMT91164B.1.2.3,Phases=3,Linecode=CABA08_3_3,Length=0.025644000,Units=km
new line.TR12774707 bus1=BMT91164B.1.2.3,bus2=BMT3432299B.1.2.3,Phases=3,Linecode=CABA08_3_3,Length=0.031636000,Units=km
new line.TR12774712 bus1=BMT3432299B.1.2.3,bus2=BMT91157B.1.2.3,Phases=3,Linecode=CABA08_3_3,Length=0.009498000,Units=km
new line.TR12774715 bus1=BMT91157B.1.2.3,bus2=BMT172215043.1.2.3,Phases=3,Linecode=CABA08_3_3,Length=0.025661000,Units=km
new line.TR12774716 bus1=BMT172215043.1.2.3,bus2=BMT91143B.1.2.3,Phases=3,Linecode=CAB108_3_3,Length=0.028805000,Units=km
new line.TR12774828 bus1=BMT172215041.1.2.3,bus2=BMT91143B.1.2.3,Phases=3,Linecode=CAB108_3_3,Length=0.027869000,Units=km
new line.TR12774829 bus1=BMT172215041.1.2.3,bus2=BMT91122B.1.2.3,Phases=3,Linecode=CAB108_3_3,Length=0.008066000,Units=km
new line.TR12825914 bus1=BMT176035309.1.2.3,bus2=BMT9421438B.1.2.3,Phases=3,Linecode=CABA06_3_3,Length=0.021222000,Units=km
new line.TR12825915 bus1=BMT9421438B.1.2.3,bus2=BMT290384B.1.2.3,Phases=3,Linecode=CABA06_3_3,Length=0.024526000,Units=km