new transformer.1309982 Phases=3,Windings=2,Buses=[BMT168072633.1.2.3 BBT132604285.1.2.3.0],Conns=[delta wye],kvs=[13.8 0.22],kvas=[45.000000000 45.000000000],Taps=[1,1.000000000],%loadloss=1.522000000,%noloadloss=0.377777778
new transformer.1326222 Phases=3,Windings=2,Buses=[BMT173437891.1.2.3 BBT109201192.1.2.3.0],Conns=[delta wye],kvs=[13.8 0.22],kvas=[45.000000000 45.000000000],Taps=[1,1.000000000],%loadloss=1.522000000,%noloadloss=0.377777778
new transformer.1362034 Phases=3,Windings=2,Buses=[BMT172299538.1.2.3 BBT125261656.1.2.3.0],Conns=[delta wye],kvs=[13.8 0.22],kvas=[150.000000000 150.000000000],Taps=[1,1.000000000],%loadloss=1.127000000,%noloadloss=0.280000000
new transformer.27079 Phases=3,Windings=2,Buses=[BMT176571781.1.2.3 BBT97527.1.2.3.0],Conns=[delta wye],kvs=[13.8 0.22],kvas=[45.000000000 45.000000000],Taps=[1,1.000000000],%loadloss=1.522000000,%noloadloss=0.377777778
new transformer.27366 Phases=3,Windings=2,Buses=[BMT174157398.1.2.3 BBT99466.1.2.3.0],Conns=[delta wye],kvs=[13.8 0.22],kvas=[75.000000000 75.000000000],Taps=[1,1.000000000],%loadloss=1.340000000,%noloadloss=0.340000000
new transformer.27534 Phases=3,Windings=2,Buses=[BMT171673979.1.2.3 BBT100810.1.2.3.0],Conns=[delta wye],kvs=[13.8 0.22],kvas=[75.000000000 75.000000000],Taps=[1,1.000000000],%loadloss=1.340000000,%noloadloss=0.340000000
new transformer.28199 Phases=3,Windings=2,Buses=[BMT176035302.1.2.3 BBT106515.1.2.3.0],Conns=[delta wye],kvs=[13.8 0.22],kvas=[30.000000000 30.000000000],Taps=[1,1.000000000],%loadloss=1.667000000,%noloadloss=0.433333333
new transformer.28437 Phases=1,Windings=3,Buses=[BMT175946725.3 BBT108769.1.0 BBT108769.0.2],Conns=[wye wye wye],kvs=[7.967 0.12 0.12],kvas=[35.000000000 35.000000000 35.000000000],Taps=[1,1.000000000,1.000000000],%loadloss=1.410000000,%noloadloss=0.433000000
new transformer.28675 Phases=3,Windings=2,Buses=[BMT100356104.1.2.3 BBT112045.1.2.3.0],Conns=[delta wye],kvs=[13.8 0.22],kvas=[30.000000000 30.000000000],Taps=[1,1.000000000],%loadloss=1.667000000,%noloadloss=0.433333333
new transformer.28682 Phases=3,Windings=2,Buses=[BMT175946722.1.2.3 BBT112101.1.2.3.0],Conns=[delta wye],kvs=[13.8 0.22],kvas=[75.000000000 75.000000000],Taps=[1,1.000000000],%loadloss=1.340000000,%noloadloss=0.340000000
new transformer.28689 Phases=3,Windings=2,Buses=[BMT105200209.1.2.3 BBT112234.1.2.3.0],Conns=[delta wye],kvs=[13.8 0.22],kvas=[45.000000000 45.000000000],Taps=[1,1.000000000],%loadloss=1.522000000,%noloadloss=0.377777778
new transformer.28927 Phases=3,Windings=2,Buses=[BMT163651306.1.2.3 BBT115363.1.2.3.0],Conns=[delta wye],kvs=[13.8 0.22],kvas=[75.000000000 75.000000000],Taps=[1,1.000000000],%loadloss=1.340000000,%noloadloss=0.340000000
new transformer.28948 Phases=3,Windings=2,Buses=[BMT168072631.1.2.3 BBT115748.1.2.3.0],Conns=[delta wye],kvs=[13.8 0.22],kvas=[75.000000000 75.000000000],Taps=[1,1.000000000],%loadloss=1.340000000,%noloadloss=0.340000000
new transformer.28955 Phases=3,Windings=2,Buses=[BMT176571775.1.2.3 BBT115860.1.2.3.0],Conns=[delta wye],kvs=[13.8 0.22],kvas=[75.000000000 75.000000000],Taps=[1,1.000000000],%loadloss=1.340000000,%noloadloss=0.340000000
new transformer.29452 Phases=3,Windings=2,Buses=[BMT168072620.1.2.3 BBT122566.1.2.3.0],Conns=[delta wye],kvs=[13.8 0.22],kvas=[30.000000000 30.000000000],Taps=[1,1.000000000],%loadloss=1.667000000,%noloadloss=0.433333333
new transformer.29466 Phases=3,Windings=2,Buses=[BMT160139265.1.2.3 BBT122748.1.2.3.0],Conns=[delta wye],kvs=[13.8 0.22],kvas=[30.000000000 30.000000000],Taps=[1,1.000000000],%loadloss=1.667000000,%noloadloss=0.433333333
new transformer.29473 Phases=3,Windings=2,Buses=[BMT173656423.1.2.3 BBT122860.1.2.3.0],Conns=[delta wye],kvs=[13.8 0.22],kvas=[30.000000000 30.000000000],Taps=[1,1.000000000],%loadloss=1.667000000,%noloadloss=0.433333333
new transformer.29739 Phases=3,Windings=2,Buses=[BMT171237450.1.2.3 BBT126017.1.2.3.0],Conns=[delta wye],kvs=[13.8 0.22],kvas=[45.000000000 45.000000000],Taps=[1,1.000000000],%loadloss=1.522000000,%noloadloss=0.377777778
new transformer.30544 Phases=3,Windings=2,Buses=[BMT172299537.1.2.3 BBT134613.1.2.3.0],Conns=[delta wye],kvs=[13.8 0.22],kvas=[75.000000000 75.000000000],Taps=[1,1.000000000],%loadloss=1.340000000,%noloadloss=0.340000000
new transformer.31069 Phases=3,Windings=2,Buses=[BMT113675795.1.2.3 BBT139996.1.2.3.0],Conns=[delta wye],kvs=[13.8 0.22],kvas=[75.000000000 75.000000000],Taps=[1,1.000000000],%loadloss=1.340000000,%noloadloss=0.340000000
new transformer.31692 Phases=3,Windings=2,Buses=[BMT100354508.1.2.3 BBT146135.1.2.3.0],Conns=[delta wye],kvs=[13.8 0.22],kvas=[45.000000000 45.000000000],Taps=[1,1.000000000],%loadloss=1.522000000,%noloadloss=0.377777778
new transformer.31706 Phases=3,Windings=2,Buses=[BMT100354515.1.2.3 BBT146247.1.2.3.0],Conns=[delta wye],kvs=[13.8 0.22],kvas=[100.000000000 100.000000000],Taps=[1,1.000000000],%loadloss=1.330000000,%noloadloss=0.390000000
new transformer.31951 Phases=3,Windings=2,Buses=[BMT108284668.1.2.3 BBT149467.1.2.3.0],Conns=[delta wye],kvs=[13.8 0.22],kvas=[30.000000000 30.000000000],Taps=[1,1.000000000],%loadloss=1.667000000,%noloadloss=0.433333333
new transformer.1218618 Phases=1,Windings=3,Buses=[BMT100355110.2 BBT47414166.1.0 BBT47414166.0.2],Conns=[wye wye wye],kvs=[7.967 0.12 0.12],kvas=[35.000000000 35.000000000 35.000000000],Taps=[1,1.000000000,1.000000000],%loadloss=1.410000000,%noloadloss=0.433000000
new transformer.1352948 Phases=3,Windings=2,Buses=[BMT175946633.1.2.3 BBT117787784.1.2.3.0],Conns=[delta wye],kvs=[13.8 0.22],kvas=[75.000000000 75.000000000],Taps=[1,1.000000000],%loadloss=1.340000000,%noloadloss=0.340000000
new transformer.1393915 Phases=3,Windings=2,Buses=[BMT153825703.1.2.3 BBT148947699.1.2.3.0],Conns=[delta wye],kvs=[13.8 0.22],kvas=[75.000000000 75.000000000],Taps=[1,1.000000000],%loadloss=1.340000000,%noloadloss=0.340000000
new transformer.1393916 Phases=3,Windings=2,Buses=[BMT153825702.1.2.3 BBT148947730.1.2.3.0],Conns=[delta wye],kvs=[13.8 0.22],kvas=[75.000000000 75.000000000],Taps=[1,1.000000000],%loadloss=1.340000000,%noloadloss=0.340000000
new transformer.1393917 Phases=3,Windings=2,Buses=[BMT153825701.1.2.3 BBT148947744.1.2.3.0],Conns=[delta wye],kvs=[13.8 0.22],kvas=[75.000000000 75.000000000],Taps=[1,1.000000000],%loadloss=1.340000000,%noloadloss=0.340000000
new transformer.1393919 Phases=3,Windings=2,Buses=[BMT153825699.1.2.3 BBT148947803.1.2.3.0],Conns=[delta wye],kvs=[13.8 0.22],kvas=[75.000000000 75.000000000],Taps=[1,1.000000000],%loadloss=1.340000000,%noloadloss=0.340000000
new transformer.27303 Phases=3,Windings=2,Buses=[BMT176571782.1.2.3 BBT98892.1.2.3.0],Conns=[delta wye],kvs=[13.8 0.22],kvas=[45.000000000 45.000000000],Taps=[1,1.000000000],%loadloss=1.522000000,%noloadloss=0.377777778
new transformer.27779 Phases=3,Windings=2,Buses=[BMT171673981.1.2.3 BBT102938.1.2.3.0],Conns=[delta wye],kvs=[13.8 0.22],kvas=[75.000000000 75.000000000],Taps=[1,1.000000000],%loadloss=1.340000000,%noloadloss=0.340000000
new transformer.27807 Phases=3,Windings=2,Buses=[BMT100355985.1.2.3 BBT103183.1.2.3.0],Conns=[delta wye],kvs=[13.8 0.22],kvas=[75.000000000 75.000000000],Taps=[1,1.000000000],%loadloss=1.340000000,%noloadloss=0.340000000
new transformer.28724 Phases=3,Windings=2,Buses=[BMT176571784.1.2.3 BBT112696.1.2.3.0],Conns=[delta wye],kvs=[13.8 0.22],kvas=[45.000000000 45.000000000],Taps=[1,1.000000000],%loadloss=1.522000000,%noloadloss=0.377777778
new transformer.28731 Phases=3,Windings=2,Buses=[BMT175946723.1.2.3 BBT112843.1.2.3.0],Conns=[delta wye],kvs=[13.8 0.22],kvas=[45.000000000 45.000000000],Taps=[1,1.000000000],%loadloss=1.522000000,%noloadloss=0.377777778
new transformer.28745 Phases=3,Windings=2,Buses=[BMT175946720.1.2.3 BBT113116.1.2.3.0],Conns=[delta wye],kvs=[13.8 0.22],kvas=[45.000000000 45.000000000],Taps=[1,1.000000000],%loadloss=1.522000000,%noloadloss=0.377777778
new transformer.28983 Phases=3,Windings=2,Buses=[BMT172215042.1.2.3 BBT116441.1.2.3.0],Conns=[delta wye],kvs=[13.8 0.22],kvas=[45.000000000 45.000000000],Taps=[1,1.000000000],%loadloss=1.522000000,%noloadloss=0.377777778
new transformer.28997 Phases=3,Windings=2,Buses=[BMT100355999.1.2.3 BBT116651.1.2.3.0],Conns=[delta wye],kvs=[13.8 0.22],kvas=[45.000000000 45.000000000],Taps=[1,1.000000000],%loadloss=1.522000000,%noloadloss=0.377777778
new transformer.29004 Phases=3,Windings=2,Buses=[BMT175946632.1.2.3 BBT116784.1.2.3.0],Conns=[delta wye],kvs=[13.8 0.22],kvas=[45.000000000 45.000000000],Taps=[1,1.000000000],%loadloss=1.522000000,%noloadloss=0.377777778
new transformer.29011 Phases=3,Windings=2,Buses=[BMT163651303.1.2.3 BBT116889.1.2.3.0],Conns=[delta wye],kvs=[13.8 0.22],kvas=[45.000000000 45.000000000],Taps=[1,1.000000000],%loadloss=1.522000000,%noloadloss=0.377777778
new transformer.29018 Phases=3,Windings=2,Buses=[BMT175946721.1.2.3 BBT117029.1.2.3.0],Conns=[delta wye],kvs=[13.8 0.22],kvas=[75.000000000 75.000000000],Taps=[1,1.000000000],%loadloss=1.340000000,%noloadloss=0.340000000
new transformer.29039 Phases=3,Windings=2,Buses=[BMT105200230.1.2.3 BBT117323.1.2.3.0],Conns=[delta wye],kvs=[13.8 0.22],kvas=[75.000000000 75.000000000],Taps=[1,1.000000000],%loadloss=1.340000000,%noloadloss=0.340000000
new transformer.29326 Phases=3,Windings=2,Buses=[BMT168072617.1.2.3 BBT120816.1.2.3.0],Conns=[delta wye],kvs=[13.8 0.22],kvas=[45.000000000 45.000000000],Taps=[1,1.000000000],%loadloss=1.522000000,%noloadloss=0.377777778
new transformer.30593 Phases=3,Windings=2,Buses=[BMT100356461.1.2.3 BBT135187.1.2.3.0],Conns=[delta wye],kvs=[13.8 0.22],kvas=[45.000000000 45.000000000],Taps=[1,1.000000000],%loadloss=1.522000000,%noloadloss=0.377777778
new transformer.30831 Phases=3,Windings=2,Buses=[BMT105716585.1.2.3 BBT137329.1.2.3.0],Conns=[delta wye],kvs=[13.8 0.22],kvas=[45.000000000 45.000000000],Taps=[1,1.000000000],%loadloss=1.522000000,%noloadloss=0.377777778
new transformer.30866 Phases=3,Windings=2,Buses=[BMT172299543.1.2.3 BBT137665.1.2.3.0],Conns=[delta wye],kvs=[13.8 0.22],kvas=[75.000000000 75.000000000],Taps=[1,1.000000000],%loadloss=1.340000000,%noloadloss=0.340000000
new transformer.31300 Phases=3,Windings=2,Buses=[BMT103826949.1.2.3 BBT142684.1.2.3.0],Conns=[delta wye],kvs=[13.8 0.22],kvas=[45.000000000 45.000000000],Taps=[1,1.000000000],%loadloss=1.522000000,%noloadloss=0.377777778
new transformer.1340411 Phases=3,Windings=2,Buses=[BMT108367947.1.2.3 BBT108323847.1.2.3.0],Conns=[delta wye],kvs=[13.8 0.22],kvas=[45.000000000 45.000000000],Taps=[1,1.000000000],%loadloss=1.522000000,%noloadloss=0.377777778
new transformer.1408172 Phases=3,Windings=2,Buses=[BMT153827592.1.2.3 BBT152420469.1.2.3.0],Conns=[delta wye],kvs=[13.8 0.22],kvas=[75.000000000 75.000000000],Taps=[1,1.000000000],%loadloss=1.340000000,%noloadloss=0.340000000
new transformer.1408173 Phases=3,Windings=2,Buses=[BMT153827594.1.2.3 BBT152420498.1.2.3.0],Conns=[delta wye],kvs=[13.8 0.22],kvas=[75.000000000 75.000000000],Taps=[1,1.000000000],%loadloss=1.340000000,%noloadloss=0.340000000
new transformer.1408174 Phases=3,Windings=2,Buses=[BMT153827593.1.2.3 BBT152420522.1.2.3.0],Conns=[delta wye],kvs=[13.8 0.22],kvas=[75.000000000 75.000000000],Taps=[1,1.000000000],%loadloss=1.340000000,%noloadloss=0.340000000
new transformer.1471229 Phases=3,Windings=2,Buses=[BMT176035306.1.2.3 BBT166620764.1.2.3.0],Conns=[delta wye],kvs=[13.8 0.22],kvas=[45.000000000 45.000000000],Taps=[1,1.000000000],%loadloss=1.522000000,%noloadloss=0.377777778
new transformer.27464 Phases=3,Windings=2,Buses=[BMT176571777.1.2.3 BBT100257.1.2.3.0],Conns=[delta wye],kvs=[13.8 0.22],kvas=[45.000000000 45.000000000],Taps=[1,1.000000000],%loadloss=1.522000000,%noloadloss=0.377777778
new transformer.27478 Phases=3,Windings=2,Buses=[BMT105200188.1.2.3 BBT100369.1.2.3.0],Conns=[delta wye],kvs=[13.8 0.22],kvas=[75.000000000 75.000000000],Taps=[1,1.000000000],%loadloss=1.340000000,%noloadloss=0.340000000
new transformer.28612 Phases=3,Windings=2,Buses=[BMT100356300.1.2.3 BBT111016.1.2.3.0],Conns=[delta wye],kvs=[13.8 0.22],kvas=[45.000000000 45.000000000],Taps=[1,1.000000000],%loadloss=1.522000000,%noloadloss=0.377777778
new transformer.28626 Phases=3,Windings=2,Buses=[BMT100356293.1.2.3 BBT111240.1.2.3.0],Conns=[delta wye],kvs=[13.8 0.22],kvas=[75.000000000 75.000000000],Taps=[1,1.000000000],%loadloss=1.340000000,%noloadloss=0.340000000
new transformer.28633 Phases=3,Windings=2,Buses=[BMT168072629.1.2.3 BBT111429.1.2.3.0],Conns=[delta wye],kvs=[13.8 0.22],kvas=[75.000000000 75.000000000],Taps=[1,1.000000000],%loadloss=1.340000000,%noloadloss=0.340000000
new transformer.28647 Phases=3,Windings=2,Buses=[BMT168072626.1.2.3 BBT111527.1.2.3.0],Conns=[delta wye],kvs=[13.8 0.22],kvas=[75.000000000 75.000000000],Taps=[1,1.000000000],%loadloss=1.340000000,%noloadloss=0.340000000
new transformer.28654 Phases=3,Windings=2,Buses=[BMT171673982.1.2.3 BBT111723.1.2.3.0],Conns=[delta wye],kvs=[13.8 0.22],kvas=[75.000000000 75.000000000],Taps=[1,1.000000000],%loadloss=1.340000000,%noloadloss=0.340000000
new transformer.28892 Phases=3,Windings=2,Buses=[BMT176035308.1.2.3 BBT114922.1.2.3.0],Conns=[delta wye],kvs=[13.8 0.22],kvas=[45.000000000 45.000000000],Taps=[1,1.000000000],%loadloss=1.522000000,%noloadloss=0.377777778
new transformer.29396 Phases=3,Windings=2,Buses=[BMT100355103.1.2.3 BBT121740.1.2.3.0],Conns=[delta wye],kvs=[13.8 0.22],kvas=[45.000000000 45.000000000],Taps=[1,1.000000000],%loadloss=1.522000000,%noloadloss=0.377777778
new transformer.29410 Phases=3,Windings=2,Buses=[BMT168072624.1.2.3 BBT122055.1.2.3.0],Conns=[delta wye],kvs=[13.8 0.22],kvas=[75.000000000 75.000000000],Taps=[1,1.000000000],%loadloss=1.340000000,%noloadloss=0.340000000
new transformer.29634 Phases=3,Windings=2,Buses=[BMT168072623.1.2.3 BBT124659.1.2.3.0],Conns=[delta wye],kvs=[13.8 0.22],kvas=[45.000000000 45.000000000],Taps=[1,1.000000000],%loadloss=1.522000000,%noloadloss=0.377777778
new transformer.29669 Phases=3,Windings=2,Buses=[BMT171237449.1.2.3 BBT125051.1.2.3.0],Conns=[delta wye],kvs=[13.8 0.22],kvas=[45.000000000 45.000000000],Taps=[1,1.000000000],%loadloss=1.522000000,%noloadloss=0.377777778
new transformer.31608 Phases=3,Windings=2,Buses=[BMT109101344.1.2.3 BBT145260.1.2.3.0],Conns=[delta wye],kvs=[13.8 0.22],kvas=[45.000000000 45.000000000],Taps=[1,1.000000000],%loadloss=1.522000000,%noloadloss=0.377777778
new transformer.31888 Phases=3,Windings=2,Buses=[BMT176035561.1.2.3 BBT148571.1.2.3.0],Conns=[delta wye],kvs=[13.8 0.22],kvas=[75.000000000 75.000000000],Taps=[1,1.000000000],%loadloss=1.340000000,%noloadloss=0.340000000
new transformer.32112 Phases=3,Windings=2,Buses=[BMT103826935.1.2.3 BBT151077.1.2.3.0],Conns=[delta wye],kvs=[13.8 0.22],kvas=[100.000000000 100.000000000],Taps=[1,1.000000000],%loadloss=1.330000000,%noloadloss=0.390000000
new transformer.32140 Phases=3,Windings=2,Buses=[BMT108284640.1.2.3 BBT151539.1.2.3.0],Conns=[delta wye],kvs=[13.8 0.22],kvas=[100.000000000 100.000000000],Taps=[1,1.000000000],%loadloss=1.330000000,%noloadloss=0.390000000
new transformer.479307 Phases=3,Windings=2,Buses=[BMT168072636.1.2.3 BBT2146567.1.2.3.0],Conns=[delta wye],kvs=[13.8 0.22],kvas=[100.000000000 100.000000000],Taps=[1,1.000000000],%loadloss=1.330000000,%noloadloss=0.390000000
new transformer.6758 Phases=3,Windings=2,Buses=[BMT176035569.1.2.3 BBT21038.1.2.3.0],Conns=[delta wye],kvs=[13.8 0.22],kvas=[75.000000000 75.000000000],Taps=[1,1.000000000],%loadloss=1.340000000,%noloadloss=0.340000000
new transformer.6933 Phases=3,Windings=2,Buses=[BMT176035565.1.2.3 BBT23467.1.2.3.0],Conns=[delta wye],kvs=[13.8 0.22],kvas=[45.000000000 45.000000000],Taps=[1,1.000000000],%loadloss=1.522000000,%noloadloss=0.377777778
new transformer.7157 Phases=3,Windings=2,Buses=[BMT108284626.1.2.3 BBT26302.1.2.3.0],Conns=[delta wye],kvs=[13.8 0.22],kvas=[100.000000000 100.000000000],Taps=[1,1.000000000],%loadloss=1.330000000,%noloadloss=0.390000000
new transformer.35437 Phases=3,Windings=2,Buses=[BMT173669128.1.2.3 BBT165735.1.2.3.0],Conns=[delta wye],kvs=[13.8 0.22],kvas=[45.000000000 45.000000000],Taps=[1,1.000000000],%loadloss=1.522000000,%noloadloss=0.377777778
new transformer.58215 Phases=3,Windings=2,Buses=[BMT176035309.1.2.3 BBT343059.1.2.3.0],Conns=[delta wye],kvs=[13.8 0.22],kvas=[45.000000000 45.000000000],Taps=[1,1.000000000],%loadloss=1.522000000,%noloadloss=0.377777778
new transformer.59566 Phases=3,Windings=2,Buses=[BMT100356006.1.2.3 BBT354371.1.2.3.0],Conns=[delta wye],kvs=[13.8 0.22],kvas=[30.000000000 30.000000000],Taps=[1,1.000000000],%loadloss=1.667000000,%noloadloss=0.433333333
new transformer.630997 Phases=1,Windings=3,Buses=[BMT100356111.2 BBT4428903.1.0 BBT4428903.0.2],Conns=[wye wye wye],kvs=[7.967 0.12 0.12],kvas=[5.000000000 5.000000000 5.000000000],Taps=[1,1.000000000,1.000000000],%loadloss=1.900000000,%noloadloss=0.600000000
new transformer.6835 Phases=3,Windings=2,Buses=[BMT175683437.1.2.3 BBT22018.1.2.3.0],Conns=[delta wye],kvs=[13.8 0.22],kvas=[45.000000000 45.000000000],Taps=[1,1.000000000],%loadloss=1.522000000,%noloadloss=0.377777778
new transformer.7304 Phases=3,Windings=2,Buses=[BMT176035566.1.2.3 BBT28521.1.2.3.0],Conns=[delta wye],kvs=[13.8 0.22],kvas=[75.000000000 75.000000000],Taps=[1,1.000000000],%loadloss=1.340000000,%noloadloss=0.340000000
new transformer.87769 Phases=3,Windings=2,Buses=[BMT176035303.1.2.3 BBT453960.1.2.3.0],Conns=[delta wye],kvs=[13.8 0.22],kvas=[75.000000000 75.000000000],Taps=[1,1.000000000],%loadloss=1.340000000,%noloadloss=0.340000000
new transformer.1396318 Phases=3,Windings=2,Buses=[BMT152551679.1.2.3 BBT149509440.1.2.3.0],Conns=[delta wye],kvs=[13.8 0.22],kvas=[45.000000000 45.000000000],Taps=[1,1.000000000],%loadloss=1.522000000,%noloadloss=0.377777778
new transformer.27436 Phases=3,Windings=2,Buses=[BMT176035296.1.2.3 BBT99942.1.2.3.0],Conns=[delta wye],kvs=[13.8 0.22],kvas=[75.000000000 75.000000000],Taps=[1,1.000000000],%loadloss=1.340000000,%noloadloss=0.340000000
new transformer.27653 Phases=3,Windings=2,Buses=[BMT171673980.1.2.3 BBT101720.1.2.3.0],Conns=[delta wye],kvs=[13.8 0.22],kvas=[75.000000000 75.000000000],Taps=[1,1.000000000],%loadloss=1.340000000,%noloadloss=0.340000000
new transformer.28080 Phases=3,Windings=2,Buses=[BMT176035298.1.2.3 BBT105451.1.2.3.0],Conns=[delta wye],kvs=[13.8 0.22],kvas=[45.000000000 45.000000000],Taps=[1,1.000000000],%loadloss=1.522000000,%noloadloss=0.377777778
new transformer.28276 Phases=3,Windings=2,Buses=[BMT176035301.1.2.3 BBT107117.1.2.3.0],Conns=[delta wye],kvs=[13.8 0.22],kvas=[45.000000000 45.000000000],Taps=[1,1.000000000],%loadloss=1.522000000,%noloadloss=0.377777778
new transformer.28843 Phases=3,Windings=2,Buses=[BMT171673983.1.2.3 BBT114341.1.2.3.0],Conns=[delta wye],kvs=[13.8 0.22],kvas=[150.000000000 150.000000000],Taps=[1,1.000000000],%loadloss=1.127000000,%noloadloss=0.280000000
new transformer.29060 Phases=3,Windings=2,Buses=[BMT168072628.1.2.3 BBT117708.1.2.3.0],Conns=[delta wye],kvs=[13.8 0.22],kvas=[75.000000000 75.000000000],Taps=[1,1.000000000],%loadloss=1.340000000,%noloadloss=0.340000000
new transformer.29067 Phases=3,Windings=2,Buses=[BMT175946718.1.2.3 BBT117722.1.2.3.0],Conns=[delta wye],kvs=[13.8 0.22],kvas=[45.000000000 45.000000000],Taps=[1,1.000000000],%loadloss=1.522000000,%noloadloss=0.377777778
new transformer.29102 Phases=3,Windings=2,Buses=[BMT173669131.1.2.3 BBT118184.1.2.3.0],Conns=[delta wye],kvs=[13.8 0.22],kvas=[75.000000000 75.000000000],Taps=[1,1.000000000],%loadloss=1.340000000,%noloadloss=0.340000000
new transformer.30194 Phases=3,Windings=2,Buses=[BMT170999682.1.2.3 BBT130798.1.2.3.0],Conns=[delta wye],kvs=[13.8 0.22],kvas=[45.000000000 45.000000000],Taps=[1,1.000000000],%loadloss=1.522000000,%noloadloss=0.377777778
new transformer.30474 Phases=3,Windings=2,Buses=[BMT113675788.1.2.3 BBT133486.1.2.3.0],Conns=[delta wye],kvs=[13.8 0.22],kvas=[45.000000000 45.000000000],Taps=[1,1.000000000],%loadloss=1.522000000,%noloadloss=0.377777778
new transformer.30502 Phases=3,Windings=2,Buses=[BMT104142670.1.2.3 BBT133801.1.2.3.0],Conns=[delta wye],kvs=[13.8 0.22],kvas=[75.000000000 75.000000000],Taps=[1,1.000000000],%loadloss=1.340000000,%noloadloss=0.340000000
new transformer.30705 Phases=3,Windings=2,Buses=[BMT104142684.1.2.3 BBT136202.1.2.3.0],Conns=[delta wye],kvs=[13.8 0.22],kvas=[45.000000000 45.000000000],Taps=[1,1.000000000],%loadloss=1.522000000,%noloadloss=0.377777778
new transformer.30747 Phases=3,Windings=2,Buses=[BMT172299540.1.2.3 BBT136461.1.2.3.0],Conns=[delta wye],kvs=[13.8 0.22],kvas=[45.000000000 45.000000000],Taps=[1,1.000000000],%loadloss=1.522000000,%noloadloss=0.377777778
new transformer.31496 Phases=3,Windings=2,Buses=[BMT109101337.1.2.3 BBT144392.1.2.3.0],Conns=[delta wye],kvs=[13.8 0.22],kvas=[75.000000000 75.000000000],Taps=[1,1.000000000],%loadloss=1.340000000,%noloadloss=0.340000000
new transformer.7024 Phases=3,Windings=2,Buses=[BMT176035563.1.2.3 BBT24671.1.2.3.0],Conns=[delta wye],kvs=[13.8 0.22],kvas=[75.000000000 75.000000000],Taps=[1,1.000000000],%loadloss=1.340000000,%noloadloss=0.340000000
new transformer.7101 Phases=3,Windings=2,Buses=[BMT175683434.1.2.3 BBT25693.1.2.3.0],Conns=[delta wye],kvs=[13.8 0.22],kvas=[100.000000000 100.000000000],Taps=[1,1.000000000],%loadloss=1.330000000,%noloadloss=0.390000000
new transformer.78053 Phases=3,Windings=2,Buses=[BMT173669126.1.2.3 BBT429355.1.2.3.0],Conns=[delta wye],kvs=[13.8 0.22],kvas=[75.000000000 75.000000000],Taps=[1,1.000000000],%loadloss=1.340000000,%noloadloss=0.340000000
