new line.1064680 bus1=BBT343073.1.2.3.0,bus2=BBT343066.1.2.3.0,Phases=3,Linecode=BT810_BT810_4_3_4,Length=0.031414000,Units=km
new line.1064687 bus1=BBT343073.1.2.3.0,bus2=BBT343108.1.2.3.0,Phases=3,Linecode=BT809_BT809_4_3_4,Length=0.030607000,Units=km
new line.1064708 bus1=BBT343059.1.2.3.0,bus2=BBT343080.1.2.3.0,Phases=3,Linecode=BT518_BT518_7_3_1,Length=0.000501000,Units=km
new line.1064715 bus1=BBT343080.1.2.3.0,bus2=BBT343087.1.2.3.0,Phases=3,Linecode=BT809_BT809_4_3_4,Length=0.033150000,Units=km
new line.1064722 bus1=BBT343080.1.2.3.0,bus2=BBT173965481.1.2.3.0,Phases=3,Linecode=BT803_BT803_4_3_4,Length=0.021222000,Units=km
new line.1064743 bus1=BBT343087.1.2.3.0,bus2=BBT343094.1.2.3.0,Phases=3,Linecode=BT809_BT809_4_3_4,Length=0.034540000,Units=km
new line.1064820 bus1=BBT343108.1.2.3.0,bus2=BBT343101.1.2.3.0,Phases=3,Linecode=BT809_BT809_4_3_4,Length=0.037499000,Units=km
new line.1064841 bus1=BBT343115.1.2.3.0,bus2=BBT343122.1.2.3.0,Phases=3,Linecode=BT803_BT803_4_3_4,Length=0.034727000,Units=km
new line.1064848 bus1=BBT343115.1.2.3.0,bus2=BBT343136.1.2.3.0,Phases=3,Linecode=BT810_BT810_4_3_4,Length=0.035708000,Units=km
new line.1064890 bus1=BBT343122.1.2.3.0,bus2=BBT343129.1.2.3.0,Phases=3,Linecode=BT803_BT803_4_3_4,Length=0.041610000,Units=km
new line.1064911 bus1=BBT343129.1.2.3.0,bus2=BBT2410096.1.2.3.0,Phases=3,Linecode=BT803_BT803_4_3_4,Length=0.033315000,Units=km
new line.13506935 bus1=BBT4220548.1.3.0,bus2=BBT4220555.1.3.0,Phases=2,Linecode=BT808_BT808_4_2_3,Length=0.022482000,Units=km
new line.13506970 bus1=BBT4220555.1.3.0,bus2=BBT4406643.1.3.0,Phases=2,Linecode=BT808_BT808_4_2_3,Length=0.040514000,Units=km
new line.1357721 bus1=BBT453960.1.2.3.0,bus2=BBT453967.1.2.3.0,Phases=3,Linecode=BT513_BT513_7_3_1,Length=0.000501000,Units=km
new line.1357728 bus1=BBT453967.1.2.3.0,bus2=BBT453974.1.2.3.0,Phases=3,Linecode=BT803_BT803_4_3_4,Length=0.029167000,Units=km
new line.1357756 bus1=BBT453974.1.2.3.0,bus2=BBT453981.1.2.3.0,Phases=3,Linecode=BT803_BT803_4_3_4,Length=0.037231000,Units=km
new line.1357763 bus1=BBT453974.1.2.3.0,bus2=BBT2290473.1.2.3.0,Phases=3,Linecode=BT803_BT803_4_3_4,Length=0.033629000,Units=km
new line.1357770 bus1=BBT2344688.1.2.3.0,bus2=BBT166620840.1.2.3.0,Phases=3,Linecode=BT810_BT810_4_3_4,Length=0.036907000,Units=km
new line.1357791 bus1=BBT453988.1.2.3.0,bus2=BBT453995.1.2.3.0,Phases=3,Linecode=BT803_BT803_4_3_4,Length=0.025070000,Units=km
new line.1357805 bus1=BBT453995.1.2.3.0,bus2=BBT454002.1.2.3.0,Phases=3,Linecode=BT810_BT810_4_3_4,Length=0.031919000,Units=km
new line.1357812 bus1=BBT166620846.1.2.3.0,bus2=BBT166620908.1.2.3.0,Phases=3,Linecode=BT803_BT803_4_3_4,Length=0.032770000,Units=km
new line.1357819 bus1=BBT453995.1.2.3.0,bus2=BBT2261724.1.2.3.0,Phases=3,Linecode=BT810_BT810_4_3_4,Length=0.038291000,Units=km
new line.1357854 bus1=BBT454002.1.2.3.0,bus2=BBT4606878.1.2.3.0,Phases=3,Linecode=BT810_BT810_4_3_4,Length=0.033135000,Units=km
new line.1357875 bus1=BBT166620859.1.2.3.0,bus2=BBT166620846.1.2.3.0,Phases=3,Linecode=BT810_BT810_4_3_4,Length=0.029167000,Units=km
new line.1357896 bus1=BBT166620842.1.2.3.0,bus2=BBT166620859.1.2.3.0,Phases=3,Linecode=BT810_BT810_4_3_4,Length=0.031398000,Units=km
new line.1357924 bus1=BBT166620843.1.2.3.0,bus2=BBT166620842.1.2.3.0,Phases=3,Linecode=BT810_BT810_4_3_4,Length=0.028314000,Units=km
new line.1357973 bus1=BBT2344702.1.2.3.0,bus2=BBT166620843.1.2.3.0,Phases=3,Linecode=BT803_BT803_4_3_4,Length=0.028314000,Units=km
new line.13581814 bus1=BBT4428931.1.2.0,bus2=BBT4428938.1.2.0,Phases=2,Linecode=BT808_BT808_4_2_3,Length=0.035029000,Units=km
new line.13581835 bus1=BBT4428938.1.2.0,bus2=BBT4428945.1.2.0,Phases=2,Linecode=BT808_BT808_4_2_3,Length=0.037029000,Units=km
new line.17150050 bus1=BBT117428.1.2.3.0,bus2=BBT50315337.1.2.3.0,Phases=3,Linecode=BT810_BT810_4_3_4,Length=0.029423000,Units=km
new line.17150071 bus1=BBT50315337.1.2.3.0,bus2=BBT50315589.1.2.3.0,Phases=3,Linecode=BT810_BT810_4_3_4,Length=0.045240000,Units=km
new line.17402841 bus1=BBT122083.1.2.3.0,bus2=BBT65132167.1.2.3.0,Phases=3,Linecode=BT810_BT810_4_3_4,Length=0.039866000,Units=km
new line.17402848 bus1=BBT65132167.1.2.3.0,bus2=BBT65137543.1.2.3.0,Phases=3,Linecode=BT810_BT810_4_3_4,Length=0.037015000,Units=km
new line.17402855 bus1=BBT65137543.1.2.3.0,bus2=BBT65132405.1.2.3.0,Phases=3,Linecode=BT810_BT810_4_3_4,Length=0.033255000,Units=km
new line.17402862 bus1=BBT65132405.1.2.3.0,bus2=BBT65132566.1.2.3.0,Phases=3,Linecode=BT810_BT810_4_3_4,Length=0.030476000,Units=km
new line.17402869 bus1=BBT65132566.1.2.3.0,bus2=BBT65132923.1.2.3.0,Phases=3,Linecode=BT810_BT810_4_3_4,Length=0.044029000,Units=km
new line.17402876 bus1=BBT65132923.1.2.3.0,bus2=BBT65132930.1.2.3.0,Phases=3,Linecode=BT810_BT810_4_3_4,Length=0.045713000,Units=km
new line.17402890 bus1=BBT65137543.1.2.3.0,bus2=BBT65138446.1.2.3.0,Phases=3,Linecode=BT810_BT810_4_3_4,Length=0.043029000,Units=km
new line.17402904 bus1=BBT65133280.1.2.3.0,bus2=BBT65133273.1.2.3.0,Phases=3,Linecode=BT810_BT810_4_3_4,Length=0.041778000,Units=km
new line.17402960 bus1=BBT65132930.1.2.3.0,bus2=BBT65134183.1.2.3.0,Phases=3,Linecode=BT810_BT810_4_3_4,Length=0.035750000,Units=km
new line.17402967 bus1=BBT65134183.1.2.3.0,bus2=BBT65133280.1.2.3.0,Phases=3,Linecode=BT810_BT810_4_3_4,Length=0.035750000,Units=km
new line.17402974 bus1=BBT65133280.1.2.3.0,bus2=BBT65134288.1.2.3.0,Phases=3,Linecode=BT810_BT810_4_3_4,Length=0.048723000,Units=km
new line.17402981 bus1=BBT2261108.1.2.3.0,bus2=BBT65134295.1.2.3.0,Phases=3,Linecode=BT810_BT810_4_3_4,Length=0.040179000,Units=km
new line.17402988 bus1=BBT65134295.1.2.3.0,bus2=BBT65134302.1.2.3.0,Phases=3,Linecode=BT810_BT810_4_3_4,Length=0.035750000,Units=km
new line.17402995 bus1=BBT65134302.1.2.3.0,bus2=BBT65134309.1.2.3.0,Phases=3,Linecode=BT810_BT810_4_3_4,Length=0.036416000,Units=km
new line.17403002 bus1=BBT65134309.1.2.3.0,bus2=BBT65134316.1.2.3.0,Phases=3,Linecode=BT810_BT810_4_3_4,Length=0.032029000,Units=km
new line.17403009 bus1=BBT65134316.1.2.3.0,bus2=BBT65134323.1.2.3.0,Phases=3,Linecode=BT810_BT810_4_3_4,Length=0.030377000,Units=km
new line.17403016 bus1=BBT65134295.1.2.3.0,bus2=BBT65134330.1.2.3.0,Phases=3,Linecode=BT810_BT810_4_3_4,Length=0.036703000,Units=km
new line.17403023 bus1=BBT65134330.1.2.3.0,bus2=BBT65134337.1.2.3.0,Phases=3,Linecode=BT810_BT810_4_3_4,Length=0.035750000,Units=km
new line.17403044 bus1=BBT122587.1.2.3.0,bus2=BBT65135989.1.2.3.0,Phases=3,Linecode=BT810_BT810_4_3_4,Length=0.033629000,Units=km
new line.17403051 bus1=BBT65135989.1.2.3.0,bus2=BBT65136045.1.2.3.0,Phases=3,Linecode=BT810_BT810_4_3_4,Length=0.028804000,Units=km
new line.17403058 bus1=BBT65136045.1.2.3.0,bus2=BBT65136143.1.2.3.0,Phases=3,Linecode=BT810_BT810_4_3_4,Length=0.028613000,Units=km
new line.17403065 bus1=BBT65136143.1.2.3.0,bus2=BBT65136150.1.2.3.0,Phases=3,Linecode=BT810_BT810_4_3_4,Length=0.031636000,Units=km
new line.17403086 bus1=BBT3880831.2.3.0,bus2=BBT65136297.2.3.0,Phases=2,Linecode=BT808_BT808_4_2_3,Length=0.031318000,Units=km
new line.17403093 bus1=BBT65136297.2.3.0,bus2=BBT65136304.2.3.0,Phases=2,Linecode=BT808_BT808_4_2_3,Length=0.044301000,Units=km
new line.17403100 bus1=BBT65136304.2.3.0,bus2=BBT65136458.2.3.0,Phases=2,Linecode=BT808_BT808_4_2_3,Length=0.030096000,Units=km
new line.17403107 bus1=BBT65136458.2.3.0,bus2=BBT65136528.2.3.0,Phases=2,Linecode=BT808_BT808_4_2_3,Length=0.032293000,Units=km
new line.12609577 bus1=BBT2989458.1.2.3.0,bus2=BBT2989465.1.2.3.0,Phases=3,Linecode=BT810_BT810_4_3_4,Length=0.034554000,Units=km
new line.13298328 bus1=BBT3502320.1.2.3.0,bus2=BBT148634.1.2.3.0,Phases=3,Linecode=BT803_BT803_4_3_4,Length=0.036416000,Units=km
new line.13298349 bus1=BBT3502313.1.2.3.0,bus2=BBT148620.1.2.3.0,Phases=3,Linecode=BT805_BT805_4_3_4,Length=0.037712000,Units=km
new line.13298356 bus1=BBT3502313.1.2.3.0,bus2=BBT148648.1.2.3.0,Phases=3,Linecode=BT803_BT803_4_3_4,Length=0.045560000,Units=km
new line.13298363 bus1=BBT3502313.1.2.3.0,bus2=BBT3502320.1.2.3.0,Phases=3,Linecode=BT803_BT803_4_3_4,Length=0.005102000,Units=km
new line.13388215 bus1=BBT3759024.1.2.3.0,bus2=BBT3759017.1.2.3.0,Phases=3,Linecode=BT803_BT803_4_3_4,Length=0.032816000,Units=km
new line.13388236 bus1=BBT3759031.1.2.3.0,bus2=BBT3759024.1.2.3.0,Phases=3,Linecode=BT803_BT803_4_3_4,Length=0.029423000,Units=km
new line.13388257 bus1=BBT4500296.1.2.3.0,bus2=BBT3759031.1.2.3.0,Phases=3,Linecode=BT803_BT803_4_3_4,Length=0.043296000,Units=km
new line.13485053 bus1=BBT4428854.1.3.0,bus2=BBT4428861.1.3.0,Phases=2,Linecode=BT808_BT808_4_2_3,Length=0.044963000,Units=km
new line.13485081 bus1=BBT4428959.1.2.0,bus2=BBT4428966.1.2.0,Phases=2,Linecode=BT808_BT808_4_2_3,Length=0.041503000,Units=km
new line.13485109 bus1=BBT4428952.1.2.0,bus2=BBT4428959.1.2.0,Phases=2,Linecode=BT808_BT808_4_2_3,Length=0.040042000,Units=km
new line.13485123 bus1=BBT4428917.1.2.0,bus2=BBT4428952.1.2.0,Phases=2,Linecode=BT808_BT808_4_2_3,Length=0.035026000,Units=km
new line.13485144 bus1=BBT4428910.1.2.0,bus2=BBT4428917.1.2.0,Phases=2,Linecode=BT808_BT808_4_2_3,Length=0.035034000,Units=km
new line.13485151 bus1=BBT4428903.1.2.0,bus2=BBT4428910.1.2.0,Phases=2,Linecode=BT521_BT521_7_2_1,Length=0.000501000,Units=km
new line.13485158 bus1=BBT4428910.1.2.0,bus2=BBT4428924.1.2.0,Phases=2,Linecode=BT808_BT808_4_2_3,Length=0.035077000,Units=km
new line.13485179 bus1=BBT4428924.1.2.0,bus2=BBT4428931.1.2.0,Phases=2,Linecode=BT808_BT808_4_2_3,Length=0.036081000,Units=km
new line.13485207 bus1=BBT4045198.1.2.3.0,bus2=BBT4045205.1.2.3.0,Phases=3,Linecode=BT514_BT514_7_3_1,Length=0.000501000,Units=km
new line.13645017 bus1=BBT4588391.1.2.3.0,bus2=BBT115797.1.2.3.0,Phases=3,Linecode=BT108_BT108_7_3_1,Length=0.012655000,Units=km
new line.13645752 bus1=BBT4589525.1.2.3.0,bus2=BBT4589532.1.2.3.0,Phases=3,Linecode=BT514_BT514_7_3_1,Length=0.000501000,Units=km
new line.13652059 bus1=BBT4606759.1.2.3.0,bus2=BBT4606766.1.2.3.0,Phases=3,Linecode=BT810_BT810_4_3_4,Length=0.045030000,Units=km
new line.13652122 bus1=BBT4606738.1.2.3.0,bus2=BBT4606745.1.2.3.0,Phases=3,Linecode=BT107_BT107_7_3_1,Length=0.013044000,Units=km
new line.13652150 bus1=BBT4606780.1.2.3.0,bus2=BBT4606787.1.2.3.0,Phases=3,Linecode=BT810_BT810_4_3_4,Length=0.033255000,Units=km
new line.13652185 bus1=BBT4606801.1.2.3.0,bus2=BBT4606808.1.2.3.0,Phases=3,Linecode=BT810_BT810_4_3_4,Length=0.035750000,Units=km
new line.13652206 bus1=BBT4606794.1.2.3.0,bus2=BBT4606801.1.2.3.0,Phases=3,Linecode=BT810_BT810_4_3_4,Length=0.026694000,Units=km
new line.13652227 bus1=BBT4606829.1.2.3.0,bus2=BBT4606836.1.2.3.0,Phases=3,Linecode=BT810_BT810_4_3_4,Length=0.030377000,Units=km
new line.13652311 bus1=BBT4606878.1.2.3.0,bus2=BBT152087125.1.2.3.0,Phases=3,Linecode=BT810_BT810_4_3_4,Length=0.024197000,Units=km
new line.13652367 bus1=BBT4606941.1.2.3.0,bus2=BBT4606948.1.2.3.0,Phases=3,Linecode=BT810_BT810_4_3_4,Length=0.036689000,Units=km
new line.13656861 bus1=BBT4620003.1.2.3.0,bus2=BBT118254.1.2.3.0,Phases=3,Linecode=BT803_BT803_4_3_4,Length=0.030377000,Units=km
new line.16563996 bus1=BBT29824384.2.3.0,bus2=BBT29824391.2.3.0,Phases=2,Linecode=BT808_BT808_4_2_3,Length=0.028472000,Units=km
new line.16564003 bus1=BBT29824391.2.3.0,bus2=BBT29824398.2.3.0,Phases=2,Linecode=BT808_BT808_4_2_3,Length=0.032907000,Units=km
new line.16691200 bus1=BBT101762.1.2.3.0,bus2=BBT45135071.1.2.3.0,Phases=3,Linecode=BT810_BT810_4_3_4,Length=0.029424000,Units=km
new line.17094792 bus1=BBT121922.1.2.3.0,bus2=BBT47386516.1.2.3.0,Phases=3,Linecode=BT810_BT810_4_3_4,Length=0.040179000,Units=km
new line.17094799 bus1=BBT47386516.1.2.3.0,bus2=BBT47386614.1.2.3.0,Phases=3,Linecode=BT810_BT810_4_3_4,Length=0.037015000,Units=km
new line.17095408 bus1=BBT47414166.1.2.0,bus2=BBT47414173.1.2.0,Phases=2,Linecode=BT513_BT513_7_2_1,Length=0.000501000,Units=km
new line.17095415 bus1=BBT47414173.1.2.0,bus2=BBT47414537.1.2.0,Phases=2,Linecode=BT807_BT807_4_2_3,Length=0.025010000,Units=km
new line.17095429 bus1=BBT47414537.1.2.0,bus2=BBT47414782.1.2.0,Phases=2,Linecode=BT807_BT807_4_2_3,Length=0.031334000,Units=km
new line.17095436 bus1=BBT47414782.1.2.0,bus2=BBT47414915.1.2.0,Phases=2,Linecode=BT808_BT808_4_2_3,Length=0.029423000,Units=km
new line.17095450 bus1=BBT47414782.1.2.0,bus2=BBT47415195.1.2.0,Phases=2,Linecode=BT808_BT808_4_2_3,Length=0.026881000,Units=km
new line.17095457 bus1=BBT47415195.1.2.0,bus2=BBT47415454.1.2.0,Phases=2,Linecode=BT808_BT808_4_2_3,Length=0.028030000,Units=km
new line.17095464 bus1=BBT47415454.1.2.0,bus2=BBT47415461.1.2.0,Phases=2,Linecode=BT808_BT808_4_2_3,Length=0.031636000,Units=km
new line.17095562 bus1=BBT47414173.1.2.0,bus2=BBT47417372.1.2.0,Phases=2,Linecode=BT807_BT807_4_2_3,Length=0.038343000,Units=km
new line.17095569 bus1=BBT47417372.1.2.0,bus2=BBT47417533.1.2.0,Phases=2,Linecode=BT808_BT808_4_2_3,Length=0.035750000,Units=km
new line.17095576 bus1=BBT47417533.1.2.0,bus2=BBT47417617.1.2.0,Phases=2,Linecode=BT808_BT808_4_2_3,Length=0.034496000,Units=km
new line.17095583 bus1=BBT47417617.1.2.0,bus2=BBT47417624.1.2.0,Phases=2,Linecode=BT808_BT808_4_2_3,Length=0.024052000,Units=km
new line.17095590 bus1=BBT47417624.1.2.0,bus2=BBT47417645.1.2.0,Phases=2,Linecode=BT808_BT808_4_2_3,Length=0.025972000,Units=km
new line.17095597 bus1=BBT47417645.1.2.0,bus2=BBT47417652.1.2.0,Phases=2,Linecode=BT808_BT808_4_2_3,Length=0.031636000,Units=km
new line.17095618 bus1=BBT47417372.1.2.0,bus2=BBT47417659.1.2.0,Phases=2,Linecode=BT808_BT808_4_2_3,Length=0.035750000,Units=km
new line.17095625 bus1=BBT47417659.1.2.0,bus2=BBT47417666.1.2.0,Phases=2,Linecode=BT808_BT808_4_2_3,Length=0.025010000,Units=km
new line.17095632 bus1=BBT121817.1.2.3.0,bus2=BBT47417778.1.2.3.0,Phases=3,Linecode=BT810_BT810_4_3_4,Length=0.036703000,Units=km
new line.17095639 bus1=BBT47417778.1.2.3.0,bus2=BBT47417820.1.2.3.0,Phases=3,Linecode=BT810_BT810_4_3_4,Length=0.032907000,Units=km
new line.17095646 bus1=BBT47417820.1.2.3.0,bus2=BBT47417827.1.2.3.0,Phases=3,Linecode=BT810_BT810_4_3_4,Length=0.036070000,Units=km
new line.17095660 bus1=BBT47417820.1.2.3.0,bus2=BBT47417834.1.2.3.0,Phases=3,Linecode=BT810_BT810_4_3_4,Length=0.041127000,Units=km
new line.17095681 bus1=BBT47417820.1.2.3.0,bus2=BBT47417960.1.2.3.0,Phases=3,Linecode=BT810_BT810_4_3_4,Length=0.041127000,Units=km
new line.17700005 bus1=BBT79779289.1.2.3.0,bus2=BBT116833.1.2.3.0,Phases=3,Linecode=BT803_BT803_4_3_4,Length=0.014878000,Units=km
new line.17832270 bus1=BBT132604285.1.2.3.0,bus2=BBT116994.1.2.3.0,Phases=3,Linecode=BT518_BT518_7_3_1,Length=0.000501000,Units=km
new line.18099985 bus1=BBT140115.1.2.3.0,bus2=BBT113675774.1.2.3.0,Phases=3,Linecode=BT108_BT107_7_3_1,Length=0.030012000,Units=km
new line.18714045 bus1=BBT148947699.1.2.3.0,bus2=BBT148947700.1.2.3.0,Phases=3,Linecode=BT513_BT513_7_3_1,Length=0.000501000,Units=km
new line.10228191 bus1=BBT4428427.1.2.0,bus2=BBT4428434.1.2.0,Phases=2,Linecode=BT808_BT808_4_2_3,Length=0.025309000,Units=km
new line.1099155 bus1=BBT354378.1.2.3.0,bus2=BBT354385.1.2.3.0,Phases=3,Linecode=BT803_BT803_4_3_4,Length=0.030688000,Units=km
new line.1099162 bus1=BBT354371.1.2.3.0,bus2=BBT354378.1.2.3.0,Phases=3,Linecode=BT307_BT307_7_3_1,Length=0.000501000,Units=km
new line.1099169 bus1=BBT354378.1.2.3.0,bus2=BBT354392.1.2.3.0,Phases=3,Linecode=BT803_BT803_4_3_4,Length=0.033150000,Units=km
new line.1099204 bus1=BBT354392.1.2.3.0,bus2=BBT354399.1.2.3.0,Phases=3,Linecode=BT803_BT803_4_3_4,Length=0.033614000,Units=km
new line.1099232 bus1=BBT354399.1.2.3.0,bus2=BBT354406.1.2.3.0,Phases=3,Linecode=BT809_BT809_4_3_4,Length=0.029744000,Units=km
new line.1099239 bus1=BBT354399.1.3.0,bus2=BBT2985559.1.3.0,Phases=2,Linecode=BT808_BT808_4_2_3,Length=0.045329000,Units=km
new line.1099253 bus1=BBT354406.2.3.0,bus2=BBT29824384.2.3.0,Phases=2,Linecode=BT808_BT808_4_2_3,Length=0.034190000,Units=km
new line.11370619 bus1=BBT2747216.1.2.3.0,bus2=BBT2747223.1.2.3.0,Phases=3,Linecode=BT514_BT514_7_3_1,Length=0.000501000,Units=km
new line.13373809 bus1=BBT4155392.1.2.3.0,bus2=BBT4155399.1.2.3.0,Phases=3,Linecode=BT810_BT810_4_3_4,Length=0.030096000,Units=km
new line.13376196 bus1=BBT3743085.1.2.3.0,bus2=BBT4430429.1.2.3.0,Phases=3,Linecode=BT803_BT803_4_3_4,Length=0.044616000,Units=km
new line.13535705 bus1=BBT4313536.1.2.3.0,bus2=BBT112731.1.2.3.0,Phases=3,Linecode=BT108_BT108_7_3_1,Length=0.020147000,Units=km
new line.13638388 bus1=BBT31349460.1.2.3.0,bus2=BBT148606.1.2.3.0,Phases=3,Linecode=BT805_BT805_4_3_4,Length=0.024093000,Units=km
new line.16627374 bus1=BBT3759031.1.2.3.0,bus2=BBT32345140.1.2.3.0,Phases=3,Linecode=BT803_BT803_4_3_4,Length=0.044063000,Units=km
new line.16627381 bus1=BBT32345140.1.3.0,bus2=BBT32345217.1.3.0,Phases=2,Linecode=BT808_BT808_4_2_3,Length=0.044706000,Units=km
new line.16627388 bus1=BBT32345217.1.3.0,bus2=BBT32345238.1.3.0,Phases=2,Linecode=BT808_BT808_4_2_3,Length=0.043296000,Units=km
new line.17890300 bus1=BBT111268.1.2.3.0,bus2=BBT91793270.1.2.3.0,Phases=3,Linecode=BT107_BT107_7_3_1,Length=0.029081000,Units=km
new line.17890307 bus1=BBT91793270.1.2.3.0,bus2=BBT91793396.1.2.3.0,Phases=3,Linecode=BT107_BT107_7_3_1,Length=0.009059000,Units=km
new line.17988734 bus1=BBT3759017.1.2.3.0,bus2=BBT109200856.1.2.3.0,Phases=3,Linecode=BT803_BT803_4_3_4,Length=0.026088000,Units=km
new line.17988741 bus1=BBT109200856.1.2.3.0,bus2=BBT109200863.1.2.3.0,Phases=3,Linecode=BT803_BT803_4_3_4,Length=0.032709000,Units=km
new line.17989217 bus1=BBT103232.1.2.3.0,bus2=BBT96181087.1.2.3.0,Phases=3,Linecode=BT810_BT810_4_3_4,Length=0.027555000,Units=km
new line.17990225 bus1=BBT109201192.1.2.3.0,bus2=BBT4500296.1.2.3.0,Phases=3,Linecode=BT518_BT518_7_3_1,Length=0.000501000,Units=km
new line.18076969 bus1=BBT23530.1.2.3.0,bus2=BBT104956987.1.2.3.0,Phases=3,Linecode=BT803_BT803_4_3_4,Length=0.016650000,Units=km
new line.18093741 bus1=BBT165833.1.2.0,bus2=BBT105743255.1.2.0,Phases=2,Linecode=BT808_BT808_4_2_3,Length=0.009004000,Units=km
new line.18093748 bus1=BBT105743255.1.2.0,bus2=BBT168751992.1.2.0,Phases=2,Linecode=BT808_BT808_4_2_3,Length=0.014872000,Units=km
new line.18296923 bus1=BBT117787784.1.2.3.0,bus2=BBT116882.1.2.3.0,Phases=3,Linecode=BT521_BT521_7_3_1,Length=0.000502000,Units=km
new line.18297147 bus1=BBT116791.1.2.3.0,bus2=BBT116728.1.2.3.0,Phases=3,Linecode=BT803_BT803_4_3_4,Length=0.030689000,Units=km
new line.18402749 bus1=BBT125261656.1.2.3.0,bus2=BBT125261663.1.2.3.0,Phases=3,Linecode=BT513_BT509_7_3_1,Length=0.000501000,Units=km
new line.18587724 bus1=BBT343136.1.2.3.0,bus2=BBT136575294.1.2.3.0,Phases=3,Linecode=BT803_BT803_4_3_4,Length=0.024341000,Units=km
new line.18587752 bus1=BBT136575294.1.2.3.0,bus2=BBT136575308.1.2.3.0,Phases=3,Linecode=BT803_BT803_4_3_4,Length=0.043584000,Units=km
new line.18596306 bus1=BBT136859844.1.2.3.0,bus2=BBT136860110.1.2.3.0,Phases=3,Linecode=BT809_BT809_4_3_4,Length=0.005660000,Units=km
new line.18596313 bus1=BBT136859914.1.2.3.0,bus2=BBT122881.1.2.3.0,Phases=3,Linecode=BT809_BT809_4_3_4,Length=0.024093000,Units=km
new line.18596320 bus1=BBT136860110.1.2.3.0,bus2=BBT136859914.1.2.3.0,Phases=3,Linecode=BT809_BT809_4_3_4,Length=0.005002000,Units=km
new line.18750440 bus1=BBT2146602.1.2.3.0,bus2=BBT149947853.1.2.3.0,Phases=3,Linecode=BT803_BT803_4_3_4,Length=0.028804000,Units=km
new line.18750441 bus1=BBT149947853.1.2.3.0,bus2=BBT149947854.1.2.3.0,Phases=3,Linecode=BT803_BT803_4_3_4,Length=0.028243000,Units=km
new line.18830490 bus1=BBT152420469.1.2.3.0,bus2=BBT152420470.1.2.3.0,Phases=3,Linecode=BT513_BT513_7_3_1,Length=0.000501000,Units=km
new line.18830491 bus1=BBT152420498.1.2.3.0,bus2=BBT152420499.1.2.3.0,Phases=3,Linecode=BT513_BT513_7_3_1,Length=0.000501000,Units=km
new line.18830492 bus1=BBT152420522.1.2.3.0,bus2=BBT152420523.1.2.3.0,Phases=3,Linecode=BT513_BT513_7_3_1,Length=0.000501000,Units=km
new line.18830493 bus1=BBT152420470.1.2.3.0,bus2=BBT152420561.1.2.3.0,Phases=3,Linecode=BT805_BT805_4_3_4,Length=0.044166000,Units=km
new line.18830494 bus1=BBT152420470.1.2.3.0,bus2=BBT152420567.1.2.3.0,Phases=3,Linecode=BT805_BT805_4_3_4,Length=0.045899000,Units=km
new line.18830495 bus1=BBT152420470.1.2.3.0,bus2=BBT152420568.1.2.3.0,Phases=3,Linecode=BT803_BT803_4_3_4,Length=0.020257000,Units=km
new line.18830498 bus1=BBT152420561.1.2.3.0,bus2=BBT152420636.1.2.3.0,Phases=3,Linecode=BT803_BT803_4_3_4,Length=0.021480000,Units=km
new line.18830500 bus1=BBT152420567.1.2.3.0,bus2=BBT152420644.1.2.3.0,Phases=3,Linecode=BT803_BT803_4_3_4,Length=0.025249000,Units=km
new line.18830501 bus1=BBT152420523.1.2.3.0,bus2=BBT152420650.1.2.3.0,Phases=3,Linecode=BT805_BT805_4_3_4,Length=0.044740000,Units=km
new line.18830502 bus1=BBT152420650.1.2.3.0,bus2=BBT152420656.1.2.3.0,Phases=3,Linecode=BT803_BT803_4_3_4,Length=0.019008000,Units=km
new line.18830503 bus1=BBT152420523.1.2.3.0,bus2=BBT152420662.1.2.3.0,Phases=3,Linecode=BT805_BT805_4_3_4,Length=0.024423000,Units=km
new line.18830504 bus1=BBT152420499.1.2.3.0,bus2=BBT152420663.1.2.3.0,Phases=3,Linecode=BT805_BT805_4_3_4,Length=0.045812000,Units=km
new line.18830505 bus1=BBT152420499.1.2.3.0,bus2=BBT152420666.1.2.3.0,Phases=3,Linecode=BT805_BT805_4_3_4,Length=0.042959000,Units=km
new line.18830506 bus1=BBT152420666.1.2.3.0,bus2=BBT152420667.1.2.3.0,Phases=3,Linecode=BT803_BT803_4_3_4,Length=0.022571000,Units=km
new line.18830507 bus1=BBT152420523.1.2.3.0,bus2=BBT152420668.1.2.3.0,Phases=3,Linecode=BT803_BT803_4_3_4,Length=0.030096000,Units=km
new line.18853401 bus1=BBT146254.1.2.3.0,bus2=BBT153077947.1.2.3.0,Phases=3,Linecode=BT805_BT805_4_3_4,Length=0.034847000,Units=km
new line.18935306 bus1=BBT112857.1.2.3.0,bus2=BBT101776.1.2.3.0,Phases=3,Linecode=BT803_BT803_4_3_4,Length=0.032075000,Units=km
new line.18976977 bus1=BBT25728.1.2.3.0,bus2=BBT156825004.1.2.3.0,Phases=3,Linecode=BT803_BT803_4_3_4,Length=0.018035000,Units=km
new line.19575357 bus1=BBT21094.1.2.3.0,bus2=BBT176035596.1.2.3.0,Phases=3,Linecode=BT815_BT815_4_3_4,Length=0.007074000,Units=km
new line.246891 bus1=BBT2188630.1.2.3.0,bus2=BBT93026.1.2.3.0,Phases=3,Linecode=BT803_BT803_4_3_4,Length=0.039828000,Units=km
new line.247059 bus1=BBT93026.1.2.3.0,bus2=BBT93068.1.2.3.0,Phases=3,Linecode=BT803_BT803_4_3_4,Length=0.034146000,Units=km
new line.18714046 bus1=BBT148947730.1.2.3.0,bus2=BBT148947731.1.2.3.0,Phases=3,Linecode=BT513_BT513_7_3_1,Length=0.000501000,Units=km
new line.18714048 bus1=BBT148947744.1.2.3.0,bus2=BBT148947745.1.2.3.0,Phases=3,Linecode=BT513_BT513_7_3_1,Length=0.000501000,Units=km
new line.18714050 bus1=BBT148947803.1.2.3.0,bus2=BBT148947804.1.2.3.0,Phases=3,Linecode=BT513_BT513_7_3_1,Length=0.000501000,Units=km
new line.18714417 bus1=BBT148947804.1.2.3.0,bus2=BBT148955433.1.2.3.0,Phases=3,Linecode=BT805_BT805_4_3_4,Length=0.044029000,Units=km
new line.18714420 bus1=BBT148947804.1.2.3.0,bus2=BBT148955527.1.2.3.0,Phases=3,Linecode=BT805_BT805_4_3_4,Length=0.044963000,Units=km
new line.18714421 bus1=BBT148947745.1.2.3.0,bus2=BBT148955545.1.2.3.0,Phases=3,Linecode=BT805_BT805_4_3_4,Length=0.022145000,Units=km
new line.18714422 bus1=BBT148955545.1.2.3.0,bus2=BBT148955606.1.2.3.0,Phases=3,Linecode=BT803_BT803_4_3_4,Length=0.025643000,Units=km
new line.18714427 bus1=BBT148947731.1.2.3.0,bus2=BBT148955898.1.2.3.0,Phases=3,Linecode=BT805_BT805_4_3_4,Length=0.043192000,Units=km
new line.18714432 bus1=BBT148947731.1.2.3.0,bus2=BBT148956121.1.2.3.0,Phases=3,Linecode=BT805_BT805_4_3_4,Length=0.021596000,Units=km
new line.18714434 bus1=BBT148947700.1.2.3.0,bus2=BBT148956127.1.2.3.0,Phases=3,Linecode=BT805_BT805_4_3_4,Length=0.043400000,Units=km
new line.18714439 bus1=BBT148956127.1.2.3.0,bus2=BBT148956180.1.2.3.0,Phases=3,Linecode=BT803_BT803_4_3_4,Length=0.029167000,Units=km
new line.18714440 bus1=BBT148947745.1.2.3.0,bus2=BBT148956448.1.2.3.0,Phases=3,Linecode=BT805_BT805_4_3_4,Length=0.044290000,Units=km
new line.18714441 bus1=BBT148956448.1.2.3.0,bus2=BBT148956467.1.2.3.0,Phases=3,Linecode=BT803_BT803_4_3_4,Length=0.033540000,Units=km
new line.18714442 bus1=BBT148956121.1.2.3.0,bus2=BBT148956482.1.2.3.0,Phases=3,Linecode=BT803_BT803_4_3_4,Length=0.029559000,Units=km
new line.18714446 bus1=BBT148956121.1.2.3.0,bus2=BBT148956500.1.2.3.0,Phases=3,Linecode=BT803_BT803_4_3_4,Length=0.039677000,Units=km
new line.18714451 bus1=BBT148956500.1.2.3.0,bus2=BBT148956574.1.2.3.0,Phases=3,Linecode=BT803_BT803_4_3_4,Length=0.036785000,Units=km
new line.18893142 bus1=BBT122811.1.2.0,bus2=BBT154260021.1.2.0,Phases=2,Linecode=BT811_BT811_4_2_3,Length=0.018982000,Units=km
new line.18941334 bus1=BBT148955433.1.2.3.0,bus2=BBT2410117.1.2.3.0,Phases=3,Linecode=BT803_BT803_4_3_4,Length=0.042172000,Units=km
new line.18941484 bus1=BBT4500289.1.2.3.0,bus2=BBT155815300.1.2.3.0,Phases=3,Linecode=BT803_BT803_4_3_4,Length=0.026918000,Units=km
new line.18941485 bus1=BBT155815300.1.2.3.0,bus2=BBT155815301.1.2.3.0,Phases=3,Linecode=BT803_BT803_4_3_4,Length=0.030623000,Units=km
new line.18941486 bus1=BBT155815301.1.2.3.0,bus2=BBT155815302.1.2.3.0,Phases=3,Linecode=BT803_BT803_4_3_4,Length=0.030012000,Units=km
new line.19267567 bus1=BBT166620764.1.2.3.0,bus2=BBT2188630.1.2.3.0,Phases=3,Linecode=BT518_BT518_7_3_1,Length=0.000501000,Units=km
new line.19291403 bus1=BBT167265721.1.2.3.0,bus2=BBT114971.1.2.3.0,Phases=3,Linecode=BT803_BT803_4_3_4,Length=0.004002000,Units=km
new line.19291426 bus1=BBT167265721.1.2.3.0,bus2=BBT167266019.1.2.3.0,Phases=3,Linecode=BT803_BT803_4_3_4,Length=0.029440000,Units=km
new line.19343263 bus1=BBT168751992.1.2.0,bus2=BBT105743514.1.2.0,Phases=2,Linecode=BT808_BT808_4_2_3,Length=0.018448000,Units=km
new line.19399490 bus1=BBT108790.1.2.0,bus2=BBT170412017.1.2.0,Phases=2,Linecode=BT807_BT807_4_2_3,Length=0.032907000,Units=km
new line.19517231 bus1=BBT174109857.1.2.3.0,bus2=BBT112717.1.2.3.0,Phases=3,Linecode=BT108_BT108_7_3_1,Length=0.027618000,Units=km
new line.260499 bus1=BBT97534.1.2.3.0,bus2=BBT2065101.1.2.3.0,Phases=3,Linecode=BT810_BT810_4_3_4,Length=0.043920000,Units=km
new line.260520 bus1=BBT97541.1.2.3.0,bus2=BBT97534.1.2.3.0,Phases=3,Linecode=BT803_BT803_4_3_4,Length=0.023047000,Units=km
new line.260562 bus1=BBT97555.1.2.3.0,bus2=BBT97541.1.2.3.0,Phases=3,Linecode=BT803_BT803_4_3_4,Length=0.023110000,Units=km
new line.260569 bus1=BBT97555.1.2.0,bus2=BBT97583.1.2.0,Phases=2,Linecode=BT106_BT106_7_2_1,Length=0.033284000,Units=km
new line.260604 bus1=BBT97562.1.2.3.0,bus2=BBT97548.1.2.3.0,Phases=3,Linecode=BT107_BT108_7_3_1,Length=0.035130000,Units=km
new line.260611 bus1=BBT97562.1.2.3.0,bus2=BBT97555.1.2.3.0,Phases=3,Linecode=BT108_BT107_7_3_1,Length=0.007078000,Units=km
new line.260618 bus1=BBT97562.1.2.3.0,bus2=BBT97569.1.2.3.0,Phases=3,Linecode=BT107_BT108_7_3_1,Length=0.007284000,Units=km
new line.260660 bus1=BBT97569.1.2.3.0,bus2=BBT97576.1.2.3.0,Phases=3,Linecode=BT107_BT108_7_3_1,Length=0.030690000,Units=km
new line.260674 bus1=BBT97576.1.2.3.0,bus2=BBT97590.1.2.3.0,Phases=3,Linecode=BT107_BT108_7_3_1,Length=0.035750000,Units=km
new line.260723 bus1=BBT97597.1.2.3.0,bus2=BBT97562.1.2.3.0,Phases=3,Linecode=BT108_BT107_7_3_1,Length=0.028188000,Units=km
new line.264888 bus1=BBT98906.1.2.3.0,bus2=BBT98899.1.2.3.0,Phases=3,Linecode=BT107_BT108_7_3_1,Length=0.033889000,Units=km
new line.264937 bus1=BBT98920.1.2.3.0,bus2=BBT98913.1.2.3.0,Phases=3,Linecode=BT108_BT108_7_3_1,Length=0.031968000,Units=km
new line.264944 bus1=BBT98892.1.2.3.0,bus2=BBT98920.1.2.3.0,Phases=3,Linecode=BT518_BT518_7_3_1,Length=0.000501000,Units=km
new line.264951 bus1=BBT98920.1.2.3.0,bus2=BBT98927.1.2.3.0,Phases=3,Linecode=BT108_BT108_7_3_1,Length=0.030689000,Units=km
new line.264993 bus1=BBT98927.1.2.3.0,bus2=BBT98906.1.2.3.0,Phases=3,Linecode=BT107_BT108_7_3_1,Length=0.034226000,Units=km
new line.265000 bus1=BBT98927.1.2.3.0,bus2=BBT98934.1.2.3.0,Phases=3,Linecode=BT108_BT108_7_3_1,Length=0.027525000,Units=km
new line.265014 bus1=BBT98934.1.2.3.0,bus2=BBT98941.1.2.3.0,Phases=3,Linecode=BT108_BT108_7_3_1,Length=0.030689000,Units=km
new line.265063 bus1=BBT98941.1.2.3.0,bus2=BBT98948.1.2.3.0,Phases=3,Linecode=BT108_BT108_7_3_1,Length=0.030689000,Units=km
new line.269522 bus1=BBT100278.1.2.3.0,bus2=BBT100285.1.2.3.0,Phases=3,Linecode=BT803_BT803_4_3_4,Length=0.029425000,Units=km
new line.269557 bus1=BBT100292.1.2.3.0,bus2=BBT100271.1.2.3.0,Phases=3,Linecode=BT108_BT108_7_3_1,Length=0.026605000,Units=km
new line.269592 bus1=BBT100299.1.2.3.0,bus2=BBT100292.1.2.3.0,Phases=3,Linecode=BT108_BT108_7_3_1,Length=0.027549000,Units=km
new line.269620 bus1=BBT100306.1.2.3.0,bus2=BBT100348.1.2.3.0,Phases=3,Linecode=BT809_BT809_4_3_4,Length=0.035780000,Units=km
new line.269648 bus1=BBT100313.1.2.3.0,bus2=BBT100306.1.2.3.0,Phases=3,Linecode=BT809_BT809_4_3_4,Length=0.042398000,Units=km
new line.269676 bus1=BBT100320.1.2.3.0,bus2=BBT100299.1.2.3.0,Phases=3,Linecode=BT108_BT108_7_3_1,Length=0.028496000,Units=km
new line.269683 bus1=BBT100257.1.2.3.0,bus2=BBT100320.1.2.3.0,Phases=3,Linecode=BT518_BT518_7_3_1,Length=0.000501000,Units=km
new line.269690 bus1=BBT100320.1.2.3.0,bus2=BBT100334.1.2.3.0,Phases=3,Linecode=BT108_BT108_7_3_1,Length=0.008555000,Units=km
new line.269711 bus1=BBT100327.1.2.3.0,bus2=BBT100313.1.2.3.0,Phases=3,Linecode=BT810_BT810_4_3_4,Length=0.031967000,Units=km
new line.269739 bus1=BBT100334.1.2.3.0,bus2=BBT100327.1.2.3.0,Phases=3,Linecode=BT803_BT803_4_3_4,Length=0.009225000,Units=km
new line.269753 bus1=BBT100334.1.2.3.0,bus2=BBT100341.1.2.3.0,Phases=3,Linecode=BT108_BT108_7_3_1,Length=0.022164000,Units=km
new line.269788 bus1=BBT100453.1.2.3.0,bus2=BBT2385862.1.2.3.0,Phases=3,Linecode=BT108_BT107_7_3_1,Length=0.031637000,Units=km
new line.269809 bus1=BBT100341.1.2.3.0,bus2=BBT2386016.1.2.3.0,Phases=3,Linecode=BT108_BT108_7_3_1,Length=0.034199000,Units=km
new line.269823 bus1=BBT2386016.1.2.3.0,bus2=BBT2685021.1.2.3.0,Phases=3,Linecode=BT108_BT108_7_3_1,Length=0.030688000,Units=km
new line.17877133 bus1=BBT91168947.1.2.3.0,bus2=BBT136468.1.2.3.0,Phases=3,Linecode=BT803_BT803_4_3_4,Length=0.009439000,Units=km
new line.17966460 bus1=BBT142754.1.2.3.0,bus2=BBT108340542.1.2.3.0,Phases=3,Linecode=BT803_BT803_4_3_4,Length=0.026940000,Units=km