new line.SBT_10018 bus1=BBT2878.1.2.0,bus2=BBT2864.1.2.0,Phases=2,Linecode=BT107_BT107_7_2_1_2,Length=0.041446000,Units=km
new line.SBT_100199IP bus1=BBT89608.1.2.0,bus2=BBT5000100199.1.2.0,Phases=2,Linecode=IP_2,Length=0.005530000,Units=km
new line.SBT_100220IP bus1=BBT89622.1.2.0,bus2=BBT5000100220.1.2.0,Phases=2,Linecode=IP_2,Length=0.005530000,Units=km
new line.SBT_100241IP bus1=BBT89629.1.2.0,bus2=BBT5000100241.1.2.0,Phases=2,Linecode=IP_2,Length=0.005530000,Units=km
new line.SBT_10024785 bus1=BBT3739429.1.2.3.0,bus2=BBT3739436.1.2.3.0,Phases=3,Linecode=BT810_BT810_4_3_4_3,Length=0.038480000,Units=km
new line.SBT_10024855 bus1=BBT3739415.1.2.3.0,bus2=BBT3739422.1.2.3.0,Phases=3,Linecode=BT810_BT810_4_3_4_3,Length=0.032396000,Units=km
new line.SBT_10024904 bus1=BBT3739408.1.2.3.0,bus2=BBT3739415.1.2.3.0,Phases=3,Linecode=BT803_BT803_4_3_4_3,Length=0.031788000,Units=km
new line.SBT_10024925 bus1=BBT3739380.1.2.3.0,bus2=BBT3739387.1.2.3.0,Phases=3,Linecode=BT803_BT803_4_3_4_3,Length=0.028238000,Units=km
new line.SBT_10024932 bus1=BBT3739380.1.2.3.0,bus2=BBT3739457.1.2.3.0,Phases=3,Linecode=BT810_BT810_4_3_4_3,Length=0.033429000,Units=km
new line.SBT_10025 bus1=BBT2843.1.2.0,bus2=BBT2878.1.2.0,Phases=2,Linecode=BT313_BT313_7_2_1_2,Length=0.000501000,Units=km
new line.SBT_10025450 bus1=BBT3739387.1.2.3.0,bus2=BBT3739394.1.2.3.0,Phases=3,Linecode=BT803_BT803_4_3_4_3,Length=0.026006000,Units=km
new line.SBT_10025471 bus1=BBT3500575.1.2.3.0,bus2=BBT3500582.1.2.3.0,Phases=3,Linecode=BT810_BT810_4_3_4_3,Length=0.019240000,Units=km
new line.SBT_100262IP bus1=BBT89643.1.2.0,bus2=BBT5000100262.1.2.0,Phases=2,Linecode=IP_2,Length=0.005530000,Units=km
new line.SBT_10161656 bus1=BBT2950291.1.2.0,bus2=BBT2950298.1.2.0,Phases=2,Linecode=BT803_BT803_4_2_4_2,Length=0.026932000,Units=km
new line.SBT_101620IP bus1=BBT90784.1.2.0,bus2=BBT5000101620.1.2.0,Phases=2,Linecode=IP_2,Length=0.002840000,Units=km
new line.SBT_10162335 bus1=BBT2953154.1.2.3.0,bus2=BBT2953168.1.2.3.0,Phases=3,Linecode=BT805_BT805_4_3_4_3,Length=0.044932000,Units=km
new line.SBT_10162342 bus1=BBT2953154.1.2.3.0,bus2=BBT2953217.1.2.3.0,Phases=3,Linecode=BT803_BT803_4_3_4_3,Length=0.020129000,Units=km
new line.SBT_10162370 bus1=BBT2953217.1.2.3.0,bus2=BBT2953238.1.2.3.0,Phases=3,Linecode=BT803_BT803_4_3_4_3,Length=0.035136000,Units=km
new line.SBT_10162391 bus1=BBT2953238.1.2.3.0,bus2=BBT2953252.1.2.3.0,Phases=3,Linecode=BT803_BT803_4_3_4_3,Length=0.040506000,Units=km
new line.SBT_10162468 bus1=BBT2953112.1.2.3.0,bus2=BBT2953154.1.2.3.0,Phases=3,Linecode=BT805_BT805_4_3_4_3,Length=0.035813000,Units=km
new line.SBT_10162517 bus1=BBT2953077.1.2.3.0,bus2=BBT2953112.1.2.3.0,Phases=3,Linecode=BT805_BT805_4_3_4_3,Length=0.036628000,Units=km
new line.SBT_10162524 bus1=BBT2953070.1.2.3.0,bus2=BBT2953077.1.2.3.0,Phases=3,Linecode=BT513_BT513_7_3_1_3,Length=0.000501000,Units=km
new line.SBT_10162531 bus1=BBT2953077.1.2.3.0,bus2=BBT2955625.1.2.3.0,Phases=3,Linecode=BT805_BT805_4_3_4_3,Length=0.033623000,Units=km
new line.SBT_10162552 bus1=BBT2955625.1.2.3.0,bus2=BBT2955639.1.2.3.0,Phases=3,Linecode=BT805_BT805_4_3_4_3,Length=0.034140000,Units=km
new line.SBT_10162755 bus1=BBT2953987.1.2.0,bus2=BBT2953994.1.2.0,Phases=2,Linecode=BT803_BT803_4_2_4_2,Length=0.045021000,Units=km
new line.SBT_10162832 bus1=BBT2953994.1.2.0,bus2=BBT2954001.1.2.0,Phases=2,Linecode=BT803_BT803_4_2_4_2,Length=0.044191000,Units=km
new line.SBT_10162958 bus1=BBT2954001.1.2.0,bus2=BBT2954008.1.2.0,Phases=2,Linecode=BT803_BT803_4_2_4_2,Length=0.065322000,Units=km
new line.SBT_10164064 bus1=BBT2955639.1.2.3.0,bus2=BBT2955653.1.2.3.0,Phases=3,Linecode=BT805_BT805_4_3_4_3,Length=0.035363000,Units=km
new line.SBT_10164176 bus1=BBT2955653.1.2.3.0,bus2=BBT2955660.1.2.3.0,Phases=3,Linecode=BT803_BT803_4_3_4_3,Length=0.037130000,Units=km
new line.SBT_101641IP bus1=BBT90791.1.2.0,bus2=BBT5000101641.1.2.0,Phases=2,Linecode=IP_2,Length=0.002840000,Units=km
new line.SBT_10164239 bus1=BBT2955660.1.2.3.0,bus2=BBT2955681.1.2.3.0,Phases=3,Linecode=BT803_BT803_4_3_4_3,Length=0.035349000,Units=km
new line.SBT_10164617 bus1=BBT2952139.1.2.3.0,bus2=BBT2952167.1.2.3.0,Phases=3,Linecode=BT803_BT803_4_3_4_3,Length=0.037130000,Units=km
new line.SBT_10165016 bus1=BBT2952083.1.2.3.0,bus2=BBT2952139.1.2.3.0,Phases=3,Linecode=BT803_BT803_4_3_4_3,Length=0.035363000,Units=km
new line.SBT_10165107 bus1=BBT2951572.1.2.3.0,bus2=BBT2952083.1.2.3.0,Phases=3,Linecode=BT805_BT805_4_3_4_3,Length=0.040370000,Units=km
new line.SBT_10165114 bus1=BBT2951565.1.2.3.0,bus2=BBT2951572.1.2.3.0,Phases=3,Linecode=BT518_BT518_7_3_1_3,Length=0.000501000,Units=km
new line.SBT_10165121 bus1=BBT2951572.1.2.3.0,bus2=BBT2951810.1.2.3.0,Phases=3,Linecode=BT805_BT805_4_3_4_3,Length=0.031312000,Units=km
new line.SBT_10165226 bus1=BBT2951810.1.2.3.0,bus2=BBT2951831.1.2.3.0,Phases=3,Linecode=BT803_BT803_4_3_4_3,Length=0.035519000,Units=km
new line.SBT_10165310 bus1=BBT2951831.1.2.3.0,bus2=BBT2951838.1.2.3.0,Phases=3,Linecode=BT803_BT803_4_3_4_3,Length=0.034721000,Units=km
new line.SBT_10165835 bus1=BBT2951845.1.2.3.0,bus2=BBT3578667.1.2.3.0,Phases=3,Linecode=BT810_BT810_4_3_4_3,Length=0.027301000,Units=km
new line.SBT_101662IP bus1=BBT90798.1.2.0,bus2=BBT5000101662.1.2.0,Phases=2,Linecode=IP_2,Length=0.002840000,Units=km
new line.SBT_10167319 bus1=BBT158265478.1.2.0,bus2=BBT2952524.1.2.0,Phases=2,Linecode=BT803_BT803_4_2_4_2,Length=0.010443000,Units=km
new line.SBT_10167326 bus1=BBT2952517.1.2.0,bus2=BBT158265478.1.2.0,Phases=2,Linecode=BT518_BT518_7_2_1_2,Length=0.000501000,Units=km
new line.SBT_10167333 bus1=BBT2952524.1.2.0,bus2=BBT2952545.1.2.0,Phases=2,Linecode=BT803_BT803_4_2_4_2,Length=0.044021000,Units=km
new line.SBT_10167403 bus1=BBT2952545.1.2.0,bus2=BBT2952552.1.2.0,Phases=2,Linecode=BT803_BT803_4_2_4_2,Length=0.036257000,Units=km
new line.SBT_101683IP bus1=BBT90805.1.2.0,bus2=BBT5000101683.1.2.0,Phases=2,Linecode=IP_2,Length=0.002840000,Units=km
new line.SBT_10168523 bus1=BBT2952979.1.2.0,bus2=BBT2952993.1.2.0,Phases=2,Linecode=BT803_BT803_4_2_4_2,Length=0.034663000,Units=km
new line.SBT_10168894 bus1=BBT2952993.1.2.0,bus2=BBT2953000.1.2.0,Phases=2,Linecode=BT803_BT803_4_2_4_2,Length=0.047445000,Units=km
new line.SBT_10168985 bus1=BBT2953000.1.2.0,bus2=BBT2953007.1.2.0,Phases=2,Linecode=BT803_BT803_4_2_4_2,Length=0.058151000,Units=km
new line.SBT_10169006 bus1=BBT2953007.1.2.0,bus2=BBT2953014.1.2.0,Phases=2,Linecode=BT803_BT803_4_2_4_2,Length=0.036805000,Units=km
new line.SBT_10169048 bus1=BBT2953014.1.2.0,bus2=BBT2953028.1.2.0,Phases=2,Linecode=BT803_BT803_4_2_4_2,Length=0.040617000,Units=km
new line.SBT_10169356 bus1=BBT2953028.1.2.0,bus2=BBT3998583.1.2.0,Phases=2,Linecode=BT810_BT810_4_2_4_2,Length=0.042730000,Units=km
new line.SBT_101704IP bus1=BBT90812.1.2.0,bus2=BBT5000101704.1.2.0,Phases=2,Linecode=IP_2,Length=0.002840000,Units=km
new line.SBT_101725IP bus1=BBT90826.1.2.0,bus2=BBT5000101725.1.2.0,Phases=2,Linecode=IP_2,Length=0.002840000,Units=km
new line.SBT_10173745 bus1=BBT2953959.1.2.0,bus2=BBT2953987.1.2.0,Phases=2,Linecode=BT803_BT803_4_2_4_2,Length=0.027319000,Units=km
new line.SBT_10173871 bus1=BBT2953931.1.2.0,bus2=BBT2953959.1.2.0,Phases=2,Linecode=BT803_BT803_4_2_4_2,Length=0.035743000,Units=km
new line.SBT_10173948 bus1=BBT2953854.1.2.0,bus2=BBT2953931.1.2.0,Phases=2,Linecode=BT803_BT803_4_2_4_2,Length=0.039455000,Units=km
new line.SBT_10173955 bus1=BBT2953847.1.2.0,bus2=BBT2953854.1.2.0,Phases=2,Linecode=BT513_BT513_7_2_1_2,Length=0.000501000,Units=km
new line.SBT_10173962 bus1=BBT2953854.1.2.0,bus2=BBT2954204.1.2.0,Phases=2,Linecode=BT803_BT803_4_2_4_2,Length=0.042812000,Units=km
new line.SBT_101746IP bus1=BBT90833.1.2.0,bus2=BBT5000101746.1.2.0,Phases=2,Linecode=IP_2,Length=0.002840000,Units=km
new line.SBT_10175194 bus1=BBT2954204.1.2.0,bus2=BBT2954729.1.2.0,Phases=2,Linecode=BT803_BT803_4_2_4_2,Length=0.071863000,Units=km
new line.SBT_100283IP bus1=BBT89650.1.2.0,bus2=BBT5000100283.1.2.0,Phases=2,Linecode=IP_2,Length=0.005530000,Units=km
new line.SBT_100304IP bus1=BBT89664.1.2.0,bus2=BBT5000100304.1.2.0,Phases=2,Linecode=IP_2,Length=0.005530000,Units=km
new line.SBT_10032 bus1=BBT2878.1.2.0,bus2=BBT2885.1.2.0,Phases=2,Linecode=BT107_BT107_7_2_1_2,Length=0.039821000,Units=km
new line.SBT_100325IP bus1=BBT89671.1.2.0,bus2=BBT5000100325.1.2.0,Phases=2,Linecode=IP_2,Length=0.005530000,Units=km
new line.SBT_100346IP bus1=BBT89678.1.2.0,bus2=BBT5000100346.1.2.0,Phases=2,Linecode=IP_2,Length=0.005530000,Units=km
new line.SBT_100367IP bus1=BBT89685.1.2.0,bus2=BBT5000100367.1.2.0,Phases=2,Linecode=IP_2,Length=0.005530000,Units=km
new line.SBT_100388IP bus1=BBT89734.1.2.0,bus2=BBT5000100388.1.2.0,Phases=2,Linecode=IP_2,Length=0.002840000,Units=km
new line.SBT_101473IP bus1=BBT90567.1.2.0,bus2=BBT5000101473.1.2.0,Phases=2,Linecode=IP_2,Length=0.002840000,Units=km
new line.SBT_101494IP bus1=BBT90574.1.2.0,bus2=BBT5000101494.1.2.0,Phases=2,Linecode=IP_2,Length=0.002840000,Units=km
new line.SBT_10151457 bus1=BBT2947792.1.2.0,bus2=BBT2947946.1.2.0,Phases=2,Linecode=BT803_BT803_4_2_4_2,Length=0.035236000,Units=km
new line.SBT_10151555 bus1=BBT2947946.1.2.0,bus2=BBT2947960.1.2.0,Phases=2,Linecode=BT803_BT803_4_2_4_2,Length=0.043942000,Units=km
new line.SBT_101515IP bus1=BBT90581.1.2.0,bus2=BBT5000101515.1.2.0,Phases=2,Linecode=IP_2,Length=0.002840000,Units=km
new line.SBT_10152514 bus1=BBT2967238.1.2.0,bus2=BBT2967245.1.2.0,Phases=2,Linecode=BT803_BT803_4_2_4_2,Length=0.033623000,Units=km
new line.SBT_10152535 bus1=BBT2967231.1.2.0,bus2=BBT2967238.1.2.0,Phases=2,Linecode=BT803_BT803_4_2_4_2,Length=0.030090000,Units=km
new line.SBT_10152556 bus1=BBT2967182.1.2.0,bus2=BBT2967231.1.2.0,Phases=2,Linecode=BT803_BT803_4_2_4_2,Length=0.040506000,Units=km
new line.SBT_10152563 bus1=BBT2967175.1.2.0,bus2=BBT2967182.1.2.0,Phases=2,Linecode=BT513_BT513_7_2_1_2,Length=0.000501000,Units=km
new line.SBT_10152570 bus1=BBT2967182.1.2.0,bus2=BBT2967189.1.2.0,Phases=2,Linecode=BT803_BT803_4_2_4_2,Length=0.039009000,Units=km
new line.SBT_10152598 bus1=BBT2967189.1.2.0,bus2=BBT2967196.1.2.0,Phases=2,Linecode=BT803_BT803_4_2_4_2,Length=0.042436000,Units=km
new line.SBT_10152647 bus1=BBT2967196.1.2.0,bus2=BBT2967203.1.2.0,Phases=2,Linecode=BT803_BT803_4_2_4_2,Length=0.032318000,Units=km
new line.SBT_10152675 bus1=BBT2967203.1.2.0,bus2=BBT2967210.1.2.0,Phases=2,Linecode=BT803_BT803_4_2_4_2,Length=0.035476000,Units=km
new line.SBT_10152934 bus1=BBT2967294.1.2.0,bus2=BBT2967308.1.2.0,Phases=2,Linecode=BT803_BT803_4_2_4_2,Length=0.044921000,Units=km
new line.SBT_10152941 bus1=BBT2967294.1.2.0,bus2=BBT2967301.1.2.0,Phases=2,Linecode=BT803_BT803_4_2_4_2,Length=0.043839000,Units=km
new line.SBT_10153508 bus1=BBT2967392.1.2.0,bus2=BBT2967406.1.2.0,Phases=2,Linecode=BT803_BT803_4_2_4_2,Length=0.043976000,Units=km
new line.SBT_10153529 bus1=BBT2967273.1.2.0,bus2=BBT2967392.1.2.0,Phases=2,Linecode=BT803_BT803_4_2_4_2,Length=0.039468000,Units=km
new line.SBT_10153536 bus1=BBT2967266.1.2.0,bus2=BBT2967273.1.2.0,Phases=2,Linecode=BT513_BT513_7_2_1_2,Length=0.000501000,Units=km
new line.SBT_10153543 bus1=BBT2967273.1.2.0,bus2=BBT2967280.1.2.0,Phases=2,Linecode=BT803_BT803_4_2_4_2,Length=0.059047000,Units=km
new line.SBT_10153606 bus1=BBT2967280.1.2.0,bus2=BBT2967378.1.2.0,Phases=2,Linecode=BT803_BT803_4_2_4_2,Length=0.034417000,Units=km
new line.SBT_10153613 bus1=BBT2967280.1.2.0,bus2=BBT2967287.1.2.0,Phases=2,Linecode=BT803_BT803_4_2_4_2,Length=0.037022000,Units=km
new line.SBT_101536IP bus1=BBT90588.1.2.0,bus2=BBT5000101536.1.2.0,Phases=2,Linecode=IP_2,Length=0.002840000,Units=km
new line.SBT_10153760 bus1=BBT2967287.1.2.0,bus2=BBT2967294.1.2.0,Phases=2,Linecode=BT803_BT803_4_2_4_2,Length=0.045021000,Units=km
new line.SBT_10153795 bus1=BBT2967126.1.2.0,bus2=BBT2967133.1.2.0,Phases=2,Linecode=BT803_BT803_4_2_4_2,Length=0.037170000,Units=km
new line.SBT_10153949 bus1=BBT2967119.1.2.0,bus2=BBT2967126.1.2.0,Phases=2,Linecode=BT803_BT803_4_2_4_2,Length=0.032318000,Units=km
new line.SBT_10154033 bus1=BBT2967098.1.2.0,bus2=BBT2967119.1.2.0,Phases=2,Linecode=BT803_BT803_4_2_4_2,Length=0.039934000,Units=km
new line.SBT_10154040 bus1=BBT2967091.1.2.0,bus2=BBT2967098.1.2.0,Phases=2,Linecode=BT309_BT309_7_2_1_2,Length=0.000501000,Units=km
new line.SBT_10154047 bus1=BBT2967098.1.2.0,bus2=BBT2967105.1.2.0,Phases=2,Linecode=BT803_BT803_4_2_4_2,Length=0.038219000,Units=km
new line.SBT_10154292 bus1=BBT2967105.1.2.0,bus2=BBT2967112.1.2.0,Phases=2,Linecode=BT803_BT803_4_2_4_2,Length=0.036778000,Units=km
new line.SBT_10155531 bus1=BBT2949318.1.2.0,bus2=BBT2949325.1.2.0,Phases=2,Linecode=BT803_BT803_4_2_4_2,Length=0.039859000,Units=km
new line.SBT_10155671 bus1=BBT2949311.1.2.0,bus2=BBT2949318.1.2.0,Phases=2,Linecode=BT803_BT803_4_2_4_2,Length=0.034242000,Units=km
new line.SBT_10155797 bus1=BBT2949304.1.2.0,bus2=BBT2949311.1.2.0,Phases=2,Linecode=BT803_BT803_4_2_4_2,Length=0.028642000,Units=km
new line.SBT_101557IP bus1=BBT90595.1.2.0,bus2=BBT5000101557.1.2.0,Phases=2,Linecode=IP_2,Length=0.002840000,Units=km
new line.SBT_10155979 bus1=BBT2949213.1.2.0,bus2=BBT2949304.1.2.0,Phases=2,Linecode=BT803_BT803_4_2_4_2,Length=0.042495000,Units=km
new line.SBT_10155986 bus1=BBT2949206.1.2.0,bus2=BBT2949213.1.2.0,Phases=2,Linecode=BT513_BT513_7_2_1_2,Length=0.000501000,Units=km
new line.SBT_10155993 bus1=BBT2949213.1.2.0,bus2=BBT2949402.1.2.0,Phases=2,Linecode=BT803_BT803_4_2_4_2,Length=0.031913000,Units=km
new line.SBT_10156070 bus1=BBT2949402.1.2.0,bus2=BBT2949409.1.2.0,Phases=2,Linecode=BT803_BT803_4_2_4_2,Length=0.029739000,Units=km
new line.SBT_10156077 bus1=BBT2949402.1.2.0,bus2=BBT2949416.1.2.0,Phases=2,Linecode=BT803_BT803_4_2_4_2,Length=0.031152000,Units=km
new line.SBT_10156238 bus1=BBT2949416.1.2.0,bus2=BBT2949423.1.2.0,Phases=2,Linecode=BT803_BT803_4_2_4_2,Length=0.039834000,Units=km
new line.SBT_10156259 bus1=BBT2949423.1.2.0,bus2=BBT2949430.1.2.0,Phases=2,Linecode=BT803_BT803_4_2_4_2,Length=0.041192000,Units=km
new line.SBT_101578IP bus1=BBT90602.1.2.0,bus2=BBT5000101578.1.2.0,Phases=2,Linecode=IP_2,Length=0.002840000,Units=km
new line.SBT_10158 bus1=BBT2941.1.2.3.0,bus2=BBT2883105.1.2.3.0,Phases=3,Linecode=BT803_BT803_4_3_4_3,Length=0.019110000,Units=km
new line.SBT_10326IP bus1=BBT6329.3.1.0,bus2=BBT5000010326.3.1.0,Phases=2,Linecode=IP_2,Length=0.005530000,Units=km
new line.SBT_10330209 bus1=BBT3128630.1.2.3.0,bus2=BBT3216662.1.2.3.0,Phases=3,Linecode=BT803_BT803_4_3_4_3,Length=0.033429000,Units=km
new line.SBT_10330216 bus1=BBT3128651.1.2.3.0,bus2=BBT3128630.1.2.3.0,Phases=3,Linecode=BT513_BT513_7_3_1_3,Length=0.000501000,Units=km
new line.SBT_10330223 bus1=BBT3128630.1.2.3.0,bus2=BBT3128637.1.2.3.0,Phases=3,Linecode=BT803_BT803_4_3_4_3,Length=0.037452000,Units=km
new line.SBT_10330615 bus1=BBT3128644.1.2.3.0,bus2=BBT3216669.1.2.3.0,Phases=3,Linecode=BT805_BT805_4_3_4_3,Length=0.034678000,Units=km
new line.SBT_10330622 bus1=BBT3128658.1.2.3.0,bus2=BBT3128644.1.2.3.0,Phases=3,Linecode=BT514_BT514_7_3_1_3,Length=0.000501000,Units=km
new line.SBT_10330629 bus1=BBT3128644.1.2.3.0,bus2=BBT3753940.1.2.3.0,Phases=3,Linecode=BT805_BT805_4_3_4_3,Length=0.025560000,Units=km
new line.SBT_10336908 bus1=BBT3014187.1.2.3.0,bus2=BBT80298.1.2.3.0,Phases=3,Linecode=BT803_BT803_4_3_4_3,Length=0.010773000,Units=km
new line.SBT_10336915 bus1=BBT3014187.1.2.3.0,bus2=BBT80291.1.2.3.0,Phases=3,Linecode=BT803_BT803_4_3_4_3,Length=0.025245000,Units=km
new line.SBT_10336922 bus1=BBT3014187.1.2.3.0,bus2=BBT80305.1.2.3.0,Phases=3,Linecode=BT803_BT803_4_3_4_3,Length=0.009852000,Units=km
new line.SBT_10340 bus1=BBT2997.1.2.3.0,bus2=BBT2983.1.2.3.0,Phases=3,Linecode=BT803_BT803_4_3_4_3,Length=0.022141000,Units=km
new line.SBT_1051IP bus1=BBT449.1.2.0,bus2=BBT5000001051.1.2.0,Phases=2,Linecode=IP_2,Length=0.002960000,Units=km
new line.SBT_100409IP bus1=BBT89748.1.2.0,bus2=BBT5000100409.1.2.0,Phases=2,Linecode=IP_2,Length=0.002840000,Units=km
new line.SBT_100430IP bus1=BBT89755.1.2.0,bus2=BBT5000100430.1.2.0,Phases=2,Linecode=IP_2,Length=0.002840000,Units=km
new line.SBT_100451IP bus1=BBT89769.1.2.0,bus2=BBT5000100451.1.2.0,Phases=2,Linecode=IP_2,Length=0.002840000,Units=km
new line.SBT_100472IP bus1=BBT89776.1.2.0,bus2=BBT5000100472.1.2.0,Phases=2,Linecode=IP_2,Length=0.002840000,Units=km
new line.SBT_100493IP bus1=BBT89790.1.2.0,bus2=BBT5000100493.1.2.0,Phases=2,Linecode=IP_2,Length=0.005530000,Units=km
new line.SBT_100514IP bus1=BBT89797.1.2.0,bus2=BBT5000100514.1.2.0,Phases=2,Linecode=IP_2,Length=0.005530000,Units=km
new line.SBT_101851IP bus1=BBT91603.1.2.0,bus2=BBT5000101851.1.2.0,Phases=2,Linecode=IP_2,Length=0.002840000,Units=km
new line.SBT_101872IP bus1=BBT91610.1.2.0,bus2=BBT5000101872.1.2.0,Phases=2,Linecode=IP_2,Length=0.002840000,Units=km
new line.SBT_10188613 bus1=BBT2958579.1.2.3.0,bus2=BBT2958593.1.2.3.0,Phases=3,Linecode=BT803_BT803_4_3_4_3,Length=0.030618000,Units=km
new line.SBT_10188648 bus1=BBT2958593.1.2.3.0,bus2=BBT3972480.1.2.3.0,Phases=3,Linecode=BT810_BT810_4_3_4_3,Length=0.032657000,Units=km
new line.SBT_101893IP bus1=BBT91617.1.2.0,bus2=BBT5000101893.1.2.0,Phases=2,Linecode=IP_2,Length=0.002840000,Units=km
new line.SBT_101914IP bus1=BBT91624.1.2.0,bus2=BBT5000101914.1.2.0,Phases=2,Linecode=IP_2,Length=0.002840000,Units=km
new line.SBT_10193 bus1=BBT2948.1.2.3.0,bus2=BBT2934.1.2.3.0,Phases=3,Linecode=BT803_BT803_4_3_4_3,Length=0.040022000,Units=km
new line.SBT_101935IP bus1=BBT91631.1.2.0,bus2=BBT5000101935.1.2.0,Phases=2,Linecode=IP_2,Length=0.002840000,Units=km
new line.SBT_101956IP bus1=BBT91638.1.2.0,bus2=BBT5000101956.1.2.0,Phases=2,Linecode=IP_2,Length=0.002840000,Units=km
new line.SBT_101977IP bus1=BBT91771.1.2.0,bus2=BBT5000101977.1.2.0,Phases=2,Linecode=IP_2,Length=0.002960000,Units=km
new line.SBT_101998IP bus1=BBT91778.1.2.0,bus2=BBT5000101998.1.2.0,Phases=2,Linecode=IP_2,Length=0.002960000,Units=km
new line.SBT_10200IP bus1=BBT6224.3.1.0,bus2=BBT5000010200.3.1.0,Phases=2,Linecode=IP_2,Length=0.002840000,Units=km
new line.SBT_102019IP bus1=BBT91785.1.2.0,bus2=BBT5000102019.1.2.0,Phases=2,Linecode=IP_2,Length=0.002960000,Units=km
new line.SBT_102040IP bus1=BBT91792.1.2.0,bus2=BBT5000102040.1.2.0,Phases=2,Linecode=IP_2,Length=0.002960000,Units=km
new line.SBT_102061IP bus1=BBT91862.1.2.0,bus2=BBT5000102061.1.2.0,Phases=2,Linecode=IP_2,Length=0.002840000,Units=km
new line.SBT_10347 bus1=BBT2997.1.2.3.0,bus2=BBT3004.1.2.3.0,Phases=3,Linecode=BT803_BT803_4_3_4_3,Length=0.010298000,Units=km
new line.SBT_10347IP bus1=BBT6336.2.3.0,bus2=BBT5000010347.2.3.0,Phases=2,Linecode=IP_2,Length=0.005530000,Units=km
new line.SBT_10348150 bus1=BBT3018702.1.2.0,bus2=BBT3018709.1.2.0,Phases=2,Linecode=BT508_BT508_7_2_1_2,Length=0.000501000,Units=km
new line.SBT_10348290 bus1=BBT3594067.1.2.0,bus2=BBT3594074.1.2.0,Phases=2,Linecode=BT510_BT510_7_2_1_2,Length=0.000501000,Units=km
new line.SBT_10348339 bus1=BBT3626302.1.2.0,bus2=BBT3626309.1.2.0,Phases=2,Linecode=BT307_BT307_7_2_1_2,Length=0.000501000,Units=km
new line.SBT_10348423 bus1=BBT3018800.1.2.0,bus2=BBT3018807.1.2.0,Phases=2,Linecode=BT307_BT307_7_2_1_2,Length=0.000501000,Units=km
new line.SBT_10348500 bus1=BBT3018786.1.2.0,bus2=BBT3018793.1.2.0,Phases=2,Linecode=BT304_BT304_7_2_1_2,Length=0.000501000,Units=km
new line.SBT_10354 bus1=BBT2997.1.2.3.0,bus2=BBT3011.1.2.3.0,Phases=3,Linecode=BT803_BT803_4_3_4_3,Length=0.028642000,Units=km
new line.SBT_10354583 bus1=BBT3021544.1.2.3.0,bus2=BBT1296.1.2.3.0,Phases=3,Linecode=BT810_BT810_4_3_4_3,Length=0.037372000,Units=km
new line.SBT_10354590 bus1=BBT3021544.1.2.0,bus2=BBT3021551.1.2.0,Phases=2,Linecode=BT803_BT803_4_2_4_2,Length=0.016405000,Units=km
new line.SBT_10354618 bus1=BBT3021551.1.2.0,bus2=BBT3021558.1.2.0,Phases=2,Linecode=BT803_BT803_4_2_4_2,Length=0.024357000,Units=km
new line.SBT_10354639 bus1=BBT3021558.1.2.0,bus2=BBT3021565.1.2.0,Phases=2,Linecode=BT803_BT803_4_2_4_2,Length=0.056102000,Units=km
new line.SBT_10361 bus1=BBT3004.1.2.3.0,bus2=BBT3032.1.2.3.0,Phases=3,Linecode=BT803_BT803_4_3_4_3,Length=0.024603000,Units=km
new line.SBT_10515IP bus1=BBT6420.3.1.0,bus2=BBT5000010515.3.1.0,Phases=2,Linecode=IP_2,Length=0.005530000,Units=km
new line.SBT_10661946 bus1=BBT3137366.1.2.0,bus2=BBT3137534.1.2.0,Phases=2,Linecode=BT808_BT808_4_2_3_2,Length=0.051167000,Units=km
new line.SBT_10661953 bus1=BBT3137366.1.2.0,bus2=BBT4547726.1.2.0,Phases=2,Linecode=BT808_BT808_4_2_3_2,Length=0.011707000,Units=km
new line.SBT_10661974 bus1=BBT170157152.1.2.0,bus2=BBT3137366.1.2.0,Phases=2,Linecode=BT807_BT807_4_2_3_2,Length=0.039059000,Units=km
new line.SBT_10661981 bus1=BBT3137338.1.2.0,bus2=BBT3137345.1.2.0,Phases=2,Linecode=BT518_BT518_7_2_1_2,Length=0.000501000,Units=km
new line.SBT_10662 bus1=BBT3088.1.2.3.0,bus2=BBT3081.1.2.3.0,Phases=3,Linecode=BT803_BT803_4_3_4_3,Length=0.032148000,Units=km
new line.SBT_10662016 bus1=BBT170157664.1.2.0,bus2=BBT3137380.1.2.0,Phases=2,Linecode=BT808_BT808_4_2_3_2,Length=0.031248000,Units=km
new line.SBT_10662044 bus1=BBT170157664.1.2.0,bus2=BBT3655632.1.2.0,Phases=2,Linecode=BT807_BT807_4_2_3_2,Length=0.047084000,Units=km
new line.SBT_10662093 bus1=BBT3137352.1.2.0,bus2=BBT3137359.1.2.0,Phases=2,Linecode=BT508_BT508_7_2_1_2,Length=0.000501000,Units=km
new line.SBT_10662IP bus1=BBT6490.1.2.0,bus2=BBT5000010662.1.2.0,Phases=2,Linecode=IP_2,Length=0.002840000,Units=km
new line.SBT_10669 bus1=BBT3095.1.2.3.0,bus2=BBT3088.1.2.3.0,Phases=3,Linecode=BT803_BT803_4_3_4_3,Length=0.034243000,Units=km
new line.SBT_10863203 bus1=BBT3219126.1.2.0,bus2=BBT288.1.2.0,Phases=2,Linecode=BT803_BT803_4_2_4_2,Length=0.036258000,Units=km
new line.SBT_10864575 bus1=BBT3219763.1.2.3.0,bus2=BBT3219770.1.2.3.0,Phases=3,Linecode=BT810_BT810_4_3_4_3,Length=0.050021000,Units=km
new line.SBT_10864603 bus1=BBT3219770.1.2.3.0,bus2=BBT3219777.1.2.3.0,Phases=3,Linecode=BT803_BT803_4_3_4_3,Length=0.026932000,Units=km
new line.SBT_10864617 bus1=BBT3219777.1.2.3.0,bus2=BBT3219784.1.2.3.0,Phases=3,Linecode=BT803_BT803_4_3_4_3,Length=0.028799000,Units=km
new line.SBT_10866500 bus1=BBT4471321.1.2.0,bus2=BBT4471328.1.2.0,Phases=2,Linecode=BT808_BT808_4_2_3_2,Length=0.057090000,Units=km
new line.SBT_10866542 bus1=BBT3221058.1.2.0,bus2=BBT3221065.1.2.0,Phases=2,Linecode=BT304_BT304_7_2_1_2,Length=0.000501000,Units=km
new line.SBT_10866563 bus1=BBT4471314.1.2.0,bus2=BBT4471321.1.2.0,Phases=2,Linecode=BT808_BT808_4_2_3_2,Length=0.063258000,Units=km
new line.SBT_10866598 bus1=BBT3221051.1.2.0,bus2=BBT4471314.1.2.0,Phases=2,Linecode=BT107_BT107_7_2_1_2,Length=0.060452000,Units=km
new line.SBT_10866605 bus1=BBT3221044.1.2.0,bus2=BBT3221051.1.2.0,Phases=2,Linecode=BT505_BT505_7_2_1_2,Length=0.000501000,Units=km
new line.SBT_10866633 bus1=BBT3221072.1.2.0,bus2=BBT3221079.1.2.0,Phases=2,Linecode=BT304_BT304_7_2_1_2,Length=0.000501000,Units=km
new line.SBT_10866654 bus1=BBT4202577.1.2.0,bus2=BBT4202584.1.2.0,Phases=2,Linecode=BT107_BT107_7_2_1_2,Length=0.066044000,Units=km
new line.SBT_10866689 bus1=BBT3221100.1.2.0,bus2=BBT3221107.1.2.0,Phases=2,Linecode=BT304_BT304_7_2_1_2,Length=0.000501000,Units=km
new line.SBT_10866710 bus1=BBT3221093.1.2.0,bus2=BBT4202577.1.2.0,Phases=2,Linecode=BT107_BT107_7_2_1_2,Length=0.050458000,Units=km
new line.SBT_10866717 bus1=BBT3221086.1.2.0,bus2=BBT3221093.1.2.0,Phases=2,Linecode=BT304_BT304_7_2_1_2,Length=0.000501000,Units=km
new line.SBT_10866724 bus1=BBT3221093.1.2.0,bus2=BBT4202591.1.2.0,Phases=2,Linecode=BT107_BT107_7_2_1_2,Length=0.079414000,Units=km
new line.SBT_10866857 bus1=BBT4022502.1.2.0,bus2=BBT4022509.1.2.0,Phases=2,Linecode=BT107_BT107_7_2_1_2,Length=0.063021000,Units=km
new line.SBT_10866885 bus1=BBT3221590.1.2.0,bus2=BBT4022502.1.2.0,Phases=2,Linecode=BT107_BT107_7_2_1_2,Length=0.042529000,Units=km
new line.SBT_10866892 bus1=BBT3221583.1.2.0,bus2=BBT3221590.1.2.0,Phases=2,Linecode=BT505_BT505_7_2_1_2,Length=0.000501000,Units=km
new line.SBT_1 bus1=BBT8.1.2.3.0,bus2=BBT15.1.2.3.0,Phases=3,Linecode=BT503_BT503_5_3_1_3,Length=0.011183000,Units=km
new line.SBT_101305IP bus1=BBT90322.3.1.0,bus2=BBT5000101305.3.1.0,Phases=2,Linecode=IP_2,Length=0.002960000,Units=km
new line.SBT_101326IP bus1=BBT90329.2.3.0,bus2=BBT5000101326.2.3.0,Phases=2,Linecode=IP_2,Length=0.002840000,Units=km
new line.SBT_101347IP bus1=BBT90343.1.2.0,bus2=BBT5000101347.1.2.0,Phases=2,Linecode=IP_2,Length=0.002840000,Units=km
new line.SBT_101368IP bus1=BBT90357.3.1.0,bus2=BBT5000101368.3.1.0,Phases=2,Linecode=IP_2,Length=0.002840000,Units=km
new line.SBT_101389IP bus1=BBT90364.1.2.0,bus2=BBT5000101389.1.2.0,Phases=2,Linecode=IP_2,Length=0.002840000,Units=km
new line.SBT_10298 bus1=BBT2990.1.2.3.0,bus2=BBT2976.1.2.3.0,Phases=3,Linecode=BT803_BT803_4_3_4_3,Length=0.035519000,Units=km
new line.SBT_1030 bus1=BBT253.1.2.0,bus2=BBT239.1.2.0,Phases=2,Linecode=BT807_BT807_4_2_3_2,Length=0.039834000,Units=km
new line.SBT_10305 bus1=BBT2927.1.2.3.0,bus2=BBT2990.1.2.3.0,Phases=3,Linecode=BT309_BT309_7_3_1_3,Length=0.000501000,Units=km
new line.SBT_10305IP bus1=BBT6322.3.1.0,bus2=BBT5000010305.3.1.0,Phases=2,Linecode=IP_2,Length=0.005530000,Units=km
new line.SBT_1030IP bus1=BBT442.2.3.0,bus2=BBT5000001030.2.3.0,Phases=2,Linecode=IP_2,Length=0.002960000,Units=km
new line.SBT_10312 bus1=BBT2990.1.2.3.0,bus2=BBT2997.1.2.3.0,Phases=3,Linecode=BT803_BT803_4_3_4_3,Length=0.009222000,Units=km
new line.SBT_10480 bus1=BBT2883252.1.2.3.0,bus2=BBT3039.1.2.3.0,Phases=3,Linecode=BT518_BT518_7_3_1_3,Length=0.000501000,Units=km
new line.SBT_10487 bus1=BBT3039.1.2.3.0,bus2=BBT2883329.1.2.3.0,Phases=3,Linecode=BT803_BT803_4_3_4_3,Length=0.041119000,Units=km
new line.SBT_10494 bus1=BBT3039.1.2.3.0,bus2=BBT3046.1.2.3.0,Phases=3,Linecode=BT809_BT809_4_3_4_3,Length=0.028608000,Units=km
new line.SBT_10494IP bus1=BBT6392.3.1.0,bus2=BBT5000010494.3.1.0,Phases=2,Linecode=IP_2,Length=0.005530000,Units=km
new line.SBT_10641IP bus1=BBT6476.2.3.0,bus2=BBT5000010641.2.3.0,Phases=2,Linecode=IP_2,Length=0.005530000,Units=km
new line.SBT_108067IP bus1=BBT101809.1.2.0,bus2=BBT5000108067.1.2.0,Phases=2,Linecode=IP_2,Length=0.002840000,Units=km
new line.SBT_108088IP bus1=BBT101816.1.2.0,bus2=BBT5000108088.1.2.0,Phases=2,Linecode=IP_2,Length=0.002840000,Units=km
new line.SBT_10809IP bus1=BBT6553.1.2.0,bus2=BBT5000010809.1.2.0,Phases=2,Linecode=IP_2,Length=0.003300000,Units=km
new line.SBT_108109IP bus1=BBT101823.1.2.0,bus2=BBT5000108109.1.2.0,Phases=2,Linecode=IP_2,Length=0.002840000,Units=km
new line.SBT_108144IP bus1=BBT101837.1.2.0,bus2=BBT5000108144.1.2.0,Phases=2,Linecode=IP_2,Length=0.002840000,Units=km
new line.SBT_108165IP bus1=BBT101844.1.2.0,bus2=BBT5000108165.1.2.0,Phases=2,Linecode=IP_2,Length=0.002840000,Units=km
new line.SBT_108186IP bus1=BBT101858.1.2.0,bus2=BBT5000108186.1.2.0,Phases=2,Linecode=IP_2,Length=0.002840000,Units=km
new line.SBT_108207IP bus1=BBT101865.1.2.0,bus2=BBT5000108207.1.2.0,Phases=2,Linecode=IP_2,Length=0.002840000,Units=km
new line.SBT_108228IP bus1=BBT101872.1.2.0,bus2=BBT5000108228.1.2.0,Phases=2,Linecode=IP_2,Length=0.002840000,Units=km
new line.SBT_108249IP bus1=BBT101879.1.2.0,bus2=BBT5000108249.1.2.0,Phases=2,Linecode=IP_2,Length=0.002840000,Units=km
new line.SBT_1093IP bus1=BBT4985.2.3.0,bus2=BBT5000001093.2.3.0,Phases=2,Linecode=IP_2,Length=0.002960000,Units=km
new line.SBT_10956 bus1=BBT3165.1.2.3.0,bus2=BBT3151.1.2.3.0,Phases=3,Linecode=BT809_BT809_4_3_4_3,Length=0.032023000,Units=km
new line.SBT_11096 bus1=BBT3200.1.2.3.0,bus2=BBT3228.1.2.3.0,Phases=3,Linecode=BT805_BT805_4_3_4_3,Length=0.033023000,Units=km
new line.SBT_11100391 bus1=BBT3313003.1.2.0,bus2=BBT3313010.1.2.0,Phases=2,Linecode=BT803_BT803_4_2_4_2,Length=0.031056000,Units=km
new line.SBT_11100433 bus1=BBT3313010.1.2.0,bus2=BBT3313017.1.2.0,Phases=2,Linecode=BT803_BT803_4_2_4_2,Length=0.038219000,Units=km
new line.SBT_11101336 bus1=BBT3313535.1.2.3.0,bus2=BBT1387485.1.2.3.0,Phases=3,Linecode=BT809_BT809_4_3_4_3,Length=0.021099000,Units=km
new line.SBT_11102526 bus1=BBT3314158.1.2.0,bus2=BBT3314165.1.2.0,Phases=2,Linecode=BT803_BT803_4_2_4_2,Length=0.029161000,Units=km
new line.SBT_11102540 bus1=BBT3314165.1.2.0,bus2=BBT4204677.1.2.0,Phases=2,Linecode=BT810_BT810_4_2_4_2,Length=0.025086000,Units=km
new line.SBT_11103835 bus1=BBT4147599.1.2.0,bus2=BBT4147606.1.2.0,Phases=2,Linecode=BT107_BT107_7_2_1_2,Length=0.055722000,Units=km
new line.SBT_11103856 bus1=BBT4147585.1.2.0,bus2=BBT4147592.1.2.0,Phases=2,Linecode=BT107_BT107_7_2_1_2,Length=0.062691000,Units=km
new line.SBT_11103IP bus1=BBT6756.2.3.0,bus2=BBT5000011103.2.3.0,Phases=2,Linecode=IP_2,Length=0.005530000,Units=km
new line.SBT_11104010 bus1=BBT3315523.1.2.0,bus2=BBT3315530.1.2.0,Phases=2,Linecode=BT521_BT521_7_2_1_2,Length=0.000501000,Units=km
new line.SBT_11104101 bus1=BBT3315537.1.2.0,bus2=BBT3315544.1.2.0,Phases=2,Linecode=BT505_BT505_7_2_1_2,Length=0.000501000,Units=km
new line.SBT_11104220 bus1=BBT161068523.1.2.0,bus2=BBT3408112.1.2.0,Phases=2,Linecode=BT807_BT807_4_2_3_2,Length=0.007617000,Units=km
new line.SBT_11104311 bus1=BBT3315565.1.2.0,bus2=BBT3315572.1.2.0,Phases=2,Linecode=BT519_BT519_7_2_1_2,Length=0.000501000,Units=km
new line.SBT_11104451 bus1=BBT3315593.1.2.0,bus2=BBT3315600.1.2.0,Phases=2,Linecode=BT519_BT519_7_2_1_2,Length=0.000501000,Units=km
new line.SBT_11104570 bus1=BBT3315607.1.2.0,bus2=BBT3315614.1.2.0,Phases=2,Linecode=BT519_BT519_7_2_1_2,Length=0.000501000,Units=km
new line.SBT_11104654 bus1=BBT3315621.1.2.0,bus2=BBT3315628.1.2.0,Phases=2,Linecode=BT518_BT518_7_2_1_2,Length=0.000501000,Units=km
new line.SBT_11104661 bus1=BBT3315628.1.2.0,bus2=BBT4085362.1.2.0,Phases=2,Linecode=BT816_BT816_4_2_2_2,Length=0.080635000,Units=km
new line.SBT_11104668 bus1=BBT3315628.1.0,bus2=BBT4203480.1.0,Phases=1,Linecode=BT816_BT816_4_1_2_1,Length=0.063830000,Units=km
new line.SBT_11104710 bus1=BBT4085362.1.2.0,bus2=BBT4085369.1.2.0,Phases=2,Linecode=BT816_BT816_4_2_2_2,Length=0.073066000,Units=km
new line.SBT_11104724 bus1=BBT4085369.1.2.0,bus2=BBT4085376.1.2.0,Phases=2,Linecode=BT816_BT816_4_2_2_2,Length=0.088968000,Units=km
new line.SBT_11104836 bus1=BBT3315579.1.2.0,bus2=BBT3315586.1.2.0,Phases=2,Linecode=BT513_BT513_7_2_1_2,Length=0.000501000,Units=km