new line.CTR102390 bus1=BMT103067407.1.2.3,bus2=BMT103067414.1.2.3,Phases=3,LineCode=tieSwitch,Length=0.001,Units=km,switch=T !numEQ NUMEQ:226122  - Data de conexão anterior06/2011.
new line.CTR102425 bus1=BMT171001744.1.2.3,bus2=BMT4035879.1.2.3,Phases=3,LineCode=tieSwitch,Length=0.001,Units=km,switch=T !numEQ NUMEQ:226126  - Data de conexão anterior06/2011.
open line.CTR102425 term=1
new line.CTR102481 bus1=BMT167742879.1.2.3,bus2=BMT167742880.1.2.3,Phases=3,LineCode=tieSwitch,Length=0.001,Units=km,switch=T !numEQ NUMEQ:300284  - Data de conexão anterior06/2011.
new line.CTR102635 bus1=BMT176687506.3,bus2=BMT180183290.3,Phases=1,LineCode=tieSwitch1,Length=0.001,Units=km,switch=T !numEQ NUMEQ:302308  - Data de conexão anterior06/2011.
new line.CTR102705 bus1=BMT103077851.2,bus2=BMT172063364.2,Phases=1,LineCode=tieSwitch1,Length=0.001,Units=km,switch=T !numEQ NUMEQ:9770  - Data de conexão anterior06/2011.
new line.CTR102761 bus1=BMT171002292.1.2.3,bus2=BMT2778294.1.2.3,Phases=3,LineCode=tieSwitch,Length=0.001,Units=km,switch=T !numEQ NUMEQ:226128  - Data de conexão anterior06/2011.
open line.CTR102761 term=1
new line.CTR102943 bus1=BMT103084270.1.2.3,bus2=BMT148817705.1.2.3,Phases=3,LineCode=tieSwitch,Length=0.001,Units=km,switch=T !numEQ NUMEQ:307065  - Data de conexão anterior06/2011.
new line.CTR102999 bus1=BMT178895147.1,bus2=BMT178895153.1,Phases=1,LineCode=tieSwitch1,Length=0.001,Units=km,switch=T !numEQ NUMEQ:1069  - Data de conexão anterior06/2011.
new line.CTR103013 bus1=BMT178895130.1.2.3,bus2=BMT178895139.1.2.3,Phases=3,LineCode=tieSwitch,Length=0.001,Units=km,switch=T !numEQ NUMEQ:2705  - Data de conexão anterior06/2011.
new line.CTR103097 bus1=BMT103065132.1.2.3,bus2=BMT103065139.1.2.3,Phases=3,LineCode=tieSwitch,Length=0.001,Units=km,switch=T !numEQ NUMEQ:989  - Data de conexão anterior06/2011.
new line.CTR103251 bus1=BMT178895263.1.2.3,bus2=BMT178895369.1.2.3,Phases=3,LineCode=tieSwitch,Length=0.001,Units=km,switch=T !numEQ NUMEQ:977  - Data de conexão anterior06/2011.
new line.CTR120261 bus1=BMT176687840.2,bus2=BMT176687841.2,Phases=1,LineCode=tieSwitch1,Length=0.001,Units=km,switch=T !numEQ NUMEQ:130146  - Data de conexão anterior06/2011.
new line.CTR150935 bus1=BMT103084984.1.2.3,bus2=BMT150947261.1.2.3,Phases=3,LineCode=tieSwitch,Length=0.001,Units=km,switch=T !numEQ NUMEQ:131408  - Data de conexão anterior06/2011.
new line.CTR166727 bus1=BMT103076976.2,bus2=BMT162293367.2,Phases=1,LineCode=tieSwitch1,Length=0.001,Units=km,switch=T !numEQ NUMEQ:105942  - Data de conexão anterior06/2011.
new line.CTR177535 bus1=BMT103070417.3,bus2=BMT103070445.3,Phases=1,LineCode=tieSwitch1,Length=0.001,Units=km,switch=T !numEQ NUMEQ:148039  - Data de conexão anterior06/2011.
new line.CTR192669 bus1=BMT103072552.2,bus2=BMT174805256.2,Phases=1,LineCode=tieSwitch1,Length=0.001,Units=km,switch=T !numEQ NUMEQ:106481  - Data de conexão anterior06/2011.
new line.CTR192781 bus1=BMT103066224.1.2.3,bus2=BMT138603215.1.2.3,Phases=3,LineCode=tieSwitch,Length=0.001,Units=km,switch=T !numEQ NUMEQ:300283  - Data de conexão anterior06/2011.
new line.CTR216770 bus1=BMT103069521.1.2.3,bus2=BMT103069885.1.2.3,Phases=3,LineCode=tieSwitch,Length=0.001,Units=km,switch=T !numEQ NUMEQ:21792  - Data de conexão anterior06/2011.
new line.CTR216812 bus1=BMT103069458.1,bus2=BMT179206457.1,Phases=1,LineCode=tieSwitch1,Length=0.001,Units=km,switch=T !numEQ NUMEQ:21173  - Data de conexão anterior06/2011.
new line.CTR216840 bus1=BMT172835800.1,bus2=BMT172835803.1,Phases=1,LineCode=tieSwitch1,Length=0.001,Units=km,switch=T !numEQ NUMEQ:321795  - Data de conexão anterior06/2011.
new line.CTR216854 bus1=BMT103075072.1,bus2=BMT151308027.1,Phases=1,LineCode=tieSwitch1,Length=0.001,Units=km,switch=T !numEQ NUMEQ:21762  - Data de conexão anterior06/2011.
new line.CTR216868 bus1=BMT103075394.2,bus2=BMT177815929.2,Phases=1,LineCode=tieSwitch1,Length=0.001,Units=km,switch=T !numEQ NUMEQ:21751  - Data de conexão anterior06/2011.
new line.CTR216882 bus1=BMT103075408.2,bus2=BMT166242021.2,Phases=1,LineCode=tieSwitch1,Length=0.001,Units=km,switch=T !numEQ NUMEQ:193777  - Data de conexão anterior06/2011.
new line.CTR216896 bus1=BMT103075569.2,bus2=BMT166449686.2,Phases=1,LineCode=tieSwitch1,Length=0.001,Units=km,switch=T !numEQ NUMEQ:21756  - Data de conexão anterior06/2011.
new line.CTR216952 bus1=BMT170203564.3,bus2=BMT179026160.3,Phases=1,LineCode=tieSwitch1,Length=0.001,Units=km,switch=T !numEQ NUMEQ:21744  - Data de conexão anterior06/2011.
new line.CTR216959 bus1=BMT170207893.1.2.3,bus2=BMT170207895.1.2.3,Phases=3,LineCode=tieSwitch,Length=0.001,Units=km,switch=T !numEQ NUMEQ:20350  - Data de conexão anterior06/2011.
new line.CTR217036 bus1=BMT103070501.1,bus2=BMT176868242.1,Phases=1,LineCode=tieSwitch1,Length=0.001,Units=km,switch=T !numEQ NUMEQ:21771  - Data de conexão anterior06/2011.
new line.CTR217050 bus1=BMT103070620.1,bus2=BMT177669734.1,Phases=1,LineCode=tieSwitch1,Length=0.001,Units=km,switch=T !numEQ NUMEQ:299278  - Data de conexão anterior06/2011.
new line.CTR284523 bus1=BMT103084459.1.2.3,bus2=BMT103084452.1.2.3,Phases=3,LineCode=tieSwitch,Length=0.001,Units=km,switch=T !numEQ NUMEQ:6318  - Data de conexão anterior06/2011.
new line.CTR285020 bus1=BMT176687113.1.2.3,bus2=BMT176758665.1.2.3,Phases=3,LineCode=tieSwitch,Length=0.001,Units=km,switch=T !numEQ NUMEQ:8082  - Data de conexão anterior06/2011.
new line.CTR285153 bus1=BMT176687098.1.2.3,bus2=BMT176687101.1.2.3,Phases=3,LineCode=tieSwitch,Length=0.001,Units=km,switch=T !numEQ NUMEQ:6316  - Data de conexão anterior06/2011.
new line.CTR285195 bus1=BMT103068009.1.2.3,bus2=BMT103077690.1.2.3,Phases=3,LineCode=tieSwitch,Length=0.001,Units=km,switch=T !numEQ NUMEQ:2807  - Data de conexão anterior06/2011.
new line.CTR285216 bus1=BMT179938883.3,bus2=BMT103077725.3,Phases=1,LineCode=tieSwitch1,Length=0.001,Units=km,switch=T !numEQ NUMEQ:2357  - Data de conexão anterior06/2011.
new line.CTR285230 bus1=BMT103077788.1.2.3,bus2=BMT103081295.1.2.3,Phases=3,LineCode=tieSwitch,Length=0.001,Units=km,switch=T !numEQ NUMEQ:3827  - Data de conexão anterior06/2011.
new line.CTR285258 bus1=BMT103064600.1.2.3,bus2=BMT103064621.1.2.3,Phases=3,LineCode=tieSwitch,Length=0.001,Units=km,switch=T !numEQ NUMEQ:130292  - Data de conexão anterior06/2011.
new line.CTR285321 bus1=BMT103077221.3,bus2=BMT103077599.3,Phases=1,LineCode=tieSwitch1,Length=0.001,Units=km,switch=T !numEQ NUMEQ:1106  - Data de conexão anterior06/2011.
new line.CTR285335 bus1=BMT103077466.2,bus2=BMT178339324.2,Phases=1,LineCode=tieSwitch1,Length=0.001,Units=km,switch=T !numEQ NUMEQ:12166  - Data de conexão anterior06/2011.
new line.CTR285370 bus1=BMT103067806.1,bus2=BMT167860273.1,Phases=1,LineCode=tieSwitch1,Length=0.001,Units=km,switch=T !numEQ NUMEQ:7128  - Data de conexão anterior06/2011.
new line.CTR285412 bus1=BMT103084690.1.2.3,bus2=BMT168147596.1.2.3,Phases=3,LineCode=tieSwitch,Length=0.001,Units=km,switch=T !numEQ NUMEQ:5268  - Data de conexão anterior06/2011.
new line.CTR285489 bus1=BMT103085005.1.2.3,bus2=BMT103085019.1.2.3,Phases=3,LineCode=tieSwitch,Length=0.001,Units=km,switch=T !numEQ NUMEQ:8787  - Data de conexão anterior06/2011.
new line.CTR285636 bus1=BMT159325486.1.2.3,bus2=BMT103084123.1.2.3,Phases=3,LineCode=tieSwitch,Length=0.001,Units=km,switch=T !numEQ NUMEQ:307069  - Data de conexão anterior06/2011.
new line.CTR285706 bus1=BMT103065167.1.2.3,bus2=BMT150342173.1.2.3,Phases=3,LineCode=tieSwitch,Length=0.001,Units=km,switch=T !numEQ NUMEQ:984  - Data de conexão anterior06/2011.
new line.CTR285734 bus1=BMT178895409.1.2.3,bus2=BMT178895410.1.2.3,Phases=3,LineCode=tieSwitch,Length=0.001,Units=km,switch=T !numEQ NUMEQ:2273  - Data de conexão anterior06/2011.
new line.CTR285790 bus1=BMT103063543.1.2.3,bus2=BMT171001742.1.2.3,Phases=3,LineCode=tieSwitch,Length=0.001,Units=km,switch=T !numEQ NUMEQ:226121  - Data de conexão anterior06/2011.
new line.CTR285804 bus1=BMT103067428.1.2.3,bus2=BMT178273423.1.2.3,Phases=3,LineCode=tieSwitch,Length=0.001,Units=km,switch=T !numEQ NUMEQ:226119  - Data de conexão anterior06/2011.
new line.CTR285832 bus1=BMT103065993.2,bus2=BMT176473347.2,Phases=1,LineCode=tieSwitch1,Length=0.001,Units=km,switch=T !numEQ NUMEQ:12695  - Data de conexão anterior06/2011.
new line.CTR285846 bus1=BMT103063718.1.2.3,bus2=BMT103063725.1.2.3,Phases=3,LineCode=tieSwitch,Length=0.001,Units=km,switch=T !numEQ NUMEQ:150070  - Data de conexão anterior06/2011.
new line.CTR148149 bus1=BMT103072468.2,bus2=BMT103073623.2,Phases=1,LineCode=tieSwitch1,Length=0.001,Units=km,switch=T !numEQ NUMEQ:148198  - Data de conexão anterior06/2011.
new line.CTR165159 bus1=BMT178895438.1.2.3,bus2=BMT178895439.1.2.3,Phases=3,LineCode=tieSwitch,Length=0.001,Units=km,switch=T !numEQ NUMEQ:14327  - Data de conexão anterior06/2011.
new line.CTR178305 bus1=BMT103076220.3,bus2=BMT179026204.3,Phases=1,LineCode=tieSwitch1,Length=0.001,Units=km,switch=T !numEQ NUMEQ:22308  - Data de conexão anterior06/2011.
new line.CTR179299 bus1=BMT176687380.2,bus2=BMT176687639.2,Phases=1,LineCode=tieSwitch1,Length=0.001,Units=km,switch=T !numEQ NUMEQ:193022  - Data de conexão anterior06/2011.
new line.CTR195189 bus1=BMT103064201.1.2.3,bus2=BMT103064208.1.2.3,Phases=3,LineCode=tieSwitch,Length=0.001,Units=km,switch=T !numEQ NUMEQ:128907  - Data de conexão anterior06/2011.
new line.CTR195441 bus1=BMT103077445.2,bus2=BMT103077578.2,Phases=1,LineCode=tieSwitch1,Length=0.001,Units=km,switch=T !numEQ NUMEQ:995  - Data de conexão anterior06/2011.
new line.CTR195721 bus1=BMT178895273.1.2.3,bus2=BMT178895274.1.2.3,Phases=3,LineCode=tieSwitch,Length=0.001,Units=km,switch=T !numEQ NUMEQ:131678  - Data de conexão anterior06/2011.
new line.CTR218758 bus1=BMT176687317.2,bus2=BMT176687781.2,Phases=1,LineCode=tieSwitch1,Length=0.001,Units=km,switch=T !numEQ NUMEQ:9315  - Data de conexão anterior06/2011.
new line.CTR218961 bus1=BMT103084480.1.2.3,bus2=BMT103084487.1.2.3,Phases=3,LineCode=tieSwitch,Length=0.001,Units=km,switch=T !numEQ NUMEQ:1763  - Data de conexão anterior06/2011.
new line.CTR240899 bus1=BMT176687158.1,bus2=BMT176687166.1,Phases=1,LineCode=tieSwitch1,Length=0.001,Units=km,switch=T !numEQ NUMEQ:2729  - Data de conexão anterior06/2011.
new line.CTR241676 bus1=BMT103081596.3,bus2=BMT171667505.3,Phases=1,LineCode=tieSwitch1,Length=0.001,Units=km,switch=T !numEQ NUMEQ:150906  - Data de conexão anterior06/2011.
new line.CTR265217 bus1=BMT178895320.1.2.3,bus2=BMT178895349.1.2.3,Phases=3,LineCode=tieSwitch,Length=0.001,Units=km,switch=T !numEQ NUMEQ:212477  - Data de conexão anterior06/2011.
new line.CTR265231 bus1=BMT178895321.1.2.3,bus2=BMT178895322.1.2.3,Phases=3,LineCode=tieSwitch,Length=0.001,Units=km,switch=T !numEQ NUMEQ:303149  - Data de conexão anterior06/2011.
new line.CTR265245 bus1=BMT178895324.1.2.3,bus2=BMT178895347.1.2.3,Phases=3,LineCode=tieSwitch,Length=0.001,Units=km,switch=T !numEQ NUMEQ:306901  - Data de conexão anterior06/2011.
new line.CTR265371 bus1=BMT103063676.1.2.3,bus2=BMT179299538.1.2.3,Phases=3,LineCode=tieSwitch,Length=0.001,Units=km,switch=T !numEQ NUMEQ:3832  - Data de conexão anterior06/2011.
new line.CTR265385 bus1=BMT103063697.1.2.3,bus2=BMT103065832.1.2.3,Phases=3,LineCode=tieSwitch,Length=0.001,Units=km,switch=T !numEQ NUMEQ:593  - Data de conexão anterior06/2011.
new line.CTR265413 bus1=BMT103063844.1.2.3,bus2=BMT103065811.1.2.3,Phases=3,LineCode=tieSwitch,Length=0.001,Units=km,switch=T !numEQ NUMEQ:2772  - Data de conexão anterior06/2011.
new line.CTR265483 bus1=BMT103064901.1.2.3,bus2=BMT103064964.1.2.3,Phases=3,LineCode=tieSwitch,Length=0.001,Units=km,switch=T !numEQ NUMEQ:290  - Data de conexão anterior06/2011.
new line.CTR265553 bus1=BMT178895220.1.2.3,bus2=BMT178895392.1.2.3,Phases=3,LineCode=tieSwitch,Length=0.001,Units=km,switch=T !numEQ NUMEQ:192029  - Data de conexão anterior06/2011.
new line.CTR265609 bus1=BMT178895247.1.2.3,bus2=BMT178895373.1.2.3,Phases=3,LineCode=tieSwitch,Length=0.001,Units=km,switch=T !numEQ NUMEQ:11378  - Data de conexão anterior06/2011.
new line.CTR265637 bus1=BMT103065055.1.2.3,bus2=BMT149093326.1.2.3,Phases=3,LineCode=tieSwitch,Length=0.001,Units=km,switch=T !numEQ NUMEQ:311501  - Data de conexão anterior06/2011.
new line.CTR265679 bus1=BMT178895110.1.2.3,bus2=BMT178895116.1.2.3,Phases=3,LineCode=tieSwitch,Length=0.001,Units=km,switch=T !numEQ NUMEQ:2783  - Data de conexão anterior06/2011.
new line.CTR265693 bus1=BMT178895118.1.2.3,bus2=BMT178895122.1.2.3,Phases=3,LineCode=tieSwitch,Length=0.001,Units=km,switch=T !numEQ NUMEQ:1768  - Data de conexão anterior06/2011.
new line.CTR265707 bus1=BMT178895127.1.2.3,bus2=BMT178895128.1.2.3,Phases=3,LineCode=tieSwitch,Length=0.001,Units=km,switch=T !numEQ NUMEQ:3756  - Data de conexão anterior06/2011.
new line.CTR265721 bus1=BMT178895152.1.2.3,bus2=BMT178895096.1.2.3,Phases=3,LineCode=tieSwitch,Length=0.001,Units=km,switch=T !numEQ NUMEQ:2787  - Data de conexão anterior06/2011.
open line.CTR265721 term=1
new line.CTR265763 bus1=BMT103063739.1.2.3,bus2=BMT103063760.1.2.3,Phases=3,LineCode=tieSwitch,Length=0.001,Units=km,switch=T !numEQ NUMEQ:7574  - Data de conexão anterior06/2011.
new line.CTR265777 bus1=BMT156614937.1.2.3,bus2=BMT103061212.1.2.3,Phases=3,LineCode=tieSwitch,Length=0.001,Units=km,switch=T !numEQ NUMEQ:5621  - Data de conexão anterior06/2011.
open line.CTR265777 term=1
new line.CTR265805 bus1=BMT103066686.1.2.3,bus2=BMT103066700.1.2.3,Phases=3,LineCode=tieSwitch,Length=0.001,Units=km,switch=T !numEQ NUMEQ:4911  - Data de conexão anterior06/2011.
new line.CTR265819 bus1=BMT138578484.1.2.3,bus2=BMT103063669.1.2.3,Phases=3,LineCode=tieSwitch,Length=0.001,Units=km,switch=T !numEQ NUMEQ:300277  - Data de conexão anterior06/2011.
open line.CTR265819 term=1
new line.CTR265833 bus1=BMT103084536.1.2.3,bus2=BMT164901253.1.2.3,Phases=3,LineCode=tieSwitch,Length=0.001,Units=km,switch=T !numEQ NUMEQ:944  - Data de conexão anterior06/2011.
new line.CTR265861 bus1=BMT103085033.1.2.3,bus2=BMT150342190.1.2.3,Phases=3,LineCode=tieSwitch,Length=0.001,Units=km,switch=T !numEQ NUMEQ:9014  - Data de conexão anterior06/2011.
new line.CTR265889 bus1=BMT148359701.1.2.3,bus2=BMT148360147.1.2.3,Phases=3,LineCode=tieSwitch,Length=0.001,Units=km,switch=T !numEQ NUMEQ:314429  - Data de conexão anterior06/2011.
new line.CTR265917 bus1=BMT176687519.3,bus2=BMT180183372.3,Phases=1,LineCode=tieSwitch1,Length=0.001,Units=km,switch=T !numEQ NUMEQ:7903  - Data de conexão anterior06/2011.
new line.CTR266015 bus1=BMT103066966.2,bus2=BMT162649803.2,Phases=1,LineCode=tieSwitch1,Length=0.001,Units=km,switch=T !numEQ NUMEQ:1876  - Data de conexão anterior06/2011.
new line.CTR266043 bus1=BMT103066616.1,bus2=BMT149044374.1,Phases=1,LineCode=tieSwitch1,Length=0.001,Units=km,switch=T !numEQ NUMEQ:2251  - Data de conexão anterior06/2011.
new line.CTR266113 bus1=BMT103068002.1.2.3,bus2=BMT178494395.1.2.3,Phases=3,LineCode=tieSwitch,Length=0.001,Units=km,switch=T !numEQ NUMEQ:2808  - Data de conexão anterior06/2011.
new line.CTR266127 bus1=BMT103077711.1.2.3,bus2=BMT103081358.1.2.3,Phases=3,LineCode=tieSwitch,Length=0.001,Units=km,switch=T !numEQ NUMEQ:6872  - Data de conexão anterior06/2011.
new line.CTR266141 bus1=BMT176687735.2,bus2=BMT178128327.2,Phases=1,LineCode=tieSwitch1,Length=0.001,Units=km,switch=T !numEQ NUMEQ:9714  - Data de conexão anterior06/2011.
new line.CTR266302 bus1=BMT103081729.2,bus2=BMT103081855.2,Phases=1,LineCode=tieSwitch1,Length=0.001,Units=km,switch=T !numEQ NUMEQ:692  - Data de conexão anterior06/2011.
new line.CTR266414 bus1=BMT176687699.2,bus2=BMT176687707.2,Phases=1,LineCode=tieSwitch1,Length=0.001,Units=km,switch=T !numEQ NUMEQ:112721  - Data de conexão anterior06/2011.
new line.CTR266659 bus1=BMT103077270.1,bus2=BMT162957252.1,Phases=1,LineCode=tieSwitch1,Length=0.001,Units=km,switch=T !numEQ NUMEQ:912  - Data de conexão anterior06/2011.
new line.CTR288065 bus1=BMT176687162.1.2.3,bus2=BMT176687164.1.2.3,Phases=3,LineCode=tieSwitch,Length=0.001,Units=km,switch=T !numEQ NUMEQ:8937  - Data de conexão anterior06/2011.
new line.CTR320461 bus1=BMT176687855.1.2.3,bus2=BMT176687941.1.2.3,Phases=3,LineCode=tieSwitch,Length=0.001,Units=km,switch=T !numEQ NUMEQ:151667  - Data de conexão anterior06/2011.
new line.CTR320916 bus1=BMT175816111.1,bus2=BMT176481438.1,Phases=1,LineCode=tieSwitch1,Length=0.001,Units=km,switch=T !numEQ NUMEQ:10123  - Data de conexão anterior06/2011.
new line.CTR322554 bus1=BMT151688286.2,bus2=BMT151707958.2,Phases=1,LineCode=tieSwitch1,Length=0.001,Units=km,switch=T !numEQ NUMEQ:299282  - Data de conexão anterior06/2011.
new line.CTR360158 bus1=BMT103085047.1.2.3,bus2=BMT4370213.1.2.3,Phases=3,LineCode=tieSwitch,Length=0.001,Units=km,switch=T !numEQ NUMEQ:147849  - Data de conexão anterior06/2011.
open line.CTR360158 term=1
new line.CTR360305 bus1=BMT103084445.1.2.3,bus2=BMT103084438.1.2.3,Phases=3,LineCode=tieSwitch,Length=0.001,Units=km,switch=T !numEQ NUMEQ:147835  - Data de conexão anterior06/2011.
new line.CTR101277 bus1=BMT178895316.1.2.3,bus2=BMT178895317.1.2.3,Phases=3,LineCode=tieSwitch,Length=0.001,Units=km,switch=T !numEQ NUMEQ:150223  - Data de conexão anterior06/2011.
new line.CTR117363 bus1=BMT103066371.1,bus2=BMT162670969.1,Phases=1,LineCode=tieSwitch1,Length=0.001,Units=km,switch=T !numEQ NUMEQ:306900  - Data de conexão anterior06/2011.
new line.CTR163395 bus1=BMT103073812.3,bus2=BMT164774643.3,Phases=1,LineCode=tieSwitch1,Length=0.001,Units=km,switch=T !numEQ NUMEQ:384044  - Data de conexão anterior06/2011.
new line.CTR163423 bus1=BMT103070648.2,bus2=BMT151687263.2,Phases=1,LineCode=tieSwitch1,Length=0.001,Units=km,switch=T !numEQ NUMEQ:299280  - Data de conexão anterior06/2011.
new line.CTR163479 bus1=BMT103071691.3,bus2=BMT103071705.3,Phases=1,LineCode=tieSwitch1,Length=0.001,Units=km,switch=T !numEQ NUMEQ:21791  - Data de conexão anterior06/2011.
new line.CTR163507 bus1=BMT103070907.1,bus2=BMT151706296.1,Phases=1,LineCode=tieSwitch1,Length=0.001,Units=km,switch=T !numEQ NUMEQ:22318  - Data de conexão anterior06/2011.
new line.CTR179838 bus1=BMT103081428.2,bus2=BMT157633799.2,Phases=1,LineCode=tieSwitch1,Length=0.001,Units=km,switch=T !numEQ NUMEQ:148959  - Data de conexão anterior06/2011.
new line.CTR180013 bus1=BMT103081421.2,bus2=BMT158261781.2,Phases=1,LineCode=tieSwitch1,Length=0.001,Units=km,switch=T !numEQ NUMEQ:148960  - Data de conexão anterior06/2011.
new line.CTR180349 bus1=BMT176687187.2,bus2=BMT176687190.2,Phases=1,LineCode=tieSwitch1,Length=0.001,Units=km,switch=T !numEQ NUMEQ:137672  - Data de conexão anterior06/2011.
new line.CTR180790 bus1=BMT103066945.1.2.3,bus2=BMT151429012.1.2.3,Phases=3,LineCode=tieSwitch,Length=0.001,Units=km,switch=T !numEQ NUMEQ:8953  - Data de conexão anterior06/2011.
new line.CTR196862 bus1=BMT103069906.3,bus2=BMT162366449.3,Phases=1,LineCode=tieSwitch1,Length=0.001,Units=km,switch=T !numEQ NUMEQ:148112  - Data de conexão anterior06/2011.
new line.CTR198101 bus1=BMT103078026.1,bus2=BMT165901613.1,Phases=1,LineCode=tieSwitch1,Length=0.001,Units=km,switch=T !numEQ NUMEQ:151119  - Data de conexão anterior06/2011.
new line.CTR198388 bus1=BMT103072860.2,bus2=BMT103072881.2,Phases=1,LineCode=tieSwitch1,Length=0.001,Units=km,switch=T !numEQ NUMEQ:148110  - Data de conexão anterior06/2011.
new line.CTR198402 bus1=BMT103072902.2,bus2=BMT103072909.2,Phases=1,LineCode=tieSwitch1,Length=0.001,Units=km,switch=T !numEQ NUMEQ:148214  - Data de conexão anterior06/2011.
new line.CTR245624 bus1=BMT176687211.1.2.3,bus2=BMT176687160.1.2.3,Phases=3,LineCode=tieSwitch,Length=0.001,Units=km,switch=T !numEQ NUMEQ:205943  - Data de conexão anterior06/2011.
open line.CTR245624 term=1
new line.CTR269249 bus1=BMT178895204.1.2.3,bus2=BMT178895205.1.2.3,Phases=3,LineCode=tieSwitch,Length=0.001,Units=km,switch=T !numEQ NUMEQ:122000  - Data de conexão anterior06/2011.
new line.CTR269263 bus1=BMT103070249.2,bus2=BMT103070368.2,Phases=1,LineCode=tieSwitch1,Length=0.001,Units=km,switch=T !numEQ NUMEQ:107196  - Data de conexão anterior06/2011.
new line.CTR297914 bus1=BMT103063683.1.2.3,bus2=BMT103063690.1.2.3,Phases=3,LineCode=tieSwitch,Length=0.001,Units=km,switch=T !numEQ NUMEQ:105858  - Data de conexão anterior06/2011.
new line.CTR33069 bus1=BMT160906868.1.2.3,bus2=BMT103064026.1.2.3,Phases=3,LineCode=tieSwitch,Length=0.001,Units=km,switch=T !numEQ NUMEQ:8194  - Data de conexão anterior06/2011.
new line.CTR330730 bus1=BMT103063837.1.2.3,bus2=BMT103065755.1.2.3,Phases=3,LineCode=tieSwitch,Length=0.001,Units=km,switch=T !numEQ NUMEQ:2770  - Data de conexão anterior06/2011.
new line.CTR330842 bus1=BMT178895160.1.2.3,bus2=BMT178895161.1.2.3,Phases=3,LineCode=tieSwitch,Length=0.001,Units=km,switch=T !numEQ NUMEQ:10502  - Data de conexão anterior06/2011.
new line.CTR332900 bus1=BMT103063970.1.2.3,bus2=BMT103064978.1.2.3,Phases=3,LineCode=tieSwitch,Length=0.001,Units=km,switch=T !numEQ NUMEQ:131669  - Data de conexão anterior06/2011.
new line.CTR367053 bus1=BMT103084207.1.2.3,bus2=BMT103084382.1.2.3,Phases=3,LineCode=tieSwitch,Length=0.001,Units=km,switch=T !numEQ NUMEQ:105160  - Data de conexão anterior06/2011.
new line.CTR367536 bus1=BMT176687367.1.2.3,bus2=BMT176687369.1.2.3,Phases=3,LineCode=tieSwitch,Length=0.001,Units=km,switch=T !numEQ NUMEQ:193019  - Data de conexão anterior06/2011.
new line.CTR367739 bus1=BMT169271977.2,bus2=BMT176801181.2,Phases=1,LineCode=tieSwitch1,Length=0.001,Units=km,switch=T !numEQ NUMEQ:146356  - Data de conexão anterior06/2011.
new line.CTR368964 bus1=BMT103072783.2,bus2=BMT178151252.2,Phases=1,LineCode=tieSwitch1,Length=0.001,Units=km,switch=T !numEQ NUMEQ:148199  - Data de conexão anterior06/2011.
new line.CTR369727 bus1=BMT179034288.1,bus2=BMT179034301.1,Phases=1,LineCode=tieSwitch1,Length=0.001,Units=km,switch=T !numEQ NUMEQ:148209  - Data de conexão anterior06/2011.
new line.CTR371652 bus1=BMT178895331.1.2.3,bus2=BMT178895338.1.2.3,Phases=3,LineCode=tieSwitch,Length=0.001,Units=km,switch=T !numEQ NUMEQ:315849  - Data de conexão anterior06/2011.
new line.CTR489770 bus1=BMT103070067.1.2.3,bus2=BMT161556481.1.2.3,Phases=3,LineCode=tieSwitch,Length=0.001,Units=km,switch=T !numEQ NUMEQ:108140  - Data de conexão anterior06/2011.
new line.CTR534052 bus1=BMT176687116.1,bus2=BMT176687130.1,Phases=1,LineCode=tieSwitch1,Length=0.001,Units=km,switch=T !numEQ NUMEQ:6790  - Data de conexão anterior06/2011.
new line.CTR536075 bus1=BMT103065062.1.2.3,bus2=BMT103065664.1.2.3,Phases=3,LineCode=tieSwitch,Length=0.001,Units=km,switch=T !numEQ NUMEQ:311502  - Data de conexão anterior06/2011.
new line.CTR536383 bus1=BMT103071670.3,bus2=BMT103071684.3,Phases=1,LineCode=tieSwitch1,Length=0.001,Units=km,switch=T !numEQ NUMEQ:21790  - Data de conexão anterior06/2011.
new line.CTR536411 bus1=BMT103070970.1,bus2=BMT151706304.1,Phases=1,LineCode=tieSwitch1,Length=0.001,Units=km,switch=T !numEQ NUMEQ:20962  - Data de conexão anterior06/2011.
new line.CTR536439 bus1=BMT103072440.2,bus2=BMT103073651.2,Phases=1,LineCode=tieSwitch1,Length=0.001,Units=km,switch=T !numEQ NUMEQ:21778  - Data de conexão anterior06/2011.
new line.CTR536467 bus1=BMT179206873.2,bus2=BMT179206994.2,Phases=1,LineCode=tieSwitch1,Length=0.001,Units=km,switch=T !numEQ NUMEQ:21775  - Data de conexão anterior06/2011.
new line.CTR536495 bus1=BMT163214961.2,bus2=BMT163216399.2,Phases=1,LineCode=tieSwitch1,Length=0.001,Units=km,switch=T !numEQ NUMEQ:21777  - Data de conexão anterior06/2011.
new line.CTR539323 bus1=BMT176687525.3,bus2=BMT180183382.3,Phases=1,LineCode=tieSwitch1,Length=0.001,Units=km,switch=T !numEQ NUMEQ:6746  - Data de conexão anterior06/2011.
new line.CTR595442 bus1=BMT103065594.1.2.3,bus2=BMT156751481.1.2.3,Phases=3,LineCode=tieSwitch,Length=0.001,Units=km,switch=T !numEQ NUMEQ:311504  - Data de conexão anterior06/2011.
new line.CTR595645 bus1=BMT103063851.1.2.3,bus2=BMT160906854.1.2.3,Phases=3,LineCode=tieSwitch,Length=0.001,Units=km,switch=T !numEQ NUMEQ:2771  - Data de conexão anterior06/2011.
new line.CTR597122 bus1=BMT103076402.3,bus2=BMT179026238.3,Phases=1,LineCode=tieSwitch1,Length=0.001,Units=km,switch=T !numEQ NUMEQ:138102  - Data de conexão anterior06/2011.
new line.CTR64387 bus1=BMT103071327.1,bus2=BMT171686702.1,Phases=1,LineCode=tieSwitch1,Length=0.001,Units=km,switch=T !numEQ NUMEQ:21937  - Data de conexão anterior06/2011.
new line.CTR646108 bus1=BMT178895099.1.2.3,bus2=BMT178895101.1.2.3,Phases=3,LineCode=tieSwitch,Length=0.001,Units=km,switch=T !numEQ NUMEQ:13900  - Data de conexão anterior06/2011.
new line.CTR650392 bus1=BMT178895159.1.2.3,bus2=BMT178895415.1.2.3,Phases=3,LineCode=tieSwitch,Length=0.001,Units=km,switch=T !numEQ NUMEQ:1660  - Data de conexão anterior06/2011.
new line.CTR702892 bus1=BMT103070319.1,bus2=BMT103070326.1,Phases=1,LineCode=tieSwitch1,Length=0.001,Units=km,switch=T !numEQ NUMEQ:206574  - Data de conexão anterior06/2011.
new line.CTR70351 bus1=BMT103071782.3,bus2=BMT103071810.3,Phases=1,LineCode=tieSwitch1,Length=0.001,Units=km,switch=T !numEQ NUMEQ:21789  - Data de conexão anterior06/2011.
new line.CTR704887 bus1=BMT103064054.1.2.3,bus2=BMT178782521.1.2.3,Phases=3,LineCode=tieSwitch,Length=0.001,Units=km,switch=T !numEQ NUMEQ:205754  - Data de conexão anterior06/2011.
new line.CTR706700 bus1=BMT103074036.3,bus2=BMT103074106.3,Phases=1,LineCode=tieSwitch1,Length=0.001,Units=km,switch=T !numEQ NUMEQ:206505  - Data de conexão anterior06/2011.
new line.CTR15583 bus1=BMT103073889.3,bus2=BMT103074197.3,Phases=1,LineCode=tieSwitch1,Length=0.001,Units=km,switch=T !numEQ NUMEQ:148038  - Data de conexão anterior06/2011.
new line.CTR156101 bus1=BMT176687099.1.2.3,bus2=BMT176687136.1.2.3,Phases=3,LineCode=tieSwitch,Length=0.001,Units=km,switch=T !numEQ NUMEQ:100523  - Data de conexão anterior06/2011.
new line.CTR15667 bus1=BMT176687417.3,bus2=BMT180183402.3,Phases=1,LineCode=tieSwitch1,Length=0.001,Units=km,switch=T !numEQ NUMEQ:147674  - Data de conexão anterior06/2011.
new line.CTR15695 bus1=BMT103076178.3,bus2=BMT179026172.3,Phases=1,LineCode=tieSwitch1,Length=0.001,Units=km,switch=T !numEQ NUMEQ:148035  - Data de conexão anterior06/2011.
new line.CTR174784 bus1=BMT99610849.2,bus2=BMT177526312.2,Phases=1,LineCode=tieSwitch1,Length=0.001,Units=km,switch=T !numEQ NUMEQ:10013  - Data de conexão anterior06/2011.
new line.CTR174854 bus1=BMT99609197.1.2.3,bus2=BMT152627618.1.2.3,Phases=3,LineCode=tieSwitch,Length=0.001,Units=km,switch=T !numEQ NUMEQ:953  - Data de conexão anterior06/2011.
new line.CTR191423 bus1=BMT138583195.1.2.3,bus2=BMT138583202.1.2.3,Phases=3,LineCode=tieSwitch,Length=0.001,Units=km,switch=T !numEQ NUMEQ:299224  - Data de conexão anterior06/2011.
new line.CTR191577 bus1=BMT103077984.1,bus2=BMT103078194.1,Phases=1,LineCode=tieSwitch1,Length=0.001,Units=km,switch=T !numEQ NUMEQ:12676  - Data de conexão anterior06/2011.
new line.CTR208244 bus1=BMT103066469.1.2.3,bus2=BMT103066525.1.2.3,Phases=3,LineCode=tieSwitch,Length=0.001,Units=km,switch=T !numEQ NUMEQ:110353  - Data de conexão anterior06/2011.
new line.CTR208433 bus1=BMT103076661.3,bus2=BMT179026231.3,Phases=1,LineCode=tieSwitch1,Length=0.001,Units=km,switch=T !numEQ NUMEQ:20032  - Data de conexão anterior06/2011.
new line.CTR210001 bus1=BMT103074456.1,bus2=BMT103074470.1,Phases=1,LineCode=tieSwitch1,Length=0.001,Units=km,switch=T !numEQ NUMEQ:22314  - Data de conexão anterior06/2011.
new line.CTR210407 bus1=BMT176687863.1.2.3,bus2=BMT176687869.1.2.3,Phases=3,LineCode=tieSwitch,Length=0.001,Units=km,switch=T !numEQ NUMEQ:9431  - Data de conexão anterior06/2011.
new line.CTR211030 bus1=BMT103075401.2,bus2=BMT103075436.2,Phases=1,LineCode=tieSwitch1,Length=0.001,Units=km,switch=T !numEQ NUMEQ:21752  - Data de conexão anterior06/2011.
new line.CTR233507 bus1=BMT176687090.1.2.3,bus2=BMT179214280.1.2.3,Phases=3,LineCode=tieSwitch,Length=0.001,Units=km,switch=T !numEQ NUMEQ:13967  - Data de conexão anterior06/2011.
new line.CTR235733 bus1=BMT178895216.1.2.3,bus2=BMT178895406.1.2.3,Phases=3,LineCode=tieSwitch,Length=0.001,Units=km,switch=T !numEQ NUMEQ:307055  - Data de conexão anterior06/2011.
new line.CTR278279 bus1=BMT103076409.3,bus2=BMT179026259.3,Phases=1,LineCode=tieSwitch1,Length=0.001,Units=km,switch=T !numEQ NUMEQ:22306  - Data de conexão anterior06/2011.
new line.CTR279546 bus1=BMT103068527.1.2.3,bus2=BMT162682423.1.2.3,Phases=3,LineCode=tieSwitch,Length=0.001,Units=km,switch=T !numEQ NUMEQ:373319  - Data de conexão anterior06/2011.
new line.CTR340775 bus1=BMT103084221.1.2.3,bus2=BMT103084368.1.2.3,Phases=3,LineCode=tieSwitch,Length=0.001,Units=km,switch=T !numEQ NUMEQ:307067  - Data de conexão anterior06/2011.
new line.CTR34147 bus1=BMT161063997.1.2.3,bus2=BMT163628415.1.2.3,Phases=3,LineCode=tieSwitch,Length=0.001,Units=km,switch=T !numEQ NUMEQ:299283  - Data de conexão anterior06/2011.
new line.CTR342084 bus1=BMT103066336.1,bus2=BMT148654855.1,Phases=1,LineCode=tieSwitch1,Length=0.001,Units=km,switch=T !numEQ NUMEQ:299225  - Data de conexão anterior06/2011.
new line.CTR34217 bus1=BMT103069374.1.2.3,bus2=BMT169613076.1.2.3,Phases=3,LineCode=tieSwitch,Length=0.001,Units=km,switch=T !numEQ NUMEQ:20122  - Data de conexão anterior06/2011.
new line.CTR342280 bus1=BMT176687182.1.2.3,bus2=BMT176687212.1.2.3,Phases=3,LineCode=tieSwitch,Length=0.001,Units=km,switch=T !numEQ NUMEQ:193030  - Data de conexão anterior06/2011.
new line.CTR34245 bus1=BMT103075226.1,bus2=BMT152359724.1,Phases=1,LineCode=tieSwitch1,Length=0.001,Units=km,switch=T !numEQ NUMEQ:22312  - Data de conexão anterior06/2011.
new line.CTR4187 bus1=BMT176687775.2,bus2=BMT176687776.2,Phases=1,LineCode=tieSwitch1,Length=0.001,Units=km,switch=T !numEQ NUMEQ:206677  - Data de conexão anterior06/2011.
new line.CTR544783 bus1=BMT103067120.2,bus2=BMT103067127.2,Phases=1,LineCode=tieSwitch1,Length=0.001,Units=km,switch=T !numEQ NUMEQ:111927  - Data de conexão anterior06/2011.
new line.CTR547576 bus1=BMT176687110.1.2.3,bus2=BMT176687134.1.2.3,Phases=3,LineCode=tieSwitch,Length=0.001,Units=km,switch=T !numEQ NUMEQ:150334  - Data de conexão anterior06/2011.