new load.3009000330M1 bus1=BMT179188829.1.2.3.0,Phases=3,kv=13.800000000,kW=11.61542,pf=0.92,Vminpu=0.93,Vmaxpu=1.5,model=8,zipv=[0.5,0,0.5,1,0,0,0],daily=MT1_1,status=variable
new load.3009001171M1 bus1=BMT103064768.1.2.3.0,Phases=3,kv=13.800000000,kW=8.71156,pf=0.92,Vminpu=0.93,Vmaxpu=1.5,model=8,zipv=[0.5,0,0.5,1,0,0,0],daily=MT1_1,status=variable
new load.3009001175M1 bus1=BMT178895337.1.2.3.0,Phases=3,kv=13.800000000,kW=1223.13162,pf=0.92,Vminpu=0.93,Vmaxpu=1.5,model=8,zipv=[0.5,0,0.5,1,0,0,0],daily=MT5_1,status=variable
new load.3009001189M1 bus1=BMT178895370.1.2.3.0,Phases=3,kv=13.800000000,kW=0.00152,pf=0.92,Vminpu=0.93,Vmaxpu=1.5,model=8,zipv=[0.5,0,0.5,1,0,0,0],daily=MT1_1,status=variable
new load.3009001190M1 bus1=BMT150342174.1.2.3.0,Phases=3,kv=13.800000000,kW=0.00152,pf=0.92,Vminpu=0.93,Vmaxpu=1.5,model=8,zipv=[0.5,0,0.5,1,0,0,0],daily=MT1_1,status=variable
new load.3009001382M1 bus1=BMT103069836.1.2.3.0,Phases=3,kv=13.800000000,kW=0.00152,pf=0.92,Vminpu=0.93,Vmaxpu=1.5,model=8,zipv=[0.5,0,0.5,1,0,0,0],daily=MT1_1,status=variable
new load.3009003141M1 bus1=BMT177526350.1.2.3.0,Phases=3,kv=13.800000000,kW=0.00152,pf=0.92,Vminpu=0.93,Vmaxpu=1.5,model=8,zipv=[0.5,0,0.5,1,0,0,0],daily=MT1_1,status=variable
new load.3009009835M1 bus1=BMT103077207.1.2.3.0,Phases=3,kv=13.800000000,kW=0.00152,pf=0.92,Vminpu=0.93,Vmaxpu=1.5,model=8,zipv=[0.5,0,0.5,1,0,0,0],daily=MT1_1,status=variable
new load.3009009923M1 bus1=BMT178895350.1.2.3.0,Phases=3,kv=13.800000000,kW=0.00152,pf=0.92,Vminpu=0.93,Vmaxpu=1.5,model=8,zipv=[0.5,0,0.5,1,0,0,0],daily=MT1_1,status=variable
new load.3009010445M1 bus1=BMT176687127.1.2.3.0,Phases=3,kv=13.800000000,kW=16.46854,pf=0.92,Vminpu=0.93,Vmaxpu=1.5,model=8,zipv=[0.5,0,0.5,1,0,0,0],daily=MT4_1,status=variable
new load.3009011848M1 bus1=BMT160213176.1.2.3.0,Phases=3,kv=13.800000000,kW=14.70076,pf=0.92,Vminpu=0.93,Vmaxpu=1.5,model=8,zipv=[0.5,0,0.5,1,0,0,0],daily=MT1_1,status=variable
new load.3009012504M1 bus1=BMT150342191.1.2.3.0,Phases=3,kv=13.800000000,kW=0.00152,pf=0.92,Vminpu=0.93,Vmaxpu=1.5,model=8,zipv=[0.5,0,0.5,1,0,0,0],daily=MT1_1,status=variable
new load.3009013865M1 bus1=BMT178895342.1.2.3.0,Phases=3,kv=13.800000000,kW=17.2086,pf=0.92,Vminpu=0.93,Vmaxpu=1.5,model=8,zipv=[0.5,0,0.5,1,0,0,0],daily=MT3_1,status=variable
new load.3009014551M1 bus1=BMT178895348.1.2.3.0,Phases=3,kv=13.800000000,kW=112.11958,pf=0.92,Vminpu=0.93,Vmaxpu=1.5,model=8,zipv=[0.5,0,0.5,1,0,0,0],daily=MT3_1,status=variable
new load.3009016072M1 bus1=BMT178895210.1.2.3.0,Phases=3,kv=13.800000000,kW=60.44922,pf=0.92,Vminpu=0.93,Vmaxpu=1.5,model=8,zipv=[0.5,0,0.5,1,0,0,0],daily=MT4_1,status=variable
new load.3009016403M1 bus1=BMT103069836.1.2.3.0,Phases=3,kv=13.800000000,kW=0.00152,pf=0.92,Vminpu=0.93,Vmaxpu=1.5,model=8,zipv=[0.5,0,0.5,1,0,0,0],daily=MT1_1,status=variable
new load.3009016404M1 bus1=BMT103069850.1.2.3.0,Phases=3,kv=13.800000000,kW=1.1826,pf=0.92,Vminpu=0.93,Vmaxpu=1.5,model=8,zipv=[0.5,0,0.5,1,0,0,0],daily=MT2_1,status=variable
new load.3009017245M1 bus1=BMT103065566.1.2.3.0,Phases=3,kv=13.800000000,kW=36.24698,pf=0.92,Vminpu=0.93,Vmaxpu=1.5,model=8,zipv=[0.5,0,0.5,1,0,0,0],daily=MT2_1,status=variable
new load.3009017575M1 bus1=BMT103070361.1.2.3.0,Phases=3,kv=13.800000000,kW=13.76688,pf=0.92,Vminpu=0.93,Vmaxpu=1.5,model=8,zipv=[0.5,0,0.5,1,0,0,0],daily=MT3_1,status=variable
new load.3009017627M1 bus1=BMT178895206.1.2.3.0,Phases=3,kv=13.800000000,kW=4.83976,pf=0.92,Vminpu=0.93,Vmaxpu=1.5,model=8,zipv=[0.5,0,0.5,1,0,0,0],daily=MT1_1,status=variable
new load.3009019012M1 bus1=BMT179058738.1.2.3.0,Phases=3,kv=13.800000000,kW=820.93154,pf=0.92,Vminpu=0.93,Vmaxpu=1.5,model=8,zipv=[0.5,0,0.5,1,0,0,0],daily=MT5_1,status=variable
new load.3009019143M1 bus1=BMT103064628.1.2.3.0,Phases=3,kv=13.800000000,kW=6.0497,pf=0.92,Vminpu=0.93,Vmaxpu=1.5,model=8,zipv=[0.5,0,0.5,1,0,0,0],daily=MT1_1,status=variable
new load.3009020264M1 bus1=BMT103065671.1.2.3.0,Phases=3,kv=13.800000000,kW=34.17742,pf=0.92,Vminpu=0.93,Vmaxpu=1.5,model=8,zipv=[0.5,0,0.5,1,0,0,0],daily=MT2_1,status=variable
new load.3009020504M1 bus1=BMT171388951.1.2.3.0,Phases=3,kv=13.800000000,kW=39.73568,pf=0.92,Vminpu=0.93,Vmaxpu=1.5,model=8,zipv=[0.5,0,0.5,1,0,0,0],daily=MT2_1,status=variable
new load.3009020963M1 bus1=BMT150342174.1.2.3.0,Phases=3,kv=13.800000000,kW=0.00152,pf=0.92,Vminpu=0.93,Vmaxpu=1.5,model=8,zipv=[0.5,0,0.5,1,0,0,0],daily=MT1_1,status=variable
new load.3009020967M1 bus1=BMT103064509.1.2.3.0,Phases=3,kv=13.800000000,kW=83.7125,pf=0.92,Vminpu=0.93,Vmaxpu=1.5,model=8,zipv=[0.5,0,0.5,1,0,0,0],daily=MT2_1,status=variable
new load.3009022046M1 bus1=BMT103077207.1.2.3.0,Phases=3,kv=13.800000000,kW=0.00152,pf=0.92,Vminpu=0.93,Vmaxpu=1.5,model=8,zipv=[0.5,0,0.5,1,0,0,0],daily=MT1_1,status=variable
new load.3010011507M1 bus1=BMT178895340.1.2.3.0,Phases=3,kv=13.800000000,kW=47.60004,pf=0.92,Vminpu=0.93,Vmaxpu=1.5,model=8,zipv=[0.5,0,0.5,1,0,0,0],daily=MT2_1,status=variable
new load.3010138714M1 bus1=BMT103085215.1.2.3.0,Phases=3,kv=13.800000000,kW=3.8718,pf=0.92,Vminpu=0.93,Vmaxpu=1.5,model=8,zipv=[0.5,0,0.5,1,0,0,0],daily=MT1_1,status=variable
new load.3010149291M1 bus1=BMT176687135.1.2.3.0,Phases=3,kv=13.800000000,kW=0.47546,pf=0.92,Vminpu=0.93,Vmaxpu=1.5,model=8,zipv=[0.5,0,0.5,1,0,0,0],daily=MT1_1,status=variable
new load.3010214654M1 bus1=BMT178895318.1.2.3.0,Phases=3,kv=13.800000000,kW=18.69356,pf=0.92,Vminpu=0.93,Vmaxpu=1.5,model=8,zipv=[0.5,0,0.5,1,0,0,0],daily=MT1_1,status=variable
new load.3010452177M1 bus1=BMT103085075.1.2.3.0,Phases=3,kv=13.800000000,kW=4.2574,pf=0.92,Vminpu=0.93,Vmaxpu=1.5,model=8,zipv=[0.5,0,0.5,1,0,0,0],daily=MT2_1,status=variable
new load.3010487160M1 bus1=BMT176687129.1.2.3.0,Phases=3,kv=13.800000000,kW=15.7653,pf=0.92,Vminpu=0.93,Vmaxpu=1.5,model=8,zipv=[0.5,0,0.5,1,0,0,0],daily=MT3_1,status=variable
new load.3010678728M1 bus1=BMT178895424.1.2.3.0,Phases=3,kv=13.800000000,kW=98.5247,pf=0.92,Vminpu=0.93,Vmaxpu=1.5,model=8,zipv=[0.5,0,0.5,1,0,0,0],daily=MT2_1,status=variable
new load.3010720442M1 bus1=BMT178895344.1.2.3.0,Phases=3,kv=13.800000000,kW=0.00152,pf=0.92,Vminpu=0.93,Vmaxpu=1.5,model=8,zipv=[0.5,0,0.5,1,0,0,0],daily=MT1_1,status=variable
new load.3011387897M1 bus1=BMT179141293.1.2.3.0,Phases=3,kv=13.800000000,kW=25.45568,pf=0.92,Vminpu=0.93,Vmaxpu=1.5,model=8,zipv=[0.5,0,0.5,1,0,0,0],daily=MT2_1,status=variable
new load.3011460310M1 bus1=BMT150342191.1.2.3.0,Phases=3,kv=13.800000000,kW=217.15358,pf=0.92,Vminpu=0.93,Vmaxpu=1.5,model=8,zipv=[0.5,0,0.5,1,0,0,0],daily=MT4_1,status=variable
new load.3011482587M1 bus1=BMT150342191.1.2.3.0,Phases=3,kv=13.800000000,kW=0.00152,pf=0.92,Vminpu=0.93,Vmaxpu=1.5,model=8,zipv=[0.5,0,0.5,1,0,0,0],daily=MT1_1,status=variable
new load.3011655134M1 bus1=BMT178895368.1.2.3.0,Phases=3,kv=13.800000000,kW=55.12302,pf=0.92,Vminpu=0.93,Vmaxpu=1.5,model=8,zipv=[0.5,0,0.5,1,0,0,0],daily=MT3_1,status=variable
new load.3011718687M1 bus1=BMT178895364.1.2.3.0,Phases=3,kv=13.800000000,kW=32.16698,pf=0.92,Vminpu=0.93,Vmaxpu=1.5,model=8,zipv=[0.5,0,0.5,1,0,0,0],daily=MT2_1,status=variable
new load.3011894047M1 bus1=BMT168146744.1.2.3.0,Phases=3,kv=13.800000000,kW=0.00152,pf=0.92,Vminpu=0.93,Vmaxpu=1.5,model=8,zipv=[0.5,0,0.5,1,0,0,0],daily=MT1_1,status=variable
new load.3011906979M1 bus1=BMT136819419.1.2.3.0,Phases=3,kv=13.800000000,kW=12.37926,pf=0.92,Vminpu=0.93,Vmaxpu=1.5,model=8,zipv=[0.5,0,0.5,1,0,0,0],daily=MT2_1,status=variable
new load.3012111843M1 bus1=BMT150948129.1.2.3.0,Phases=3,kv=13.800000000,kW=106.36024,pf=0.92,Vminpu=0.93,Vmaxpu=1.5,model=8,zipv=[0.5,0,0.5,1,0,0,0],daily=MT3_1,status=variable
new load.3012503256M1 bus1=BMT178895372.1.2.3.0,Phases=3,kv=13.800000000,kW=128.14578,pf=0.92,Vminpu=0.93,Vmaxpu=1.5,model=8,zipv=[0.5,0,0.5,1,0,0,0],daily=MT3_1,status=variable
new load.3012588013M1 bus1=BMT156761793.1.2.3.0,Phases=3,kv=13.800000000,kW=8.03438,pf=0.92,Vminpu=0.93,Vmaxpu=1.5,model=8,zipv=[0.5,0,0.5,1,0,0,0],daily=MT1_1,status=variable
new load.3012751964M1 bus1=BMT178895356.1.2.3.0,Phases=3,kv=13.800000000,kW=17.8466,pf=0.92,Vminpu=0.93,Vmaxpu=1.5,model=8,zipv=[0.5,0,0.5,1,0,0,0],daily=MT1_1,status=variable
new load.3012920179M1 bus1=BMT156708219.1.2.3.0,Phases=3,kv=13.800000000,kW=16.69716,pf=0.92,Vminpu=0.93,Vmaxpu=1.5,model=8,zipv=[0.5,0,0.5,1,0,0,0],daily=MT1_1,status=variable
new load.3013273131M1 bus1=BMT178895344.1.2.3.0,Phases=3,kv=13.800000000,kW=551.08184,pf=0.92,Vminpu=0.93,Vmaxpu=1.5,model=8,zipv=[0.5,0,0.5,1,0,0,0],daily=MT5_1,status=variable
new load.3013292388M1 bus1=BMT177526350.1.2.3.0,Phases=3,kv=13.800000000,kW=945.152,pf=0.92,Vminpu=0.93,Vmaxpu=1.5,model=8,zipv=[0.5,0,0.5,1,0,0,0],daily=MT5_1,status=variable
new load.3013450852M1 bus1=BMT168146744.1.2.3.0,Phases=3,kv=13.800000000,kW=80.22538,pf=0.92,Vminpu=0.93,Vmaxpu=1.5,model=8,zipv=[0.5,0,0.5,1,0,0,0],daily=MT3_1,status=variable
new load.3013553063M1 bus1=BMT178895424.1.2.3.0,Phases=3,kv=13.800000000,kW=0.00152,pf=0.92,Vminpu=0.93,Vmaxpu=1.5,model=8,zipv=[0.5,0,0.5,1,0,0,0],daily=MT1_1,status=variable
new load.3013553703M1 bus1=BMT103064509.1.2.3.0,Phases=3,kv=13.800000000,kW=0.00152,pf=0.92,Vminpu=0.93,Vmaxpu=1.5,model=8,zipv=[0.5,0,0.5,1,0,0,0],daily=MT1_1,status=variable
new load.3014095940M1 bus1=BMT179058738.1.2.3.0,Phases=3,kv=13.800000000,kW=0.00152,pf=0.92,Vminpu=0.93,Vmaxpu=1.5,model=8,zipv=[0.5,0,0.5,1,0,0,0],daily=MT1_1,status=variable
new load.3014244279M1 bus1=BMT179058738.1.2.3.0,Phases=3,kv=13.800000000,kW=0.00152,pf=0.92,Vminpu=0.93,Vmaxpu=1.5,model=8,zipv=[0.5,0,0.5,1,0,0,0],daily=MT1_1,status=variable
new load.3014339044M1 bus1=BMT178895372.1.2.3.0,Phases=3,kv=13.800000000,kW=0.00152,pf=0.92,Vminpu=0.93,Vmaxpu=1.5,model=8,zipv=[0.5,0,0.5,1,0,0,0],daily=MT1_1,status=variable
