new transformer.TRF_1068937A Phases=1,Windings=3,Buses=[BMT103081337.1 BBT14799080.1.0 BBT14799080.0.2],Conns=[wye wye wye],kvs=[7.967 0.12 0.12],kvas=[15.000000000 15.000000000 15.000000000],Taps=[1,1.000000000,1.000000000],XHL=1.770000000,XHT=1.770000000,XLT=1.416000000,%loadloss=1.770000000,%noloadloss=0.433000000
new transformer.TRF_1068958A Phases=1,Windings=3,Buses=[BMT176687753.2 BBT14801950.1.0 BBT14801950.0.2],Conns=[wye wye wye],kvs=[7.967 0.12 0.12],kvas=[15.000000000 15.000000000 15.000000000],Taps=[1,1.000000000,1.000000000],XHL=1.770000000,XHT=1.770000000,XLT=1.416000000,%loadloss=1.770000000,%noloadloss=0.433000000
new transformer.TRF_10690A Phases=1,Windings=3,Buses=[BMT180183255.3 BBT100605.1.0 BBT100605.0.2],Conns=[wye wye wye],kvs=[7.967 0.12 0.12],kvas=[5.000000000 5.000000000 5.000000000],Taps=[1,1.000000000,1.000000000],XHL=1.360000000,XHT=1.360000000,XLT=1.088000000,%loadloss=2.100000000,%noloadloss=0.700000000
new transformer.TRF_1069490A Phases=1,Windings=3,Buses=[BMT179729752.1 BBT15017046.1.0 BBT15017046.0.2],Conns=[wye wye wye],kvs=[7.967 0.12 0.12],kvas=[5.000000000 5.000000000 5.000000000],Taps=[1,1.000000000,1.000000000],XHL=1.360000000,XHT=1.360000000,XLT=1.088000000,%loadloss=2.100000000,%noloadloss=0.700000000
new transformer.TRF_1069518A Phases=1,Windings=3,Buses=[BMT176687342.2 BBT15031774.1.0 BBT15031774.0.2],Conns=[wye wye wye],kvs=[7.967 0.12 0.12],kvas=[15.000000000 15.000000000 15.000000000],Taps=[1,1.000000000,1.000000000],XHL=1.770000000,XHT=1.770000000,XLT=1.416000000,%loadloss=1.770000000,%noloadloss=0.433000000
new transformer.TRF_1069882A Phases=1,Windings=3,Buses=[BMT176687727.2 BBT15198682.1.0 BBT15198682.0.2],Conns=[wye wye wye],kvs=[7.967 0.12 0.12],kvas=[10.000000000 10.000000000 10.000000000],Taps=[1,1.000000000,1.000000000],XHL=1.560000000,XHT=1.560000000,XLT=1.248000000,%loadloss=1.950000000,%noloadloss=0.500000000
new transformer.TRF_1070232A Phases=1,Windings=3,Buses=[BMT178128335.2 BBT15289262.1.0 BBT15289262.0.2],Conns=[wye wye wye],kvs=[7.967 0.12 0.12],kvas=[5.000000000 5.000000000 5.000000000],Taps=[1,1.000000000,1.000000000],XHL=1.360000000,XHT=1.360000000,XLT=1.088000000,%loadloss=2.100000000,%noloadloss=0.700000000
new transformer.TRF_1082083A Phases=1,Windings=3,Buses=[BMT179026251.3 BBT18675477.1.0 BBT18675477.0.2],Conns=[wye wye wye],kvs=[7.967 0.12 0.12],kvas=[10.000000000 10.000000000 10.000000000],Taps=[1,1.000000000,1.000000000],XHL=1.560000000,XHT=1.560000000,XLT=1.248000000,%loadloss=1.950000000,%noloadloss=0.500000000
new transformer.TRF_10823A Phases=1,Windings=3,Buses=[BMT179938879.3 BBT100892.1.0 BBT100892.0.2],Conns=[wye wye wye],kvs=[7.967 0.12 0.12],kvas=[10.000000000 10.000000000 10.000000000],Taps=[1,1.000000000,1.000000000],XHL=1.560000000,XHT=1.560000000,XLT=1.248000000,%loadloss=1.950000000,%noloadloss=0.500000000
new transformer.TRF_1082818A Phases=1,Windings=3,Buses=[BMT176947707.1 BBT18868957.1.0 BBT18868957.0.2],Conns=[wye wye wye],kvs=[7.967 0.12 0.12],kvas=[5.000000000 5.000000000 5.000000000],Taps=[1,1.000000000,1.000000000],XHL=1.360000000,XHT=1.360000000,XLT=1.088000000,%loadloss=2.100000000,%noloadloss=0.700000000
new transformer.TRF_10837A Phases=1,Windings=3,Buses=[BMT176687755.2 BBT100920.1.0 BBT100920.0.2],Conns=[wye wye wye],kvs=[7.967 0.12 0.12],kvas=[10.000000000 10.000000000 10.000000000],Taps=[1,1.000000000,1.000000000],XHL=1.560000000,XHT=1.560000000,XLT=1.248000000,%loadloss=1.950000000,%noloadloss=0.500000000
new transformer.TRF_1096125A Phases=1,Windings=3,Buses=[BMT176687451.3 BBT22195490.1.0 BBT22195490.0.2],Conns=[wye wye wye],kvs=[7.967 0.12 0.12],kvas=[5.000000000 5.000000000 5.000000000],Taps=[1,1.000000000,1.000000000],XHL=1.360000000,XHT=1.360000000,XLT=1.088000000,%loadloss=2.100000000,%noloadloss=0.700000000
new transformer.TRF_10963A Phases=1,Windings=3,Buses=[BMT103078187.1 BBT101354.1.0 BBT101354.0.2],Conns=[wye wye wye],kvs=[7.967 0.12 0.12],kvas=[5.000000000 5.000000000 5.000000000],Taps=[1,1.000000000,1.000000000],XHL=1.360000000,XHT=1.360000000,XLT=1.088000000,%loadloss=2.100000000,%noloadloss=0.700000000
new transformer.TRF_11089A Phases=1,Windings=3,Buses=[BMT176687750.2 BBT101718.1.0 BBT101718.0.2],Conns=[wye wye wye],kvs=[7.967 0.12 0.12],kvas=[15.000000000 15.000000000 15.000000000],Taps=[1,1.000000000,1.000000000],XHL=1.770000000,XHT=1.770000000,XLT=1.416000000,%loadloss=1.770000000,%noloadloss=0.433000000
new transformer.TRF_11096A Phases=1,Windings=3,Buses=[BMT180114353.2 BBT101732.1.0 BBT101732.0.2],Conns=[wye wye wye],kvs=[7.967 0.12 0.12],kvas=[35.000000000 35.000000000 35.000000000],Taps=[1,1.000000000,1.000000000],XHL=2.060000000,XHT=2.060000000,XLT=1.648000000,%loadloss=1.410000000,%noloadloss=0.385000000
new transformer.TRF_11236A Phases=1,Windings=3,Buses=[BMT103078124.1 BBT102145.1.0 BBT102145.0.2],Conns=[wye wye wye],kvs=[7.967 0.12 0.12],kvas=[10.000000000 10.000000000 10.000000000],Taps=[1,1.000000000,1.000000000],XHL=1.560000000,XHT=1.560000000,XLT=1.248000000,%loadloss=1.950000000,%noloadloss=0.500000000
new transformer.TRF_1123936A Phases=1,Windings=3,Buses=[BMT176687778.2 BBT28057003.1.0 BBT28057003.0.2],Conns=[wye wye wye],kvs=[7.967 0.12 0.12],kvas=[5.000000000 5.000000000 5.000000000],Taps=[1,1.000000000,1.000000000],XHL=1.360000000,XHT=1.360000000,XLT=1.088000000,%loadloss=2.100000000,%noloadloss=0.700000000
new transformer.TRF_11243A Phases=1,Windings=3,Buses=[BMT176687371.1 BBT102159.1.0 BBT102159.0.2],Conns=[wye wye wye],kvs=[7.967 0.12 0.12],kvas=[10.000000000 10.000000000 10.000000000],Taps=[1,1.000000000,1.000000000],XHL=1.560000000,XHT=1.560000000,XLT=1.248000000,%loadloss=1.950000000,%noloadloss=0.500000000
new transformer.TRF_1124622A Phases=1,Windings=3,Buses=[BMT176687653.2 BBT28144132.1.0 BBT28144132.0.2],Conns=[wye wye wye],kvs=[7.967 0.12 0.12],kvas=[10.000000000 10.000000000 10.000000000],Taps=[1,1.000000000,1.000000000],XHL=1.560000000,XHT=1.560000000,XLT=1.248000000,%loadloss=1.950000000,%noloadloss=0.500000000
new transformer.TRF_11250A Phases=1,Windings=3,Buses=[BMT162957258.1 BBT102173.1.0 BBT102173.0.2],Conns=[wye wye wye],kvs=[7.967 0.12 0.12],kvas=[10.000000000 10.000000000 10.000000000],Taps=[1,1.000000000,1.000000000],XHL=1.560000000,XHT=1.560000000,XLT=1.248000000,%loadloss=1.950000000,%noloadloss=0.500000000
new transformer.TRF_1125161A Phases=1,Windings=3,Buses=[BMT180183398.3 BBT28239556.1.0 BBT28239556.0.2],Conns=[wye wye wye],kvs=[7.967 0.12 0.12],kvas=[5.000000000 5.000000000 5.000000000],Taps=[1,1.000000000,1.000000000],XHL=1.360000000,XHT=1.360000000,XLT=1.088000000,%loadloss=2.100000000,%noloadloss=0.700000000
new transformer.TRF_1125168A Phases=1,Windings=3,Buses=[BMT174396404.1 BBT28240088.1.0 BBT28240088.0.2],Conns=[wye wye wye],kvs=[7.967 0.12 0.12],kvas=[5.000000000 5.000000000 5.000000000],Taps=[1,1.000000000,1.000000000],XHL=1.360000000,XHT=1.360000000,XLT=1.088000000,%loadloss=2.100000000,%noloadloss=0.700000000
new transformer.TRF_1125175A Phases=1,Windings=3,Buses=[BMT176687708.2 BBT28240991.1.0 BBT28240991.0.2],Conns=[wye wye wye],kvs=[7.967 0.12 0.12],kvas=[5.000000000 5.000000000 5.000000000],Taps=[1,1.000000000,1.000000000],XHL=1.360000000,XHT=1.360000000,XLT=1.088000000,%loadloss=2.100000000,%noloadloss=0.700000000
new transformer.TRF_10571A Phases=1,Windings=3,Buses=[BMT176947700.1 BBT100269.1.0 BBT100269.0.2],Conns=[wye wye wye],kvs=[7.967 0.12 0.12],kvas=[10.000000000 10.000000000 10.000000000],Taps=[1,1.000000000,1.000000000],XHL=1.560000000,XHT=1.560000000,XLT=1.248000000,%loadloss=1.950000000,%noloadloss=0.500000000
new transformer.TRF_10578A Phases=1,Windings=3,Buses=[BMT176947697.1 BBT100283.1.0 BBT100283.0.2],Conns=[wye wye wye],kvs=[7.967 0.12 0.12],kvas=[10.000000000 10.000000000 10.000000000],Taps=[1,1.000000000,1.000000000],XHL=1.560000000,XHT=1.560000000,XLT=1.248000000,%loadloss=1.950000000,%noloadloss=0.500000000
new transformer.TRF_1058A Phases=1,Windings=3,Buses=[BMT103085341.1 BBT10158.1.0 BBT10158.0.2],Conns=[wye wye wye],kvs=[7.967 0.12 0.12],kvas=[15.000000000 15.000000000 15.000000000],Taps=[1,1.000000000,1.000000000],XHL=1.770000000,XHT=1.770000000,XLT=1.416000000,%loadloss=1.770000000,%noloadloss=0.433000000
new transformer.TRF_10704A Phases=1,Windings=3,Buses=[BMT176947698.1 BBT100661.1.0 BBT100661.0.2],Conns=[wye wye wye],kvs=[7.967 0.12 0.12],kvas=[10.000000000 10.000000000 10.000000000],Taps=[1,1.000000000,1.000000000],XHL=1.560000000,XHT=1.560000000,XLT=1.248000000,%loadloss=1.950000000,%noloadloss=0.500000000
new transformer.TRF_1070505A Phases=1,Windings=3,Buses=[BMT163216418.2 BBT15387927.1.0 BBT15387927.0.2],Conns=[wye wye wye],kvs=[7.967 0.12 0.12],kvas=[5.000000000 5.000000000 5.000000000],Taps=[1,1.000000000,1.000000000],XHL=1.360000000,XHT=1.360000000,XLT=1.088000000,%loadloss=2.100000000,%noloadloss=0.700000000
new transformer.TRF_1070645 Phases=3,Windings=2,Buses=[BMT176073372.1.2.3 BBT15420806.1.2.3.0],Conns=[delta wye],kvs=[13.800000000 0.22],kvas=[75.000000000 75.000000000],Taps=[1,1.000000000],XHL=3.720000000,%loadloss=1.470000000,%noloadloss=0.393000000
new transformer.TRF_1070841A Phases=1,Windings=3,Buses=[BMT180183308.3 BBT15553687.1.0 BBT15553687.0.2],Conns=[wye wye wye],kvs=[7.967 0.12 0.12],kvas=[5.000000000 5.000000000 5.000000000],Taps=[1,1.000000000,1.000000000],XHL=1.360000000,XHT=1.360000000,XLT=1.088000000,%loadloss=2.100000000,%noloadloss=0.700000000
new transformer.TRF_1070876A Phases=1,Windings=3,Buses=[BMT180183282.3 BBT15570669.1.0 BBT15570669.0.2],Conns=[wye wye wye],kvs=[7.967 0.12 0.12],kvas=[10.000000000 10.000000000 10.000000000],Taps=[1,1.000000000,1.000000000],XHL=1.560000000,XHT=1.560000000,XLT=1.248000000,%loadloss=1.950000000,%noloadloss=0.500000000
new transformer.TRF_10711A Phases=1,Windings=3,Buses=[BMT165901614.1 BBT100675.1.0 BBT100675.0.2],Conns=[wye wye wye],kvs=[7.967 0.12 0.12],kvas=[10.000000000 10.000000000 10.000000000],Taps=[1,1.000000000,1.000000000],XHL=1.560000000,XHT=1.560000000,XLT=1.248000000,%loadloss=1.950000000,%noloadloss=0.500000000
new transformer.TRF_10718A Phases=1,Windings=3,Buses=[BMT176947703.1 BBT100682.1.0 BBT100682.0.2],Conns=[wye wye wye],kvs=[7.967 0.12 0.12],kvas=[5.000000000 5.000000000 5.000000000],Taps=[1,1.000000000,1.000000000],XHL=1.360000000,XHT=1.360000000,XLT=1.088000000,%loadloss=2.100000000,%noloadloss=0.700000000
new transformer.TRF_1072 Phases=3,Windings=2,Buses=[BMT136532811.1.2.3 BBT10298.1.2.3.0],Conns=[delta wye],kvs=[13.800000000 0.22],kvas=[45.000000000 45.000000000],Taps=[1,1.000000000],XHL=3.640000000,%loadloss=1.670000000,%noloadloss=0.433000000
new transformer.TRF_10858A Phases=1,Windings=3,Buses=[BMT176687701.2 BBT100962.1.0 BBT100962.0.2],Conns=[wye wye wye],kvs=[7.967 0.12 0.12],kvas=[35.000000000 35.000000000 35.000000000],Taps=[1,1.000000000,1.000000000],XHL=2.060000000,XHT=2.060000000,XLT=1.648000000,%loadloss=1.410000000,%noloadloss=0.385000000
new transformer.TRF_1086 Phases=3,Windings=2,Buses=[BMT176316496.1.2.3 BBT10487.1.2.3.0],Conns=[delta wye],kvs=[13.800000000 0.22],kvas=[45.000000000 45.000000000],Taps=[1,1.000000000],XHL=3.640000000,%loadloss=1.670000000,%noloadloss=0.433000000
new transformer.TRF_10865 Phases=3,Windings=2,Buses=[BMT179938894.1.2.3 BBT100976.1.2.3.0],Conns=[delta wye],kvs=[13.800000000 0.22],kvas=[15.000000000 15.000000000],Taps=[1,1.000000000],XHL=3.360000000,%loadloss=2.170000000,%noloadloss=0.566000000
new transformer.TRF_10872A Phases=1,Windings=3,Buses=[BMT179208120.2 BBT100990.1.0 BBT100990.0.2],Conns=[wye wye wye],kvs=[7.967 0.12 0.12],kvas=[5.000000000 5.000000000 5.000000000],Taps=[1,1.000000000,1.000000000],XHL=1.360000000,XHT=1.360000000,XLT=1.088000000,%loadloss=2.100000000,%noloadloss=0.700000000
new transformer.TRF_1101158A Phases=1,Windings=3,Buses=[BMT180183399.3 BBT23585151.1.0 BBT23585151.0.2],Conns=[wye wye wye],kvs=[7.967 0.12 0.12],kvas=[5.000000000 5.000000000 5.000000000],Taps=[1,1.000000000,1.000000000],XHL=1.360000000,XHT=1.360000000,XLT=1.088000000,%loadloss=2.100000000,%noloadloss=0.700000000
new transformer.TRF_11012A Phases=1,Windings=3,Buses=[BMT176688389.2 BBT101508.1.0 BBT101508.0.2],Conns=[wye wye wye],kvs=[7.967 0.12 0.12],kvas=[25.000000000 25.000000000 25.000000000],Taps=[1,1.000000000,1.000000000],XHL=1.950000000,XHT=1.950000000,XLT=1.560000000,%loadloss=1.560000000,%noloadloss=0.360000000
new transformer.TRF_11019A Phases=1,Windings=3,Buses=[BMT176688387.2 BBT101522.1.0 BBT101522.0.2],Conns=[wye wye wye],kvs=[7.967 0.12 0.12],kvas=[5.000000000 5.000000000 5.000000000],Taps=[1,1.000000000,1.000000000],XHL=1.360000000,XHT=1.360000000,XLT=1.088000000,%loadloss=2.100000000,%noloadloss=0.700000000
new transformer.TRF_11159A Phases=1,Windings=3,Buses=[BMT103077459.2 BBT101991.1.0 BBT101991.0.2],Conns=[wye wye wye],kvs=[7.967 0.12 0.12],kvas=[10.000000000 10.000000000 10.000000000],Taps=[1,1.000000000,1.000000000],XHL=1.560000000,XHT=1.560000000,XLT=1.248000000,%loadloss=1.950000000,%noloadloss=0.500000000
new transformer.TRF_11166A Phases=1,Windings=3,Buses=[BMT103078138.1 BBT102005.1.0 BBT102005.0.2],Conns=[wye wye wye],kvs=[7.967 0.12 0.12],kvas=[5.000000000 5.000000000 5.000000000],Taps=[1,1.000000000,1.000000000],XHL=1.360000000,XHT=1.360000000,XLT=1.088000000,%loadloss=2.100000000,%noloadloss=0.700000000
new transformer.TRF_11173A Phases=1,Windings=3,Buses=[BMT162957254.1 BBT102019.1.0 BBT102019.0.2],Conns=[wye wye wye],kvs=[7.967 0.12 0.12],kvas=[10.000000000 10.000000000 10.000000000],Taps=[1,1.000000000,1.000000000],XHL=1.560000000,XHT=1.560000000,XLT=1.248000000,%loadloss=1.950000000,%noloadloss=0.500000000
new transformer.TRF_1135 Phases=3,Windings=2,Buses=[BMT103085271.1.2.3 BBT10984.1.2.3.0],Conns=[delta wye],kvs=[13.800000000 0.22],kvas=[75.000000000 75.000000000],Taps=[1,1.000000000],XHL=3.720000000,%loadloss=1.470000000,%noloadloss=0.393000000
new transformer.TRF_1156 Phases=3,Windings=2,Buses=[BMT103065825.1.2.3 BBT11117.1.2.3.0],Conns=[delta wye],kvs=[13.800000000 0.22],kvas=[75.000000000 75.000000000],Taps=[1,1.000000000],XHL=3.720000000,%loadloss=1.470000000,%noloadloss=0.393000000
new transformer.TRF_1125245A Phases=1,Windings=3,Buses=[BMT180183258.3 BBT28251085.1.0 BBT28251085.0.2],Conns=[wye wye wye],kvs=[7.967 0.12 0.12],kvas=[5.000000000 5.000000000 5.000000000],Taps=[1,1.000000000,1.000000000],XHL=1.360000000,XHT=1.360000000,XLT=1.088000000,%loadloss=2.100000000,%noloadloss=0.700000000
new transformer.TRF_1125252A Phases=1,Windings=3,Buses=[BMT176687769.2 BBT28251624.1.0 BBT28251624.0.2],Conns=[wye wye wye],kvs=[7.967 0.12 0.12],kvas=[5.000000000 5.000000000 5.000000000],Taps=[1,1.000000000,1.000000000],XHL=1.360000000,XHT=1.360000000,XLT=1.088000000,%loadloss=2.100000000,%noloadloss=0.700000000
new transformer.TRF_1125266A Phases=1,Windings=3,Buses=[BMT179026191.3 BBT28252933.1.0 BBT28252933.0.2],Conns=[wye wye wye],kvs=[7.967 0.12 0.12],kvas=[10.000000000 10.000000000 10.000000000],Taps=[1,1.000000000,1.000000000],XHL=1.560000000,XHT=1.560000000,XLT=1.248000000,%loadloss=1.950000000,%noloadloss=0.500000000
new transformer.TRF_1125385A Phases=1,Windings=3,Buses=[BMT176687329.2 BBT28285119.1.0 BBT28285119.0.2],Conns=[wye wye wye],kvs=[7.967 0.12 0.12],kvas=[15.000000000 15.000000000 15.000000000],Taps=[1,1.000000000,1.000000000],XHL=1.770000000,XHT=1.770000000,XLT=1.416000000,%loadloss=1.770000000,%noloadloss=0.433000000
new transformer.TRF_1125406A Phases=1,Windings=3,Buses=[BMT176687462.3 BBT28294324.1.0 BBT28294324.0.2],Conns=[wye wye wye],kvs=[7.967 0.12 0.12],kvas=[10.000000000 10.000000000 10.000000000],Taps=[1,1.000000000,1.000000000],XHL=1.560000000,XHT=1.560000000,XLT=1.248000000,%loadloss=1.950000000,%noloadloss=0.500000000
new transformer.TRF_1125413A Phases=1,Windings=3,Buses=[BMT176687463.3 BBT28294527.1.0 BBT28294527.0.2],Conns=[wye wye wye],kvs=[7.967 0.12 0.12],kvas=[10.000000000 10.000000000 10.000000000],Taps=[1,1.000000000,1.000000000],XHL=1.560000000,XHT=1.560000000,XLT=1.248000000,%loadloss=1.950000000,%noloadloss=0.500000000
new transformer.TRF_1125420A Phases=1,Windings=3,Buses=[BMT176687465.3 BBT28294877.1.0 BBT28294877.0.2],Conns=[wye wye wye],kvs=[7.967 0.12 0.12],kvas=[5.000000000 5.000000000 5.000000000],Taps=[1,1.000000000,1.000000000],XHL=1.360000000,XHT=1.360000000,XLT=1.088000000,%loadloss=2.100000000,%noloadloss=0.700000000
new transformer.TRF_1125427A Phases=1,Windings=3,Buses=[BMT176687466.3 BBT28295255.1.0 BBT28295255.0.2],Conns=[wye wye wye],kvs=[7.967 0.12 0.12],kvas=[10.000000000 10.000000000 10.000000000],Taps=[1,1.000000000,1.000000000],XHL=1.560000000,XHT=1.560000000,XLT=1.248000000,%loadloss=1.950000000,%noloadloss=0.500000000
new transformer.TRF_1169989A Phases=1,Windings=3,Buses=[BMT179938898.2 BBT36286602.1.0 BBT36286602.0.2],Conns=[wye wye wye],kvs=[7.967 0.12 0.12],kvas=[35.000000000 35.000000000 35.000000000],Taps=[1,1.000000000,1.000000000],XHL=2.060000000,XHT=2.060000000,XLT=1.648000000,%loadloss=1.410000000,%noloadloss=0.385000000
new transformer.TRF_1170 Phases=3,Windings=2,Buses=[BMT136524068.1.2.3 BBT11299.1.2.3.0],Conns=[delta wye],kvs=[13.800000000 0.22],kvas=[75.000000000 75.000000000],Taps=[1,1.000000000],XHL=3.720000000,%loadloss=1.470000000,%noloadloss=0.393000000
new transformer.TRF_1170675A Phases=1,Windings=3,Buses=[BMT180183257.3 BBT36425342.1.0 BBT36425342.0.2],Conns=[wye wye wye],kvs=[7.967 0.12 0.12],kvas=[5.000000000 5.000000000 5.000000000],Taps=[1,1.000000000,1.000000000],XHL=1.360000000,XHT=1.360000000,XLT=1.088000000,%loadloss=2.100000000,%noloadloss=0.700000000
new transformer.TRF_1170906A Phases=1,Windings=3,Buses=[BMT180183262.3 BBT36453937.1.0 BBT36453937.0.2],Conns=[wye wye wye],kvs=[7.967 0.12 0.12],kvas=[10.000000000 10.000000000 10.000000000],Taps=[1,1.000000000,1.000000000],XHL=1.560000000,XHT=1.560000000,XLT=1.248000000,%loadloss=1.950000000,%noloadloss=0.500000000
new transformer.TRF_1170969A Phases=1,Windings=3,Buses=[BMT180183263.3 BBT36466474.1.0 BBT36466474.0.2],Conns=[wye wye wye],kvs=[7.967 0.12 0.12],kvas=[5.000000000 5.000000000 5.000000000],Taps=[1,1.000000000,1.000000000],XHL=1.360000000,XHT=1.360000000,XLT=1.088000000,%loadloss=2.100000000,%noloadloss=0.700000000
new transformer.TRF_1193446A Phases=1,Windings=3,Buses=[BMT103070333.1 BBT42631451.1.0 BBT42631451.0.2],Conns=[wye wye wye],kvs=[7.967 0.12 0.12],kvas=[5.000000000 5.000000000 5.000000000],Taps=[1,1.000000000,1.000000000],XHL=1.360000000,XHT=1.360000000,XLT=1.088000000,%loadloss=2.100000000,%noloadloss=0.700000000
new transformer.TRF_1193467A Phases=1,Windings=3,Buses=[BMT103070340.1 BBT42631535.1.0 BBT42631535.0.2],Conns=[wye wye wye],kvs=[7.967 0.12 0.12],kvas=[5.000000000 5.000000000 5.000000000],Taps=[1,1.000000000,1.000000000],XHL=1.360000000,XHT=1.360000000,XLT=1.088000000,%loadloss=2.100000000,%noloadloss=0.700000000
new transformer.TRF_1193908A Phases=1,Windings=3,Buses=[BMT166436255.2 BBT42937393.1.0 BBT42937393.0.2],Conns=[wye wye wye],kvs=[7.967 0.12 0.12],kvas=[10.000000000 10.000000000 10.000000000],Taps=[1,1.000000000,1.000000000],XHL=1.560000000,XHT=1.560000000,XLT=1.248000000,%loadloss=1.950000000,%noloadloss=0.500000000
new transformer.TRF_1215160A Phases=1,Windings=3,Buses=[BMT176687714.2 BBT47258745.1.0 BBT47258745.0.2],Conns=[wye wye wye],kvs=[7.967 0.12 0.12],kvas=[5.000000000 5.000000000 5.000000000],Taps=[1,1.000000000,1.000000000],XHL=1.360000000,XHT=1.360000000,XLT=1.088000000,%loadloss=2.100000000,%noloadloss=0.700000000
new transformer.TRF_1215167A Phases=1,Windings=3,Buses=[BMT176687715.2 BBT47259130.1.0 BBT47259130.0.2],Conns=[wye wye wye],kvs=[7.967 0.12 0.12],kvas=[5.000000000 5.000000000 5.000000000],Taps=[1,1.000000000,1.000000000],XHL=1.360000000,XHT=1.360000000,XLT=1.088000000,%loadloss=2.100000000,%noloadloss=0.700000000
new transformer.TRF_1297711A Phases=1,Windings=3,Buses=[BMT175019232.2 BBT81524711.1.0 BBT81524711.0.2],Conns=[wye wye wye],kvs=[7.967 0.12 0.12],kvas=[10.000000000 10.000000000 10.000000000],Taps=[1,1.000000000,1.000000000],XHL=1.560000000,XHT=1.560000000,XLT=1.248000000,%loadloss=1.950000000,%noloadloss=0.500000000
new transformer.TRF_1297837A Phases=1,Windings=3,Buses=[BMT179207819.2 BBT81519951.1.0 BBT81519951.0.2],Conns=[wye wye wye],kvs=[7.967 0.12 0.12],kvas=[5.000000000 5.000000000 5.000000000],Taps=[1,1.000000000,1.000000000],XHL=1.360000000,XHT=1.360000000,XLT=1.088000000,%loadloss=2.100000000,%noloadloss=0.700000000
new transformer.TRF_1298740A Phases=1,Windings=3,Buses=[BMT103073784.3 BBT81541259.1.0 BBT81541259.0.2],Conns=[wye wye wye],kvs=[7.967 0.12 0.12],kvas=[5.000000000 5.000000000 5.000000000],Taps=[1,1.000000000,1.000000000],XHL=1.360000000,XHT=1.360000000,XLT=1.088000000,%loadloss=2.100000000,%noloadloss=0.700000000
new transformer.TRF_1298747A Phases=1,Windings=3,Buses=[BMT174396402.1 BBT83300422.1.0 BBT83300422.0.2],Conns=[wye wye wye],kvs=[7.967 0.12 0.12],kvas=[5.000000000 5.000000000 5.000000000],Taps=[1,1.000000000,1.000000000],XHL=1.360000000,XHT=1.360000000,XLT=1.088000000,%loadloss=2.100000000,%noloadloss=0.700000000
new transformer.TRF_1298964A Phases=1,Windings=3,Buses=[BMT167169278.2 BBT84374117.1.0 BBT84374117.0.2],Conns=[wye wye wye],kvs=[7.967 0.12 0.12],kvas=[5.000000000 5.000000000 5.000000000],Taps=[1,1.000000000,1.000000000],XHL=1.360000000,XHT=1.360000000,XLT=1.088000000,%loadloss=2.100000000,%noloadloss=0.700000000
new transformer.TRF_1298999A Phases=1,Windings=3,Buses=[BMT164774676.3 BBT84400031.1.0 BBT84400031.0.2],Conns=[wye wye wye],kvs=[7.967 0.12 0.12],kvas=[5.000000000 5.000000000 5.000000000],Taps=[1,1.000000000,1.000000000],XHL=1.360000000,XHT=1.360000000,XLT=1.088000000,%loadloss=2.100000000,%noloadloss=0.700000000
new transformer.TRF_1 Phases=3,Windings=2,Buses=[BMT149093328.1.2.3 BBT1.1.2.3.0],Conns=[delta wye],kvs=[13.800000000 0.22],kvas=[75.000000000 75.000000000],Taps=[1,1.000000000],XHL=3.720000000,%loadloss=1.470000000,%noloadloss=0.393000000
new transformer.TRF_1016 Phases=3,Windings=2,Buses=[BMT179021178.1.2.3 BBT9724.1.2.3.0],Conns=[delta wye],kvs=[13.800000000 0.22],kvas=[75.000000000 75.000000000],Taps=[1,1.000000000],XHL=3.720000000,%loadloss=1.470000000,%noloadloss=0.393000000
new transformer.TRF_10634A Phases=1,Windings=3,Buses=[BMT176687697.2 BBT100493.1.0 BBT100493.0.2],Conns=[wye wye wye],kvs=[7.967 0.12 0.12],kvas=[10.000000000 10.000000000 10.000000000],Taps=[1,1.000000000,1.000000000],XHL=1.560000000,XHT=1.560000000,XLT=1.248000000,%loadloss=1.950000000,%noloadloss=0.500000000
new transformer.TRF_10641A Phases=1,Windings=3,Buses=[BMT176687752.2 BBT100507.1.0 BBT100507.0.2],Conns=[wye wye wye],kvs=[7.967 0.12 0.12],kvas=[5.000000000 5.000000000 5.000000000],Taps=[1,1.000000000,1.000000000],XHL=1.360000000,XHT=1.360000000,XLT=1.088000000,%loadloss=2.100000000,%noloadloss=0.700000000
new transformer.TRF_10781A Phases=1,Windings=3,Buses=[BMT176687706.2 BBT100808.1.0 BBT100808.0.2],Conns=[wye wye wye],kvs=[7.967 0.12 0.12],kvas=[10.000000000 10.000000000 10.000000000],Taps=[1,1.000000000,1.000000000],XHL=1.560000000,XHT=1.560000000,XLT=1.248000000,%loadloss=1.950000000,%noloadloss=0.500000000
new transformer.TRF_10788A Phases=1,Windings=3,Buses=[BMT176687691.2 BBT100822.1.0 BBT100822.0.2],Conns=[wye wye wye],kvs=[7.967 0.12 0.12],kvas=[15.000000000 15.000000000 15.000000000],Taps=[1,1.000000000,1.000000000],XHL=1.770000000,XHT=1.770000000,XLT=1.416000000,%loadloss=1.770000000,%noloadloss=0.433000000
new transformer.TRF_1079 Phases=3,Windings=2,Buses=[BMT178895162.1.2.3 BBT10424.1.2.3.0],Conns=[delta wye],kvs=[13.800000000 0.22],kvas=[100.000000000 100.000000000],Taps=[1,1.000000000],XHL=3.770000000,%loadloss=1.330000000,%noloadloss=0.390000000
new transformer.TRF_10795A Phases=1,Windings=3,Buses=[BMT162957270.1 BBT100836.1.0 BBT100836.0.2],Conns=[wye wye wye],kvs=[7.967 0.12 0.12],kvas=[10.000000000 10.000000000 10.000000000],Taps=[1,1.000000000,1.000000000],XHL=1.560000000,XHT=1.560000000,XLT=1.248000000,%loadloss=1.950000000,%noloadloss=0.500000000
new transformer.TRF_1079507A Phases=1,Windings=3,Buses=[BMT149044377.1 BBT17770258.1.0 BBT17770258.0.2],Conns=[wye wye wye],kvs=[7.967 0.12 0.12],kvas=[15.000000000 15.000000000 15.000000000],Taps=[1,1.000000000,1.000000000],XHL=1.770000000,XHT=1.770000000,XLT=1.416000000,%loadloss=1.770000000,%noloadloss=0.433000000
new transformer.TRF_11103A Phases=1,Windings=3,Buses=[BMT103081253.2 BBT101746.1.0 BBT101746.0.2],Conns=[wye wye wye],kvs=[7.967 0.12 0.12],kvas=[10.000000000 10.000000000 10.000000000],Taps=[1,1.000000000,1.000000000],XHL=1.560000000,XHT=1.560000000,XLT=1.248000000,%loadloss=1.950000000,%noloadloss=0.500000000
new transformer.TRF_11110A Phases=1,Windings=3,Buses=[BMT172063368.2 BBT101760.1.0 BBT101760.0.2],Conns=[wye wye wye],kvs=[7.967 0.12 0.12],kvas=[10.000000000 10.000000000 10.000000000],Taps=[1,1.000000000,1.000000000],XHL=1.560000000,XHT=1.560000000,XLT=1.248000000,%loadloss=1.950000000,%noloadloss=0.500000000
new transformer.TRF_11117A Phases=1,Windings=3,Buses=[BMT179207136.2 BBT101774.1.0 BBT101774.0.2],Conns=[wye wye wye],kvs=[7.967 0.12 0.12],kvas=[35.000000000 35.000000000 35.000000000],Taps=[1,1.000000000,1.000000000],XHL=2.060000000,XHT=2.060000000,XLT=1.648000000,%loadloss=1.410000000,%noloadloss=0.385000000
new transformer.TRF_1127744A Phases=1,Windings=3,Buses=[BMT176687711.2 BBT28813052.1.0 BBT28813052.0.2],Conns=[wye wye wye],kvs=[7.967 0.12 0.12],kvas=[10.000000000 10.000000000 10.000000000],Taps=[1,1.000000000,1.000000000],XHL=1.560000000,XHT=1.560000000,XLT=1.248000000,%loadloss=1.950000000,%noloadloss=0.500000000
new transformer.TRF_1128 Phases=3,Windings=2,Buses=[BMT156751486.1.2.3 BBT10865.1.2.3.0],Conns=[delta wye],kvs=[13.800000000 0.22],kvas=[45.000000000 45.000000000],Taps=[1,1.000000000],XHL=3.640000000,%loadloss=1.670000000,%noloadloss=0.433000000
new transformer.TRF_1152867 Phases=3,Windings=2,Buses=[BMT171001750.1.2.3 BBT33325532.1.2.3.0],Conns=[delta wye],kvs=[13.800000000 0.22],kvas=[45.000000000 45.000000000],Taps=[1,1.000000000],XHL=3.640000000,%loadloss=1.670000000,%noloadloss=0.433000000
new transformer.TRF_1203155A Phases=1,Windings=3,Buses=[BMT103074127.3 BBT44870996.1.0 BBT44870996.0.2],Conns=[wye wye wye],kvs=[7.967 0.12 0.12],kvas=[10.000000000 10.000000000 10.000000000],Taps=[1,1.000000000,1.000000000],XHL=1.560000000,XHT=1.560000000,XLT=1.248000000,%loadloss=1.950000000,%noloadloss=0.500000000
new transformer.TRF_1226 Phases=3,Windings=2,Buses=[BMT161773990.1.2.3 BBT12013.1.2.3.0],Conns=[delta wye],kvs=[13.800000000 0.22],kvas=[30.000000000 30.000000000],Taps=[1,1.000000000],XHL=3.560000000,%loadloss=1.820000000,%noloadloss=0.500000000
new transformer.TRF_1228334A Phases=1,Windings=3,Buses=[BMT179239873.2 BBT52701084.1.0 BBT52701084.0.2],Conns=[wye wye wye],kvs=[7.967 0.12 0.12],kvas=[5.000000000 5.000000000 5.000000000],Taps=[1,1.000000000,1.000000000],XHL=1.360000000,XHT=1.360000000,XLT=1.088000000,%loadloss=2.100000000,%noloadloss=0.700000000
new transformer.TRF_1256446A Phases=1,Windings=3,Buses=[BMT165224447.1 BBT94629768.1.0 BBT94629768.0.2],Conns=[wye wye wye],kvs=[7.967 0.12 0.12],kvas=[5.000000000 5.000000000 5.000000000],Taps=[1,1.000000000,1.000000000],XHL=1.360000000,XHT=1.360000000,XLT=1.088000000,%loadloss=2.100000000,%noloadloss=0.700000000
new transformer.TRF_1322785A Phases=1,Windings=3,Buses=[BMT179206998.2 BBT94868671.1.0 BBT94868671.0.2],Conns=[wye wye wye],kvs=[7.967 0.12 0.12],kvas=[10.000000000 10.000000000 10.000000000],Taps=[1,1.000000000,1.000000000],XHL=1.560000000,XHT=1.560000000,XLT=1.248000000,%loadloss=1.950000000,%noloadloss=0.500000000
new transformer.TRF_1323870A Phases=1,Windings=3,Buses=[BMT176687716.2 BBT109359840.1.0 BBT109359840.0.2],Conns=[wye wye wye],kvs=[7.967 0.12 0.12],kvas=[5.000000000 5.000000000 5.000000000],Taps=[1,1.000000000,1.000000000],XHL=1.360000000,XHT=1.360000000,XLT=1.088000000,%loadloss=2.100000000,%noloadloss=0.700000000
new transformer.TRF_134786A Phases=1,Windings=3,Buses=[BMT176601855.1 BBT1190869.1.0 BBT1190869.0.2],Conns=[wye wye wye],kvs=[7.967 0.12 0.12],kvas=[10.000000000 10.000000000 10.000000000],Taps=[1,1.000000000,1.000000000],XHL=1.560000000,XHT=1.560000000,XLT=1.248000000,%loadloss=1.950000000,%noloadloss=0.500000000
new transformer.TRF_134800A Phases=1,Windings=3,Buses=[BMT175674806.1 BBT1190946.1.0 BBT1190946.0.2],Conns=[wye wye wye],kvs=[7.967 0.12 0.12],kvas=[10.000000000 10.000000000 10.000000000],Taps=[1,1.000000000,1.000000000],XHL=1.560000000,XHT=1.560000000,XLT=1.248000000,%loadloss=1.950000000,%noloadloss=0.500000000
new transformer.TRF_1002A Phases=1,Windings=3,Buses=[BMT103063886.1 BBT9563.1.0 BBT9563.0.2],Conns=[wye wye wye],kvs=[7.967 0.12 0.12],kvas=[35.000000000 35.000000000 35.000000000],Taps=[1,1.000000000,1.000000000],XHL=2.060000000,XHT=2.060000000,XLT=1.648000000,%loadloss=1.410000000,%noloadloss=0.385000000
new transformer.TRF_10648A Phases=1,Windings=3,Buses=[BMT176687643.2 BBT100521.1.0 BBT100521.0.2],Conns=[wye wye wye],kvs=[7.967 0.12 0.12],kvas=[10.000000000 10.000000000 10.000000000],Taps=[1,1.000000000,1.000000000],XHL=1.560000000,XHT=1.560000000,XLT=1.248000000,%loadloss=1.950000000,%noloadloss=0.500000000
new transformer.TRF_1065 Phases=3,Windings=2,Buses=[BMT159325487.1.2.3 BBT10200.1.2.3.0],Conns=[delta wye],kvs=[13.800000000 0.22],kvas=[30.000000000 30.000000000],Taps=[1,1.000000000],XHL=3.560000000,%loadloss=1.820000000,%noloadloss=0.500000000
new transformer.TRF_10655A Phases=1,Windings=3,Buses=[BMT176687694.2 BBT100535.1.0 BBT100535.0.2],Conns=[wye wye wye],kvs=[7.967 0.12 0.12],kvas=[10.000000000 10.000000000 10.000000000],Taps=[1,1.000000000,1.000000000],XHL=1.560000000,XHT=1.560000000,XLT=1.248000000,%loadloss=1.950000000,%noloadloss=0.500000000
new transformer.TRF_10662A Phases=1,Windings=3,Buses=[BMT176687642.2 BBT100549.1.0 BBT100549.0.2],Conns=[wye wye wye],kvs=[7.967 0.12 0.12],kvas=[5.000000000 5.000000000 5.000000000],Taps=[1,1.000000000,1.000000000],XHL=1.360000000,XHT=1.360000000,XLT=1.088000000,%loadloss=2.100000000,%noloadloss=0.700000000