new line.RBT_10018 bus1=BBT5685.3.0,bus2=RML1000010018.3.0,Phases=1,Linecode=CABBTG01_4_1_1,Length=0.029000000,Units=km
new line.RBT_1002 bus1=BBT519.1.2.0,bus2=RML1000001002.1.2.0,Phases=2,Linecode=CABBTG05_4_2_2,Length=0.017000000,Units=km
new line.RBT_10023469 bus1=BBT204.1.2.0,bus2=RML1010023469.1.2.0,Phases=2,Linecode=CABBTG05_4_2_2,Length=0.029000000,Units=km
new line.RBT_10023567 bus1=BBT3734648.2.3.0,bus2=RML1010023567.2.3.0,Phases=2,Linecode=CABBTG05_4_2_2,Length=0.029000000,Units=km
new line.RBT_10023686 bus1=BBT83777.2.0,bus2=RML1010023686.2.0,Phases=1,Linecode=CABBTG01_4_1_1,Length=0.017000000,Units=km
new line.RBT_10025 bus1=BBT5685.2.3.0,bus2=RML1000010025.2.3.0,Phases=2,Linecode=CABBTG05_4_2_2,Length=0.029000000,Units=km
new line.RBT_10025275 bus1=BBT136817375.1.2.3.0,bus2=RML1010025275.1.2.3.0,Phases=3,Linecode=CABBTG09_4_3_3,Length=0.017000000,Units=km
new line.RBT_10025919 bus1=BBT5178132.1.2.3.0,bus2=RML1010025919.1.2.3.0,Phases=3,Linecode=CABBTG06_4_3_3,Length=0.029000000,Units=km
new line.RBT_10026416 bus1=BBT230028.1.2.3.0,bus2=RML1010026416.1.2.3.0,Phases=3,Linecode=CABBTG06_4_3_3,Length=0.029000000,Units=km
new line.RBT_10026549 bus1=BBT3739555.2.0,bus2=RML1010026549.2.0,Phases=1,Linecode=CABBTG01_4_1_1,Length=0.029000000,Units=km
new line.RBT_10026787 bus1=BBT1518861.1.2.0,bus2=RML1010026787.1.2.0,Phases=2,Linecode=CABBTG05_4_2_2,Length=0.017000000,Units=km
new line.RBT_10027249 bus1=BBT161068523.1.0,bus2=RML1010027249.1.0,Phases=1,Linecode=CABBTG02_4_1_1,Length=0.017000000,Units=km
new line.RBT_10027305 bus1=BBT1357637.1.2.0,bus2=RML1010027305.1.2.0,Phases=2,Linecode=CABBTG04_4_2_2,Length=0.017000000,Units=km
new line.RBT_10027907 bus1=BBT4470733.1.0,bus2=RML1010027907.1.0,Phases=1,Linecode=CABBTG02_4_1_1,Length=0.017000000,Units=km
new line.RBT_10030567 bus1=BBT1400176.1.0,bus2=RML1010030567.1.0,Phases=1,Linecode=CABBTG02_4_1_1,Length=0.017000000,Units=km
new line.RBT_10030819 bus1=BBT4504830.1.0,bus2=RML1010030819.1.0,Phases=1,Linecode=CABBTG02_4_1_1,Length=0.017000000,Units=km
new line.RBT_10031050 bus1=BBT3315600.1.0,bus2=RML1010031050.1.0,Phases=1,Linecode=CABBTG02_4_1_1,Length=0.017000000,Units=km
new line.RBT_10031751 bus1=BBT28251092.1.0,bus2=RML1010031751.1.0,Phases=1,Linecode=CABBTG02_4_1_1,Length=0.017000000,Units=km
new line.RBT_10031979 bus1=BBT1378434.1.2.0,bus2=RML1010031979.1.2.0,Phases=2,Linecode=CABBTG05_4_2_2,Length=0.017000000,Units=km
new line.RBT_10031982 bus1=BBT1378434.1.0,bus2=RML1010031982.1.0,Phases=1,Linecode=CABBTG02_4_1_1,Length=0.017000000,Units=km
new line.RBT_10032 bus1=BBT5699.1.0,bus2=RML1000010032.1.0,Phases=1,Linecode=CABBTG01_4_1_1,Length=0.029000000,Units=km
new line.RBT_10093045 bus1=BBT218926.2.0,bus2=RML1010093045.2.0,Phases=1,Linecode=CABBTG02_4_1_1,Length=0.029000000,Units=km
new line.RBT_10093063 bus1=BBT78191.1.2.0,bus2=RML1010093063.1.2.0,Phases=2,Linecode=CABBTG05_4_2_2,Length=0.029000000,Units=km
new line.RBT_10093070 bus1=BBT8569.1.2.0,bus2=RML1010093070.1.2.0,Phases=2,Linecode=CABBTG05_4_2_2,Length=0.029000000,Units=km
new line.RBT_10093082 bus1=BBT78779.1.2.0,bus2=RML1010093082.1.2.0,Phases=2,Linecode=CABBTG05_4_2_2,Length=0.029000000,Units=km
new line.RBT_10093088 bus1=BBT81789.1.2.0,bus2=RML1010093088.1.2.0,Phases=2,Linecode=CABBTG05_4_2_2,Length=0.029000000,Units=km
new line.RBT_10093090 bus1=BBT76819.1.0,bus2=RML1010093090.1.0,Phases=1,Linecode=CABBTG02_4_1_1,Length=0.029000000,Units=km
new line.RBT_10093095 bus1=BBT217351.2.0,bus2=RML1010093095.2.0,Phases=1,Linecode=CABBTG02_4_1_1,Length=0.029000000,Units=km
new line.RBT_10093097 bus1=BBT4024315.2.0,bus2=RML1010093097.2.0,Phases=1,Linecode=CABBTG02_4_1_1,Length=0.029000000,Units=km
new line.RBT_10093100 bus1=BBT82629.3.0,bus2=RML1010093100.3.0,Phases=1,Linecode=CABBTG02_4_1_1,Length=0.029000000,Units=km
new line.RBT_10093101 bus1=BBT83896.1.2.3.0,bus2=RML1010093101.1.2.3.0,Phases=3,Linecode=CABBTG06_4_3_3,Length=0.029000000,Units=km
new line.RBT_10093105 bus1=BBT6063.1.2.0,bus2=RML1010093105.1.2.0,Phases=2,Linecode=CABBTG05_4_2_2,Length=0.029000000,Units=km
new line.RBT_10093106 bus1=BBT11824.1.2.0,bus2=RML1010093106.1.2.0,Phases=2,Linecode=CABBTG05_4_2_2,Length=0.029000000,Units=km
new line.RBT_10093107 bus1=BBT82657.1.2.0,bus2=RML1010093107.1.2.0,Phases=2,Linecode=CABBTG05_4_2_2,Length=0.029000000,Units=km
new line.RBT_10093109 bus1=BBT137391557.1.2.0,bus2=RML1010093109.1.2.0,Phases=2,Linecode=CABBTG04_4_2_2,Length=0.029000000,Units=km
new line.RBT_10093119 bus1=BBT230231.1.2.0,bus2=RML1010093119.1.2.0,Phases=2,Linecode=CABBTG05_4_2_2,Length=0.017000000,Units=km
new line.RBT_10093125 bus1=BBT4009440.1.2.0,bus2=RML1010093125.1.2.0,Phases=2,Linecode=CABBTG05_4_2_2,Length=0.029000000,Units=km
new line.RBT_10093126 bus1=BBT8772.1.0,bus2=RML1010093126.1.0,Phases=1,Linecode=CABBTG02_4_1_1,Length=0.029000000,Units=km
new line.RBT_1 bus1=BBT4265458.1.2.0,bus2=RML1000000001.1.2.0,Phases=2,Linecode=CABBTG05_4_2_2,Length=0.029000000,Units=km
new line.RBT_10004 bus1=BBT5678.3.0,bus2=RML1000010004.3.0,Phases=1,Linecode=CABBTG01_4_1_1,Length=0.029000000,Units=km
new line.RBT_10008412 bus1=BBT1383243.1.0,bus2=RML1010008412.1.0,Phases=1,Linecode=CABBTG02_4_1_1,Length=0.029000000,Units=km
new line.RBT_10009560 bus1=BBT3739555.2.0,bus2=RML1010009560.2.0,Phases=1,Linecode=CABBTG01_4_1_1,Length=0.020000000,Units=km
new line.RBT_10009567 bus1=BBT3739548.1.0,bus2=RML1010009567.1.0,Phases=1,Linecode=CABBTG01_4_1_1,Length=0.029000000,Units=km
new line.RBT_10011 bus1=BBT5685.1.0,bus2=RML1000010011.1.0,Phases=1,Linecode=CABBTG01_4_1_1,Length=0.029000000,Units=km
new line.RBT_10011121 bus1=BBT3739555.1.0,bus2=RML1010011121.1.0,Phases=1,Linecode=CABBTG01_4_1_1,Length=0.029000000,Units=km
new line.RBT_10012850 bus1=BBT81565.1.2.0,bus2=RML1010012850.1.2.0,Phases=2,Linecode=CABBTG13_4_2_2,Length=0.017000000,Units=km
new line.RBT_10012885 bus1=BBT76259.1.0,bus2=RML1010012885.1.0,Phases=1,Linecode=CABBTG03_4_1_1,Length=0.017000000,Units=km
new line.RBT_10013242 bus1=BBT88159.3.0,bus2=RML1010013242.3.0,Phases=1,Linecode=CABBTG02_4_1_1,Length=0.029000000,Units=km
new line.RBT_10013263 bus1=BBT88271.1.2.0,bus2=RML1010013263.1.2.0,Phases=2,Linecode=CABBTG13_4_2_2,Length=0.017000000,Units=km
new line.RBT_10014719 bus1=BBT4010672.1.2.3.0,bus2=RML1010014719.1.2.3.0,Phases=3,Linecode=CABBTG06_4_3_3,Length=0.029000000,Units=km
new line.RBT_10080495 bus1=BBT4080644.1.2.0,bus2=RML1010080495.1.2.0,Phases=2,Linecode=CABBTG04_4_2_2,Length=0.029000000,Units=km
new line.RBT_10081 bus1=BBT5713.3.0,bus2=RML1000010081.3.0,Phases=1,Linecode=CABBTG01_4_1_1,Length=0.029000000,Units=km
new line.RBT_10082500 bus1=BBT1508886.1.2.0,bus2=RML1010082500.1.2.0,Phases=2,Linecode=CABBTG05_4_2_2,Length=0.017000000,Units=km
new line.RBT_10082780 bus1=BBT3654484.1.2.0,bus2=RML1010082780.1.2.0,Phases=2,Linecode=CABBTG05_4_2_2,Length=0.013000000,Units=km
new line.RBT_10082973 bus1=BBT76763.1.2.0,bus2=RML1010082973.1.2.0,Phases=2,Linecode=CABBTG04_4_2_2,Length=0.012000000,Units=km
new line.RBT_10082981 bus1=BBT86444.1.2.0,bus2=RML1010082981.1.2.0,Phases=2,Linecode=CABBTG05_4_2_2,Length=0.017000000,Units=km
new line.RBT_10083363 bus1=BBT3570918.1.2.0,bus2=RML1010083363.1.2.0,Phases=2,Linecode=CABBTG05_4_2_2,Length=0.029000000,Units=km
new line.RBT_10083385 bus1=BBT2864.2.0,bus2=RML1010083385.2.0,Phases=1,Linecode=CABBTG02_4_1_1,Length=0.029000000,Units=km
new line.RBT_10083398 bus1=BBT77239.1.0,bus2=RML1010083398.1.0,Phases=1,Linecode=CABBTG02_4_1_1,Length=0.029000000,Units=km
new line.RBT_10083420 bus1=BBT8772.2.0,bus2=RML1010083420.2.0,Phases=1,Linecode=CABBTG02_4_1_1,Length=0.029000000,Units=km
new line.RBT_10083423 bus1=BBT78408.3.1.0,bus2=RML1010083423.3.1.0,Phases=2,Linecode=CABBTG05_4_2_2,Length=0.029000000,Units=km
new line.RBT_10083441 bus1=BBT3739583.2.0,bus2=RML1010083441.2.0,Phases=1,Linecode=CABBTG02_4_1_1,Length=0.029000000,Units=km
new line.RBT_10083668 bus1=BBT3960748.1.0,bus2=RML1010083668.1.0,Phases=1,Linecode=CABBTG02_4_1_1,Length=0.029000000,Units=km
new line.RBT_10083686 bus1=BBT58657860.1.0,bus2=RML1010083686.1.0,Phases=1,Linecode=CABBTG02_4_1_1,Length=0.017000000,Units=km
new line.RBT_10083690 bus1=BBT2955660.1.2.0,bus2=RML1010083690.1.2.0,Phases=2,Linecode=CABBTG05_4_2_2,Length=0.008000000,Units=km
new line.RBT_10083716 bus1=BBT84680.1.2.3.0,bus2=RML1010083716.1.2.3.0,Phases=3,Linecode=CABBTG06_4_3_3,Length=0.015000000,Units=km
new line.RBT_10083754 bus1=BBT221824.2.3.0,bus2=RML1010083754.2.3.0,Phases=2,Linecode=CABBTG05_4_2_2,Length=0.008000000,Units=km
new line.RBT_10083765 bus1=BBT7722.1.2.0,bus2=RML1010083765.1.2.0,Phases=2,Linecode=CABBTG05_4_2_2,Length=0.012000000,Units=km
new line.RBT_10083767 bus1=BBT3591988.3.0,bus2=RML1010083767.3.0,Phases=1,Linecode=CABBTG02_4_1_1,Length=0.020000000,Units=km
new line.RBT_10083770 bus1=BBT76952.1.2.0,bus2=RML1010083770.1.2.0,Phases=2,Linecode=CABBTG05_4_2_2,Length=0.009000000,Units=km
new line.RBT_10083777 bus1=BBT78751.1.0,bus2=RML1010083777.1.0,Phases=1,Linecode=CABBTG02_4_1_1,Length=0.029000000,Units=km
new line.RBT_10083801 bus1=BBT1508760.2.0,bus2=RML1010083801.2.0,Phases=1,Linecode=CABBTG02_4_1_1,Length=0.018000000,Units=km
new line.RBT_10083812 bus1=BBT25220638.1.0,bus2=RML1010083812.1.0,Phases=1,Linecode=CABBTG02_4_1_1,Length=0.016000000,Units=km
new line.RBT_10113877 bus1=BBT3739793.1.2.0,bus2=RML1010113877.1.2.0,Phases=2,Linecode=CABBTG05_4_2_2,Length=0.016000000,Units=km
new line.RBT_10113937 bus1=BBT4080665.1.2.0,bus2=RML1010113937.1.2.0,Phases=2,Linecode=CABBTG05_4_2_2,Length=0.030000000,Units=km
new line.RBT_10113953 bus1=BBT4271.2.0,bus2=RML1010113953.2.0,Phases=1,Linecode=CABBTG02_4_1_1,Length=0.008000000,Units=km
new line.RBT_10094724 bus1=BBT4128993.1.0,bus2=RML1010094724.1.0,Phases=1,Linecode=CABBTG02_4_1_1,Length=0.029000000,Units=km
new line.RBT_10094731 bus1=BBT4128993.1.0,bus2=RML1010094731.1.0,Phases=1,Linecode=CABBTG02_4_1_1,Length=0.029000000,Units=km
new line.RBT_10094737 bus1=BBT1383691.1.0,bus2=RML1010094737.1.0,Phases=1,Linecode=CABBTG02_4_1_1,Length=0.029000000,Units=km
new line.RBT_10094741 bus1=BBT1384776.1.2.0,bus2=RML1010094741.1.2.0,Phases=2,Linecode=CABBTG05_4_2_2,Length=0.029000000,Units=km
new line.RBT_10094747 bus1=BBT68641792.1.2.0,bus2=RML1010094747.1.2.0,Phases=2,Linecode=CABBTG05_4_2_2,Length=0.029000000,Units=km
new line.RBT_10094754 bus1=BBT1387282.1.2.0,bus2=RML1010094754.1.2.0,Phases=2,Linecode=CABBTG05_4_2_2,Length=0.029000000,Units=km
new line.RBT_10094797 bus1=BBT1381570.1.2.0,bus2=RML1010094797.1.2.0,Phases=2,Linecode=CABBTG05_4_2_2,Length=0.029000000,Units=km
new line.RBT_10095 bus1=BBT5713.1.0,bus2=RML1000010095.1.0,Phases=1,Linecode=CABBTG01_4_1_1,Length=0.029000000,Units=km
new line.RBT_10117504 bus1=BBT4010518.1.2.0,bus2=RML1010117504.1.2.0,Phases=2,Linecode=CABBTG05_4_2_2,Length=0.017000000,Units=km
new line.RBT_10117540 bus1=BBT75825.2.0,bus2=RML1010117540.2.0,Phases=1,Linecode=CABBTG02_4_1_1,Length=0.017000000,Units=km
new line.RBT_10117557 bus1=BBT75762.2.0,bus2=RML1010117557.2.0,Phases=1,Linecode=CABBTG02_4_1_1,Length=0.017000000,Units=km
new line.RBT_10117688 bus1=BBT4282881.1.2.0,bus2=RML1010117688.1.2.0,Phases=2,Linecode=CABBTG05_4_2_2,Length=0.020000000,Units=km
new line.RBT_10117749 bus1=BBT3544521.1.0,bus2=RML1010117749.1.0,Phases=1,Linecode=CABBTG02_4_1_1,Length=0.013000000,Units=km
new line.RBT_10117972 bus1=BBT3739548.1.2.0,bus2=RML1010117972.1.2.0,Phases=2,Linecode=CABBTG05_4_2_2,Length=0.020000000,Units=km
new line.RBT_10117984 bus1=BBT88012.1.2.0,bus2=RML1010117984.1.2.0,Phases=2,Linecode=CABBTG05_4_2_2,Length=0.009000000,Units=km
new line.RBT_10117989 bus1=BBT76105.2.0,bus2=RML1010117989.2.0,Phases=1,Linecode=CABBTG02_4_1_1,Length=0.019000000,Units=km
new line.RBT_10118360 bus1=BBT148930544.1.2.0,bus2=RML1010118360.1.2.0,Phases=2,Linecode=CABBTG05_4_2_2,Length=0.023000000,Units=km
new line.RBT_10119059 bus1=BBT90182.1.0,bus2=RML1010119059.1.0,Phases=1,Linecode=CABBTG02_4_1_1,Length=0.029000000,Units=km
new line.RBT_10119067 bus1=BBT11327.3.1.0,bus2=RML1010119067.3.1.0,Phases=2,Linecode=CABBTG05_4_2_2,Length=0.029000000,Units=km
new line.RBT_10119131 bus1=BBT88201.3.0,bus2=RML1010119131.3.0,Phases=1,Linecode=CABBTG02_4_1_1,Length=0.029000000,Units=km
new line.RBT_10119140 bus1=BBT4081820.2.0,bus2=RML1010119140.2.0,Phases=1,Linecode=CABBTG02_4_1_1,Length=0.029000000,Units=km
new line.RBT_10119152 bus1=BBT86346.2.0,bus2=RML1010119152.2.0,Phases=1,Linecode=CABBTG02_4_1_1,Length=0.017000000,Units=km
new line.RBT_10119160 bus1=BBT75762.2.0,bus2=RML1010119160.2.0,Phases=1,Linecode=CABBTG02_4_1_1,Length=0.017000000,Units=km
new line.RBT_10119167 bus1=BBT224491.1.2.3.0,bus2=RML1010119167.1.2.3.0,Phases=3,Linecode=CABBTG06_4_3_3,Length=0.029000000,Units=km
new line.RBT_10119308 bus1=BBT3739569.1.2.0,bus2=RML1010119308.1.2.0,Phases=2,Linecode=CABBTG05_4_2_2,Length=0.029000000,Units=km
new line.RBT_10120538 bus1=BBT3732.2.0,bus2=RML1010120538.2.0,Phases=1,Linecode=CABBTG02_4_1_1,Length=0.029000000,Units=km
new line.RBT_10120540 bus1=BBT2122.2.0,bus2=RML1010120540.2.0,Phases=1,Linecode=CABBTG02_4_1_1,Length=0.029000000,Units=km
new line.RBT_10120547 bus1=BBT3739562.3.1.0,bus2=RML1010120547.3.1.0,Phases=2,Linecode=CABBTG05_4_2_2,Length=0.029000000,Units=km
new line.RBT_10120589 bus1=BBT3578667.1.2.3.0,bus2=RML1010120589.1.2.3.0,Phases=3,Linecode=CABBTG06_4_3_3,Length=0.029000000,Units=km
new line.RBT_10120594 bus1=BBT88271.1.2.0,bus2=RML1010120594.1.2.0,Phases=2,Linecode=CABBTG05_4_2_2,Length=0.017000000,Units=km
new line.RBT_10120630 bus1=BBT223644.1.2.3.0,bus2=RML1010120630.1.2.3.0,Phases=3,Linecode=CABBTG06_4_3_3,Length=0.017000000,Units=km
new line.RBT_10120640 bus1=BBT2967245.1.0,bus2=RML1010120640.1.0,Phases=1,Linecode=CABBTG02_4_1_1,Length=0.017000000,Units=km
new line.RBT_10120643 bus1=BBT82895.2.0,bus2=RML1010120643.2.0,Phases=1,Linecode=CABBTG02_4_1_1,Length=0.029000000,Units=km
new line.RBT_10120837 bus1=BBT79997.2.0,bus2=RML1010120837.2.0,Phases=1,Linecode=CABBTG02_4_1_1,Length=0.029000000,Units=km
new line.RBT_10120839 bus1=BBT78751.3.0,bus2=RML1010120839.3.0,Phases=1,Linecode=CABBTG02_4_1_1,Length=0.029000000,Units=km
new line.RBT_10120841 bus1=BBT4009433.1.2.0,bus2=RML1010120841.1.2.0,Phases=2,Linecode=CABBTG05_4_2_2,Length=0.029000000,Units=km
new line.RBT_10120846 bus1=BBT84820.3.1.0,bus2=RML1010120846.3.1.0,Phases=2,Linecode=CABBTG05_4_2_2,Length=0.029000000,Units=km
new line.RBT_10140814 bus1=BBT160211178.1.2.0,bus2=RML1010140814.1.2.0,Phases=2,Linecode=CABBTG05_4_2_2,Length=0.017000000,Units=km
new line.RBT_10076674 bus1=BBT2953217.2.0,bus2=RML1010076674.2.0,Phases=1,Linecode=CABBTG02_4_1_1,Length=0.017000000,Units=km
new line.RBT_10077060 bus1=BBT5832.2.0,bus2=RML1010077060.2.0,Phases=1,Linecode=CABBTG02_4_1_1,Length=0.017000000,Units=km
new line.RBT_10077063 bus1=BBT3756453.1.2.0,bus2=RML1010077063.1.2.0,Phases=2,Linecode=CABBTG05_4_2_2,Length=0.029000000,Units=km
new line.RBT_10077079 bus1=BBT3739443.2.0,bus2=RML1010077079.2.0,Phases=1,Linecode=CABBTG02_4_1_1,Length=0.017000000,Units=km
new line.RBT_10077081 bus1=BBT84680.1.2.0,bus2=RML1010077081.1.2.0,Phases=2,Linecode=CABBTG05_4_2_2,Length=0.029000000,Units=km
new line.RBT_10078059 bus1=BBT3294957.1.0,bus2=RML1010078059.1.0,Phases=1,Linecode=CABBTG02_4_1_1,Length=0.017000000,Units=km
new line.RBT_10078061 bus1=BBT89629.1.2.0,bus2=RML1010078061.1.2.0,Phases=2,Linecode=CABBTG05_4_2_2,Length=0.029000000,Units=km
new line.RBT_10078304 bus1=BBT1510041.1.2.0,bus2=RML1010078304.1.2.0,Phases=2,Linecode=CABBTG05_4_2_2,Length=0.029000000,Units=km
new line.RBT_10078315 bus1=BBT4282902.1.2.3.0,bus2=RML1010078315.1.2.3.0,Phases=3,Linecode=CABBTG06_4_3_3,Length=0.017000000,Units=km
new line.RBT_10078332 bus1=BBT7883.1.2.3.0,bus2=RML1010078332.1.2.3.0,Phases=3,Linecode=CABBTG06_4_3_3,Length=0.029000000,Units=km
new line.RBT_10078342 bus1=BBT3739457.2.0,bus2=RML1010078342.2.0,Phases=1,Linecode=CABBTG02_4_1_1,Length=0.017000000,Units=km
new line.RBT_10078374 bus1=BBT11726.1.0,bus2=RML1010078374.1.0,Phases=1,Linecode=CABBTG02_4_1_1,Length=0.029000000,Units=km
new line.RBT_10078381 bus1=BBT83679.1.2.0,bus2=RML1010078381.1.2.0,Phases=2,Linecode=CABBTG05_4_2_2,Length=0.029000000,Units=km
new line.RBT_10078513 bus1=BBT3739947.1.0,bus2=RML1010078513.1.0,Phases=1,Linecode=CABBTG02_4_1_1,Length=0.017000000,Units=km
new line.RBT_10078526 bus1=BBT11817.2.3.0,bus2=RML1010078526.2.3.0,Phases=2,Linecode=CABBTG05_4_2_2,Length=0.029000000,Units=km
new line.RBT_10078531 bus1=BBT11817.1.2.0,bus2=RML1010078531.1.2.0,Phases=2,Linecode=CABBTG05_4_2_2,Length=0.029000000,Units=km
new line.RBT_10078557 bus1=BBT217295.1.2.0,bus2=RML1010078557.1.2.0,Phases=2,Linecode=CABBTG05_4_2_2,Length=0.029000000,Units=km
new line.RBT_10078585 bus1=BBT86430.2.0,bus2=RML1010078585.2.0,Phases=1,Linecode=CABBTG01_4_1_1,Length=0.017000000,Units=km
new line.RBT_10078589 bus1=BBT230826.1.2.3.0,bus2=RML1010078589.1.2.3.0,Phases=3,Linecode=CABBTG06_4_3_3,Length=0.029000000,Units=km
new line.RBT_10078642 bus1=BBT1177.1.2.0,bus2=RML1010078642.1.2.0,Phases=2,Linecode=CABBTG05_4_2_2,Length=0.029000000,Units=km
new line.RBT_10078643 bus1=BBT3953713.1.2.0,bus2=RML1010078643.1.2.0,Phases=2,Linecode=CABBTG05_4_2_2,Length=0.029000000,Units=km
new line.RBT_10079405 bus1=BBT4165771.1.2.3.0,bus2=RML1010079405.1.2.3.0,Phases=3,Linecode=CABBTG06_4_3_3,Length=0.017000000,Units=km
new line.RBT_10079485 bus1=BBT84029.1.2.0,bus2=RML1010079485.1.2.0,Phases=2,Linecode=CABBTG05_4_2_2,Length=0.029000000,Units=km
new line.RBT_10079510 bus1=BBT76098.1.0,bus2=RML1010079510.1.0,Phases=1,Linecode=CABBTG02_4_1_1,Length=0.029000000,Units=km
new line.RBT_10106616 bus1=BBT231407.1.2.0,bus2=RML1010106616.1.2.0,Phases=2,Linecode=CABBTG04_4_2_2,Length=0.029000000,Units=km
new line.RBT_10106995 bus1=BBT219360.1.2.0,bus2=RML1010106995.1.2.0,Phases=2,Linecode=CABBTG05_4_2_2,Length=0.029000000,Units=km
new line.RBT_10106999 bus1=BBT3999577.1.2.0,bus2=RML1010106999.1.2.0,Phases=2,Linecode=CABBTG05_4_2_2,Length=0.029000000,Units=km
new line.RBT_10107001 bus1=BBT88964.1.2.0,bus2=RML1010107001.1.2.0,Phases=2,Linecode=CABBTG05_4_2_2,Length=0.029000000,Units=km
new line.RBT_10107002 bus1=BBT3999577.1.0,bus2=RML1010107002.1.0,Phases=1,Linecode=CABBTG02_4_1_1,Length=0.029000000,Units=km
new line.RBT_10107004 bus1=BBT3294936.1.2.0,bus2=RML1010107004.1.2.0,Phases=2,Linecode=CABBTG05_4_2_2,Length=0.017000000,Units=km
new line.RBT_10107020 bus1=BBT231288.1.0,bus2=RML1010107020.1.0,Phases=1,Linecode=CABBTG02_4_1_1,Length=0.029000000,Units=km
new line.RBT_10107033 bus1=BBT75594.3.0,bus2=RML1010107033.3.0,Phases=1,Linecode=CABBTG02_4_1_1,Length=0.017000000,Units=km
new line.RBT_10107045 bus1=BBT90175.1.0,bus2=RML1010107045.1.0,Phases=1,Linecode=CABBTG02_4_1_1,Length=0.029000000,Units=km
new line.RBT_10107847 bus1=BBT4961083.2.0,bus2=RML1010107847.2.0,Phases=1,Linecode=CABBTG02_4_1_1,Length=0.029000000,Units=km
new line.RBT_10108121 bus1=BBT3208696.2.0,bus2=RML1010108121.2.0,Phases=1,Linecode=CABBTG02_4_1_1,Length=0.029000000,Units=km
new line.RBT_10108131 bus1=BBT10711.1.2.0,bus2=RML1010108131.1.2.0,Phases=2,Linecode=CABBTG05_4_2_2,Length=0.029000000,Units=km
new line.RBT_10109 bus1=BBT5713.2.0,bus2=RML1000010109.2.0,Phases=1,Linecode=CABBTG01_4_1_1,Length=0.029000000,Units=km
new line.RBT_10159832 bus1=BBT7421.2.3.0,bus2=RML1010159832.2.3.0,Phases=2,Linecode=CABBTG05_4_2_2,Length=0.020000000,Units=km
new line.RBT_10044075 bus1=BBT5412.1.2.0,bus2=RML1010044075.1.2.0,Phases=2,Linecode=CABBTG04_4_2_2,Length=0.029000000,Units=km
new line.RBT_10044077 bus1=BBT5412.1.2.0,bus2=RML1010044077.1.2.0,Phases=2,Linecode=CABBTG04_4_2_2,Length=0.029000000,Units=km
new line.RBT_10044088 bus1=BBT80865.2.3.0,bus2=RML1010044088.2.3.0,Phases=2,Linecode=CABBTG05_4_2_2,Length=0.029000000,Units=km
new line.RBT_10044095 bus1=BBT2970010.1.2.3.0,bus2=RML1010044095.1.2.3.0,Phases=3,Linecode=CABBTG06_4_3_3,Length=0.029000000,Units=km
new line.RBT_10044170 bus1=BBT82531.1.2.3.0,bus2=RML1010044170.1.2.3.0,Phases=3,Linecode=CABBTG06_4_3_3,Length=0.029000000,Units=km
new line.RBT_10044171 bus1=BBT3316195.1.2.0,bus2=RML1010044171.1.2.0,Phases=2,Linecode=CABBTG04_4_2_2,Length=0.029000000,Units=km
new line.RBT_10044173 bus1=BBT77127.1.2.0,bus2=RML1010044173.1.2.0,Phases=2,Linecode=CABBTG04_4_2_2,Length=0.029000000,Units=km
new line.RBT_10044176 bus1=BBT89979.1.2.0,bus2=RML1010044176.1.2.0,Phases=2,Linecode=CABBTG04_4_2_2,Length=0.029000000,Units=km
new line.RBT_10046 bus1=BBT5706.1.0,bus2=RML1000010046.1.0,Phases=1,Linecode=CABBTG01_4_1_1,Length=0.029000000,Units=km
new line.RBT_10065749 bus1=BBT3315600.1.2.0,bus2=RML1010065749.1.2.0,Phases=2,Linecode=CABBTG04_4_2_2,Length=0.017000000,Units=km
new line.RBT_10065752 bus1=BBT3315600.1.2.0,bus2=RML1010065752.1.2.0,Phases=2,Linecode=CABBTG04_4_2_2,Length=0.017000000,Units=km
new line.RBT_10065756 bus1=BBT3315600.1.2.0,bus2=RML1010065756.1.2.0,Phases=2,Linecode=CABBTG04_4_2_2,Length=0.017000000,Units=km
new line.RBT_10067 bus1=BBT5678.2.0,bus2=RML1000010067.2.0,Phases=1,Linecode=CABBTG02_4_1_1,Length=0.029000000,Units=km
new line.RBT_10067231 bus1=BBT82139.1.2.0,bus2=RML1010067231.1.2.0,Phases=2,Linecode=CABBTG05_4_2_2,Length=0.017000000,Units=km
new line.RBT_10068417 bus1=BBT4318812.1.0,bus2=RML1010068417.1.0,Phases=1,Linecode=CABBTG02_4_1_1,Length=0.017000000,Units=km
new line.RBT_10068538 bus1=BBT149331398.2.0,bus2=RML1010068538.2.0,Phases=1,Linecode=CABBTG02_4_1_1,Length=0.026000000,Units=km
new line.RBT_10097058 bus1=BBT4080616.1.2.0,bus2=RML1010097058.1.2.0,Phases=2,Linecode=CABBTG05_4_2_2,Length=0.017000000,Units=km
new line.RBT_10097062 bus1=BBT4010784.1.2.0,bus2=RML1010097062.1.2.0,Phases=2,Linecode=CABBTG05_4_2_2,Length=0.029000000,Units=km
new line.RBT_10097066 bus1=BBT4010784.1.2.0,bus2=RML1010097066.1.2.0,Phases=2,Linecode=CABBTG05_4_2_2,Length=0.029000000,Units=km
new line.RBT_10097068 bus1=BBT230098.1.2.0,bus2=RML1010097068.1.2.0,Phases=2,Linecode=CABBTG05_4_2_2,Length=0.029000000,Units=km
new line.RBT_10097078 bus1=BBT231127.1.2.0,bus2=RML1010097078.1.2.0,Phases=2,Linecode=CABBTG05_4_2_2,Length=0.029000000,Units=km
new line.RBT_10097087 bus1=BBT220907.1.2.0,bus2=RML1010097087.1.2.0,Phases=2,Linecode=CABBTG05_4_2_2,Length=0.017000000,Units=km
new line.RBT_10097092 bus1=BBT5650.1.2.0,bus2=RML1010097092.1.2.0,Phases=2,Linecode=CABBTG05_4_2_2,Length=0.029000000,Units=km
new line.RBT_10097098 bus1=BBT9619.1.2.0,bus2=RML1010097098.1.2.0,Phases=2,Linecode=CABBTG05_4_2_2,Length=0.029000000,Units=km
new line.RBT_10097105 bus1=BBT1415.1.2.0,bus2=RML1010097105.1.2.0,Phases=2,Linecode=CABBTG05_4_2_2,Length=0.029000000,Units=km
new line.RBT_10097111 bus1=BBT226808.1.0,bus2=RML1010097111.1.0,Phases=1,Linecode=CABBTG02_4_1_1,Length=0.029000000,Units=km
new line.RBT_10097138 bus1=BBT224519.1.2.0,bus2=RML1010097138.1.2.0,Phases=2,Linecode=CABBTG04_4_2_2,Length=0.029000000,Units=km
new line.RBT_10097149 bus1=BBT4019.1.2.0,bus2=RML1010097149.1.2.0,Phases=2,Linecode=CABBTG04_4_2_2,Length=0.029000000,Units=km
new line.RBT_10097160 bus1=BBT3508.1.0,bus2=RML1010097160.1.0,Phases=1,Linecode=CABBTG01_4_1_1,Length=0.029000000,Units=km
new line.RBT_10097760 bus1=BBT1512911.1.2.0,bus2=RML1010097760.1.2.0,Phases=2,Linecode=CABBTG05_4_2_2,Length=0.029000000,Units=km
new line.RBT_10097765 bus1=BBT3528127.1.0,bus2=RML1010097765.1.0,Phases=1,Linecode=CABBTG02_4_1_1,Length=0.029000000,Units=km
new line.RBT_10097768 bus1=BBT3780330.1.0,bus2=RML1010097768.1.0,Phases=1,Linecode=CABBTG02_4_1_1,Length=0.017000000,Units=km
new line.RBT_10097772 bus1=BBT4143378.1.2.0,bus2=RML1010097772.1.2.0,Phases=2,Linecode=CABBTG05_4_2_2,Length=0.017000000,Units=km
new line.RBT_10123 bus1=BBT5720.3.1.0,bus2=RML1000010123.3.1.0,Phases=2,Linecode=CABBTG05_4_2_2,Length=0.029000000,Units=km
new line.RBT_10143381 bus1=BBT175659678.1.2.0,bus2=RML1010143381.1.2.0,Phases=2,Linecode=CABBT807_4_2_2,Length=0.017000000,Units=km
new line.RBT_10143385 bus1=BBT3137366.1.2.0,bus2=RML1010143385.1.2.0,Phases=2,Linecode=CABBT807_4_2_2,Length=0.017000000,Units=km
new line.RBT_10144 bus1=BBT5727.1.0,bus2=RML1000010144.1.0,Phases=1,Linecode=CABBTG01_4_1_1,Length=0.029000000,Units=km
new line.RBT_10173732 bus1=BBT4146899.1.2.0,bus2=RML1010173732.1.2.0,Phases=2,Linecode=CABBTG05_4_2_2,Length=0.017000000,Units=km
new line.RBT_10032204 bus1=BBT4536400.1.0,bus2=RML1010032204.1.0,Phases=1,Linecode=CABBTG02_4_1_1,Length=0.017000000,Units=km
new line.RBT_10032273 bus1=BBT4471580.1.0,bus2=RML1010032273.1.0,Phases=1,Linecode=CABBTG02_4_1_1,Length=0.017000000,Units=km
new line.RBT_10032938 bus1=BBT4551884.1.2.0,bus2=RML1010032938.1.2.0,Phases=2,Linecode=CABBTG05_4_2_2,Length=0.017000000,Units=km
new line.RBT_10033024 bus1=BBT4419507.1.0,bus2=RML1010033024.1.0,Phases=1,Linecode=CABBTG02_4_1_1,Length=0.017000000,Units=km
new line.RBT_10035647 bus1=BBT1377853.1.0,bus2=RML1010035647.1.0,Phases=1,Linecode=CABBTG02_4_1_1,Length=0.017000000,Units=km
new line.RBT_10056337 bus1=BBT148622537.2.0,bus2=RML1010056337.2.0,Phases=1,Linecode=CABBTG01_4_1_1,Length=0.010000000,Units=km
new line.RBT_10086457 bus1=BBT86199.1.0,bus2=RML1010086457.1.0,Phases=1,Linecode=CABBTG02_4_1_1,Length=0.029000000,Units=km
new line.RBT_10086666 bus1=BBT90014.1.0,bus2=RML1010086666.1.0,Phases=1,Linecode=CABBTG02_4_1_1,Length=0.029000000,Units=km
new line.RBT_10086671 bus1=BBT88985.1.0,bus2=RML1010086671.1.0,Phases=1,Linecode=CABBTG02_4_1_1,Length=0.029000000,Units=km
new line.RBT_10086680 bus1=BBT149068442.2.0,bus2=RML1010086680.2.0,Phases=1,Linecode=CABBTG02_4_1_1,Length=0.030000000,Units=km
new line.RBT_10112360 bus1=BBT7442.1.2.3.0,bus2=RML1010112360.1.2.3.0,Phases=3,Linecode=CABBTG06_4_3_3,Length=0.030000000,Units=km
new line.RBT_10112913 bus1=BBT89307.1.2.0,bus2=RML1010112913.1.2.0,Phases=2,Linecode=CABBTG05_4_2_2,Length=0.029000000,Units=km
new line.RBT_10113052 bus1=BBT1506821.1.0,bus2=RML1010113052.1.0,Phases=1,Linecode=CABBTG02_4_1_1,Length=0.017000000,Units=km
new line.RBT_10113191 bus1=BBT1384958.1.0,bus2=RML1010113191.1.0,Phases=1,Linecode=CABBTG02_4_1_1,Length=0.017000000,Units=km
new line.RBT_10113349 bus1=BBT7484.2.0,bus2=RML1010113349.2.0,Phases=1,Linecode=CABBTG02_4_1_1,Length=0.029000000,Units=km
new line.RBT_10113412 bus1=BBT2444.1.2.0,bus2=RML1010113412.1.2.0,Phases=2,Linecode=CABBTG05_4_2_2,Length=0.029000000,Units=km
new line.RBT_10113478 bus1=BBT92058.1.2.3.0,bus2=RML1010113478.1.2.3.0,Phases=3,Linecode=CABBTG06_4_3_3,Length=0.029000000,Units=km
new line.RBT_10113627 bus1=BBT8828.1.2.0,bus2=RML1010113627.1.2.0,Phases=2,Linecode=CABBTG05_4_2_2,Length=0.012000000,Units=km
new line.RBT_10136008 bus1=BBT4596222.1.0,bus2=RML1010136008.1.0,Phases=1,Linecode=CABBTG02_4_1_1,Length=0.029000000,Units=km
new line.RBT_10136228 bus1=BBT76742.1.0,bus2=RML1010136228.1.0,Phases=1,Linecode=CABBTG02_4_1_1,Length=0.029000000,Units=km
new line.RBT_10136441 bus1=BBT229244.1.2.0,bus2=RML1010136441.1.2.0,Phases=2,Linecode=CABBTG05_4_2_2,Length=0.017000000,Units=km
new line.RBT_10136567 bus1=BBT3620842.1.2.0,bus2=RML1010136567.1.2.0,Phases=2,Linecode=CABBTG05_4_2_2,Length=0.017000000,Units=km
new line.RBT_10136576 bus1=BBT4587836.1.2.3.0,bus2=RML1010136576.1.2.3.0,Phases=3,Linecode=CABBTG06_4_3_3,Length=0.029000000,Units=km
new line.RBT_10136872 bus1=BBT3739436.1.2.0,bus2=RML1010136872.1.2.0,Phases=2,Linecode=CABBTG05_4_2_2,Length=0.017000000,Units=km
new line.RBT_10136880 bus1=BBT7407.2.0,bus2=RML1010136880.2.0,Phases=1,Linecode=CABBTG02_4_1_1,Length=0.029000000,Units=km
new line.RBT_10137 bus1=BBT5727.2.0,bus2=RML1000010137.2.0,Phases=1,Linecode=CABBTG01_4_1_1,Length=0.029000000,Units=km
new line.RBT_10139055 bus1=BBT149817936.1.2.0,bus2=RML1010139055.1.2.0,Phases=2,Linecode=CABBTG05_4_2_2,Length=0.017000000,Units=km
new line.RBT_10139064 bus1=BBT4080609.1.0,bus2=RML1010139064.1.0,Phases=1,Linecode=CABBTG02_4_1_1,Length=0.012000000,Units=km
new line.RBT_10139079 bus1=BBT88880.1.0,bus2=RML1010139079.1.0,Phases=1,Linecode=CABBTG01_4_1_1,Length=0.012000000,Units=km
new line.RBT_10139090 bus1=BBT11803.1.2.3.0,bus2=RML1010139090.1.2.3.0,Phases=3,Linecode=CABBTG12_4_3_3,Length=0.010000000,Units=km
new line.RBT_10139105 bus1=BBT90175.1.0,bus2=RML1010139105.1.0,Phases=1,Linecode=CABBTG01_4_1_1,Length=0.010000000,Units=km
new line.RBT_10139166 bus1=BBT9157.1.2.3.0,bus2=RML1010139166.1.2.3.0,Phases=3,Linecode=CABBTG06_4_3_3,Length=0.017000000,Units=km
new line.RBT_10139355 bus1=BBT230770.1.2.0,bus2=RML1010139355.1.2.0,Phases=2,Linecode=CABBTG05_4_2_2,Length=0.010000000,Units=km
new line.RBT_10167108 bus1=BBT2948408.1.2.0,bus2=RML1010167108.1.2.0,Phases=2,Linecode=CABBTG04_4_2_2,Length=0.029000000,Units=km
new line.RBT_10167631 bus1=BBT3543079.1.2.3.0,bus2=RML1010167631.1.2.3.0,Phases=3,Linecode=CABBTG06_4_3_3,Length=0.025000000,Units=km
new line.RBT_10167636 bus1=BBT84008.2.0,bus2=RML1010167636.2.0,Phases=1,Linecode=CABBTG02_4_1_1,Length=0.010000000,Units=km
new line.RBT_10167641 bus1=BBT3939160.1.0,bus2=RML1010167641.1.0,Phases=1,Linecode=CABBTG02_4_1_1,Length=0.009000000,Units=km
new line.RBT_10167644 bus1=BBT3739793.2.0,bus2=RML1010167644.2.0,Phases=1,Linecode=CABBTG02_4_1_1,Length=0.010000000,Units=km
new line.RBT_10036793 bus1=BBT94868678.1.2.0,bus2=RML1010036793.1.2.0,Phases=2,Linecode=CABBTG05_4_2_2,Length=0.017000000,Units=km
new line.RBT_10037249 bus1=BBT148178383.1.0,bus2=RML1010037249.1.0,Phases=1,Linecode=CABBTG01_4_1_1,Length=0.017000000,Units=km
new line.RBT_10037577 bus1=BBT3575965.1.2.0,bus2=RML1010037577.1.2.0,Phases=2,Linecode=CABBTG05_4_2_2,Length=0.017000000,Units=km
new line.RBT_10037879 bus1=BBT84603.1.2.0,bus2=RML1010037879.1.2.0,Phases=2,Linecode=CABBTG04_4_2_2,Length=0.029000000,Units=km
new line.RBT_10039 bus1=BBT5699.2.0,bus2=RML1000010039.2.0,Phases=1,Linecode=CABBTG01_4_1_1,Length=0.029000000,Units=km
new line.RBT_10099868 bus1=BBT4318833.1.0,bus2=RML1010099868.1.0,Phases=1,Linecode=CABBTG01_4_1_1,Length=0.017000000,Units=km
new line.RBT_10100463 bus1=BBT1510034.1.0,bus2=RML1010100463.1.0,Phases=1,Linecode=CABBTG02_4_1_1,Length=0.029000000,Units=km