new line.SMT_10095 bus1=BMT6518B.1.2.3,bus2=BMT6511B.1.2.3,Phases=3,Linecode=CAB104_3_3_3,Length=0.032070000,Units=km
new line.SMT_10097473 bus1=BMT6172126B.1,bus2=BMT6172133B.1,Phases=1,Linecode=CAB103_3_1_1,Length=0.060154000,Units=km
new line.SMT_10097480 bus1=BMT6172133B.1,bus2=BMT6172147B.1,Phases=1,Linecode=CAB103_3_1_1,Length=0.050459000,Units=km
new line.SMT_10097487 bus1=BMT6172147B.1,bus2=BMT6172588B.1,Phases=1,Linecode=CAB103_3_1_1,Length=0.050369000,Units=km
new line.SMT_10097746 bus1=BMT6172588B.1,bus2=BMT6172602B.1,Phases=1,Linecode=CAB103_3_1_1,Length=0.035855000,Units=km
new line.SMT_10097753 bus1=BMT6172602B.1,bus2=BMT6172637B.1,Phases=1,Linecode=CAB103_3_1_1,Length=0.015528000,Units=km
new line.SMT_10097774 bus1=BMT6172637B.1,bus2=BMT6172721B.1,Phases=1,Linecode=CAB103_3_1_1,Length=0.050548000,Units=km
new line.SMT_10097795 bus1=BMT6172721B.1,bus2=BMT6172728B.1,Phases=1,Linecode=CAB103_3_1_1,Length=0.081558000,Units=km
new line.SMT_10097802 bus1=BMT6172728B.1,bus2=BMT103081337.1,Phases=1,Linecode=CAB103_3_1_1,Length=0.055229000,Units=km
new line.SMT_10097809 bus1=BMT176687751.2,bus2=BMT3517991B.2,Phases=1,Linecode=CAB202_3_1_1,Length=0.015815000,Units=km
new line.SMT_10097816 bus1=BMT176687751.2,bus2=BMT176687753.2,Phases=1,Linecode=CAB103_3_1_1,Length=0.051489000,Units=km
new line.SMT_10099265 bus1=BMT176687339.2,bus2=BMT176687340.2,Phases=1,Linecode=CAB202_3_1_1,Length=0.097673000,Units=km
new line.SMT_10099272 bus1=BMT176687339.2,bus2=BMT6175507B.2,Phases=1,Linecode=CAB202_3_1_1,Length=0.361547000,Units=km
new line.SMT_10099279 bus1=BMT6175507B.2,bus2=BMT6175514B.2,Phases=1,Linecode=CAB202_3_1_1,Length=0.190380000,Units=km
new line.SMT_10099286 bus1=BMT6175514B.2,bus2=BMT176687341.2,Phases=1,Linecode=CAB202_3_1_1,Length=0.374075000,Units=km
new line.SMT_10099293 bus1=BMT176687341.2,bus2=BMT176687342.2,Phases=1,Linecode=CAB103_3_1_1,Length=0.043426000,Units=km
new line.SMT_10100630 bus1=BMT6178328B.2,bus2=BMT176687727.2,Phases=1,Linecode=CAB202_3_1_1,Length=0.075408000,Units=km
new line.SMT_10101764 bus1=BMT6180197B.2,bus2=BMT6180204B.2,Phases=1,Linecode=CAB103_3_1_1,Length=0.034242000,Units=km
new line.SMT_10101771 bus1=BMT6180204B.2,bus2=BMT6180211B.2,Phases=1,Linecode=CAB103_3_1_1,Length=0.026689000,Units=km
new line.SMT_10101778 bus1=BMT6180211B.2,bus2=BMT6180218B.2,Phases=1,Linecode=CAB103_3_1_1,Length=0.036353000,Units=km
new line.SMT_10101785 bus1=BMT6180218B.2,bus2=BMT6180225B.2,Phases=1,Linecode=CAB103_3_1_1,Length=0.029023000,Units=km
new line.SMT_10101792 bus1=BMT6180225B.2,bus2=BMT6180232B.2,Phases=1,Linecode=CAB103_3_1_1,Length=0.043575000,Units=km
new line.SMT_10101799 bus1=BMT6180232B.2,bus2=BMT178128334.2,Phases=1,Linecode=CAB103_3_1_1,Length=0.055581000,Units=km
new line.SMT_10101806 bus1=BMT178128334.2,bus2=BMT6180246B.2,Phases=1,Linecode=CAB103_3_1_1,Length=0.026406000,Units=km
new line.SMT_10101813 bus1=BMT6180246B.2,bus2=BMT178128335.2,Phases=1,Linecode=CAB103_3_1_1,Length=0.058150000,Units=km
new line.SMT_10103871 bus1=BMT6183515B.3,bus2=BMT6183522B.3,Phases=1,Linecode=CAB103_3_1_1,Length=0.037651000,Units=km
new line.SMT_10103878 bus1=BMT6183522B.3,bus2=BMT6183529B.3,Phases=1,Linecode=CAB103_3_1_1,Length=0.067548000,Units=km
new line.SMT_10103885 bus1=BMT6183529B.3,bus2=BMT6183536B.3,Phases=1,Linecode=CAB103_3_1_1,Length=0.026931000,Units=km
new line.SMT_10103892 bus1=BMT6183536B.3,bus2=BMT6183543B.3,Phases=1,Linecode=CAB103_3_1_1,Length=0.058089000,Units=km
new line.SMT_10103899 bus1=BMT6183543B.3,bus2=BMT6183550B.3,Phases=1,Linecode=CAB103_3_1_1,Length=0.034936000,Units=km
new line.SMT_10103906 bus1=BMT6183550B.3,bus2=BMT6183557B.3,Phases=1,Linecode=CAB103_3_1_1,Length=0.045319000,Units=km
new line.SMT_10103913 bus1=BMT6183557B.3,bus2=BMT6183564B.3,Phases=1,Linecode=CAB103_3_1_1,Length=0.027592000,Units=km
new line.SMT_10103920 bus1=BMT6183564B.3,bus2=BMT6183571B.3,Phases=1,Linecode=CAB103_3_1_1,Length=0.032564000,Units=km
new line.SMT_10103927 bus1=BMT6183571B.3,bus2=BMT6183578B.3,Phases=1,Linecode=CAB103_3_1_1,Length=0.043183000,Units=km
new line.SMT_10103934 bus1=BMT6183578B.3,bus2=BMT176687604.3,Phases=1,Linecode=CAB103_3_1_1,Length=0.029281000,Units=km
new line.SMT_10104095 bus1=BMT6183879B.3,bus2=BMT6183886B.3,Phases=1,Linecode=CAB103_3_1_1,Length=0.059316000,Units=km
new line.SMT_10104102 bus1=BMT6183886B.3,bus2=BMT6183893B.3,Phases=1,Linecode=CAB103_3_1_1,Length=0.032702000,Units=km
new line.SMT_10104109 bus1=BMT6183893B.3,bus2=BMT180183282.3,Phases=1,Linecode=CAB103_3_1_1,Length=0.052403000,Units=km
new line.SMT_10108512 bus1=BMT6191397B.1.2.3,bus2=BMT2338533B.1.2.3,Phases=3,Linecode=CAB202_3_3_3,Length=0.120233000,Units=km
new line.SMT_10109 bus1=BMT178895134.1.2.3,bus2=BMT6518B.1.2.3,Phases=3,Linecode=CAB104_3_3_3,Length=0.036147000,Units=km
new line.SMT_10378950 bus1=BMT171001748.1.2.3,bus2=BMT6634896B.1.2.3,Phases=3,Linecode=CABA06_3_3_3,Length=0.013605000,Units=km
new line.SMT_10378999 bus1=BMT6634896B.1.2.3,bus2=BMT6634889B.1.2.3,Phases=3,Linecode=CABA06_3_3_3,Length=0.038284000,Units=km
new line.SMT_10379006 bus1=BMT6634889B.1.2.3,bus2=BMT6634868B.1.2.3,Phases=3,Linecode=CABA06_3_3_3,Length=0.039821000,Units=km
new line.SMT_10379013 bus1=BMT6634868B.1.2.3,bus2=BMT171001750.1.2.3,Phases=3,Linecode=CABA06_3_3_3,Length=0.033742000,Units=km
new line.SMT_10060 bus1=BMT6497B.1.2.3,bus2=BMT6490B.1.2.3,Phases=3,Linecode=CABA06_3_3_3,Length=0.037117000,Units=km
new line.SMT_10279466 bus1=BMT6486013B.2,bus2=BMT176687651.2,Phases=1,Linecode=CAB103_3_1_1,Length=0.083023000,Units=km
new line.SMT_10279473 bus1=BMT176687651.2,bus2=BMT176687652.2,Phases=1,Linecode=CAB202_3_1_1,Length=0.122028000,Units=km
new line.SMT_10279480 bus1=BMT176687652.2,bus2=BMT176687653.2,Phases=1,Linecode=CAB103_3_1_1,Length=0.021592000,Units=km
new line.SMT_10281034 bus1=BMT6488526B.3,bus2=BMT2596287B.3,Phases=1,Linecode=CAB103_3_1_1,Length=0.026082000,Units=km
new line.SMT_10281055 bus1=BMT6488596B.3,bus2=BMT6488603B.3,Phases=1,Linecode=CAB103_3_1_1,Length=0.082817000,Units=km
new line.SMT_10281062 bus1=BMT6488603B.3,bus2=BMT180183398.3,Phases=1,Linecode=CAB103_3_1_1,Length=0.063044000,Units=km
new line.SMT_10281069 bus1=BMT176687708.2,bus2=BMT3424443B.2,Phases=1,Linecode=CAB103_3_1_1,Length=0.022208000,Units=km
new line.SMT_10281195 bus1=BMT180183256.3,bus2=BMT176687493.3,Phases=1,Linecode=CAB202_3_1_1,Length=0.094051000,Units=km
new line.SMT_10281202 bus1=BMT180183256.3,bus2=BMT6488827B.3,Phases=1,Linecode=CAB103_3_1_1,Length=0.073771000,Units=km
new line.SMT_10281209 bus1=BMT6488827B.3,bus2=BMT6488834B.3,Phases=1,Linecode=CAB103_3_1_1,Length=0.080097000,Units=km
new line.SMT_10281216 bus1=BMT6488834B.3,bus2=BMT180183258.3,Phases=1,Linecode=CAB103_3_1_1,Length=0.044652000,Units=km
new line.SMT_10281706 bus1=BMT176687302.2,bus2=BMT176687329.2,Phases=1,Linecode=CAB202_3_1_1,Length=0.102379000,Units=km
new line.SMT_10281720 bus1=BMT6489681B.3,bus2=BMT6489688B.3,Phases=1,Linecode=CAB103_3_1_1,Length=0.071078000,Units=km
new line.SMT_10281727 bus1=BMT6489688B.3,bus2=BMT176687462.3,Phases=1,Linecode=CAB103_3_1_1,Length=0.091024000,Units=km
new line.SMT_10281734 bus1=BMT176687462.3,bus2=BMT6489702B.3,Phases=1,Linecode=CAB103_3_1_1,Length=0.038021000,Units=km
new line.SMT_10281741 bus1=BMT6489702B.3,bus2=BMT6489723B.3,Phases=1,Linecode=CAB103_3_1_1,Length=0.050010000,Units=km
new line.SMT_10281748 bus1=BMT6489723B.3,bus2=BMT6489730B.3,Phases=1,Linecode=CAB103_3_1_1,Length=0.052011000,Units=km
new line.SMT_10281755 bus1=BMT6489730B.3,bus2=BMT176687463.3,Phases=1,Linecode=CAB103_3_1_1,Length=0.052011000,Units=km
new line.SMT_10281762 bus1=BMT176687463.3,bus2=BMT6489758B.3,Phases=1,Linecode=CAB103_3_1_1,Length=0.051167000,Units=km
new line.SMT_10281769 bus1=BMT6489758B.3,bus2=BMT6489765B.3,Phases=1,Linecode=CAB103_3_1_1,Length=0.053048000,Units=km
new line.SMT_10281783 bus1=BMT176687464.3,bus2=BMT6489779B.3,Phases=1,Linecode=CAB103_3_1_1,Length=0.081925000,Units=km
new line.SMT_10281790 bus1=BMT176687464.3,bus2=BMT6489800B.3,Phases=1,Linecode=CAB103_3_1_1,Length=0.056047000,Units=km
new line.SMT_10281797 bus1=BMT6489779B.3,bus2=BMT6489786B.3,Phases=1,Linecode=CAB103_3_1_1,Length=0.045901000,Units=km
new line.SMT_10281804 bus1=BMT6489786B.3,bus2=BMT176687465.3,Phases=1,Linecode=CAB103_3_1_1,Length=0.051206000,Units=km
new line.SMT_10281811 bus1=BMT6489800B.3,bus2=BMT176687466.3,Phases=1,Linecode=CAB103_3_1_1,Length=0.036408000,Units=km
new line.SMT_10281818 bus1=BMT176687461.3,bus2=BMT6489681B.3,Phases=1,Linecode=CAB103_3_1_1,Length=0.081022000,Units=km
new line.SMT_10284 bus1=BMT103084333.1.2.3,bus2=BMT6616B.1.2.3,Phases=3,Linecode=CAB104_3_3_3,Length=0.030421000,Units=km
new line.SMT_10290113 bus1=BMT6502470B.2,bus2=BMT6502477B.2,Phases=1,Linecode=CAB103_3_1_1,Length=0.057292000,Units=km
new line.SMT_10290120 bus1=BMT6502477B.2,bus2=BMT6502484B.2,Phases=1,Linecode=CAB103_3_1_1,Length=0.053162000,Units=km
new line.SMT_10290127 bus1=BMT6502484B.2,bus2=BMT6502491B.2,Phases=1,Linecode=CAB103_3_1_1,Length=0.058424000,Units=km
new line.SMT_10290134 bus1=BMT6502491B.2,bus2=BMT176687711.2,Phases=1,Linecode=CAB103_3_1_1,Length=0.059071000,Units=km
new line.SMT_10293214 bus1=BMT6507552B.3,bus2=BMT180183343.3,Phases=1,Linecode=CAB103_3_1_1,Length=0.057439000,Units=km
new line.SMT_10293221 bus1=BMT6507566B.3,bus2=BMT6507552B.3,Phases=1,Linecode=CAB103_3_1_1,Length=0.040232000,Units=km
new line.SMT_10294936 bus1=BMT6510933B.1.2.3,bus2=BMT176687230.1.2.3,Phases=3,Linecode=CAB103_3_3_3,Length=0.019031000,Units=km
new line.SMT_10294943 bus1=BMT6510961B.1.2.3,bus2=BMT74278B.1.2.3,Phases=3,Linecode=CABA06_3_3_3,Length=0.028024000,Units=km
new line.SMT_10294950 bus1=BMT176687222.2,bus2=BMT176687223.2,Phases=1,Linecode=CABA06_3_1_1,Length=0.029076000,Units=km
new line.SMT_10571 bus1=BMT6791B.1.2.3,bus2=BMT6798B.1.2.3,Phases=3,Linecode=CAB103_3_3_3,Length=0.036133000,Units=km
new line.SMT_105736 bus1=BMT67782B.1.2.3,bus2=BMT68426B.1.2.3,Phases=3,Linecode=CABA06_3_3_3,Length=0.026178000,Units=km
new line.SMT_105743 bus1=BMT178689045.1.2.3,bus2=BMT67782B.1.2.3,Phases=3,Linecode=CABA06_3_3_3,Length=0.025026000,Units=km
new line.SMT_10574369 bus1=BMT161556486.1,bus2=BMT103070319.1,Phases=1,Linecode=CAB103_3_1_1,Length=0.029687000,Units=km
new line.SMT_10574376 bus1=BMT103070326.1,bus2=BMT6835082B.1,Phases=1,Linecode=CAB103_3_1_1,Length=0.050019000,Units=km
new line.SMT_10574383 bus1=BMT6835082B.1,bus2=BMT6835089B.1,Phases=1,Linecode=CAB103_3_1_1,Length=0.051273000,Units=km
new line.SMT_10574390 bus1=BMT6835089B.1,bus2=BMT6835103B.1,Phases=1,Linecode=CAB103_3_1_1,Length=0.051019000,Units=km
new line.SMT_10116 bus1=BMT6532B.1.2.3,bus2=BMT178895134.1.2.3,Phases=3,Linecode=CAB104_3_3_3,Length=0.025968000,Units=km
new line.SMT_10242 bus1=BMT6588B.1.2.3,bus2=BMT6595B.1.2.3,Phases=3,Linecode=CABA08_3_3_3,Length=0.029162000,Units=km
new line.SMT_10242681 bus1=BMT176687385.2,bus2=BMT6428088B.2,Phases=1,Linecode=CAB103_3_1_1,Length=0.045198000,Units=km
new line.SMT_10242688 bus1=BMT6428088B.2,bus2=BMT176687395.2,Phases=1,Linecode=CAB103_3_1_1,Length=0.052897000,Units=km
new line.SMT_10244627 bus1=BMT6431840B.3,bus2=BMT179026245.3,Phases=1,Linecode=CAB103_3_1_1,Length=0.054929000,Units=km
new line.SMT_10244641 bus1=BMT178689046.1,bus2=BMT67880B.1,Phases=1,Linecode=CABA06_3_1_1,Length=0.049508000,Units=km
new line.SMT_10249849 bus1=BMT165224442.1,bus2=BMT6441136B.1,Phases=1,Linecode=CAB202_3_1_1,Length=0.198834000,Units=km
new line.SMT_10249856 bus1=BMT165224442.1,bus2=BMT165224444.1,Phases=1,Linecode=CAB103_3_1_1,Length=0.024519000,Units=km
new line.SMT_10249863 bus1=BMT6441136B.1,bus2=BMT165224443.1,Phases=1,Linecode=CAB202_3_1_1,Length=0.056044000,Units=km
new line.SMT_10249870 bus1=BMT165224443.1,bus2=BMT6441150B.1,Phases=1,Linecode=CAB202_3_1_1,Length=0.078037000,Units=km
new line.SMT_10249877 bus1=BMT6441150B.1,bus2=BMT6441157B.1,Phases=1,Linecode=CAB202_3_1_1,Length=0.114055000,Units=km
new line.SMT_10249884 bus1=BMT6441157B.1,bus2=BMT165224445.1,Phases=1,Linecode=CAB202_3_1_1,Length=0.084226000,Units=km
new line.SMT_10403 bus1=BMT103084347.1.2.3,bus2=BMT6189B.1.2.3,Phases=3,Linecode=CAB103_3_3_3,Length=0.021218000,Units=km
new line.SMT_10406754 bus1=BMT151308028.1,bus2=BMT151308030.1,Phases=1,Linecode=CAB202_3_1_1,Length=0.059828000,Units=km
new line.SMT_10406761 bus1=BMT151308030.1,bus2=BMT151308031.1,Phases=1,Linecode=CAB202_3_1_1,Length=0.130898000,Units=km
new line.SMT_105897 bus1=BMT67859B.1.2.3,bus2=BMT67866B.1.2.3,Phases=3,Linecode=CABA06_3_3_3,Length=0.031835000,Units=km
new line.SMT_105904 bus1=BMT67866B.1.2.3,bus2=BMT67873B.1.2.3,Phases=3,Linecode=CABA06_3_3_3,Length=0.041734000,Units=km
new line.SMT_105925 bus1=BMT67873B.1.2.3,bus2=BMT178689046.1.2.3,Phases=3,Linecode=CABA06_3_3_3,Length=0.035363000,Units=km
new line.SMT_105946 bus1=BMT67880B.1,bus2=BMT178689049.1,Phases=1,Linecode=CABA06_3_1_1,Length=0.024047000,Units=km
new line.SMT_105967 bus1=BMT178689049.1,bus2=BMT178689050.1,Phases=1,Linecode=CABA06_3_1_1,Length=0.038218000,Units=km
new line.SMT_105974 bus1=BMT178689049.1,bus2=BMT3423295B.1,Phases=1,Linecode=CAB004_3_1_1,Length=0.010773000,Units=km
new line.SMT_10598967 bus1=BMT456B.1.2.3,bus2=BMT178782524.1.2.3,Phases=3,Linecode=CABA06_3_3_3,Length=0.032764000,Units=km
new line.SMT_10598974 bus1=BMT178782524.1.2.3,bus2=BMT178782526.1.2.3,Phases=3,Linecode=CAB103_3_3_3,Length=0.015268000,Units=km
new line.SMT_10599002 bus1=BMT178782523.1.2.3,bus2=BMT3382B.1.2.3,Phases=3,Linecode=CABA06_3_3_3,Length=0.033549000,Units=km
new line.SMT_10599009 bus1=BMT3382B.1.2.3,bus2=BMT3375B.1.2.3,Phases=3,Linecode=CABA06_3_3_3,Length=0.035702000,Units=km
new line.SMT_10599016 bus1=BMT3375B.1.2.3,bus2=BMT3305B.1.2.3,Phases=3,Linecode=CABA06_3_3_3,Length=0.034534000,Units=km
new line.SMT_10599023 bus1=BMT3305B.1.2.3,bus2=BMT3291B.1.2.3,Phases=3,Linecode=CABA06_3_3_3,Length=0.033742000,Units=km
new line.SMT_10599030 bus1=BMT3291B.1.2.3,bus2=BMT3277B.1.2.3,Phases=3,Linecode=CABA06_3_3_3,Length=0.034534000,Units=km
new line.SMT_10599037 bus1=BMT3277B.1.2.3,bus2=BMT178782524.1.2.3,Phases=3,Linecode=CABA06_3_3_3,Length=0.023092000,Units=km
new line.SMT_10606 bus1=BMT136546307.1.2.3,bus2=BMT6840B.1.2.3,Phases=3,Linecode=CABA08_3_3_3,Length=0.036409000,Units=km
new line.SMT_107360 bus1=BMT68741B.1.2.3,bus2=BMT68713B.1.2.3,Phases=3,Linecode=CABA06_3_3_3,Length=0.039124000,Units=km
new line.SMT_107367 bus1=BMT68748B.1.2.3,bus2=BMT176687907.1.2.3,Phases=3,Linecode=CABA06_3_3_3,Length=0.031152000,Units=km
new line.SMT_107374 bus1=BMT176687904.1.2.3,bus2=BMT68741B.1.2.3,Phases=3,Linecode=CABA06_3_3_3,Length=0.033384000,Units=km
new line.SMT_107381 bus1=BMT176687904.1.2.3,bus2=BMT68748B.1.2.3,Phases=3,Linecode=CABA06_3_3_3,Length=0.031898000,Units=km
new line.SMT_107388 bus1=BMT68762B.1.2.3,bus2=BMT176687904.1.2.3,Phases=3,Linecode=CABA06_3_3_3,Length=0.031072000,Units=km
new line.SMT_10739 bus1=BMT151612397.1.2.3,bus2=BMT6896B.1.2.3,Phases=3,Linecode=CABA06_3_3_3,Length=0.032288000,Units=km
new line.SMT_107395 bus1=BMT176687891.1.2.3,bus2=BMT68762B.1.2.3,Phases=3,Linecode=CABA06_3_3_3,Length=0.028851000,Units=km
new line.SMT_107402 bus1=BMT176687891.1.2.3,bus2=BMT68937B.1.2.3,Phases=3,Linecode=CABA06_3_3_3,Length=0.029007000,Units=km
new line.SMT_107409 bus1=BMT68776B.1.2.3,bus2=BMT176687891.1.2.3,Phases=3,Linecode=CABA06_3_3_3,Length=0.030878000,Units=km
new line.SMT_107423 bus1=BMT68790B.2,bus2=BMT68797B.2,Phases=1,Linecode=CAB103_3_1_1,Length=0.044428000,Units=km
new line.SMT_107430 bus1=BMT68797B.2,bus2=BMT68804B.2,Phases=1,Linecode=CAB103_3_1_1,Length=0.035855000,Units=km
new line.SMT_107444 bus1=BMT68804B.2,bus2=BMT68811B.2,Phases=1,Linecode=CAB103_3_1_1,Length=0.043021000,Units=km
new line.SMT_107451 bus1=BMT68811B.2,bus2=BMT68818B.2,Phases=1,Linecode=CAB103_3_1_1,Length=0.027665000,Units=km
new line.SMT_10746 bus1=BMT151612397.2,bus2=BMT8065B.2,Phases=1,Linecode=CAB103_3_1_1,Length=0.046021000,Units=km
new line.SMT_107465 bus1=BMT176687838.2,bus2=BMT68818B.2,Phases=1,Linecode=CAB103_3_1_1,Length=0.028868000,Units=km
new line.SMT_10039 bus1=BMT6483B.1.2.3,bus2=BMT151612398.1.2.3,Phases=3,Linecode=CABA06_3_3_3,Length=0.045902000,Units=km
new line.SMT_10044378 bus1=BMT171002294.1.2.3,bus2=BMT172500880.1.2.3,Phases=3,Linecode=CAB108_3_3_3,Length=0.015137000,Units=km
new line.SMT_10044441 bus1=BMT178895091.1.2.3,bus2=BMT178895092.1.2.3,Phases=3,Linecode=CAB108_3_3_3,Length=0.008065000,Units=km
new line.SMT_10044469 bus1=BMT176687075.1.2.3,bus2=BMT176687076.1.2.3,Phases=3,Linecode=CAB108_3_3_3,Length=0.016160000,Units=km
new line.SMT_10044483 bus1=BMT6063122B.1.2.3,bus2=BMT178273424.1.2.3,Phases=3,Linecode=CAB108_3_3_3,Length=0.040826000,Units=km
new line.SMT_10044560 bus1=BMT171001747.1.2.3,bus2=BMT2340472B.1.2.3,Phases=3,Linecode=CAB108_3_3_3,Length=0.023092000,Units=km
new line.SMT_10046 bus1=BMT6490B.1.2.3,bus2=BMT6483B.1.2.3,Phases=3,Linecode=CABA06_3_3_3,Length=0.034937000,Units=km
new line.SMT_10186 bus1=BMT6567B.1.2.3,bus2=BMT6553B.1.2.3,Phases=3,Linecode=CAB104_3_3_3,Length=0.038336000,Units=km
new line.SMT_10196579 bus1=BMT176687233.1.2.3,bus2=BMT176687234.1.2.3,Phases=3,Linecode=CAB103_3_3_3,Length=0.048115000,Units=km
new line.SMT_10196586 bus1=BMT176687233.1,bus2=BMT6354287B.1,Phases=1,Linecode=CAB103_3_1_1,Length=0.069066000,Units=km
new line.SMT_10196593 bus1=BMT6354287B.1,bus2=BMT6354308B.1,Phases=1,Linecode=CAB103_3_1_1,Length=0.065939000,Units=km
new line.SMT_10196607 bus1=BMT6354308B.1,bus2=BMT6354329B.1,Phases=1,Linecode=CAB103_3_1_1,Length=0.032023000,Units=km
new line.SMT_10196621 bus1=BMT6354329B.1,bus2=BMT6354336B.1,Phases=1,Linecode=CAB103_3_1_1,Length=0.031072000,Units=km
new line.SMT_10196628 bus1=BMT6354336B.1,bus2=BMT6354343B.1,Phases=1,Linecode=CAB103_3_1_1,Length=0.032070000,Units=km
new line.SMT_10196635 bus1=BMT6354343B.1,bus2=BMT176687235.1,Phases=1,Linecode=CAB103_3_1_1,Length=0.030421000,Units=km
new line.SMT_10361 bus1=BMT103084340.1.2.3,bus2=BMT6637B.1.2.3,Phases=3,Linecode=CAB103_3_3_3,Length=0.035008000,Units=km
new line.SMT_10375 bus1=BMT6637B.1.2.3,bus2=BMT6644B.1.2.3,Phases=3,Linecode=CAB103_3_3_3,Length=0.024845000,Units=km
new line.SMT_10508 bus1=BMT6700B.1.2.3,bus2=BMT6728B.1.2.3,Phases=3,Linecode=CABA08_3_3_3,Length=0.035137000,Units=km
new line.SMT_1051 bus1=BMT967B.1.2.3,bus2=BMT136406342.1.2.3,Phases=3,Linecode=CAB103_3_3_3,Length=0.030007000,Units=km
new line.SMT_10522 bus1=BMT6721B.1.2.3,bus2=BMT136546286.1.2.3,Phases=3,Linecode=CABA08_3_3_3,Length=0.030273000,Units=km
new line.SMT_106737 bus1=BMT68384B.1.2.3,bus2=BMT68391B.1.2.3,Phases=3,Linecode=CABA06_3_3_3,Length=0.040233000,Units=km
new line.SMT_106751 bus1=BMT68391B.1.2.3,bus2=BMT68398B.1.2.3,Phases=3,Linecode=CABA06_3_3_3,Length=0.032810000,Units=km
new line.SMT_106765 bus1=BMT68398B.1.2.3,bus2=BMT68405B.1.2.3,Phases=3,Linecode=CABA06_3_3_3,Length=0.034663000,Units=km
new line.SMT_106779 bus1=BMT68405B.1.2.3,bus2=BMT68412B.1.2.3,Phases=3,Linecode=CABA06_3_3_3,Length=0.033978000,Units=km
new line.SMT_106793 bus1=BMT68412B.1.2.3,bus2=BMT178689044.1.2.3,Phases=3,Linecode=CABA06_3_3_3,Length=0.033949000,Units=km
new line.SMT_106821 bus1=BMT68426B.1.2.3,bus2=BMT178689044.1.2.3,Phases=3,Linecode=CABA06_3_3_3,Length=0.030421000,Units=km
new line.SMT_106835 bus1=BMT164024740.2.3,bus2=BMT80095B.2.3,Phases=2,Linecode=CAB103_3_2_2,Length=0.045661000,Units=km
new line.SMT_10684115 bus1=BMT176687711.2,bus2=BMT6502505B.2,Phases=1,Linecode=CAB103_3_1_1,Length=0.048114000,Units=km
new line.SMT_10684122 bus1=BMT6502505B.2,bus2=BMT6502512B.2,Phases=1,Linecode=CAB103_3_1_1,Length=0.047020000,Units=km
new line.SMT_10684129 bus1=BMT6502512B.2,bus2=BMT6502519B.2,Phases=1,Linecode=CAB103_3_1_1,Length=0.051634000,Units=km
new line.SMT_10684136 bus1=BMT6502519B.2,bus2=BMT6502526B.2,Phases=1,Linecode=CAB103_3_1_1,Length=0.032256000,Units=km
new line.SMT_10684143 bus1=BMT6502526B.2,bus2=BMT6502533B.2,Phases=1,Linecode=CAB103_3_1_1,Length=0.027319000,Units=km
new line.SMT_10684150 bus1=BMT6502533B.2,bus2=BMT6502540B.2,Phases=1,Linecode=CAB103_3_1_1,Length=0.057995000,Units=km
new line.SMT_10684199 bus1=BMT6502540B.2,bus2=BMT6946088B.2,Phases=1,Linecode=CAB103_3_1_1,Length=0.058064000,Units=km
new line.SMT_10684206 bus1=BMT6946088B.2,bus2=BMT6946095B.2,Phases=1,Linecode=CAB103_3_1_1,Length=0.055725000,Units=km
new line.SMT_10684213 bus1=BMT6946095B.2,bus2=BMT176687712.2,Phases=1,Linecode=CAB103_3_1_1,Length=0.080769000,Units=km
new line.SMT_10684220 bus1=BMT176687712.2,bus2=BMT176687713.2,Phases=1,Linecode=CAB202_3_1_1,Length=0.154963000,Units=km
new line.SMT_10684283 bus1=BMT176687713.2,bus2=BMT6946200B.2,Phases=1,Linecode=CAB103_3_1_1,Length=0.046700000,Units=km
new line.SMT_10684290 bus1=BMT6946200B.2,bus2=BMT6946221B.2,Phases=1,Linecode=CAB103_3_1_1,Length=0.056580000,Units=km
new line.SMT_10684297 bus1=BMT6946221B.2,bus2=BMT176687715.2,Phases=1,Linecode=CAB103_3_1_1,Length=0.062214000,Units=km
new line.SMT_10684311 bus1=BMT176687712.2,bus2=BMT176687714.2,Phases=1,Linecode=CAB202_3_1_1,Length=0.098025000,Units=km
new line.SMT_106863 bus1=BMT68454B.1.2.3,bus2=BMT68461B.1.2.3,Phases=3,Linecode=CABA08_3_3_3,Length=0.040801000,Units=km
new line.SMT_106884 bus1=BMT68461B.1.2.3,bus2=BMT68468B.1.2.3,Phases=3,Linecode=CABA08_3_3_3,Length=0.042765000,Units=km
new line.SMT_106898 bus1=BMT68468B.1.2.3,bus2=BMT68475B.1.2.3,Phases=3,Linecode=CABA08_3_3_3,Length=0.045055000,Units=km
new line.SMT_10690 bus1=BMT6868B.1.2.3,bus2=BMT6700B.1.2.3,Phases=3,Linecode=CABA08_3_3_3,Length=0.040034000,Units=km
new line.SMT_10143379 bus1=BMT6251863B.3,bus2=BMT179026251.3,Phases=1,Linecode=CAB103_3_1_1,Length=0.085393000,Units=km
new line.SMT_10144 bus1=BMT6553B.1.2.3,bus2=BMT6532B.1.2.3,Phases=3,Linecode=CAB104_3_3_3,Length=0.040271000,Units=km
new line.SMT_10146172 bus1=BMT176947705.1,bus2=BMT3206246B.1,Phases=1,Linecode=CAB103_3_1_1,Length=0.024521000,Units=km
new line.SMT_10146179 bus1=BMT176947705.1,bus2=BMT176947707.1,Phases=1,Linecode=CAB103_3_1_1,Length=0.034139000,Units=km
new line.SMT_10263 bus1=BMT6595B.1.2.3,bus2=BMT103084228.1.2.3,Phases=3,Linecode=CABA08_3_3_3,Length=0.026839000,Units=km
new line.SMT_10263030 bus1=BMT164501543.2,bus2=BMT1031542B.2,Phases=1,Linecode=CAB103_3_1_1,Length=0.032395000,Units=km
new line.SMT_10263051 bus1=BMT6459938B.2,bus2=BMT1031549B.2,Phases=1,Linecode=CAB103_3_1_1,Length=0.028449000,Units=km
new line.SMT_10268511 bus1=BMT6468849B.3,bus2=BMT179938879.3,Phases=1,Linecode=CAB202_3_1_1,Length=0.039328000,Units=km
new line.SMT_10277 bus1=BMT103084228.1.2.3,bus2=BMT6609B.1.2.3,Phases=3,Linecode=CABA08_3_3_3,Length=0.031152000,Units=km
new line.SMT_10277093 bus1=BMT6482338B.2,bus2=BMT6482345B.2,Phases=1,Linecode=CAB103_3_1_1,Length=0.033249000,Units=km
new line.SMT_10277100 bus1=BMT6482345B.2,bus2=BMT6482352B.2,Phases=1,Linecode=CAB103_3_1_1,Length=0.075785000,Units=km
new line.SMT_10277107 bus1=BMT6482352B.2,bus2=BMT6482359B.2,Phases=1,Linecode=CAB103_3_1_1,Length=0.053947000,Units=km
new line.SMT_10277114 bus1=BMT6482359B.2,bus2=BMT176687778.2,Phases=1,Linecode=CAB103_3_1_1,Length=0.055483000,Units=km
new line.SMT_10422035 bus1=BMT176687482.3,bus2=BMT6680382B.3,Phases=1,Linecode=CAB103_3_1_1,Length=0.034007000,Units=km
new line.SMT_10422042 bus1=BMT6680382B.3,bus2=BMT6680403B.3,Phases=1,Linecode=CAB103_3_1_1,Length=0.038608000,Units=km
new line.SMT_10422063 bus1=BMT6680403B.3,bus2=BMT6680410B.3,Phases=1,Linecode=CAB103_3_1_1,Length=0.068636000,Units=km
new line.SMT_10422070 bus1=BMT6680410B.3,bus2=BMT176687486.3,Phases=1,Linecode=CAB103_3_1_1,Length=0.079715000,Units=km
new line.SMT_10422084 bus1=BMT176687486.3,bus2=BMT176687487.3,Phases=1,Linecode=CAB202_3_1_1,Length=0.083311000,Units=km
new line.SMT_10422504 bus1=BMT2727908B.3,bus2=BMT176687480.3,Phases=1,Linecode=CAB202_3_1_1,Length=0.502934000,Units=km
new line.SMT_10422511 bus1=BMT176687480.3,bus2=BMT176687481.3,Phases=1,Linecode=CAB103_3_1_1,Length=0.053349000,Units=km
new line.SMT_10422525 bus1=BMT176687480.3,bus2=BMT176687482.3,Phases=1,Linecode=CAB202_3_1_1,Length=0.000501000,Units=km
new line.SMT_10422532 bus1=BMT176687480.3,bus2=BMT176687482.3,Phases=1,Linecode=CAB202_3_1_1,Length=0.086787000,Units=km
new line.SMT_10422539 bus1=BMT176687480.3,bus2=BMT176687483.3,Phases=1,Linecode=CAB103_3_1_1,Length=0.000501000,Units=km
new line.SMT_10422553 bus1=BMT176687480.3,bus2=BMT176687483.3,Phases=1,Linecode=CAB103_3_1_1,Length=0.077178000,Units=km
new line.SMT_10422560 bus1=BMT176687483.3,bus2=BMT176687484.3,Phases=1,Linecode=CAB202_3_1_1,Length=0.084112000,Units=km
new line.SMT_10425094 bus1=BMT197898B.1.2.3,bus2=BMT6683616B.1.2.3,Phases=3,Linecode=CABA08_3_3_3,Length=0.008002000,Units=km
new line.SMT_10425101 bus1=BMT6683616B.1.2.3,bus2=BMT197891B.1.2.3,Phases=3,Linecode=CABA08_3_3_3,Length=0.021005000,Units=km
new line.SMT_1044 bus1=BMT960B.1.2.3,bus2=BMT939B.1.2.3,Phases=3,Linecode=CAB104_3_3_3,Length=0.030240000,Units=km
new line.SMT_10550 bus1=BMT6763B.1,bus2=BMT103084424.1,Phases=1,Linecode=CAB103_3_1_1,Length=0.040506000,Units=km
new line.SMT_107136 bus1=BMT68594B.1.2.3,bus2=BMT68587B.1.2.3,Phases=3,Linecode=CAB103_3_3_3,Length=0.034022000,Units=km
new line.SMT_107150 bus1=BMT68601B.1.2.3,bus2=BMT68594B.1.2.3,Phases=3,Linecode=CAB103_3_3_3,Length=0.034936000,Units=km
new line.SMT_107164 bus1=BMT68608B.1.2.3,bus2=BMT68601B.1.2.3,Phases=3,Linecode=CAB103_3_3_3,Length=0.035363000,Units=km
new line.SMT_107171 bus1=BMT68615B.1.2.3,bus2=BMT68608B.1.2.3,Phases=3,Linecode=CAB103_3_3_3,Length=0.032318000,Units=km
new line.SMT_107185 bus1=BMT68622B.1.2.3,bus2=BMT68629B.1.2.3,Phases=3,Linecode=CABA08_3_3_3,Length=0.048888000,Units=km
new line.SMT_107199 bus1=BMT68629B.1.2.3,bus2=BMT170511044.1.2.3,Phases=3,Linecode=CABA08_3_3_3,Length=0.038284000,Units=km
new line.SMT_1072 bus1=BMT988B.1.2.3,bus2=BMT103064005.1.2.3,Phases=3,Linecode=CABA08_3_3_3,Length=0.033549000,Units=km
new line.SMT_107206 bus1=BMT68636B.2.3,bus2=BMT164024740.2.3,Phases=2,Linecode=CAB103_3_2_2,Length=0.052709000,Units=km
new line.SMT_107213 bus1=BMT170511044.1.2.3,bus2=BMT68650B.1.2.3,Phases=3,Linecode=CABA08_3_3_3,Length=0.043839000,Units=km
new line.SMT_107227 bus1=BMT68650B.1.2.3,bus2=BMT164024737.1.2.3,Phases=3,Linecode=CABA08_3_3_3,Length=0.034067000,Units=km
new line.SMT_107241 bus1=BMT164024737.1.2.3,bus2=BMT68664B.1.2.3,Phases=3,Linecode=CABA08_3_3_3,Length=0.046108000,Units=km
new line.SMT_107248 bus1=BMT164024739.2.3,bus2=BMT3368919B.2.3,Phases=2,Linecode=CAB103_3_2_2,Length=0.046054000,Units=km
new line.SMT_107262 bus1=BMT68664B.1.2.3,bus2=BMT68671B.1.2.3,Phases=3,Linecode=CABA08_3_3_3,Length=0.040009000,Units=km
new line.SMT_107269 bus1=BMT68671B.1.2.3,bus2=BMT68678B.1.2.3,Phases=3,Linecode=CABA08_3_3_3,Length=0.025245000,Units=km
new line.SMT_107297 bus1=BMT68699B.1.2.3,bus2=BMT79787B.1.2.3,Phases=3,Linecode=CABA06_3_3_3,Length=0.040121000,Units=km
new line.SMT_107339 bus1=BMT68713B.1.2.3,bus2=BMT68699B.1.2.3,Phases=3,Linecode=CABA06_3_3_3,Length=0.041119000,Units=km
new line.SMT_10011 bus1=BMT6469B.1.2.3,bus2=BMT2339674B.1.2.3,Phases=3,Linecode=CABA06_3_3_3,Length=0.031835000,Units=km
new line.SMT_10305 bus1=BMT6609B.1.2.3,bus2=BMT103084221.1.2.3,Phases=3,Linecode=CABA08_3_3_3,Length=0.021476000,Units=km
new line.SMT_10312 bus1=BMT6616B.1.2.3,bus2=BMT103084340.1.2.3,Phases=3,Linecode=CAB104_3_3_3,Length=0.032396000,Units=km
new line.SMT_10466 bus1=BMT136546286.1.2.3,bus2=BMT7162B.1.2.3,Phases=3,Linecode=CABA08_3_3_3,Length=0.037022000,Units=km
new line.SMT_10467724 bus1=BMT180183254.3,bus2=BMT180183257.3,Phases=1,Linecode=CAB103_3_1_1,Length=0.021476000,Units=km
new line.SMT_10468536 bus1=BMT176687493.3,bus2=BMT180183260.3,Phases=1,Linecode=CAB202_3_1_1,Length=0.147880000,Units=km
new line.SMT_10468543 bus1=BMT180183260.3,bus2=BMT180183261.3,Phases=1,Linecode=CAB202_3_1_1,Length=0.122601000,Units=km
new line.SMT_10468788 bus1=BMT180183260.3,bus2=BMT6730404B.3,Phases=1,Linecode=CAB103_3_1_1,Length=0.036804000,Units=km
new line.SMT_10468795 bus1=BMT6730404B.3,bus2=BMT6730418B.3,Phases=1,Linecode=CAB103_3_1_1,Length=0.055958000,Units=km
new line.SMT_10468802 bus1=BMT6730418B.3,bus2=BMT6730425B.3,Phases=1,Linecode=CAB103_3_1_1,Length=0.064550000,Units=km
new line.SMT_10468809 bus1=BMT6730425B.3,bus2=BMT6730432B.3,Phases=1,Linecode=CAB103_3_1_1,Length=0.047549000,Units=km
new line.SMT_10468816 bus1=BMT6730432B.3,bus2=BMT6730460B.3,Phases=1,Linecode=CAB103_3_1_1,Length=0.040456000,Units=km
new line.SMT_10468823 bus1=BMT6730460B.3,bus2=BMT6730467B.3,Phases=1,Linecode=CAB103_3_1_1,Length=0.059451000,Units=km
new line.SMT_10468830 bus1=BMT6730467B.3,bus2=BMT6730481B.3,Phases=1,Linecode=CAB103_3_1_1,Length=0.059147000,Units=km
new line.SMT_10468837 bus1=BMT6730481B.3,bus2=BMT6730495B.3,Phases=1,Linecode=CAB103_3_1_1,Length=0.051489000,Units=km
new line.SMT_10468844 bus1=BMT6730495B.3,bus2=BMT6730502B.3,Phases=1,Linecode=CAB103_3_1_1,Length=0.054600000,Units=km
new line.SMT_10468851 bus1=BMT6730502B.3,bus2=BMT6730516B.3,Phases=1,Linecode=CAB103_3_1_1,Length=0.043055000,Units=km
new line.SMT_10468858 bus1=BMT6730516B.3,bus2=BMT180183262.3,Phases=1,Linecode=CAB103_3_1_1,Length=0.051274000,Units=km
new line.SMT_10469187 bus1=BMT180183260.3,bus2=BMT180183263.3,Phases=1,Linecode=CAB103_3_1_1,Length=0.027024000,Units=km
new line.SMT_10474164 bus1=BMT176687722.2,bus2=BMT6736298B.2,Phases=1,Linecode=CAB103_3_1_1,Length=0.033249000,Units=km
new line.SMT_10474171 bus1=BMT6736298B.2,bus2=BMT3411955B.2,Phases=1,Linecode=CAB103_3_1_1,Length=0.027665000,Units=km
new line.SMT_106310 bus1=BMT68076B.1.2.3,bus2=BMT69707B.1.2.3,Phases=3,Linecode=CAB103_3_3_3,Length=0.021029000,Units=km
new line.SMT_10634 bus1=BMT6847B.1.2.3,bus2=BMT136546300.1.2.3,Phases=3,Linecode=CABA08_3_3_3,Length=0.032535000,Units=km
new line.SMT_106345 bus1=BMT68090B.1,bus2=BMT67845B.1,Phases=1,Linecode=CAB103_3_1_1,Length=0.031023000,Units=km
new line.SMT_106359 bus1=BMT103068240.1,bus2=BMT68090B.1,Phases=1,Linecode=CAB103_3_1_1,Length=0.027319000,Units=km