new line.RML10044472 bus1=BBT1010913.1.2.3.0,bus2=RML1060044472.1.2.3.0,Phases=3,Linecode=CABBTG06_4_3,Length=0.017000000,Units=km
new line.RML10053965 bus1=BBT135322147.1.2.3.0,bus2=RML1060053965.1.2.3.0,Phases=3,Linecode=CABBTG08_4_3,Length=0.017000000,Units=km
new line.RML10056951 bus1=BBT983970.1.2.3.0,bus2=RML1060056951.1.2.3.0,Phases=3,Linecode=CABBTG06_4_3,Length=0.017000000,Units=km
new line.RML10056960 bus1=BBT1014476.1.2.3.0,bus2=RML1060056960.1.2.3.0,Phases=3,Linecode=CABBTG06_4_3,Length=0.030000000,Units=km
new line.RML10079542 bus1=BBT1011424.2.3.0,bus2=RML1060079542.2.3.0,Phases=2,Linecode=CABBTG05_4_2,Length=0.029000000,Units=km
new line.RML10079587 bus1=BBT1009793.1.2.0,bus2=RML1060079587.1.2.0,Phases=2,Linecode=CABBTG05_4_2,Length=0.017000000,Units=km
new line.RML10080960 bus1=BBT988450.1.2.3.0,bus2=RML1060080960.1.2.3.0,Phases=3,Linecode=CABBTG06_4_3,Length=0.017000000,Units=km
new line.RML10082397 bus1=BBT958714.2.0,bus2=RML1060082397.2.0,Phases=1,Linecode=CABBTG02_4_1,Length=0.017000000,Units=km
new line.RML10088902 bus1=BBT985216.1.2.0,bus2=RML1060088902.1.2.0,Phases=2,Linecode=CABBTG05_4_2,Length=0.029000000,Units=km
new line.RML10088921 bus1=BBT983970.1.2.3.0,bus2=RML1060088921.1.2.3.0,Phases=3,Linecode=CABBTG06_4_3,Length=0.017000000,Units=km
new line.RML10088937 bus1=BBT2854377.1.2.0,bus2=RML1060088937.1.2.0,Phases=2,Linecode=CABBTG05_4_2,Length=0.017000000,Units=km
new line.RML10088944 bus1=BBT2873970.1.2.0,bus2=RML1060088944.1.2.0,Phases=2,Linecode=CABBTG05_4_2,Length=0.017000000,Units=km
new line.RML10088948 bus1=BBT2873970.1.2.0,bus2=RML1060088948.1.2.0,Phases=2,Linecode=CABBTG05_4_2,Length=0.017000000,Units=km
new line.RML10088951 bus1=BBT2873998.1.2.0,bus2=RML1060088951.1.2.0,Phases=2,Linecode=CABBTG05_4_2,Length=0.017000000,Units=km
new line.RML10091468 bus1=BBT149197715.1.2.3.0,bus2=RML1060091468.1.2.3.0,Phases=3,Linecode=CABBTG09_4_3,Length=0.017000000,Units=km
new line.RML10093843 bus1=BBT1015330.1.2.0,bus2=RML1060093843.1.2.0,Phases=2,Linecode=CABBTG13_4_2,Length=0.017000000,Units=km
new line.RML10093966 bus1=BBT5384933.1.2.0,bus2=RML1060093966.1.2.0,Phases=2,Linecode=CABBTG05_4_2,Length=0.017000000,Units=km
new line.RML10093974 bus1=BBT1011970.1.2.0,bus2=RML1060093974.1.2.0,Phases=2,Linecode=CABBTG05_4_2,Length=0.017000000,Units=km
new line.RML10093977 bus1=BBT1011214.1.2.0,bus2=RML1060093977.1.2.0,Phases=2,Linecode=CABBTG05_4_2,Length=0.017000000,Units=km
new line.RML10097637 bus1=BBT1019229.1.0,bus2=RML1060097637.1.0,Phases=1,Linecode=CABBTG02_4_1,Length=0.017000000,Units=km
new line.RML10097645 bus1=BBT1019208.1.2.0,bus2=RML1060097645.1.2.0,Phases=2,Linecode=CABBTG05_4_2,Length=0.017000000,Units=km
new line.RML10100500 bus1=BBT983452.1.2.3.0,bus2=RML1060100500.1.2.3.0,Phases=3,Linecode=CABBTG06_4_3,Length=0.017000000,Units=km
new line.RML10101258 bus1=BBT4753232.1.2.0,bus2=RML1060101258.1.2.0,Phases=2,Linecode=CABBTG05_4_2,Length=0.017000000,Units=km
new line.RML10104973 bus1=BBT988912.1.2.0,bus2=RML1060104973.1.2.0,Phases=2,Linecode=CABBTG05_4_2,Length=0.017000000,Units=km
new line.RML10106864 bus1=BBT2874012.1.2.0,bus2=RML1060106864.1.2.0,Phases=2,Linecode=CABBTG05_4_2,Length=0.017000000,Units=km
new line.RML10115349 bus1=BBT987603.1.2.0,bus2=RML1060115349.1.2.0,Phases=2,Linecode=CABBTG05_4_2,Length=0.017000000,Units=km
new line.RML10132037 bus1=BBT3156693.1.2.0,bus2=RML1060132037.1.2.0,Phases=2,Linecode=CABBTG05_4_2,Length=0.017000000,Units=km
new line.RML10132081 bus1=BBT3156504.1.2.0,bus2=RML1060132081.1.2.0,Phases=2,Linecode=CABBTG05_4_2,Length=0.017000000,Units=km
new line.RML10134580 bus1=BBT1012887.2.0,bus2=RML1060134580.2.0,Phases=1,Linecode=CABBTG02_4_1,Length=0.017000000,Units=km
new line.RML10136200 bus1=BBT2854328.2.0,bus2=RML1060136200.2.0,Phases=1,Linecode=CABBTG02_4_1,Length=0.017000000,Units=km
new line.RML10140840 bus1=BBT3569938.1.2.3.0,bus2=RML1060140840.1.2.3.0,Phases=3,Linecode=CABBTG06_4_3,Length=0.017000000,Units=km
new line.RML10149957 bus1=BBT985755.1.3.0,bus2=RML1060149957.1.3.0,Phases=2,Linecode=CABBTG05_4_2,Length=0.017000000,Units=km
new line.RML10159793 bus1=BBT1020377.1.0,bus2=RML1060159793.1.0,Phases=1,Linecode=CABBTG02_4_1,Length=0.017000000,Units=km
new line.RML10160161 bus1=BBT1009863.1.2.3.0,bus2=RML1060160161.1.2.3.0,Phases=3,Linecode=CABBTG08_4_3,Length=0.020000000,Units=km
new line.RML10160574 bus1=BBT978041.1.2.0,bus2=RML1060160574.1.2.0,Phases=2,Linecode=CABBT814_4_2,Length=0.017000000,Units=km
new line.RML10161717 bus1=BBT974975.2.3.0,bus2=RML1060161717.2.3.0,Phases=2,Linecode=CABBTG05_4_2,Length=0.017000000,Units=km
new line.RML10163147 bus1=BBT2854405.3.0,bus2=RML1060163147.3.0,Phases=1,Linecode=CABBTG01_4_1,Length=0.017000000,Units=km
new line.RML10163481 bus1=BBT1012901.2.0,bus2=RML1060163481.2.0,Phases=1,Linecode=CABBTG02_4_1,Length=0.017000000,Units=km
new line.RML10163533 bus1=BBT1012887.2.0,bus2=RML1060163533.2.0,Phases=1,Linecode=CABBTG01_4_1,Length=0.017000000,Units=km
new line.RML10164064 bus1=BBT979658.3.0,bus2=RML1060164064.3.0,Phases=1,Linecode=CABBTG02_4_1,Length=0.017000000,Units=km
new line.RML10166729 bus1=BBT1015883.1.0,bus2=RML1060166729.1.0,Phases=1,Linecode=CABBTG01_4_1,Length=0.017000000,Units=km
new line.RML10167122 bus1=BBT1020846.2.0,bus2=RML1060167122.2.0,Phases=1,Linecode=CABBTG01_4_1,Length=0.017000000,Units=km
new line.RML10169614 bus1=BBT982829.1.3.0,bus2=RML1060169614.1.3.0,Phases=2,Linecode=CABBTG05_4_2,Length=0.017000000,Units=km
new line.RML10169639 bus1=BBT4753155.1.2.0,bus2=RML1060169639.1.2.0,Phases=2,Linecode=CABBTG04_4_2,Length=0.017000000,Units=km
new line.RML10172427 bus1=BBT982969.1.2.0,bus2=RML1060172427.1.2.0,Phases=2,Linecode=CABBTG13_4_2,Length=0.017000000,Units=km
new line.RML10178068 bus1=BBT985468.1.2.3.0,bus2=RML1060178068.1.2.3.0,Phases=3,Linecode=CABBTG12_4_3,Length=0.017000000,Units=km
new line.RML10179522 bus1=BBT964335.1.2.3.0,bus2=RML1060179522.1.2.3.0,Phases=3,Linecode=CABBTG09_4_3,Length=0.029000000,Units=km
new line.RML10179634 bus1=BBT1011858.1.2.3.0,bus2=RML1060179634.1.2.3.0,Phases=3,Linecode=CABBTG06_4_3,Length=0.017000000,Units=km
new line.RML10188470 bus1=BBT3683408.2.3.0,bus2=RML1060188470.2.3.0,Phases=2,Linecode=CABBTG05_4_2,Length=0.017000000,Units=km
new line.RML10188475 bus1=BBT983998.2.3.0,bus2=RML1060188475.2.3.0,Phases=2,Linecode=CABBTG05_4_2,Length=0.017000000,Units=km
new line.RML10191911 bus1=BBT1009352.1.2.0,bus2=RML1060191911.1.2.0,Phases=2,Linecode=CABBTG13_4_2,Length=0.029000000,Units=km
new line.RML10191917 bus1=BBT1016450.1.2.0,bus2=RML1060191917.1.2.0,Phases=2,Linecode=CABBTG13_4_2,Length=0.029000000,Units=km
new line.RML10191918 bus1=BBT1015694.1.2.0,bus2=RML1060191918.1.2.0,Phases=2,Linecode=CABBTG13_4_2,Length=0.017000000,Units=km
new line.RML10191924 bus1=BBT2874047.1.2.0,bus2=RML1060191924.1.2.0,Phases=2,Linecode=CABBTG13_4_2,Length=0.017000000,Units=km
new line.RML10191925 bus1=BBT2873984.1.2.0,bus2=RML1060191925.1.2.0,Phases=2,Linecode=CABBTG13_4_2,Length=0.017000000,Units=km
new line.RML10191926 bus1=BBT2874054.1.0,bus2=RML1060191926.1.0,Phases=1,Linecode=CABBTG02_4_1,Length=0.017000000,Units=km
new line.RML10191927 bus1=BBT1017542.1.2.0,bus2=RML1060191927.1.2.0,Phases=2,Linecode=CABBTG13_4_2,Length=0.017000000,Units=km
new line.RML10191930 bus1=BBT1018760.2.0,bus2=RML1060191930.2.0,Phases=1,Linecode=CABBTG02_4_1,Length=0.017000000,Units=km
new line.RML10191936 bus1=BBT1017808.2.0,bus2=RML1060191936.2.0,Phases=1,Linecode=CABBTG02_4_1,Length=0.017000000,Units=km
new line.RML10191941 bus1=BBT1015925.1.2.0,bus2=RML1060191941.1.2.0,Phases=2,Linecode=CABBTG13_4_2,Length=0.017000000,Units=km
new line.RML10191942 bus1=BBT1015694.2.0,bus2=RML1060191942.2.0,Phases=1,Linecode=CABBTG02_4_1,Length=0.017000000,Units=km
new line.RML10192412 bus1=BBT1012222.2.0,bus2=RML1060192412.2.0,Phases=1,Linecode=CABBTG02_4_1,Length=0.017000000,Units=km
new line.RML10195689 bus1=BBT967268.1.2.0,bus2=RML1060195689.1.2.0,Phases=2,Linecode=CABBTG13_4_2,Length=0.017000000,Units=km
new line.RML10195696 bus1=BBT970705.2.0,bus2=RML1060195696.2.0,Phases=1,Linecode=CABBTG02_4_1,Length=0.017000000,Units=km
new line.RML10197414 bus1=BBT988849.1.2.0,bus2=RML1060197414.1.2.0,Phases=2,Linecode=CABBTG13_4_2,Length=0.017000000,Units=km
new line.RML10197415 bus1=BBT970614.1.2.0,bus2=RML1060197415.1.2.0,Phases=2,Linecode=CABBTG13_4_2,Length=0.017000000,Units=km
new line.RML10197423 bus1=BBT992034.2.0,bus2=RML1060197423.2.0,Phases=1,Linecode=CABBTG02_4_1,Length=0.017000000,Units=km
new line.RML10197434 bus1=BBT961178.1.3.0,bus2=RML1060197434.1.3.0,Phases=2,Linecode=CABBTG05_4_2,Length=0.017000000,Units=km
new line.RML10197450 bus1=BBT985951.2.0,bus2=RML1060197450.2.0,Phases=1,Linecode=CABBTG02_4_1,Length=0.017000000,Units=km
new line.RML10197722 bus1=BBT982927.1.2.0,bus2=RML1060197722.1.2.0,Phases=2,Linecode=CABBTG13_4_2,Length=0.017000000,Units=km
new line.RML10197770 bus1=BBT984355.2.0,bus2=RML1060197770.2.0,Phases=1,Linecode=CABBTG02_4_1,Length=0.017000000,Units=km
new line.RML10197781 bus1=BBT984012.1.2.0,bus2=RML1060197781.1.2.0,Phases=2,Linecode=CABBTG13_4_2,Length=0.017000000,Units=km
new line.RML10197783 bus1=BBT984012.2.0,bus2=RML1060197783.2.0,Phases=1,Linecode=CABBTG02_4_1,Length=0.017000000,Units=km
new line.RML10199466 bus1=BBT1012194.1.2.0,bus2=RML1060199466.1.2.0,Phases=2,Linecode=CABBTG05_4_2,Length=0.017000000,Units=km
new line.RML10199542 bus1=BBT985237.1.2.0,bus2=RML1060199542.1.2.0,Phases=2,Linecode=CABBTG13_4_2,Length=0.017000000,Units=km
new line.RML10199983 bus1=BBT1014252.1.2.3.0,bus2=RML1060199983.1.2.3.0,Phases=3,Linecode=CABBTG12_4_3,Length=0.017000000,Units=km
new line.RML10201724 bus1=BBT1010101.1.0,bus2=RML1060201724.1.0,Phases=1,Linecode=CABBTG02_4_1,Length=0.017000000,Units=km
new line.RML10201725 bus1=BBT1010101.2.0,bus2=RML1060201725.2.0,Phases=1,Linecode=CABBTG02_4_1,Length=0.017000000,Units=km
new line.RML10201728 bus1=BBT1010101.1.2.3.0,bus2=RML1060201728.1.2.3.0,Phases=3,Linecode=CABBTG12_4_3,Length=0.017000000,Units=km
new line.RML10201737 bus1=BBT5360755.1.2.0,bus2=RML1060201737.1.2.0,Phases=2,Linecode=CABBTG13_4_2,Length=0.017000000,Units=km
new line.RML10203672 bus1=BBT1010164.1.2.3.0,bus2=RML1060203672.1.2.3.0,Phases=3,Linecode=CABBTG12_4_3,Length=0.017000000,Units=km
new line.RML10207773 bus1=BBT985461.1.2.0,bus2=RML1060207773.1.2.0,Phases=2,Linecode=CABBTG13_4_2,Length=0.017000000,Units=km
new line.RML10210388 bus1=BBT4755066.1.2.0,bus2=RML1060210388.1.2.0,Phases=2,Linecode=CABBTG05_4_2,Length=0.017000000,Units=km
new line.RML10217906 bus1=BBT983858.1.2.0,bus2=RML1060217906.1.2.0,Phases=2,Linecode=CABBTG05_4_2,Length=0.017000000,Units=km
new line.RML10219079 bus1=BBT4753218.1.2.0,bus2=RML1060219079.1.2.0,Phases=2,Linecode=CABBTG13_4_2,Length=0.017000000,Units=km
new line.RML10223179 bus1=BBT1012012.1.2.3.0,bus2=RML1060223179.1.2.3.0,Phases=3,Linecode=CABBTG10_4_3,Length=0.017000000,Units=km
new line.RML10223203 bus1=BBT1012005.1.2.3.0,bus2=RML1060223203.1.2.3.0,Phases=3,Linecode=CABBTG10_4_3,Length=0.017000000,Units=km
new line.RML10228596 bus1=BBT4127838.1.2.0,bus2=RML1060228596.1.2.0,Phases=2,Linecode=CABBTG13_4_2,Length=0.017000000,Units=km
new line.RML10228604 bus1=BBT1010143.2.0,bus2=RML1060228604.2.0,Phases=1,Linecode=CABBTG02_4_1,Length=0.017000000,Units=km
new line.RML10232820 bus1=BBT4753120.1.2.0,bus2=RML1060232820.1.2.0,Phases=2,Linecode=CABBTG05_4_2,Length=0.017000000,Units=km
new line.RML10236626 bus1=BBT4755066.1.2.0,bus2=RML1060236626.1.2.0,Phases=2,Linecode=CABBTG05_4_2,Length=0.017000000,Units=km
new line.RML10240369 bus1=BBT4276903.1.2.0,bus2=RML1060240369.1.2.0,Phases=2,Linecode=CABBTG05_4_2,Length=0.017000000,Units=km
new line.RML10241774 bus1=BBT1017521.1.2.0,bus2=RML1060241774.1.2.0,Phases=2,Linecode=CABBTG05_4_2,Length=0.017000000,Units=km
new line.RML10241784 bus1=BBT1009226.1.0,bus2=RML1060241784.1.0,Phases=1,Linecode=CABBTG01_4_1,Length=0.029000000,Units=km
new line.RML10241857 bus1=BBT1018382.1.0,bus2=RML1060241857.1.0,Phases=1,Linecode=CABBTG02_4_1,Length=0.017000000,Units=km
new line.RML10242089 bus1=BBT3156686.1.2.0,bus2=RML1060242089.1.2.0,Phases=2,Linecode=CABBT811_4_2,Length=0.017000000,Units=km
new line.RML10242249 bus1=BBT2854300.2.3.0,bus2=RML1060242249.2.3.0,Phases=2,Linecode=CABBTG05_4_2,Length=0.017000000,Units=km
new line.RML10243167 bus1=BBT20603046.1.2.0,bus2=RML1060243167.1.2.0,Phases=2,Linecode=CABBTG05_4_2,Length=0.017000000,Units=km
new line.RML10243180 bus1=BBT20613602.1.2.3.0,bus2=RML1060243180.1.2.3.0,Phases=3,Linecode=CABBTG10_4_3,Length=0.017000000,Units=km
new line.RML10244400 bus1=BBT984761.1.2.3.0,bus2=RML1060244400.1.2.3.0,Phases=3,Linecode=CABBTG06_4_3,Length=0.017000000,Units=km
new line.RML10244738 bus1=BBT111117295.1.2.3.0,bus2=RML1060244738.1.2.3.0,Phases=3,Linecode=CABBTG12_4_3,Length=0.017000000,Units=km
new line.RML10245121 bus1=BBT956894.2.0,bus2=RML1060245121.2.0,Phases=1,Linecode=CABBTG02_4_1,Length=0.017000000,Units=km
new line.RML10245701 bus1=BBT4755024.1.0,bus2=RML1060245701.1.0,Phases=1,Linecode=CABBTG02_4_1,Length=0.017000000,Units=km
new line.RML10245703 bus1=BBT4755017.2.0,bus2=RML1060245703.2.0,Phases=1,Linecode=CABBTG02_4_1,Length=0.017000000,Units=km
new line.RML10248219 bus1=BBT1002807.1.3.0,bus2=RML1060248219.1.3.0,Phases=2,Linecode=CABBTG05_4_2,Length=0.017000000,Units=km
new line.RML10248224 bus1=BBT956026.1.2.0,bus2=RML1060248224.1.2.0,Phases=2,Linecode=CABBTG05_4_2,Length=0.017000000,Units=km
new line.RML10248566 bus1=BBT989962.1.2.3.0,bus2=RML1060248566.1.2.3.0,Phases=3,Linecode=CABBTG08_4_3,Length=0.017000000,Units=km
new line.RML10248593 bus1=BBT976676.1.2.0,bus2=RML1060248593.1.2.0,Phases=2,Linecode=CABBTG05_4_2,Length=0.017000000,Units=km
new line.RML10249470 bus1=BBT982997.1.2.0,bus2=RML1060249470.1.2.0,Phases=2,Linecode=CABBTG05_4_2,Length=0.017000000,Units=km
new line.RML10249472 bus1=BBT3156539.1.2.3.0,bus2=RML1060249472.1.2.3.0,Phases=3,Linecode=CABBTG06_4_3,Length=0.017000000,Units=km
new line.RML10250876 bus1=BBT4755094.1.2.0,bus2=RML1060250876.1.2.0,Phases=2,Linecode=CABBTG05_4_2,Length=0.017000000,Units=km
new line.RML10250881 bus1=BBT4755017.1.0,bus2=RML1060250881.1.0,Phases=1,Linecode=CABBTG02_4_1,Length=0.017000000,Units=km
new line.RML10250885 bus1=BBT4755122.1.2.0,bus2=RML1060250885.1.2.0,Phases=2,Linecode=CABBTG13_4_2,Length=0.017000000,Units=km
new line.RML10250894 bus1=BBT4753078.1.2.0,bus2=RML1060250894.1.2.0,Phases=2,Linecode=CABBTG13_4_2,Length=0.017000000,Units=km
new line.RML10250902 bus1=BBT4753120.1.2.0,bus2=RML1060250902.1.2.0,Phases=2,Linecode=CABBTG13_4_2,Length=0.017000000,Units=km
new line.RML10251557 bus1=BBT1016324.1.2.3.0,bus2=RML1060251557.1.2.3.0,Phases=3,Linecode=CABBTG10_4_3,Length=0.017000000,Units=km
new line.RML10253595 bus1=BBT2854342.2.0,bus2=RML1060253595.2.0,Phases=1,Linecode=CABBTG02_4_1,Length=0.017000000,Units=km
new line.RML10253597 bus1=BBT1009457.1.3.0,bus2=RML1060253597.1.3.0,Phases=2,Linecode=CABBTG13_4_2,Length=0.017000000,Units=km
new line.RML10253959 bus1=BBT5384926.1.2.3.0,bus2=RML1060253959.1.2.3.0,Phases=3,Linecode=CABBTG10_4_3,Length=0.017000000,Units=km
new line.RML10261014 bus1=BBT79306880.1.0,bus2=RML1060261014.1.0,Phases=1,Linecode=CABBTG02_4_1,Length=0.017000000,Units=km
new line.RML10262185 bus1=BBT4239117.1.2.3.0,bus2=RML1060262185.1.2.3.0,Phases=3,Linecode=CABBTG06_4_3,Length=0.017000000,Units=km
new line.RML10262201 bus1=BBT1010640.3.0,bus2=RML1060262201.3.0,Phases=1,Linecode=CABBTG02_4_1,Length=0.017000000,Units=km
new line.RML10262642 bus1=BBT4753225.1.2.0,bus2=RML1060262642.1.2.0,Phases=2,Linecode=CABBTG05_4_2,Length=0.017000000,Units=km
new line.RML10263395 bus1=BBT4755073.1.2.0,bus2=RML1060263395.1.2.0,Phases=2,Linecode=CABBTG05_4_2,Length=0.017000000,Units=km
new line.RML10263442 bus1=BBT4754618.1.3.0,bus2=RML1060263442.1.3.0,Phases=2,Linecode=CABBTG05_4_2,Length=0.017000000,Units=km
new line.RML10263540 bus1=BBT987967.1.2.0,bus2=RML1060263540.1.2.0,Phases=2,Linecode=CABBTG05_4_2,Length=0.017000000,Units=km
new line.RML10263688 bus1=BBT3156553.1.2.0,bus2=RML1060263688.1.2.0,Phases=2,Linecode=CABBTG05_4_2,Length=0.017000000,Units=km
new line.RML10264449 bus1=BBT988667.1.0,bus2=RML1060264449.1.0,Phases=1,Linecode=CABBTG02_4_1,Length=0.017000000,Units=km
new line.RML10267497 bus1=BBT982913.1.2.0,bus2=RML1060267497.1.2.0,Phases=2,Linecode=CABBTG05_4_2,Length=0.017000000,Units=km
new line.RML10267547 bus1=BBT982913.1.2.0,bus2=RML1060267547.1.2.0,Phases=2,Linecode=CABBTG05_4_2,Length=0.017000000,Units=km
new line.RML10269877 bus1=BBT987631.1.2.0,bus2=RML1060269877.1.2.0,Phases=2,Linecode=CABBTG05_4_2,Length=0.017000000,Units=km
new line.RML10270479 bus1=BBT986357.1.2.0,bus2=RML1060270479.1.2.0,Phases=2,Linecode=CABBTG05_4_2,Length=0.017000000,Units=km
new line.RML10270558 bus1=BBT5384940.1.2.0,bus2=RML1060270558.1.2.0,Phases=2,Linecode=CABBTG05_4_2,Length=0.017000000,Units=km
new line.RML10270589 bus1=BBT985237.1.2.0,bus2=RML1060270589.1.2.0,Phases=2,Linecode=CABBTG05_4_2,Length=0.017000000,Units=km
new line.RML10273805 bus1=BBT987638.2.3.0,bus2=RML1060273805.2.3.0,Phases=2,Linecode=CABBTG04_4_2,Length=0.017000000,Units=km
new line.RML10274388 bus1=BBT1010626.1.0,bus2=RML1060274388.1.0,Phases=1,Linecode=CABBTG02_4_1,Length=0.017000000,Units=km
new line.RML10274530 bus1=BBT1013664.2.0,bus2=RML1060274530.2.0,Phases=1,Linecode=CABBTG02_4_1,Length=0.017000000,Units=km
new line.RML10274924 bus1=BBT992069.1.3.0,bus2=RML1060274924.1.3.0,Phases=2,Linecode=CABBTG05_4_2,Length=0.017000000,Units=km
new line.RML10275876 bus1=BBT989605.1.3.0,bus2=RML1060275876.1.3.0,Phases=2,Linecode=CABBTG04_4_2,Length=0.017000000,Units=km
new line.RML10276241 bus1=BBT4753176.1.2.0,bus2=RML1060276241.1.2.0,Phases=2,Linecode=CABBTG05_4_2,Length=0.017000000,Units=km
new line.RML10277708 bus1=BBT984684.1.0,bus2=RML1060277708.1.0,Phases=1,Linecode=CABBTG02_4_1,Length=0.017000000,Units=km
new line.RML10278073 bus1=BBT1011886.1.3.0,bus2=RML1060278073.1.3.0,Phases=2,Linecode=CABBTG05_4_2,Length=0.017000000,Units=km
new line.RML10279830 bus1=BBT1016338.1.2.0,bus2=RML1060279830.1.2.0,Phases=2,Linecode=CABBTG05_4_2,Length=0.017000000,Units=km
new line.RML10283330 bus1=BBT1020839.1.2.3.0,bus2=RML1060283330.1.2.3.0,Phases=3,Linecode=CABBTG12_4_3,Length=0.017000000,Units=km
new line.RML10284575 bus1=BBT1020461.1.3.0,bus2=RML1060284575.1.3.0,Phases=2,Linecode=CABBTG05_4_2,Length=0.017000000,Units=km
new line.RML10284606 bus1=BBT1015652.1.2.0,bus2=RML1060284606.1.2.0,Phases=2,Linecode=CABBTG05_4_2,Length=0.017000000,Units=km
new line.RML10284608 bus1=BBT1020405.2.0,bus2=RML1060284608.2.0,Phases=1,Linecode=CABBTG02_4_1,Length=0.017000000,Units=km
new line.RML10285777 bus1=BBT983984.1.2.3.0,bus2=RML1060285777.1.2.3.0,Phases=3,Linecode=CABBTG06_4_3,Length=0.017000000,Units=km
new line.RML10293667 bus1=BBT1012579.1.2.3.0,bus2=RML1060293667.1.2.3.0,Phases=3,Linecode=CABBTG06_4_3,Length=0.017000000,Units=km
new line.RML10296983 bus1=BBT2824935.1.2.0,bus2=RML1060296983.1.2.0,Phases=2,Linecode=CABBTG05_4_2,Length=0.017000000,Units=km
new line.RML10300789 bus1=BBT4753134.1.2.0,bus2=RML1060300789.1.2.0,Phases=2,Linecode=CABBTG05_4_2,Length=0.017000000,Units=km
new line.RML10303677 bus1=BBT5384933.2.3.0,bus2=RML1060303677.2.3.0,Phases=2,Linecode=CABBTG05_4_2,Length=0.017000000,Units=km
new line.RML10303992 bus1=BBT3156623.1.2.3.0,bus2=RML1060303992.1.2.3.0,Phases=3,Linecode=CABBTG06_4_3,Length=0.017000000,Units=km
new line.RML10304164 bus1=BBT2854363.1.2.3.0,bus2=RML1060304164.1.2.3.0,Phases=3,Linecode=CABBTG12_4_3,Length=0.017000000,Units=km
new line.RML10312626 bus1=BBT1012859.1.2.0,bus2=RML1060312626.1.2.0,Phases=2,Linecode=CABBTG05_4_2,Length=0.017000000,Units=km
new line.RML10320349 bus1=BBT2873998.1.2.3.0,bus2=RML1060320349.1.2.3.0,Phases=3,Linecode=CABBTG06_4_3,Length=0.017000000,Units=km
new line.RML10320461 bus1=BBT3156686.2.3.0,bus2=RML1060320461.2.3.0,Phases=2,Linecode=CABBTG05_4_2,Length=0.017000000,Units=km
new line.RML10321823 bus1=BBT1014602.1.2.3.0,bus2=RML1060321823.1.2.3.0,Phases=3,Linecode=CABBTG06_4_3,Length=0.017000000,Units=km
new line.RML10322823 bus1=BBT979679.1.2.0,bus2=RML1060322823.1.2.0,Phases=2,Linecode=CABBTG05_4_2,Length=0.017000000,Units=km
new line.RML10324328 bus1=BBT4755003.1.2.0,bus2=RML1060324328.1.2.0,Phases=2,Linecode=CABBTG05_4_2,Length=0.017000000,Units=km
new line.RML10327819 bus1=BBT2854377.1.2.3.0,bus2=RML1060327819.1.2.3.0,Phases=3,Linecode=CABBTG10_4_3,Length=0.017000000,Units=km
new line.RML10327826 bus1=BBT4755031.1.2.0,bus2=RML1060327826.1.2.0,Phases=2,Linecode=CABBTG05_4_2,Length=0.017000000,Units=km
new line.RML10327840 bus1=BBT4754632.1.2.3.0,bus2=RML1060327840.1.2.3.0,Phases=3,Linecode=CABBTG06_4_3,Length=0.017000000,Units=km
new line.RML10327844 bus1=BBT4753078.1.2.0,bus2=RML1060327844.1.2.0,Phases=2,Linecode=CABBTG05_4_2,Length=0.017000000,Units=km
new line.RML10327982 bus1=BBT5384940.1.2.3.0,bus2=RML1060327982.1.2.3.0,Phases=3,Linecode=CABBTG06_4_3,Length=0.017000000,Units=km
new line.RML10330179 bus1=BBT987967.2.3.0,bus2=RML1060330179.2.3.0,Phases=2,Linecode=CABBTG05_4_2,Length=0.017000000,Units=km
new line.RML10330627 bus1=BBT4755073.1.2.0,bus2=RML1060330627.1.2.0,Phases=2,Linecode=CABBTG05_4_2,Length=0.017000000,Units=km
new line.RML10331165 bus1=BBT1011690.2.3.0,bus2=RML1060331165.2.3.0,Phases=2,Linecode=CABBTG05_4_2,Length=0.017000000,Units=km
new line.RML10333948 bus1=BBT4753190.1.2.0,bus2=RML1060333948.1.2.0,Phases=2,Linecode=CABBTG05_4_2,Length=0.017000000,Units=km
new line.RML10338150 bus1=BBT969676.2.0,bus2=RML1060338150.2.0,Phases=1,Linecode=CABBTG02_4_1,Length=0.017000000,Units=km
new line.RML10338824 bus1=BBT3156686.1.2.3.0,bus2=RML1060338824.1.2.3.0,Phases=3,Linecode=CABBTG06_4_3,Length=0.017000000,Units=km
new line.RML10343167 bus1=BBT1012201.1.0,bus2=RML1060343167.1.0,Phases=1,Linecode=CABBTG02_4_1,Length=0.017000000,Units=km
new line.RML10343168 bus1=BBT2854370.1.3.0,bus2=RML1060343168.1.3.0,Phases=2,Linecode=CABBTG05_4_2,Length=0.017000000,Units=km
new line.RML10345605 bus1=BBT5384933.3.0,bus2=RML1060345605.3.0,Phases=1,Linecode=CABBTG02_4_1,Length=0.017000000,Units=km
new line.RML10345606 bus1=BBT5384933.3.0,bus2=RML1060345606.3.0,Phases=1,Linecode=CABBTG02_4_1,Length=0.017000000,Units=km
new line.RML10347426 bus1=BBT1011970.1.3.0,bus2=RML1060347426.1.3.0,Phases=2,Linecode=CABBTG05_4_2,Length=0.017000000,Units=km
new line.RML10348288 bus1=BBT4127838.2.0,bus2=RML1060348288.2.0,Phases=1,Linecode=CABBTG02_4_1,Length=0.017000000,Units=km
new line.RML10349707 bus1=BBT965280.2.0,bus2=RML1060349707.2.0,Phases=1,Linecode=CABBTG02_4_1,Length=0.017000000,Units=km
new line.RML10351427 bus1=BBT3156511.1.2.3.0,bus2=RML1060351427.1.2.3.0,Phases=3,Linecode=CABBTG06_4_3,Length=0.017000000,Units=km
new line.RML10351821 bus1=BBT4755080.1.2.0,bus2=RML1060351821.1.2.0,Phases=2,Linecode=CABBTG05_4_2,Length=0.017000000,Units=km
new line.RML10351824 bus1=BBT988191.2.3.0,bus2=RML1060351824.2.3.0,Phases=2,Linecode=CABBTG05_4_2,Length=0.017000000,Units=km
new line.RML10352907 bus1=BBT4127838.1.2.3.0,bus2=RML1060352907.1.2.3.0,Phases=3,Linecode=CABBTG06_4_3,Length=0.017000000,Units=km
new line.RML10360831 bus1=BBT2873956.1.2.3.0,bus2=RML1060360831.1.2.3.0,Phases=3,Linecode=CABBTG06_4_3,Length=0.017000000,Units=km
new line.RML10364822 bus1=BBT3683408.3.0,bus2=RML1060364822.3.0,Phases=1,Linecode=CABBTG02_4_1,Length=0.017000000,Units=km
new line.RML10364825 bus1=BBT4753218.1.2.0,bus2=RML1060364825.1.2.0,Phases=2,Linecode=CABBTG05_4_2,Length=0.017000000,Units=km
new line.RML10371810 bus1=BBT1017808.1.2.3.0,bus2=RML1060371810.1.2.3.0,Phases=3,Linecode=CABBTG06_4_3,Length=0.017000000,Units=km
new line.RML10377557 bus1=BBT3156553.1.2.0,bus2=RML1060377557.1.2.0,Phases=2,Linecode=CABBTG05_4_2,Length=0.017000000,Units=km
new line.RML10386722 bus1=BBT1014672.2.3.0,bus2=RML1060386722.2.3.0,Phases=2,Linecode=CABBTG05_4_2,Length=0.017000000,Units=km
new line.RML10387282 bus1=BBT975885.1.2.0,bus2=RML1060387282.1.2.0,Phases=2,Linecode=CABBTG05_4_2,Length=0.017000000,Units=km
new line.RML10397467 bus1=BBT1009023.1.0,bus2=RML1060397467.1.0,Phases=1,Linecode=CABBTG02_4_1,Length=0.017000000,Units=km
new line.RML10406021 bus1=BBT2854391.1.3.0,bus2=RML1060406021.1.3.0,Phases=2,Linecode=CABBTG05_4_2,Length=0.017000000,Units=km
new line.RML10406024 bus1=BBT4755031.1.2.0,bus2=RML1060406024.1.2.0,Phases=2,Linecode=CABBTG05_4_2,Length=0.017000000,Units=km
new line.RML10409326 bus1=BBT2873998.2.3.0,bus2=RML1060409326.2.3.0,Phases=2,Linecode=CABBTG05_4_2,Length=0.017000000,Units=km
new line.RML10409424 bus1=BBT1010647.1.2.3.0,bus2=RML1060409424.1.2.3.0,Phases=3,Linecode=CABBTG06_4_3,Length=0.017000000,Units=km
new line.RML10412031 bus1=BBT4753099.1.2.0,bus2=RML1060412031.1.2.0,Phases=2,Linecode=CABBTG05_4_2,Length=0.017000000,Units=km
new line.RML10416545 bus1=BBT3156455.1.2.3.0,bus2=RML1060416545.1.2.3.0,Phases=3,Linecode=CABBTG06_4_3,Length=0.017000000,Units=km
new line.RML10418661 bus1=BBT1013237.2.0,bus2=RML1060418661.2.0,Phases=1,Linecode=CABBTG02_4_1,Length=0.017000000,Units=km
new line.RML10424833 bus1=BBT4755031.1.2.0,bus2=RML1060424833.1.2.0,Phases=2,Linecode=CABBTG05_4_2,Length=0.017000000,Units=km
new line.RML10424834 bus1=BBT1014483.1.2.3.0,bus2=RML1060424834.1.2.3.0,Phases=3,Linecode=CABBTG06_4_3,Length=0.017000000,Units=km
new line.RML10426162 bus1=BBT11433641.1.2.0,bus2=RML1060426162.1.2.0,Phases=2,Linecode=CABBTG05_4_2,Length=0.029000000,Units=km
new line.RML10427876 bus1=BBT1010983.1.0,bus2=RML1060427876.1.0,Phases=1,Linecode=CABBTG02_4_1,Length=0.017000000,Units=km
new line.RML10427919 bus1=BBT1011697.1.2.3.0,bus2=RML1060427919.1.2.3.0,Phases=3,Linecode=CABBTG06_4_3,Length=0.017000000,Units=km
new line.RML10428308 bus1=BBT1020846.1.2.0,bus2=RML1060428308.1.2.0,Phases=2,Linecode=CABBTG05_4_2,Length=0.017000000,Units=km
new line.RML10428511 bus1=BBT4755003.1.2.0,bus2=RML1060428511.1.2.0,Phases=2,Linecode=CABBTG05_4_2,Length=0.017000000,Units=km
new line.RML10428521 bus1=BBT954619.1.0,bus2=RML1060428521.1.0,Phases=1,Linecode=CABBTG02_4_1,Length=0.017000000,Units=km
new line.RML10428788 bus1=BBT1009366.1.2.3.0,bus2=RML1060428788.1.2.3.0,Phases=3,Linecode=CABBTG12_4_3,Length=0.017000000,Units=km
new line.RML10429749 bus1=BBT4755136.1.2.0,bus2=RML1060429749.1.2.0,Phases=2,Linecode=CABBTG05_4_2,Length=0.017000000,Units=km
new line.RML10433190 bus1=BBT3156616.1.2.3.0,bus2=RML1060433190.1.2.3.0,Phases=3,Linecode=CABBT815_4_3,Length=0.017000000,Units=km
new line.RML10433432 bus1=BBT1011963.1.2.0,bus2=RML1060433432.1.2.0,Phases=2,Linecode=CABBTG05_4_2,Length=0.017000000,Units=km
new line.RML10433833 bus1=BBT1011963.1.2.0,bus2=RML1060433833.1.2.0,Phases=2,Linecode=CABBTG05_4_2,Length=0.017000000,Units=km
new line.RML10437283 bus1=BBT982920.1.2.0,bus2=RML1060437283.1.2.0,Phases=2,Linecode=CABBTG05_4_2,Length=0.017000000,Units=km
new line.RML10438575 bus1=BBT1013062.1.2.0,bus2=RML1060438575.1.2.0,Phases=2,Linecode=CABBTG05_4_2,Length=0.017000000,Units=km
new line.RML10439471 bus1=BBT982668.1.2.0,bus2=RML1060439471.1.2.0,Phases=2,Linecode=CABBTG05_4_2,Length=0.017000000,Units=km
new line.RML10439510 bus1=BBT1011697.1.2.3.0,bus2=RML1060439510.1.2.3.0,Phases=3,Linecode=CABBTG06_4_3,Length=0.017000000,Units=km
new line.RML10441473 bus1=BBT4753225.1.2.0,bus2=RML1060441473.1.2.0,Phases=2,Linecode=CABBTG05_4_2,Length=0.017000000,Units=km
new line.RML10448593 bus1=BBT1010073.2.0,bus2=RML1060448593.2.0,Phases=1,Linecode=CABBTG02_4_1,Length=0.017000000,Units=km
new line.RML10451948 bus1=BBT3532313.1.2.0,bus2=RML1060451948.1.2.0,Phases=2,Linecode=CABBTG05_4_2,Length=0.017000000,Units=km
new line.RML10456719 bus1=BBT1011886.1.2.0,bus2=RML1060456719.1.2.0,Phases=2,Linecode=CABBTG05_4_2,Length=0.017000000,Units=km
new line.RML10456757 bus1=BBT4388644.1.2.0,bus2=RML1060456757.1.2.0,Phases=2,Linecode=CABBTG05_4_2,Length=0.017000000,Units=km
new line.RML10459707 bus1=BBT986378.1.2.3.0,bus2=RML1060459707.1.2.3.0,Phases=3,Linecode=CABBTG06_4_3,Length=0.017000000,Units=km
new line.RML10475309 bus1=BBT1013069.1.2.3.0,bus2=RML1060475309.1.2.3.0,Phases=3,Linecode=CABBTG06_4_3,Length=0.006000000,Units=km
new line.RML10475318 bus1=BBT968612.1.2.0,bus2=RML1060475318.1.2.0,Phases=2,Linecode=CABBTG05_4_2,Length=0.017000000,Units=km
new line.RML10482459 bus1=BBT154606406.1.2.3.0,bus2=RML1060482459.1.2.3.0,Phases=3,Linecode=CABBTG06_4_3,Length=0.017000000,Units=km
new line.RML10486005 bus1=BBT2854419.1.0,bus2=RML1060486005.1.0,Phases=1,Linecode=CABBTG02_4_1,Length=0.012000000,Units=km
new line.RML10486083 bus1=BBT4753218.1.2.0,bus2=RML1060486083.1.2.0,Phases=2,Linecode=CABBTG05_4_2,Length=0.006000000,Units=km
new line.RML10488520 bus1=BBT1020860.2.0,bus2=RML1060488520.2.0,Phases=1,Linecode=CABBTG02_4_1,Length=0.012000000,Units=km
new line.RML10491092 bus1=BBT1009044.1.2.0,bus2=RML1060491092.1.2.0,Phases=2,Linecode=CABBT811_4_2,Length=0.013000000,Units=km
new line.RML10492281 bus1=BBT3556701.1.2.0,bus2=RML1060492281.1.2.0,Phases=2,Linecode=CABBTG05_4_2,Length=0.017000000,Units=km
new line.RML10495017 bus1=BBT4753134.1.2.0,bus2=RML1060495017.1.2.0,Phases=2,Linecode=CABBTG05_4_2,Length=0.017000000,Units=km
new line.RML10495020 bus1=BBT989395.2.0,bus2=RML1060495020.2.0,Phases=1,Linecode=CABBTG02_4_1,Length=0.017000000,Units=km
new line.RML10498913 bus1=BBT3600276.1.2.0,bus2=RML1060498913.1.2.0,Phases=2,Linecode=CABBTG05_4_2,Length=0.017000000,Units=km
new line.RML10500650 bus1=BBT4755094.1.2.0,bus2=RML1060500650.1.2.0,Phases=2,Linecode=CABBTG05_4_2,Length=0.017000000,Units=km
new line.RML10504788 bus1=BBT968612.1.2.0,bus2=RML1060504788.1.2.0,Phases=2,Linecode=CABBT811_4_2,Length=0.010000000,Units=km
new line.RML10506230 bus1=BBT984950.1.2.0,bus2=RML1060506230.1.2.0,Phases=2,Linecode=CABBT811_4_2,Length=0.013000000,Units=km
new line.RML10506777 bus1=BBT1014567.1.2.0,bus2=RML1060506777.1.2.0,Phases=2,Linecode=CABBTG05_4_2,Length=0.017000000,Units=km
new line.RML10506835 bus1=BBT4754982.1.2.0,bus2=RML1060506835.1.2.0,Phases=2,Linecode=CABBTG05_4_2,Length=0.014000000,Units=km