! manter este comentario para compatibilidade do C#
new circuit.alimNOG03 bus1=BMT101957648.1.2.3,basekv=13.800000000,pu=1.040000000