new line.10780925 bus1=BBT1002261.1.2.3.0,bus2=BBT1002268.1.2.3.0,Phases=3,Linecode=BT518_BT518_7_3_1,Length=0.000501000,Units=km
new line.10784383 bus1=BBT989731.1.2.3.0,bus2=BBT989738.1.2.3.0,Phases=3,Linecode=BT514_BT514_7_3_1,Length=0.000501000,Units=km
new line.10802373 bus1=BBT987470.1.2.3.0,bus2=BBT987477.1.2.3.0,Phases=3,Linecode=BT514_BT514_7_3_1,Length=0.000501000,Units=km
new line.10802478 bus1=BBT1018207.1.2.3.0,bus2=BBT1018214.1.2.3.0,Phases=3,Linecode=BT514_BT514_7_3_1,Length=0.000501000,Units=km
new line.10908955 bus1=BBT3237823.1.2.3.0,bus2=BBT3237830.1.2.3.0,Phases=3,Linecode=BT810_BT810_4_3_4,Length=0.027593000,Units=km
new line.11426430 bus1=BBT3421552.1.2.3.0,bus2=BBT3421559.1.2.3.0,Phases=3,Linecode=BT513_BT518_5_3_1,Length=0.041784000,Units=km
new line.11426451 bus1=BBT3421559.1.2.3.0,bus2=BBT3421566.1.2.3.0,Phases=3,Linecode=BT513_BT518_5_3_1,Length=0.032458000,Units=km
new line.11426472 bus1=BBT3421566.1.2.3.0,bus2=BBT4726856.1.2.3.0,Phases=3,Linecode=BT513_BT518_5_3_1,Length=0.036887000,Units=km
new line.11426493 bus1=BBT3421545.1.2.3.0,bus2=BBT3421552.1.2.3.0,Phases=3,Linecode=BT513_BT518_5_3_1,Length=0.018390000,Units=km
new line.11426500 bus1=BBT3421545.1.2.3.0,bus2=BBT3421573.1.2.3.0,Phases=3,Linecode=BT514_BT508_5_3_1,Length=0.032319000,Units=km
new line.11426521 bus1=BBT3421573.1.2.3.0,bus2=BBT3421580.1.2.3.0,Phases=3,Linecode=BT518_BT518_5_3_1,Length=0.027738000,Units=km
new line.11426528 bus1=BBT3421573.1.2.3.0,bus2=BBT3421629.1.2.3.0,Phases=3,Linecode=BT514_BT508_5_3_1,Length=0.039061000,Units=km
new line.11426549 bus1=BBT3421580.1.2.3.0,bus2=BBT3421587.1.2.3.0,Phases=3,Linecode=BT518_BT518_5_3_1,Length=0.041241000,Units=km
new line.11426570 bus1=BBT3421587.1.2.3.0,bus2=BBT3421594.1.2.3.0,Phases=3,Linecode=BT518_BT518_5_3_1,Length=0.054585000,Units=km
new line.11426584 bus1=BBT3421629.1.2.3.0,bus2=BBT3421636.1.2.3.0,Phases=3,Linecode=BT514_BT508_5_3_1,Length=0.042165000,Units=km
new line.11426605 bus1=BBT3421636.1.2.3.0,bus2=BBT3421643.1.2.3.0,Phases=3,Linecode=BT513_BT508_5_3_1,Length=0.047277000,Units=km
new line.11426612 bus1=BBT3421636.1.2.3.0,bus2=BBT3421657.1.2.3.0,Phases=3,Linecode=BT513_BT509_5_3_1,Length=0.049053000,Units=km
new line.11426633 bus1=BBT3421594.1.2.3.0,bus2=BBT3421601.1.2.3.0,Phases=3,Linecode=BT505_BT505_5_3_1,Length=0.037957000,Units=km
new line.11426654 bus1=BBT3421622.1.2.3.0,bus2=BBT20595584.1.2.3.0,Phases=3,Linecode=BT518_BT518_5_3_1,Length=0.002830000,Units=km
new line.11426675 bus1=BBT3421608.1.2.3.0,bus2=BBT3421622.1.2.3.0,Phases=3,Linecode=BT505_BT505_5_3_1,Length=0.049942000,Units=km
new line.11426682 bus1=BBT3421608.1.2.3.0,bus2=BBT3421615.1.2.3.0,Phases=3,Linecode=BT505_BT505_5_3_1,Length=0.053352000,Units=km
new line.11426710 bus1=BBT3421650.1.2.3.0,bus2=BBT3421678.1.2.3.0,Phases=3,Linecode=BT513_BT508_5_3_1,Length=0.022097000,Units=km
new line.11426731 bus1=BBT3421643.1.2.3.0,bus2=BBT3421650.1.2.3.0,Phases=3,Linecode=BT513_BT508_5_3_1,Length=0.033846000,Units=km
new line.11426766 bus1=BBT3421671.1.2.3.0,bus2=BBT3421685.1.2.3.0,Phases=3,Linecode=BT513_BT508_5_3_1,Length=0.050461000,Units=km
new line.11426787 bus1=BBT3421657.1.2.3.0,bus2=BBT3421699.1.2.3.0,Phases=3,Linecode=BT513_BT508_5_3_1,Length=0.064576000,Units=km
new line.11426808 bus1=BBT3421678.1.2.3.0,bus2=BBT3421671.1.2.3.0,Phases=3,Linecode=BT513_BT508_5_3_1,Length=0.022028000,Units=km
new line.11426829 bus1=BBT3421699.1.2.3.0,bus2=BBT3421706.1.2.3.0,Phases=3,Linecode=BT513_BT508_5_3_1,Length=0.058264000,Units=km
new line.11426843 bus1=BBT3421685.1.2.3.0,bus2=BBT3421692.1.2.3.0,Phases=3,Linecode=BT513_BT508_5_3_1,Length=0.062185000,Units=km
new line.11426864 bus1=BBT3421706.1.2.3.0,bus2=BBT3421713.1.2.3.0,Phases=3,Linecode=BT513_BT508_5_3_1,Length=0.063577000,Units=km
new line.11426885 bus1=BBT3421692.1.2.3.0,bus2=BBT3421734.1.2.3.0,Phases=3,Linecode=BT513_BT508_5_3_1,Length=0.064576000,Units=km
new line.11426913 bus1=BBT3421713.1.2.3.0,bus2=BBT3421720.1.2.3.0,Phases=3,Linecode=BT513_BT508_5_3_1,Length=0.062641000,Units=km
new line.11426934 bus1=BBT3421734.1.2.3.0,bus2=BBT3421741.1.2.3.0,Phases=3,Linecode=BT513_BT508_5_3_1,Length=0.043611000,Units=km
new line.11426955 bus1=BBT3421741.1.2.3.0,bus2=BBT3421748.1.2.3.0,Phases=3,Linecode=BT518_BT518_5_3_1,Length=0.042813000,Units=km
new line.11426976 bus1=BBT3421720.1.2.3.0,bus2=BBT3421727.1.2.3.0,Phases=3,Linecode=BT513_BT508_5_3_1,Length=0.039367000,Units=km
new line.11426997 bus1=BBT3421727.1.2.3.0,bus2=BBT3421762.1.2.3.0,Phases=3,Linecode=BT518_BT518_5_3_1,Length=0.043022000,Units=km
new line.11427018 bus1=BBT3421748.1.2.3.0,bus2=BBT3421755.1.2.3.0,Phases=3,Linecode=BT518_BT518_5_3_1,Length=0.043022000,Units=km
new line.11427060 bus1=BBT3421601.1.2.3.0,bus2=BBT3421608.1.2.3.0,Phases=3,Linecode=BT505_BT505_5_3_1,Length=0.026914000,Units=km
new line.11427102 bus1=BBT3421762.1.2.3.0,bus2=BBT3421769.1.2.3.0,Phases=3,Linecode=BT518_BT518_5_3_1,Length=0.040060000,Units=km
new line.11636962 bus1=BBT3498573.1.2.3.0,bus2=BBT3498580.1.2.3.0,Phases=3,Linecode=BT514_BT514_7_3_1,Length=0.000501000,Units=km
new line.11648239 bus1=BBT3502283.1.2.3.0,bus2=BBT3502290.1.2.3.0,Phases=3,Linecode=BT107_BT108_7_3_1,Length=0.017893000,Units=km
new line.11733331 bus1=BBT3532313.1.2.3.0,bus2=BBT4732498.1.2.3.0,Phases=3,Linecode=BT810_BT810_4_3_4,Length=0.042058000,Units=km
new line.12071263 bus1=BBT3647484.1.3.0,bus2=BBT3647491.1.3.0,Phases=2,Linecode=BT505_BT505_5_2_1,Length=0.017498000,Units=km
new line.12071270 bus1=BBT3647484.1.3.0,bus2=BBT3647498.1.3.0,Phases=2,Linecode=BT505_BT505_5_2_1,Length=0.018033000,Units=km
new line.12071291 bus1=BBT3647498.1.3.0,bus2=BBT3647505.1.3.0,Phases=2,Linecode=BT505_BT505_5_2_1,Length=0.023607000,Units=km
new line.12071347 bus1=BBT3647505.1.3.0,bus2=BBT3647512.1.3.0,Phases=2,Linecode=BT505_BT505_5_2_1,Length=0.021477000,Units=km
new line.12071354 bus1=BBT3647505.1.3.0,bus2=BBT3649528.1.3.0,Phases=2,Linecode=BT505_BT505_5_2_1,Length=0.011665000,Units=km
new line.12071368 bus1=BBT3647610.1.2.0,bus2=BBT3647624.1.2.0,Phases=2,Linecode=BT505_BT505_5_2_1,Length=0.016648000,Units=km
new line.12071417 bus1=BBT3647596.1.2.0,bus2=BBT3647610.1.2.0,Phases=2,Linecode=BT505_BT505_5_2_1,Length=0.015816000,Units=km
new line.12071424 bus1=BBT3647596.1.2.0,bus2=BBT3647617.1.2.0,Phases=2,Linecode=BT505_BT505_5_2_1,Length=0.019930000,Units=km
new line.12071431 bus1=BBT3647596.1.2.0,bus2=BBT3647603.1.2.0,Phases=2,Linecode=BT505_BT505_5_2_1,Length=0.012045000,Units=km
new line.12071459 bus1=BBT3647617.1.2.0,bus2=BBT3647631.1.2.0,Phases=2,Linecode=BT505_BT505_5_2_1,Length=0.009490000,Units=km
new line.12071704 bus1=BBT3647631.1.2.0,bus2=BBT3647645.1.2.0,Phases=2,Linecode=BT505_BT505_5_2_1,Length=0.019005000,Units=km
new line.12071711 bus1=BBT3647631.1.2.0,bus2=BBT3647715.1.2.0,Phases=2,Linecode=BT505_BT505_5_2_1,Length=0.012732000,Units=km
new line.12072327 bus1=BBT3647645.1.2.0,bus2=BBT3647652.1.2.0,Phases=2,Linecode=BT505_BT505_5_2_1,Length=0.014769000,Units=km
new line.12072481 bus1=BBT3647715.1.2.0,bus2=BBT3647638.1.2.0,Phases=2,Linecode=BT505_BT505_5_2_1,Length=0.014146000,Units=km
new line.12388909 bus1=BBT3811438.1.2.0,bus2=BBT3811445.1.2.0,Phases=2,Linecode=BT808_BT808_4_2_3,Length=0.023776000,Units=km
new line.12388930 bus1=BBT3811431.1.2.0,bus2=BBT3811438.1.2.0,Phases=2,Linecode=BT808_BT808_4_2_3,Length=0.042731000,Units=km
new line.12388958 bus1=BBT3811424.1.2.0,bus2=BBT3811431.1.2.0,Phases=2,Linecode=BT808_BT808_4_2_3,Length=0.039227000,Units=km
new line.11931067 bus1=BBT3600101.1.2.3.0,bus2=BBT3600108.1.2.3.0,Phases=3,Linecode=BT503_BT503_5_3_1,Length=0.018033000,Units=km
new line.11931102 bus1=BBT3600087.1.2.3.0,bus2=BBT3600094.1.2.3.0,Phases=3,Linecode=BT503_BT503_5_3_1,Length=0.018033000,Units=km
new line.11931109 bus1=BBT3600087.1.2.3.0,bus2=BBT3600122.1.2.3.0,Phases=3,Linecode=BT503_BT503_5_3_1,Length=0.012086000,Units=km
new line.11931116 bus1=BBT3600087.1.2.3.0,bus2=BBT3600115.1.2.3.0,Phases=3,Linecode=BT503_BT503_5_3_1,Length=0.020524000,Units=km
new line.11931137 bus1=BBT3600094.1.2.3.0,bus2=BBT3600101.1.2.3.0,Phases=3,Linecode=BT503_BT503_5_3_1,Length=0.013605000,Units=km
new line.11931144 bus1=BBT3600094.1.2.3.0,bus2=BBT3600136.1.2.3.0,Phases=3,Linecode=BT503_BT503_5_3_1,Length=0.016283000,Units=km
new line.11931200 bus1=BBT3600122.1.2.3.0,bus2=BBT3600129.1.2.3.0,Phases=3,Linecode=BT503_BT503_5_3_1,Length=0.013042000,Units=km
new line.11931207 bus1=BBT3600122.1.2.3.0,bus2=BBT3600143.1.2.3.0,Phases=3,Linecode=BT503_BT503_5_3_1,Length=0.012086000,Units=km
new line.11931522 bus1=BBT3600276.1.2.3.0,bus2=BBT3600283.1.2.3.0,Phases=3,Linecode=BT810_BT810_4_3_4,Length=0.038220000,Units=km
new line.11931543 bus1=BBT3600269.1.2.3.0,bus2=BBT3600276.1.2.3.0,Phases=3,Linecode=BT810_BT810_4_3_4,Length=0.036231000,Units=km
new line.12252703 bus1=BBT3722552.1.2.3.0,bus2=BBT988156.1.2.3.0,Phases=3,Linecode=BT803_BT803_4_3_4,Length=0.010820000,Units=km
new line.12252710 bus1=BBT3722552.1.2.3.0,bus2=BBT988163.1.2.3.0,Phases=3,Linecode=BT803_BT803_4_3_4,Length=0.016648000,Units=km
new line.12252717 bus1=BBT3722552.1.2.3.0,bus2=BBT988170.1.2.3.0,Phases=3,Linecode=BT803_BT803_4_3_4,Length=0.022633000,Units=km
new line.12252794 bus1=BBT3722734.1.2.3.0,bus2=BBT982836.1.2.3.0,Phases=3,Linecode=BT107_BT107_7_3_1,Length=0.012534000,Units=km
new line.12252801 bus1=BBT3722734.1.2.3.0,bus2=BBT982843.1.2.3.0,Phases=3,Linecode=BT108_BT107_7_3_1,Length=0.008488000,Units=km
new line.12252808 bus1=BBT3722734.1.2.0,bus2=BBT982850.1.2.0,Phases=2,Linecode=BT107_BT107_7_2_1,Length=0.016129000,Units=km
new line.13530105 bus1=BBT4276910.1.2.0,bus2=BBT4276917.1.2.0,Phases=2,Linecode=BT808_BT808_4_2_3,Length=0.049510000,Units=km
new line.13530119 bus1=BBT4276917.1.2.0,bus2=BBT4276924.1.2.0,Phases=2,Linecode=BT808_BT808_4_2_3,Length=0.044564000,Units=km
new line.13530140 bus1=BBT4276924.1.2.0,bus2=BBT4276931.1.2.0,Phases=2,Linecode=BT808_BT808_4_2_3,Length=0.050550000,Units=km
new line.13600735 bus1=BBT4309642.1.2.3.0,bus2=BBT4309649.1.2.3.0,Phases=3,Linecode=BT518_BT518_7_3_1,Length=0.000501000,Units=km
new line.13601162 bus1=BBT4309544.1.2.3.0,bus2=BBT4309551.1.2.3.0,Phases=3,Linecode=BT518_BT518_7_3_1,Length=0.000501000,Units=km
new line.13601589 bus1=BBT4309488.1.2.0,bus2=BBT4309495.1.2.0,Phases=2,Linecode=BT518_BT518_7_2_1,Length=0.000501000,Units=km
new line.13602933 bus1=BBT4310202.1.2.0,bus2=BBT4310209.1.2.0,Phases=2,Linecode=BT513_BT513_7_2_1,Length=0.000501000,Units=km
new line.14033342 bus1=BBT4754576.1.2.3.0,bus2=BBT4754583.1.2.3.0,Phases=3,Linecode=BT810_BT810_4_3_4,Length=0.027302000,Units=km
new line.14033377 bus1=BBT4753148.1.2.3.0,bus2=BBT4753155.1.2.3.0,Phases=3,Linecode=BT803_BT803_4_3_4,Length=0.031631000,Units=km
new line.14033412 bus1=BBT4753141.1.2.3.0,bus2=BBT4753148.1.2.3.0,Phases=3,Linecode=BT803_BT803_4_3_4,Length=0.036901000,Units=km
new line.14033426 bus1=BBT4753099.1.2.3.0,bus2=BBT4753141.1.2.3.0,Phases=3,Linecode=BT803_BT803_4_3_4,Length=0.036410000,Units=km
new line.14033433 bus1=BBT4753078.1.2.3.0,bus2=BBT4753099.1.2.3.0,Phases=3,Linecode=BT803_BT803_4_3_4,Length=0.033024000,Units=km
new line.14033440 bus1=BBT4753078.1.2.3.0,bus2=BBT4753106.1.2.3.0,Phases=3,Linecode=BT803_BT803_4_3_4,Length=0.041891000,Units=km
new line.14033524 bus1=BBT4753106.1.2.3.0,bus2=BBT4753120.1.2.3.0,Phases=3,Linecode=BT810_BT810_4_3_4,Length=0.042213000,Units=km
new line.14033552 bus1=BBT4753120.1.2.0,bus2=BBT4753134.1.2.0,Phases=2,Linecode=BT810_BT810_4_2_4,Length=0.036065000,Units=km
new line.14033594 bus1=BBT4753071.1.2.3.0,bus2=BBT4753078.1.2.3.0,Phases=3,Linecode=BT803_BT803_4_3_4,Length=0.037812000,Units=km
new line.14033601 bus1=BBT4753064.1.2.3.0,bus2=BBT4753071.1.2.3.0,Phases=3,Linecode=BT518_BT518_7_3_1,Length=0.000501000,Units=km
new line.14033608 bus1=BBT4753071.1.2.3.0,bus2=BBT4753085.1.2.3.0,Phases=3,Linecode=BT803_BT803_4_3_4,Length=0.038610000,Units=km
new line.14033622 bus1=BBT4753085.1.2.0,bus2=BBT4753176.1.2.0,Phases=2,Linecode=BT807_BT807_4_2_3,Length=0.037212000,Units=km
new line.14033636 bus1=BBT4755122.1.2.0,bus2=BBT4755129.1.2.0,Phases=2,Linecode=BT808_BT808_4_2_3,Length=0.039125000,Units=km
new line.14033643 bus1=BBT4755122.1.2.0,bus2=BBT4755136.1.2.0,Phases=2,Linecode=BT808_BT808_4_2_3,Length=0.044610000,Units=km
new line.14033657 bus1=BBT4755080.1.2.0,bus2=BBT4755122.1.2.0,Phases=2,Linecode=BT808_BT808_4_2_3,Length=0.036629000,Units=km
new line.14033699 bus1=BBT4753176.1.2.0,bus2=BBT4753218.1.2.0,Phases=2,Linecode=BT808_BT808_4_2_3,Length=0.045355000,Units=km
new line.14033706 bus1=BBT4753176.1.2.0,bus2=BBT4753183.1.2.0,Phases=2,Linecode=BT807_BT807_4_2_3,Length=0.038843000,Units=km
new line.14033748 bus1=BBT4753183.1.2.0,bus2=BBT4753190.1.2.0,Phases=2,Linecode=BT807_BT807_4_2_3,Length=0.037453000,Units=km
new line.14033762 bus1=BBT4753190.1.2.0,bus2=BBT4753204.1.2.0,Phases=2,Linecode=BT807_BT807_4_2_3,Length=0.038429000,Units=km
new line.14033769 bus1=BBT4753190.1.2.0,bus2=BBT4753225.1.2.0,Phases=2,Linecode=BT808_BT808_4_2_3,Length=0.043428000,Units=km
new line.14033825 bus1=BBT4753225.1.2.0,bus2=BBT4753232.1.2.0,Phases=2,Linecode=BT808_BT808_4_2_3,Length=0.046239000,Units=km
new line.14033839 bus1=BBT4753232.1.2.0,bus2=BBT4753239.1.2.0,Phases=2,Linecode=BT808_BT808_4_2_3,Length=0.044666000,Units=km
new line.14034441 bus1=BBT4754583.1.2.3.0,bus2=BBT4754590.1.2.3.0,Phases=3,Linecode=BT810_BT810_4_3_4,Length=0.043612000,Units=km
new line.14034448 bus1=BBT4754583.1.2.3.0,bus2=BBT4754618.1.2.3.0,Phases=3,Linecode=BT810_BT810_4_3_4,Length=0.040235000,Units=km
new line.14034476 bus1=BBT4754618.1.2.3.0,bus2=BBT4754625.1.2.3.0,Phases=3,Linecode=BT810_BT810_4_3_4,Length=0.036901000,Units=km
new line.14034504 bus1=BBT4754625.1.2.3.0,bus2=BBT4754632.1.2.3.0,Phases=3,Linecode=BT810_BT810_4_3_4,Length=0.035814000,Units=km
new line.14034525 bus1=BBT4755073.1.2.0,bus2=BBT4755080.1.2.0,Phases=2,Linecode=BT807_BT807_4_2_3,Length=0.035814000,Units=km
new line.14034532 bus1=BBT4755073.1.2.0,bus2=BBT4755087.1.2.0,Phases=2,Linecode=BT808_BT808_4_2_3,Length=0.039835000,Units=km
new line.14034539 bus1=BBT4754982.1.2.0,bus2=BBT4755073.1.2.0,Phases=2,Linecode=BT807_BT807_4_2_3,Length=0.035237000,Units=km
new line.14034546 bus1=BBT4754905.1.2.0,bus2=BBT4754982.1.2.0,Phases=2,Linecode=BT807_BT807_4_2_3,Length=0.037453000,Units=km
new line.14034553 bus1=BBT4754898.1.2.0,bus2=BBT4754905.1.2.0,Phases=2,Linecode=BT513_BT513_7_2_1,Length=0.000501000,Units=km
new line.14034560 bus1=BBT4754905.1.2.0,bus2=BBT4755045.1.2.0,Phases=2,Linecode=BT808_BT808_4_2_3,Length=0.031072000,Units=km
new line.14034567 bus1=BBT4754905.1.2.0,bus2=BBT4755003.1.2.0,Phases=2,Linecode=BT807_BT807_4_2_3,Length=0.030814000,Units=km
new line.14034581 bus1=BBT4755010.1.2.0,bus2=BBT4755017.1.2.0,Phases=2,Linecode=BT807_BT807_4_2_3,Length=0.018033000,Units=km
new line.14034595 bus1=BBT4755017.1.2.0,bus2=BBT4755024.1.2.0,Phases=2,Linecode=BT808_BT808_4_2_3,Length=0.040815000,Units=km
new line.12388979 bus1=BBT3654323.1.2.0,bus2=BBT3811424.1.2.0,Phases=2,Linecode=BT808_BT808_4_2_3,Length=0.032288000,Units=km
new line.12388986 bus1=BBT3654316.1.2.3.0,bus2=BBT3654323.1.2.3.0,Phases=3,Linecode=BT514_BT514_7_3_1,Length=0.000501000,Units=km
new line.12846394 bus1=BBT1392679.1.2.0,bus2=BBT4038329.1.2.0,Phases=2,Linecode=BT304_BT304_7_2_1,Length=0.000501000,Units=km
new line.13205333 bus1=BBT4116827.1.2.3.0,bus2=BBT4116834.1.2.3.0,Phases=3,Linecode=BT518_BT518_7_3_1,Length=0.000501000,Units=km
new line.13205340 bus1=BBT4116834.1.2.3.0,bus2=BBT20602843.1.2.3.0,Phases=3,Linecode=BT503_BT503_5_3_1,Length=0.003164000,Units=km
new line.13205389 bus1=BBT4116841.1.2.3.0,bus2=BBT4406361.1.2.3.0,Phases=3,Linecode=BT513_BT513_5_3_1,Length=0.005833000,Units=km
new line.13205417 bus1=BBT4116855.1.2.3.0,bus2=BBT4415909.1.2.3.0,Phases=3,Linecode=BT521_BT521_5_3_1,Length=0.046336000,Units=km
new line.13205424 bus1=BBT4116855.1.2.3.0,bus2=BBT20599406.1.2.3.0,Phases=3,Linecode=BT514_BT513_5_3_1,Length=0.019703000,Units=km
new line.13949867 bus1=BBT4634246.1.2.3.0,bus2=BBT4634253.1.2.3.0,Phases=3,Linecode=BT514_BT514_7_3_1,Length=0.000501000,Units=km
new line.13951470 bus1=BBT4638523.1.2.3.0,bus2=BBT4638530.1.2.3.0,Phases=3,Linecode=BT518_BT518_7_3_1,Length=0.000501000,Units=km
new line.13951477 bus1=BBT4638530.1.2.3.0,bus2=BBT4638537.1.2.3.0,Phases=3,Linecode=BT514_BT513_5_3_1,Length=0.029162000,Units=km
new line.13951491 bus1=BBT4638537.1.2.3.0,bus2=BBT4116855.1.2.3.0,Phases=3,Linecode=BT514_BT513_5_3_1,Length=0.036683000,Units=km
new line.13951498 bus1=BBT4638537.1.2.3.0,bus2=BBT20597712.1.2.3.0,Phases=3,Linecode=BT514_BT513_5_3_1,Length=0.005002000,Units=km
new line.13951505 bus1=BBT4638537.1.2.3.0,bus2=BBT20602087.1.2.3.0,Phases=3,Linecode=BT503_BT503_5_3_1,Length=0.044956000,Units=km
new line.14116012 bus1=BBT4938627.2.3.0,bus2=BBT20598860.2.3.0,Phases=2,Linecode=BT505_BT505_5_2_1,Length=0.042964000,Units=km
new line.14116019 bus1=BBT4938627.1.2.3.0,bus2=BBT20598853.1.2.3.0,Phases=3,Linecode=BT517_BT517_7_3_1,Length=0.003164000,Units=km
new line.16123066 bus1=BBT8446153.1.2.3.0,bus2=BBT8446160.1.2.3.0,Phases=3,Linecode=BT514_BT514_7_3_1,Length=0.000501000,Units=km
new line.16334228 bus1=BBT20572834.1.2.3.0,bus2=BBT20573366.1.2.3.0,Phases=3,Linecode=BT518_BT518_5_3_1,Length=0.007073000,Units=km
new line.16334242 bus1=BBT20573366.1.2.3.0,bus2=BBT20573548.1.2.3.0,Phases=3,Linecode=BT518_BT518_5_3_1,Length=0.036065000,Units=km
new line.16334249 bus1=BBT20573366.1.2.3.0,bus2=BBT20611110.1.2.3.0,Phases=3,Linecode=BT513_BT513_5_3_1,Length=0.004244000,Units=km
new line.16334256 bus1=BBT20573366.1.2.3.0,bus2=BBT20611117.1.2.3.0,Phases=3,Linecode=BT513_BT513_5_3_1,Length=0.048427000,Units=km
new line.16334263 bus1=BBT20573548.1.2.3.0,bus2=BBT20573555.1.2.3.0,Phases=3,Linecode=BT518_BT518_5_3_1,Length=0.025006000,Units=km
new line.16334270 bus1=BBT20573548.1.2.3.0,bus2=BBT20573772.1.2.3.0,Phases=3,Linecode=BT518_BT518_5_3_1,Length=0.004244000,Units=km
new line.16334277 bus1=BBT20573569.1.2.3.0,bus2=BBT20573583.1.2.3.0,Phases=3,Linecode=BT518_BT518_5_3_1,Length=0.004244000,Units=km
new line.16334284 bus1=BBT20573555.1.2.3.0,bus2=BBT20573562.1.2.3.0,Phases=3,Linecode=BT518_BT518_5_3_1,Length=0.015816000,Units=km
new line.16334291 bus1=BBT20573555.1.2.3.0,bus2=BBT20573590.1.2.3.0,Phases=3,Linecode=BT518_BT518_5_3_1,Length=0.003607000,Units=km
new line.16334298 bus1=BBT20573562.1.2.3.0,bus2=BBT20573569.1.2.3.0,Phases=3,Linecode=BT518_BT518_5_3_1,Length=0.017809000,Units=km
new line.16334305 bus1=BBT20573562.1.2.3.0,bus2=BBT20573576.1.2.3.0,Phases=3,Linecode=BT518_BT518_5_3_1,Length=0.012373000,Units=km
new line.16334312 bus1=BBT20573576.1.2.3.0,bus2=BBT20609297.1.2.3.0,Phases=3,Linecode=BT518_BT518_5_3_1,Length=0.066484000,Units=km
new line.16335726 bus1=BBT20595479.1.2.3.0,bus2=BBT4738924.1.2.3.0,Phases=3,Linecode=BT505_BT505_5_3_1,Length=0.003001000,Units=km
new line.16335733 bus1=BBT20595472.1.2.3.0,bus2=BBT4738917.1.2.3.0,Phases=3,Linecode=BT505_BT505_5_3_1,Length=0.005002000,Units=km
new line.16335740 bus1=BBT20595472.1.2.3.0,bus2=BBT20595479.1.2.3.0,Phases=3,Linecode=BT505_BT505_5_3_1,Length=0.048272000,Units=km
new line.16335747 bus1=BBT20595465.1.2.3.0,bus2=BBT4738910.1.2.3.0,Phases=3,Linecode=BT505_BT505_5_3_1,Length=0.003607000,Units=km
new line.16335754 bus1=BBT20595465.1.2.3.0,bus2=BBT20595472.1.2.3.0,Phases=3,Linecode=BT505_BT505_5_3_1,Length=0.057154000,Units=km
new line.16335761 bus1=BBT20595584.1.2.3.0,bus2=BBT20595591.1.2.3.0,Phases=3,Linecode=BT518_BT518_5_3_1,Length=0.048022000,Units=km
new line.16335768 bus1=BBT20595591.1.2.3.0,bus2=BBT4738819.1.2.3.0,Phases=3,Linecode=BT505_BT505_5_3_1,Length=0.003164000,Units=km
new line.16335775 bus1=BBT20595591.1.2.3.0,bus2=BBT20595598.1.2.3.0,Phases=3,Linecode=BT518_BT518_5_3_1,Length=0.053679000,Units=km
new line.16335782 bus1=BBT20595591.1.2.0,bus2=BBT20595647.1.2.0,Phases=2,Linecode=BT503_BT503_5_2_1,Length=0.008947000,Units=km
new line.16335789 bus1=BBT20595598.1.2.3.0,bus2=BBT4738833.1.2.3.0,Phases=3,Linecode=BT505_BT505_5_3_1,Length=0.004125000,Units=km
new line.16335796 bus1=BBT20595598.1.2.3.0,bus2=BBT20595605.1.2.3.0,Phases=3,Linecode=BT518_BT518_5_3_1,Length=0.037117000,Units=km
new line.16335803 bus1=BBT20595605.1.2.3.0,bus2=BBT4738840.1.2.3.0,Phases=3,Linecode=BT505_BT505_5_3_1,Length=0.003164000,Units=km
new line.16335810 bus1=BBT20595605.1.2.3.0,bus2=BBT20595612.1.2.3.0,Phases=3,Linecode=BT518_BT518_5_3_1,Length=0.039010000,Units=km
new line.16335817 bus1=BBT20595612.1.2.3.0,bus2=BBT4738847.1.2.3.0,Phases=3,Linecode=BT505_BT505_5_3_1,Length=0.003164000,Units=km
new line.16335824 bus1=BBT20595612.1.2.3.0,bus2=BBT20595619.1.2.3.0,Phases=3,Linecode=BT518_BT518_5_3_1,Length=0.035237000,Units=km
new line.16335831 bus1=BBT20595619.1.2.3.0,bus2=BBT4738854.1.2.3.0,Phases=3,Linecode=BT518_BT518_5_3_1,Length=0.004474000,Units=km
new line.16335838 bus1=BBT20595619.1.2.3.0,bus2=BBT20595626.1.2.3.0,Phases=3,Linecode=BT518_BT518_5_3_1,Length=0.032993000,Units=km
new line.16335845 bus1=BBT20595626.1.2.3.0,bus2=BBT4738861.1.2.3.0,Phases=3,Linecode=BT518_BT518_5_3_1,Length=0.004474000,Units=km
new line.16335852 bus1=BBT20595626.1.2.3.0,bus2=BBT20595633.1.2.3.0,Phases=3,Linecode=BT518_BT518_5_3_1,Length=0.025006000,Units=km
new line.16335859 bus1=BBT20595633.1.2.3.0,bus2=BBT4738868.1.2.3.0,Phases=3,Linecode=BT518_BT518_5_3_1,Length=0.004244000,Units=km
new line.16335866 bus1=BBT20595633.1.2.3.0,bus2=BBT20595514.1.2.3.0,Phases=3,Linecode=BT518_BT518_5_3_1,Length=0.032257000,Units=km
new line.16335873 bus1=BBT20595514.1.2.3.0,bus2=BBT4738875.1.2.3.0,Phases=3,Linecode=BT518_BT518_5_3_1,Length=0.004125000,Units=km
new line.16335880 bus1=BBT20595514.1.2.3.0,bus2=BBT20595507.1.2.3.0,Phases=3,Linecode=BT518_BT518_5_3_1,Length=0.036506000,Units=km
new line.16335887 bus1=BBT20595507.1.2.3.0,bus2=BBT4738952.1.2.3.0,Phases=3,Linecode=BT518_BT518_5_3_1,Length=0.007813000,Units=km
new line.16335894 bus1=BBT20595507.1.2.3.0,bus2=BBT4738882.1.2.3.0,Phases=3,Linecode=BT518_BT518_5_3_1,Length=0.007073000,Units=km
new line.16335901 bus1=BBT20595507.1.2.3.0,bus2=BBT20595500.1.2.3.0,Phases=3,Linecode=BT518_BT518_5_3_1,Length=0.034243000,Units=km
new line.16335908 bus1=BBT20595493.1.2.0,bus2=BBT4738945.1.2.0,Phases=2,Linecode=BT503_BT503_5_2_1,Length=0.002237000,Units=km
new line.16335915 bus1=BBT20595486.1.2.3.0,bus2=BBT4738896.1.2.3.0,Phases=3,Linecode=BT518_BT518_5_3_1,Length=0.004244000,Units=km
new line.16335922 bus1=BBT20595486.1.2.0,bus2=BBT20595493.1.2.0,Phases=2,Linecode=BT503_BT503_5_2_1,Length=0.033295000,Units=km
new line.16335929 bus1=BBT20595451.1.2.3.0,bus2=BBT20595458.1.2.3.0,Phases=3,Linecode=BT518_BT518_5_3_1,Length=0.020254000,Units=km
new line.16335936 bus1=BBT20595458.1.2.3.0,bus2=BBT4738903.1.2.3.0,Phases=3,Linecode=BT505_BT505_5_3_1,Length=0.004474000,Units=km
new line.16335943 bus1=BBT20595458.1.2.3.0,bus2=BBT20595465.1.2.3.0,Phases=3,Linecode=BT505_BT505_5_3_1,Length=0.024172000,Units=km
new line.16335950 bus1=BBT20595500.1.2.3.0,bus2=BBT4738889.1.2.3.0,Phases=3,Linecode=BT518_BT518_5_3_1,Length=0.004125000,Units=km
new line.16335957 bus1=BBT20595500.1.2.3.0,bus2=BBT4738938.1.2.3.0,Phases=3,Linecode=BT518_BT518_5_3_1,Length=0.017809000,Units=km
new line.16335964 bus1=BBT20595647.1.2.0,bus2=BBT20595654.1.2.0,Phases=2,Linecode=BT503_BT503_5_2_1,Length=0.030536000,Units=km
new line.16335971 bus1=BBT20595654.1.2.0,bus2=BBT20595661.1.2.0,Phases=2,Linecode=BT503_BT503_5_2_1,Length=0.005002000,Units=km
new line.16335978 bus1=BBT20595668.1.2.3.0,bus2=BBT4726877.1.2.3.0,Phases=3,Linecode=BT513_BT518_5_3_1,Length=0.005101000,Units=km
new line.16335985 bus1=BBT20595745.1.2.3.0,bus2=BBT4738812.1.2.3.0,Phases=3,Linecode=BT503_BT503_5_3_1,Length=0.002830000,Units=km
new line.16335992 bus1=BBT20595745.1.2.3.0,bus2=BBT20595752.1.2.3.0,Phases=3,Linecode=BT503_BT503_5_3_1,Length=0.011317000,Units=km
new line.16335999 bus1=BBT20595752.1.2.3.0,bus2=BBT20595759.1.2.3.0,Phases=3,Linecode=BT503_BT503_5_3_1,Length=0.005002000,Units=km
new line.16336006 bus1=BBT20595738.1.2.3.0,bus2=BBT4738805.1.2.3.0,Phases=3,Linecode=BT503_BT503_5_3_1,Length=0.003607000,Units=km
new line.16336013 bus1=BBT20595738.1.2.3.0,bus2=BBT20595745.1.2.3.0,Phases=3,Linecode=BT503_BT503_5_3_1,Length=0.031121000,Units=km
new line.16336020 bus1=BBT20595724.1.2.3.0,bus2=BBT20595731.1.2.3.0,Phases=3,Linecode=BT503_BT503_5_3_1,Length=0.004001000,Units=km
new line.16336027 bus1=BBT20595731.1.2.3.0,bus2=BBT20595738.1.2.3.0,Phases=3,Linecode=BT503_BT503_5_3_1,Length=0.028608000,Units=km
new line.16336034 bus1=BBT20595703.1.2.3.0,bus2=BBT20595710.1.2.3.0,Phases=3,Linecode=BT503_BT503_5_3_1,Length=0.005002000,Units=km
new line.16336041 bus1=BBT20595710.1.2.3.0,bus2=BBT20595717.1.2.3.0,Phases=3,Linecode=BT503_BT503_5_3_1,Length=0.010003000,Units=km
new line.16336048 bus1=BBT20595717.1.2.3.0,bus2=BBT4738707.1.2.3.0,Phases=3,Linecode=BT503_BT503_5_3_1,Length=0.002237000,Units=km
new line.16336055 bus1=BBT20595717.1.2.3.0,bus2=BBT20595724.1.2.3.0,Phases=3,Linecode=BT503_BT503_5_3_1,Length=0.015236000,Units=km
new line.16336062 bus1=BBT20595696.1.2.3.0,bus2=BBT4738700.1.2.3.0,Phases=3,Linecode=BT513_BT518_5_3_1,Length=0.003607000,Units=km
new line.16336069 bus1=BBT20595696.1.2.3.0,bus2=BBT20595703.1.2.3.0,Phases=3,Linecode=BT503_BT503_5_3_1,Length=0.031409000,Units=km
new line.16336076 bus1=BBT20595696.1.2.3.0,bus2=BBT20595682.1.2.3.0,Phases=3,Linecode=BT513_BT518_5_3_1,Length=0.004244000,Units=km
new line.16336083 bus1=BBT20595682.1.2.3.0,bus2=BBT20595675.1.2.3.0,Phases=3,Linecode=BT513_BT518_5_3_1,Length=0.004474000,Units=km
new line.16336090 bus1=BBT20595675.1.2.3.0,bus2=BBT20595766.1.2.3.0,Phases=3,Linecode=BT513_BT518_5_3_1,Length=0.022209000,Units=km
new line.16336097 bus1=BBT20595794.1.2.3.0,bus2=BBT4738742.1.2.3.0,Phases=3,Linecode=BT513_BT518_5_3_1,Length=0.005002000,Units=km
new line.16336104 bus1=BBT20595794.1.2.3.0,bus2=BBT20595801.1.2.3.0,Phases=3,Linecode=BT513_BT518_5_3_1,Length=0.019422000,Units=km
new line.16336111 bus1=BBT20595787.1.2.3.0,bus2=BBT4738735.1.2.3.0,Phases=3,Linecode=BT513_BT518_5_3_1,Length=0.003607000,Units=km
new line.16336118 bus1=BBT20595787.1.2.3.0,bus2=BBT20595794.1.2.3.0,Phases=3,Linecode=BT513_BT518_5_3_1,Length=0.029418000,Units=km
new line.16336125 bus1=BBT20595780.1.2.3.0,bus2=BBT4738728.1.2.3.0,Phases=3,Linecode=BT513_BT518_5_3_1,Length=0.005002000,Units=km
new line.16336132 bus1=BBT20595780.1.2.3.0,bus2=BBT20595787.1.2.3.0,Phases=3,Linecode=BT513_BT518_5_3_1,Length=0.028025000,Units=km
new line.16336139 bus1=BBT20595773.1.2.3.0,bus2=BBT4738721.1.2.3.0,Phases=3,Linecode=BT513_BT518_5_3_1,Length=0.004474000,Units=km
new line.16336146 bus1=BBT20595773.1.2.3.0,bus2=BBT20595780.1.2.3.0,Phases=3,Linecode=BT513_BT518_5_3_1,Length=0.035237000,Units=km
new line.16336153 bus1=BBT20595766.1.2.3.0,bus2=BBT4738714.1.2.3.0,Phases=3,Linecode=BT513_BT518_5_3_1,Length=0.004474000,Units=km
new line.16336160 bus1=BBT20595766.1.2.3.0,bus2=BBT20595773.1.2.3.0,Phases=3,Linecode=BT513_BT518_5_3_1,Length=0.034679000,Units=km
new line.16336167 bus1=BBT20595808.1.2.3.0,bus2=BBT20606490.1.2.3.0,Phases=3,Linecode=BT513_BT518_5_3_1,Length=0.004244000,Units=km
new line.16336174 bus1=BBT20595808.1.2.3.0,bus2=BBT20606497.1.2.3.0,Phases=3,Linecode=BT513_BT518_5_3_1,Length=0.064653000,Units=km
new line.16336181 bus1=BBT20595801.1.2.3.0,bus2=BBT20595808.1.2.3.0,Phases=3,Linecode=BT513_BT518_5_3_1,Length=0.047719000,Units=km
new line.16336188 bus1=BBT20606497.1.2.3.0,bus2=BBT20606742.1.2.3.0,Phases=3,Linecode=BT513_BT518_5_3_1,Length=0.004244000,Units=km
new line.16336195 bus1=BBT20606497.1.2.3.0,bus2=BBT20606504.1.2.3.0,Phases=3,Linecode=BT513_BT518_5_3_1,Length=0.062217000,Units=km
new line.16336202 bus1=BBT20606504.1.2.3.0,bus2=BBT20606735.1.2.3.0,Phases=3,Linecode=BT513_BT518_5_3_1,Length=0.003607000,Units=km
new line.16336209 bus1=BBT20606504.1.2.3.0,bus2=BBT20606511.1.2.3.0,Phases=3,Linecode=BT513_BT518_5_3_1,Length=0.055014000,Units=km
new line.16336216 bus1=BBT20606511.1.2.3.0,bus2=BBT20610333.1.2.3.0,Phases=3,Linecode=BT513_BT518_5_3_1,Length=0.004244000,Units=km
new line.16336223 bus1=BBT20606511.1.2.3.0,bus2=BBT20606518.1.2.3.0,Phases=3,Linecode=BT513_BT518_5_3_1,Length=0.068639000,Units=km
new line.16336230 bus1=BBT20597733.1.2.3.0,bus2=BBT20597740.1.2.3.0,Phases=3,Linecode=BT514_BT513_5_3_1,Length=0.004474000,Units=km
new line.16336237 bus1=BBT20597733.1.2.3.0,bus2=BBT20597747.1.2.3.0,Phases=3,Linecode=BT514_BT513_5_3_1,Length=0.011183000,Units=km
new line.16336244 bus1=BBT20597712.1.2.3.0,bus2=BBT20597719.1.2.3.0,Phases=3,Linecode=BT514_BT513_5_3_1,Length=0.013932000,Units=km
new line.16336251 bus1=BBT20597719.1.2.3.0,bus2=BBT20597726.1.2.3.0,Phases=3,Linecode=BT514_BT513_5_3_1,Length=0.039835000,Units=km
new line.16336258 bus1=BBT20597719.1.2.3.0,bus2=BBT20597796.1.2.3.0,Phases=3,Linecode=BT514_BT513_5_3_1,Length=0.002237000,Units=km
new line.16336265 bus1=BBT20597726.1.2.3.0,bus2=BBT20597733.1.2.3.0,Phases=3,Linecode=BT514_BT513_5_3_1,Length=0.009902000,Units=km
new line.16336272 bus1=BBT20597726.1.2.3.0,bus2=BBT20597789.1.2.3.0,Phases=3,Linecode=BT514_BT513_5_3_1,Length=0.003607000,Units=km
new line.16336279 bus1=BBT20597747.1.2.3.0,bus2=BBT20597754.1.2.3.0,Phases=3,Linecode=BT514_BT513_5_3_1,Length=0.005002000,Units=km
new line.16336286 bus1=BBT20597754.1.2.3.0,bus2=BBT20597761.1.2.3.0,Phases=3,Linecode=BT514_BT513_5_3_1,Length=0.012086000,Units=km
new line.16336293 bus1=BBT20597761.1.2.3.0,bus2=BBT20597782.1.2.3.0,Phases=3,Linecode=BT514_BT513_5_3_1,Length=0.002830000,Units=km
new line.16336300 bus1=BBT20597761.1.2.3.0,bus2=BBT20597768.1.2.3.0,Phases=3,Linecode=BT514_BT513_5_3_1,Length=0.015268000,Units=km
new line.16336307 bus1=BBT20597768.1.2.3.0,bus2=BBT20597775.1.2.3.0,Phases=3,Linecode=BT514_BT513_5_3_1,Length=0.003607000,Units=km
new line.16336314 bus1=BBT20597768.1.2.3.0,bus2=BBT20598027.1.2.3.0,Phases=3,Linecode=BT514_BT513_5_3_1,Length=0.049942000,Units=km
new line.16336335 bus1=BBT20598048.1.2.3.0,bus2=BBT20598076.1.2.3.0,Phases=3,Linecode=BT514_BT513_5_3_1,Length=0.003164000,Units=km