new line.10018772 bus1=BBT3461880.1.2.0,bus2=BBT3461887.1.2.0,Phases=2,Linecode=BT518_BT518_7_2_1,Length=0.000500000,Units=km
new line.10018779 bus1=BBT3461887.2.0,bus2=BBT3461915.2.0,Phases=1,Linecode=BT106_BT106_7_1_1,Length=0.056337000,Units=km
new line.10018786 bus1=BBT3461887.1.0,bus2=BBT3461894.1.0,Phases=1,Linecode=BT106_BT106_7_1_1,Length=0.079898000,Units=km
new line.10018961 bus1=BBT3462153.1.2.0,bus2=BBT3462160.1.2.0,Phases=2,Linecode=BT106_BT106_7_2_1,Length=0.049227000,Units=km
new line.10019542 bus1=BBT3107596.1.2.0,bus2=BBT3107617.1.2.0,Phases=2,Linecode=BT808_BT808_4_2_3,Length=0.042996000,Units=km
new line.10021271 bus1=BBT3441167.1.2.0,bus2=BBT3441174.1.2.0,Phases=2,Linecode=BT518_BT518_7_2_1,Length=0.000500000,Units=km
new line.10021663 bus1=BBT3447712.1.2.0,bus2=BBT3447789.1.2.0,Phases=2,Linecode=BT811_BT811_4_2_3,Length=0.053469000,Units=km
new line.10022762 bus1=BBT3163575.1.2.0,bus2=BBT3163582.1.2.0,Phases=2,Linecode=BT106_BT106_7_2_1,Length=0.040432000,Units=km
new line.10022776 bus1=BBT3163589.1.2.0,bus2=BBT3163596.1.2.0,Phases=2,Linecode=BT106_BT106_7_2_1,Length=0.063545000,Units=km
new line.10022818 bus1=BBT3163505.1.2.0,bus2=BBT6721248.1.2.0,Phases=2,Linecode=BT808_BT808_4_2_3,Length=0.045326000,Units=km
new line.10023357 bus1=BBT3434454.1.0,bus2=BBT3434461.1.0,Phases=1,Linecode=BT811_BT811_4_1_3,Length=0.085991000,Units=km
new line.10023378 bus1=BBT3434419.1.0,bus2=BBT3434426.1.0,Phases=1,Linecode=BT811_BT811_4_1_3,Length=0.108964000,Units=km
new line.10023399 bus1=BBT3288084.1.0,bus2=BBT3434419.1.0,Phases=1,Linecode=BT811_BT811_4_1_3,Length=0.022353000,Units=km
new line.10023406 bus1=BBT3288077.1.2.0,bus2=BBT3288084.1.2.0,Phases=2,Linecode=BT518_BT518_7_2_1,Length=0.000500000,Units=km
new line.10024659 bus1=BBT3445038.1.2.0,bus2=BBT3445045.1.2.0,Phases=2,Linecode=BT518_BT518_7_2_1,Length=0.000500000,Units=km
new line.10025912 bus1=BBT3267028.1.2.0,bus2=BBT3267035.1.2.0,Phases=2,Linecode=BT816_BT816_4_2_2,Length=0.098459000,Units=km
new line.10026437 bus1=BBT3873858.1.2.0,bus2=BBT3873865.1.2.0,Phases=2,Linecode=BT518_BT518_7_2_1,Length=0.000500000,Units=km
new line.10026626 bus1=BBT3802486.1.0,bus2=BBT3802493.1.0,Phases=1,Linecode=BT106_BT106_7_1_1,Length=0.082437000,Units=km
new line.10027074 bus1=BBT3809661.1.2.0,bus2=BBT3809668.1.2.0,Phases=2,Linecode=BT816_BT816_4_2_2,Length=0.072510000,Units=km
new line.10027711 bus1=BBT3806168.1.0,bus2=BBT3806189.1.0,Phases=1,Linecode=BT816_BT816_4_1_2,Length=0.087294000,Units=km
new line.10028355 bus1=BBT3815345.1.0,bus2=BBT3815352.1.0,Phases=1,Linecode=BT107_BT106_7_1_1,Length=0.060809000,Units=km
new line.10028936 bus1=BBT3801856.1.0,bus2=BBT3801863.1.0,Phases=1,Linecode=BT106_BT106_7_1_1,Length=0.074308000,Units=km
new line.10028985 bus1=BBT3801912.1.0,bus2=BBT3801940.1.0,Phases=1,Linecode=BT106_BT106_7_1_1,Length=0.042414000,Units=km
new line.10029006 bus1=BBT3801940.1.0,bus2=BBT3801947.1.0,Phases=1,Linecode=BT106_BT106_7_1_1,Length=0.049985000,Units=km
new line.10029055 bus1=BBT3802010.1.0,bus2=BBT3802045.1.0,Phases=1,Linecode=BT106_BT106_7_1_1,Length=0.129961000,Units=km
new line.10029097 bus1=BBT3802045.1.0,bus2=BBT3818334.1.0,Phases=1,Linecode=BT106_BT106_7_1_1,Length=0.080599000,Units=km
new line.10029118 bus1=BBT3818103.2.0,bus2=BBT3818110.2.0,Phases=1,Linecode=BT106_BT106_7_1_1,Length=0.080599000,Units=km
new line.10029146 bus1=BBT3817991.1.0,bus2=BBT3817998.1.0,Phases=1,Linecode=BT106_BT106_7_1_1,Length=0.054902000,Units=km
new line.10029181 bus1=BBT3817865.1.0,bus2=BBT3817872.1.0,Phases=1,Linecode=BT106_BT106_7_1_1,Length=0.041219000,Units=km
new line.10029202 bus1=BBT3817907.2.0,bus2=BBT3817921.2.0,Phases=1,Linecode=BT106_BT106_7_1_1,Length=0.070690000,Units=km
new line.10029482 bus1=BBT3267147.1.2.0,bus2=BBT3267154.1.2.0,Phases=2,Linecode=BT518_BT518_7_2_1,Length=0.000500000,Units=km
new line.10029594 bus1=BBT3418305.1.2.0,bus2=BBT3418312.1.2.0,Phases=2,Linecode=BT518_BT518_7_2_1,Length=0.000500000,Units=km
new line.10029601 bus1=BBT3418312.1.2.0,bus2=BBT3418319.1.2.0,Phases=2,Linecode=BT807_BT807_4_2_3,Length=0.087437000,Units=km
new line.10029608 bus1=BBT3418312.1.2.0,bus2=BBT3418340.1.2.0,Phases=2,Linecode=BT807_BT807_4_2_3,Length=0.081681000,Units=km
new line.10030091 bus1=BBT3534575.1.2.0,bus2=BBT5669967.1.2.0,Phases=2,Linecode=BT814_BT814_4_2_3,Length=0.099968000,Units=km
new line.10030196 bus1=BBT3266160.1.0,bus2=BBT3266167.1.0,Phases=1,Linecode=BT106_BT106_7_1_1,Length=0.063225000,Units=km
new line.10030819 bus1=BBT3263843.1.2.0,bus2=BBT2303415.1.2.0,Phases=2,Linecode=BT808_BT808_4_2_3,Length=0.048832000,Units=km
new line.10030826 bus1=BBT3263843.1.2.0,bus2=BBT3263976.1.2.0,Phases=2,Linecode=BT808_BT808_4_2_3,Length=0.069159000,Units=km
new line.10030868 bus1=BBT3263962.1.2.0,bus2=BBT3443358.1.2.0,Phases=2,Linecode=BT801_BT801_4_2_3,Length=0.074663000,Units=km
new line.10030980 bus1=BBT3436939.1.0,bus2=BBT3436946.1.0,Phases=1,Linecode=BT807_BT807_4_1_3,Length=0.036045000,Units=km
new line.10031162 bus1=BBT95368289.1.2.0,bus2=BBT3437009.1.2.0,Phases=2,Linecode=BT807_BT807_4_2_3,Length=0.044540000,Units=km
new line.10031169 bus1=BBT3437016.1.2.0,bus2=BBT95368639.1.2.0,Phases=2,Linecode=BT807_BT807_4_2_3,Length=0.051907000,Units=km
new line.10031351 bus1=BBT4555301.1.2.0,bus2=BBT4555308.1.2.0,Phases=2,Linecode=BT808_BT808_4_2_3,Length=0.026241000,Units=km
new line.10031596 bus1=BBT3436456.1.2.0,bus2=BBT4523983.1.2.0,Phases=2,Linecode=BT107_BT107_7_2_1,Length=0.052595000,Units=km
new line.10031708 bus1=BBT3436589.1.2.0,bus2=BBT3436596.1.2.0,Phases=2,Linecode=BT107_BT107_7_2_1,Length=0.050974000,Units=km
new line.11102967 bus1=BBT2912436.1.2.3.0,bus2=BBT2261163.1.2.3.0,Phases=3,Linecode=BT803_BT803_4_3_4,Length=0.016487000,Units=km
new line.11802855 bus1=BBT3107624.1.2.0,bus2=BBT3107631.1.2.0,Phases=2,Linecode=BT808_BT808_4_2_3,Length=0.097969000,Units=km
new line.11995558 bus1=BBT3163554.1.2.0,bus2=BBT3163561.1.2.0,Phases=2,Linecode=BT106_BT106_7_2_1,Length=0.035680000,Units=km
new line.11995572 bus1=BBT3163547.1.2.0,bus2=BBT3163554.1.2.0,Phases=2,Linecode=BT106_BT106_7_2_1,Length=0.043721000,Units=km
new line.11995593 bus1=BBT3163540.1.2.0,bus2=BBT3163547.1.2.0,Phases=2,Linecode=BT106_BT106_7_2_1,Length=0.045337000,Units=km
new line.11995663 bus1=BBT3163568.1.2.0,bus2=BBT3163575.1.2.0,Phases=2,Linecode=BT106_BT106_7_2_1,Length=0.047152000,Units=km
new line.11995740 bus1=BBT3163582.1.2.0,bus2=BBT3163589.1.2.0,Phases=2,Linecode=BT106_BT106_7_2_1,Length=0.051980000,Units=km
new line.11995936 bus1=BBT3163701.1.2.0,bus2=BBT3163708.1.2.0,Phases=2,Linecode=BT106_BT106_7_2_1,Length=0.038456000,Units=km
new line.11995964 bus1=BBT3163603.1.2.0,bus2=BBT3163701.1.2.0,Phases=2,Linecode=BT106_BT106_7_2_1,Length=0.040035000,Units=km
new line.11995978 bus1=BBT3163470.1.2.0,bus2=BBT3163477.1.2.0,Phases=2,Linecode=BT106_BT106_7_2_1,Length=0.042139000,Units=km
new line.11996048 bus1=BBT3163477.1.2.0,bus2=BBT3163491.1.2.0,Phases=2,Linecode=BT106_BT106_7_2_1,Length=0.046080000,Units=km
new line.11996118 bus1=BBT3163491.1.2.0,bus2=BBT3163505.1.2.0,Phases=2,Linecode=BT106_BT106_7_2_1,Length=0.050518000,Units=km
new line.12758474 bus1=BBT3428777.1.2.0,bus2=BBT3428784.1.2.0,Phases=2,Linecode=BT107_BT107_7_2_1,Length=0.074441000,Units=km
new line.10946489 bus1=BBT2874881.1.2.0,bus2=BBT2874888.1.2.0,Phases=2,Linecode=BT808_BT808_4_2_3,Length=0.033411000,Units=km
new line.10946496 bus1=BBT2874874.1.2.0,bus2=BBT2874881.1.2.0,Phases=2,Linecode=BT518_BT518_7_2_1,Length=0.000500000,Units=km
new line.10946503 bus1=BBT2874881.1.2.0,bus2=BBT2874909.1.2.0,Phases=2,Linecode=BT107_BT107_7_2_1,Length=0.026619000,Units=km
new line.10946531 bus1=BBT2874909.1.2.0,bus2=BBT2874916.1.2.0,Phases=2,Linecode=BT107_BT107_7_2_1,Length=0.036224000,Units=km
new line.11356626 bus1=BBT2984172.1.2.0,bus2=BBT2984179.1.2.0,Phases=2,Linecode=BT518_BT518_7_2_1,Length=0.000500000,Units=km
new line.12302620 bus1=BBT3263850.1.2.0,bus2=BBT4985528.1.2.0,Phases=2,Linecode=BT808_BT808_4_2_3,Length=0.037352000,Units=km
new line.12302655 bus1=BBT3443365.1.2.0,bus2=BBT3443372.1.2.0,Phases=2,Linecode=BT808_BT808_4_2_3,Length=0.068659000,Units=km
new line.12302669 bus1=BBT3443351.1.2.0,bus2=BBT3443365.1.2.0,Phases=2,Linecode=BT808_BT808_4_2_3,Length=0.061079000,Units=km
new line.12302676 bus1=BBT3443344.1.2.0,bus2=BBT3443351.1.2.0,Phases=2,Linecode=BT518_BT518_7_2_1,Length=0.000500000,Units=km
new line.12302683 bus1=BBT3443351.1.2.0,bus2=BBT3443379.1.2.0,Phases=2,Linecode=BT808_BT808_4_2_3,Length=0.039307000,Units=km
new line.12302718 bus1=BBT3443407.1.2.0,bus2=BBT3443414.1.2.0,Phases=2,Linecode=BT816_BT816_4_2_2,Length=0.062750000,Units=km
new line.12302739 bus1=BBT3443414.1.2.0,bus2=BBT3443421.1.2.0,Phases=2,Linecode=BT816_BT816_4_2_2,Length=0.097098000,Units=km
new line.12302788 bus1=BBT3264004.1.2.0,bus2=BBT3263997.1.2.0,Phases=2,Linecode=BT808_BT808_4_2_3,Length=0.030585000,Units=km
new line.12302795 bus1=BBT4985052.1.2.0,bus2=BBT3264004.1.2.0,Phases=2,Linecode=BT518_BT518_7_2_1,Length=0.000500000,Units=km
new line.12302802 bus1=BBT3264004.1.2.0,bus2=BBT3264011.1.2.0,Phases=2,Linecode=BT808_BT808_4_2_3,Length=0.080075000,Units=km
new line.12302823 bus1=BBT3264011.1.2.0,bus2=BBT4984688.1.2.0,Phases=2,Linecode=BT808_BT808_4_2_3,Length=0.049148000,Units=km
new line.12302872 bus1=BBT4984674.1.2.0,bus2=BBT3264039.1.2.0,Phases=2,Linecode=BT518_BT518_7_2_1,Length=0.000500000,Units=km
new line.12302879 bus1=BBT3264039.1.2.0,bus2=BBT3264046.1.2.0,Phases=2,Linecode=BT807_BT807_4_2_3,Length=0.046676000,Units=km
new line.12302886 bus1=BBT3264039.1.2.0,bus2=BBT3264032.1.2.0,Phases=2,Linecode=BT807_BT807_4_2_3,Length=0.042472000,Units=km
new line.12302907 bus1=BBT3264046.1.2.0,bus2=BBT3264053.1.2.0,Phases=2,Linecode=BT808_BT808_4_2_3,Length=0.092166000,Units=km
new line.12302942 bus1=BBT3264053.1.2.0,bus2=BBT3264060.1.2.0,Phases=2,Linecode=BT808_BT808_4_2_3,Length=0.051404000,Units=km
new line.12303166 bus1=BBT3264032.1.2.0,bus2=BBT4984681.1.2.0,Phases=2,Linecode=BT808_BT808_4_2_3,Length=0.069058000,Units=km
new line.12303446 bus1=BBT3418319.1.2.0,bus2=BBT3418326.1.2.0,Phases=2,Linecode=BT807_BT807_4_2_3,Length=0.087819000,Units=km
new line.12303614 bus1=BBT3264200.1.2.0,bus2=BBT3264207.1.2.0,Phases=2,Linecode=BT801_BT801_4_2_3,Length=0.076298000,Units=km
new line.12303628 bus1=BBT3264207.1.2.0,bus2=BBT3264214.1.2.0,Phases=2,Linecode=BT801_BT801_4_2_3,Length=0.076298000,Units=km
new line.12312434 bus1=BBT3266629.1.2.0,bus2=BBT3266664.1.2.0,Phases=2,Linecode=BT801_BT801_4_2_3,Length=0.099578000,Units=km
new line.12312511 bus1=BBT3266664.1.2.0,bus2=BBT3266671.1.2.0,Phases=2,Linecode=BT801_BT801_4_2_3,Length=0.099050000,Units=km
new line.12314107 bus1=BBT3267343.1.2.0,bus2=BBT3267378.1.2.0,Phases=2,Linecode=BT801_BT801_4_2_3,Length=0.098951000,Units=km
new line.12314128 bus1=BBT3267378.1.2.0,bus2=BBT3267385.1.2.0,Phases=2,Linecode=BT801_BT801_4_2_3,Length=0.094614000,Units=km
new line.12801223 bus1=BBT3445255.1.0,bus2=BBT3445262.1.0,Phases=1,Linecode=BT106_BT106_7_1_1,Length=0.080596000,Units=km
new line.12803939 bus1=BBT3446641.1.0,bus2=BBT152215719.1.0,Phases=1,Linecode=BT206_BT206_7_1_1,Length=0.092422000,Units=km
new line.12804079 bus1=BBT3446536.1.2.0,bus2=BBT3446543.1.2.0,Phases=2,Linecode=BT801_BT801_4_2_3,Length=0.081365000,Units=km
new line.12804464 bus1=BBT3446753.1.2.0,bus2=BBT3446760.1.2.0,Phases=2,Linecode=BT811_BT811_4_2_3,Length=0.107665000,Units=km
new line.12804765 bus1=BBT3447103.1.2.0,bus2=BBT3447110.1.2.0,Phases=2,Linecode=BT808_BT808_4_2_3,Length=0.099964000,Units=km
new line.12805192 bus1=BBT3447264.1.2.0,bus2=BBT3447271.1.2.0,Phases=2,Linecode=BT811_BT811_4_2_3,Length=0.060187000,Units=km
new line.12805213 bus1=BBT3447257.1.2.0,bus2=BBT3447264.1.2.0,Phases=2,Linecode=BT811_BT811_4_2_3,Length=0.096965000,Units=km
new line.12805227 bus1=BBT3447278.1.2.0,bus2=BBT3447299.1.2.0,Phases=2,Linecode=BT811_BT811_4_2_3,Length=0.144170000,Units=km
new line.12805444 bus1=BBT3447397.1.2.0,bus2=BBT3447404.1.2.0,Phases=2,Linecode=BT811_BT811_4_2_3,Length=0.148032000,Units=km
new line.12805479 bus1=BBT3447369.1.2.0,bus2=BBT3447390.1.2.0,Phases=2,Linecode=BT811_BT811_4_2_3,Length=0.086854000,Units=km
new line.12806592 bus1=BBT3447789.1.2.0,bus2=BBT3447796.1.2.0,Phases=2,Linecode=BT811_BT811_4_2_3,Length=0.139595000,Units=km
new line.12827277 bus1=BBT3461138.1.2.0,bus2=BBT3461145.1.2.0,Phases=2,Linecode=BT811_BT811_4_2_3,Length=0.080595000,Units=km
new line.12827312 bus1=BBT3461124.1.2.0,bus2=BBT3461131.1.2.0,Phases=2,Linecode=BT811_BT811_4_2_3,Length=0.149112000,Units=km
new line.12828026 bus1=BBT3461460.1.2.0,bus2=BBT3461467.1.2.0,Phases=2,Linecode=BT801_BT801_4_2_3,Length=0.072893000,Units=km
new line.12828173 bus1=BBT3461649.1.2.0,bus2=BBT3461656.1.2.0,Phases=2,Linecode=BT106_BT106_7_2_1,Length=0.036607000,Units=km
new line.12828194 bus1=BBT3461656.1.2.0,bus2=BBT3461663.1.2.0,Phases=2,Linecode=BT106_BT106_7_2_1,Length=0.072776000,Units=km
new line.12828215 bus1=BBT3461663.1.2.0,bus2=BBT3461670.1.2.0,Phases=2,Linecode=BT106_BT106_7_2_1,Length=0.055008000,Units=km
new line.12828236 bus1=BBT3461670.1.2.0,bus2=BBT3461677.1.2.0,Phases=2,Linecode=BT106_BT106_7_2_1,Length=0.081292000,Units=km
new line.12828264 bus1=BBT3461635.1.2.0,bus2=BBT3461642.1.2.0,Phases=2,Linecode=BT106_BT106_7_2_1,Length=0.072086000,Units=km
new line.12828432 bus1=BBT3461719.1.2.0,bus2=BBT3461726.1.2.0,Phases=2,Linecode=BT107_BT107_7_2_1,Length=0.085994000,Units=km
new line.12828537 bus1=BBT3461775.1.2.0,bus2=BBT3461782.1.2.0,Phases=2,Linecode=BT106_BT106_7_2_1,Length=0.085994000,Units=km
new line.12828558 bus1=BBT3461782.1.2.0,bus2=BBT3461789.1.2.0,Phases=2,Linecode=BT106_BT106_7_2_1,Length=0.070154000,Units=km
new line.12828572 bus1=BBT3461796.1.2.0,bus2=BBT3461803.1.2.0,Phases=2,Linecode=BT106_BT106_7_2_1,Length=0.060807000,Units=km
new line.12828607 bus1=BBT3461789.1.2.0,bus2=BBT3461796.1.2.0,Phases=2,Linecode=BT106_BT106_7_2_1,Length=0.071565000,Units=km
new line.12828663 bus1=BBT3461761.1.2.0,bus2=BBT3461768.1.2.0,Phases=2,Linecode=BT106_BT106_7_2_1,Length=0.058290000,Units=km
new line.12829097 bus1=BBT3461936.1.0,bus2=BBT3461943.1.0,Phases=1,Linecode=BT815_BT815_4_1_4,Length=0.109735000,Units=km
new line.12829125 bus1=BBT3461950.1.0,bus2=BBT3461957.1.0,Phases=1,Linecode=BT816_BT816_4_1_2,Length=0.070687000,Units=km
new line.12829230 bus1=BBT3461943.1.0,bus2=BBT3461950.1.0,Phases=1,Linecode=BT815_BT815_4_1_4,Length=0.109735000,Units=km
new line.12829762 bus1=BBT3462125.1.2.0,bus2=BBT3462146.1.2.0,Phases=2,Linecode=BT106_BT106_7_2_1,Length=0.032238000,Units=km
new line.11134859 bus1=BBT2922481.1.2.0,bus2=BBT2922488.1.2.0,Phases=2,Linecode=BT518_BT518_7_2_1,Length=0.000500000,Units=km
new line.11367189 bus1=BBT2987434.1.2.0,bus2=BBT2987441.1.2.0,Phases=2,Linecode=BT518_BT518_7_2_1,Length=0.000500000,Units=km
new line.11367518 bus1=BBT2987546.1.2.0,bus2=BBT2987553.1.2.0,Phases=2,Linecode=BT518_BT518_7_2_1,Length=0.000500000,Units=km
new line.11829070 bus1=BBT3113623.1.2.3.0,bus2=BBT2092771.1.2.3.0,Phases=3,Linecode=BT810_BT810_4_3_4,Length=0.006081000,Units=km
new line.12767091 bus1=BBT3431038.1.2.0,bus2=BBT3431045.1.2.0,Phases=2,Linecode=BT801_BT801_4_2_3,Length=0.102919000,Units=km
new line.12767112 bus1=BBT3431010.1.2.0,bus2=BBT3431017.1.2.0,Phases=2,Linecode=BT801_BT801_4_2_3,Length=0.074980000,Units=km
new line.12769751 bus1=BBT3431920.1.2.0,bus2=BBT3431927.1.2.0,Phases=2,Linecode=BT107_BT107_7_2_1,Length=0.080594000,Units=km
new line.12771424 bus1=BBT3432704.1.2.0,bus2=BBT3432732.1.2.0,Phases=2,Linecode=BT801_BT801_4_2_3,Length=0.092163000,Units=km
new line.12772026 bus1=BBT3432935.1.2.0,bus2=BBT3432942.1.2.0,Phases=2,Linecode=BT107_BT107_7_2_1,Length=0.081978000,Units=km
new line.12772096 bus1=BBT3432921.1.2.0,bus2=BBT3432928.1.2.0,Phases=2,Linecode=BT107_BT107_7_2_1,Length=0.072776000,Units=km
new line.12773713 bus1=BBT3433383.1.0,bus2=BBT3433390.1.0,Phases=1,Linecode=BT816_BT816_4_1_2,Length=0.079603000,Units=km
new line.12776534 bus1=BBT3434433.1.0,bus2=BBT3434440.1.0,Phases=1,Linecode=BT811_BT811_4_1_3,Length=0.091574000,Units=km
new line.12776548 bus1=BBT3434440.1.0,bus2=BBT3434447.1.0,Phases=1,Linecode=BT811_BT811_4_1_3,Length=0.071563000,Units=km
new line.12781875 bus1=BBT3436435.1.2.0,bus2=BBT3436442.1.2.0,Phases=2,Linecode=BT107_BT107_7_2_1,Length=0.034817000,Units=km
new line.12781896 bus1=BBT3436428.1.2.0,bus2=BBT3436435.1.2.0,Phases=2,Linecode=BT107_BT107_7_2_1,Length=0.038001000,Units=km
new line.12781917 bus1=BBT3436449.1.2.0,bus2=BBT3436456.1.2.0,Phases=2,Linecode=BT107_BT107_7_2_1,Length=0.038459000,Units=km
new line.12782288 bus1=BBT3436582.1.2.0,bus2=BBT3436589.1.2.0,Phases=2,Linecode=BT107_BT107_7_2_1,Length=0.064980000,Units=km
new line.12782694 bus1=BBT3436722.1.2.0,bus2=BBT3436729.1.2.0,Phases=2,Linecode=BT106_BT106_7_2_1,Length=0.063226000,Units=km
new line.12782715 bus1=BBT3436729.1.2.0,bus2=BBT3436736.1.2.0,Phases=2,Linecode=BT106_BT106_7_2_1,Length=0.063226000,Units=km
new line.12782736 bus1=BBT3436736.1.2.0,bus2=BBT3436743.1.2.0,Phases=2,Linecode=BT106_BT106_7_2_1,Length=0.057437000,Units=km
new line.12782932 bus1=BBT3436925.1.0,bus2=BBT3436932.1.0,Phases=1,Linecode=BT811_BT811_4_1_3,Length=0.100468000,Units=km
new line.12784458 bus1=BBT4555707.1.2.0,bus2=BBT4555728.1.2.0,Phases=2,Linecode=BT808_BT808_4_2_3,Length=0.028275000,Units=km
new line.12785417 bus1=BBT156630810.1.2.0,bus2=BBT3438780.1.2.0,Phases=2,Linecode=BT808_BT808_4_2_3,Length=0.023530000,Units=km
new line.12785438 bus1=BBT3438766.1.2.0,bus2=BBT3438773.1.2.0,Phases=2,Linecode=BT808_BT808_4_2_3,Length=0.075188000,Units=km
new line.12785473 bus1=BBT3438745.1.2.0,bus2=BBT3773184.1.2.0,Phases=2,Linecode=BT808_BT808_4_2_3,Length=0.049481000,Units=km
new line.12785480 bus1=BBT3438745.1.2.0,bus2=BBT3773177.1.2.0,Phases=2,Linecode=BT808_BT808_4_2_3,Length=0.021206000,Units=km
new line.12787111 bus1=BBT3439319.2.0,bus2=BBT3439347.2.0,Phases=1,Linecode=BT816_BT816_4_1_2,Length=0.066618000,Units=km
new line.12788070 bus1=BBT3440033.1.2.0,bus2=BBT3440040.1.2.0,Phases=2,Linecode=BT801_BT801_4_2_3,Length=0.113979000,Units=km
new line.12788091 bus1=BBT3440047.1.2.0,bus2=BBT3440054.1.2.0,Phases=2,Linecode=BT801_BT801_4_2_3,Length=0.107667000,Units=km
new line.12789323 bus1=BBT3440516.1.2.0,bus2=BBT3440523.1.2.0,Phases=2,Linecode=BT801_BT801_4_2_3,Length=0.067980000,Units=km
new line.12790044 bus1=BBT3441083.1.2.0,bus2=BBT3441090.1.2.0,Phases=2,Linecode=BT801_BT801_4_2_3,Length=0.095154000,Units=km
new line.12790072 bus1=BBT3441069.1.2.0,bus2=BBT3441076.1.2.0,Phases=2,Linecode=BT801_BT801_4_2_3,Length=0.099105000,Units=km
new line.12790233 bus1=BBT3441202.1.2.0,bus2=BBT3441209.1.2.0,Phases=2,Linecode=BT107_BT107_7_2_1,Length=0.060813000,Units=km
new line.12790380 bus1=BBT3441342.1.2.0,bus2=BBT3441349.1.2.0,Phases=2,Linecode=BT518_BT518_7_2_1,Length=0.000500000,Units=km
new line.12790758 bus1=BBT3441468.1.2.0,bus2=BBT3441517.1.2.0,Phases=2,Linecode=BT808_BT808_4_2_3,Length=0.035498000,Units=km
new line.12790779 bus1=BBT3441489.1.2.0,bus2=BBT3441468.1.2.0,Phases=2,Linecode=BT808_BT808_4_2_3,Length=0.036056000,Units=km
new line.12790786 bus1=BBT3441482.1.2.0,bus2=BBT3441489.1.2.0,Phases=2,Linecode=BT518_BT518_7_2_1,Length=0.000500000,Units=km
new line.12790793 bus1=BBT3441489.1.2.0,bus2=BBT3441496.1.2.0,Phases=2,Linecode=BT808_BT808_4_2_3,Length=0.034643000,Units=km
new line.12790807 bus1=BBT3441496.1.2.0,bus2=BBT3441503.1.2.0,Phases=2,Linecode=BT808_BT808_4_2_3,Length=0.036112000,Units=km
new line.12790828 bus1=BBT3441503.1.2.0,bus2=BBT3441510.1.2.0,Phases=2,Linecode=BT808_BT808_4_2_3,Length=0.035371000,Units=km
new line.12791458 bus1=BBT3441643.2.0,bus2=BBT3441650.2.0,Phases=1,Linecode=BT811_BT811_4_1_3,Length=0.040247000,Units=km
new line.13021100 bus1=BBT3534848.1.2.0,bus2=BBT3534876.1.2.0,Phases=2,Linecode=BT206_BT206_7_2_1,Length=0.090183000,Units=km
new line.13625844 bus1=BBT3795332.1.2.0,bus2=BBT3795339.1.2.0,Phases=2,Linecode=BT518_BT518_7_2_1,Length=0.000500000,Units=km
new line.13880196 bus1=BBT3878443.1.2.0,bus2=BBT3878450.1.2.0,Phases=2,Linecode=BT106_BT106_7_2_1,Length=0.036758000,Units=km
new line.13880224 bus1=BBT3878436.1.2.0,bus2=BBT3878443.1.2.0,Phases=2,Linecode=BT106_BT106_7_2_1,Length=0.031006000,Units=km
new line.13880238 bus1=BBT3878429.1.2.0,bus2=BBT3878436.1.2.0,Phases=2,Linecode=BT106_BT106_7_2_1,Length=0.035766000,Units=km
new line.13880245 bus1=BBT3878422.1.2.0,bus2=BBT3878429.1.2.0,Phases=2,Linecode=BT107_BT107_7_2_1,Length=0.037096000,Units=km
new line.13880259 bus1=BBT3878415.1.2.0,bus2=BBT3878422.1.2.0,Phases=2,Linecode=BT107_BT107_7_2_1,Length=0.030355000,Units=km
new line.13880308 bus1=BBT3878499.1.2.0,bus2=BBT3878506.1.2.0,Phases=2,Linecode=BT107_BT107_7_2_1,Length=0.037471000,Units=km
new line.13880322 bus1=BBT3878506.1.2.0,bus2=BBT3878513.1.2.0,Phases=2,Linecode=BT107_BT107_7_2_1,Length=0.037002000,Units=km
new line.13880336 bus1=BBT3878513.1.2.0,bus2=BBT3878520.1.2.0,Phases=2,Linecode=BT106_BT106_7_2_1,Length=0.035499000,Units=km
new line.13880357 bus1=BBT3878520.1.2.0,bus2=BBT3878527.1.2.0,Phases=2,Linecode=BT106_BT106_7_2_1,Length=0.045030000,Units=km
new line.13880364 bus1=BBT3878527.1.2.0,bus2=BBT3878534.1.2.0,Phases=2,Linecode=BT106_BT106_7_2_1,Length=0.035429000,Units=km
new line.13880406 bus1=BBT3878541.1.2.0,bus2=BBT3878555.1.2.0,Phases=2,Linecode=BT106_BT106_7_2_1,Length=0.036703000,Units=km
new line.13880434 bus1=BBT3878555.1.2.0,bus2=BBT3878562.1.2.0,Phases=2,Linecode=BT106_BT106_7_2_1,Length=0.039812000,Units=km
new line.13880441 bus1=BBT3878562.1.2.0,bus2=BBT3878569.1.2.0,Phases=2,Linecode=BT106_BT106_7_2_1,Length=0.033930000,Units=km
new line.13880455 bus1=BBT3878576.1.2.0,bus2=BBT3878583.1.2.0,Phases=2,Linecode=BT106_BT106_7_2_1,Length=0.034223000,Units=km
new line.13880469 bus1=BBT3878583.1.2.0,bus2=BBT3878597.1.2.0,Phases=2,Linecode=BT106_BT106_7_2_1,Length=0.027991000,Units=km
new line.13059649 bus1=BBT3551494.1.2.0,bus2=BBT3551501.1.2.0,Phases=2,Linecode=BT808_BT808_4_2_3,Length=0.036223000,Units=km
new line.13698133 bus1=BBT3812048.1.2.0,bus2=BBT3812055.1.2.0,Phases=2,Linecode=BT801_BT801_4_2_3,Length=0.124961000,Units=km
new line.13707212 bus1=BBT3814918.1.2.0,bus2=BBT3814925.1.2.0,Phases=2,Linecode=BT801_BT801_4_2_3,Length=0.075144000,Units=km
new line.13707226 bus1=BBT3814946.1.2.0,bus2=BBT3814953.1.2.0,Phases=2,Linecode=BT811_BT811_4_2_3,Length=0.079531000,Units=km
new line.13707366 bus1=BBT3814925.1.2.0,bus2=BBT3814932.1.2.0,Phases=2,Linecode=BT801_BT801_4_2_3,Length=0.081197000,Units=km
new line.13707548 bus1=BBT3814988.1.2.0,bus2=BBT7486768.1.2.0,Phases=2,Linecode=BT808_BT808_4_2_3,Length=0.066018000,Units=km
new line.13708913 bus1=BBT3815555.1.2.0,bus2=BBT3815562.1.2.0,Phases=2,Linecode=BT801_BT801_4_2_3,Length=0.114968000,Units=km
new line.13709235 bus1=BBT3815632.1.2.0,bus2=BBT3815646.1.2.0,Phases=2,Linecode=BT801_BT801_4_2_3,Length=0.087116000,Units=km
new line.13717726 bus1=BBT3817893.2.0,bus2=BBT3817907.2.0,Phases=1,Linecode=BT106_BT106_7_1_1,Length=0.079976000,Units=km
new line.13717747 bus1=BBT3817858.1.0,bus2=BBT3817865.1.0,Phases=1,Linecode=BT106_BT106_7_1_1,Length=0.028276000,Units=km
new line.13717943 bus1=BBT3817977.1.0,bus2=BBT3817984.1.0,Phases=1,Linecode=BT106_BT106_7_1_1,Length=0.036045000,Units=km
new line.13717950 bus1=BBT3817984.1.0,bus2=BBT3817991.1.0,Phases=1,Linecode=BT106_BT106_7_1_1,Length=0.079976000,Units=km
new line.13717985 bus1=BBT3817998.1.0,bus2=BBT3818005.1.0,Phases=1,Linecode=BT106_BT106_7_1_1,Length=0.091055000,Units=km
new line.14271188 bus1=BBT4032422.1.2.0,bus2=BBT4032429.1.2.0,Phases=2,Linecode=BT518_BT518_7_2_1,Length=0.000500000,Units=km
new line.14271195 bus1=BBT4032429.1.2.0,bus2=BBT4032436.1.2.0,Phases=2,Linecode=BT808_BT808_4_2_3,Length=0.053290000,Units=km
new line.14276697 bus1=BBT4034116.1.2.0,bus2=BBT4034123.1.2.0,Phases=2,Linecode=BT518_BT518_7_2_1,Length=0.000500000,Units=km
new line.14276907 bus1=BBT4034067.1.2.0,bus2=BBT4034074.1.2.0,Phases=2,Linecode=BT518_BT518_7_2_1,Length=0.000500000,Units=km
new line.14278433 bus1=BBT4034396.1.2.0,bus2=BBT4034403.1.2.0,Phases=2,Linecode=BT518_BT518_7_2_1,Length=0.000500000,Units=km
new line.14455379 bus1=BBT4164848.1.2.0,bus2=BBT4164855.1.2.0,Phases=2,Linecode=BT518_BT518_7_2_1,Length=0.000500000,Units=km
new line.14455386 bus1=BBT4164855.1.2.0,bus2=BBT4165058.1.2.0,Phases=2,Linecode=BT808_BT808_4_2_3,Length=0.027504000,Units=km
new line.14455393 bus1=BBT4164855.1.2.0,bus2=BBT4165065.1.2.0,Phases=2,Linecode=BT808_BT808_4_2_3,Length=0.043996000,Units=km
new line.14455400 bus1=BBT4164708.1.2.0,bus2=BBT4164715.1.2.0,Phases=2,Linecode=BT518_BT518_7_2_1,Length=0.000500000,Units=km
new line.14455659 bus1=BBT4165065.1.2.0,bus2=BBT4165072.1.2.0,Phases=2,Linecode=BT808_BT808_4_2_3,Length=0.051021000,Units=km
new line.14456212 bus1=BBT4165380.1.2.0,bus2=BBT4165387.1.2.0,Phases=2,Linecode=BT518_BT518_7_2_1,Length=0.000500000,Units=km
new line.14456506 bus1=BBT4165534.1.2.0,bus2=BBT4165541.1.2.0,Phases=2,Linecode=BT518_BT518_7_2_1,Length=0.000500000,Units=km
new line.14457038 bus1=BBT4166514.1.2.0,bus2=BBT4166521.1.2.0,Phases=2,Linecode=BT518_BT518_7_2_1,Length=0.000500000,Units=km
new line.14457647 bus1=BBT4166857.1.2.0,bus2=BBT4166864.1.2.0,Phases=2,Linecode=BT518_BT518_7_2_1,Length=0.000500000,Units=km
new line.14457766 bus1=BBT4166976.1.2.0,bus2=BBT4166983.1.2.0,Phases=2,Linecode=BT518_BT518_7_2_1,Length=0.000500000,Units=km
new line.14457864 bus1=BBT4167214.1.2.0,bus2=BBT4167221.1.2.0,Phases=2,Linecode=BT518_BT518_7_2_1,Length=0.000500000,Units=km
new line.14458235 bus1=BBT4168593.1.2.0,bus2=BBT4168600.1.2.0,Phases=2,Linecode=BT518_BT518_7_2_1,Length=0.000500000,Units=km
new line.14460034 bus1=BBT4169685.1.2.0,bus2=BBT4169692.1.2.0,Phases=2,Linecode=BT518_BT518_7_2_1,Length=0.000500000,Units=km
new line.14460076 bus1=BBT4169608.1.2.0,bus2=BBT4169615.1.2.0,Phases=2,Linecode=BT518_BT518_7_2_1,Length=0.000500000,Units=km
new line.14460167 bus1=BBT4169776.1.2.0,bus2=BBT4169783.1.2.0,Phases=2,Linecode=BT518_BT518_7_2_1,Length=0.000500000,Units=km
new line.14460538 bus1=BBT4170385.1.2.0,bus2=BBT4170392.1.2.0,Phases=2,Linecode=BT518_BT518_7_2_1,Length=0.000500000,Units=km
new line.14461147 bus1=BBT4171358.1.2.0,bus2=BBT4171365.1.2.0,Phases=2,Linecode=BT518_BT518_7_2_1,Length=0.000500000,Units=km
new line.14461252 bus1=BBT4171456.1.2.0,bus2=BBT4171463.1.2.0,Phases=2,Linecode=BT518_BT518_7_2_1,Length=0.000500000,Units=km
new line.14461308 bus1=BBT4176006.1.2.0,bus2=BBT4176013.1.2.0,Phases=2,Linecode=BT518_BT518_7_2_1,Length=0.000500000,Units=km
new line.14461315 bus1=BBT4176013.1.2.0,bus2=BBT4176020.1.2.0,Phases=2,Linecode=BT808_BT808_4_2_3,Length=0.073633000,Units=km
new line.14461322 bus1=BBT4176013.1.2.0,bus2=BBT4176034.1.2.0,Phases=2,Linecode=BT808_BT808_4_2_3,Length=0.058876000,Units=km
new line.14461385 bus1=BBT4171484.1.2.0,bus2=BBT4171491.1.2.0,Phases=2,Linecode=BT518_BT518_7_2_1,Length=0.000500000,Units=km
new line.14466544 bus1=BBT4176034.1.2.0,bus2=BBT4176041.1.2.0,Phases=2,Linecode=BT808_BT808_4_2_3,Length=0.057223000,Units=km
new line.14663580 bus1=BBT4363046.1.2.0,bus2=BBT4363067.1.2.0,Phases=2,Linecode=BT808_BT808_4_2_3,Length=0.041327000,Units=km
new line.14663587 bus1=BBT4363032.1.2.0,bus2=BBT4363039.1.2.0,Phases=2,Linecode=BT808_BT808_4_2_3,Length=0.047492000,Units=km
new line.14663685 bus1=BBT4363179.1.2.0,bus2=BBT4363186.1.2.0,Phases=2,Linecode=BT808_BT808_4_2_3,Length=0.038405000,Units=km
new line.14663692 bus1=BBT4363186.1.2.0,bus2=BBT4363193.1.2.0,Phases=2,Linecode=BT808_BT808_4_2_3,Length=0.041216000,Units=km
new line.14663699 bus1=BBT4363186.1.2.0,bus2=BBT4363200.1.2.0,Phases=2,Linecode=BT808_BT808_4_2_3,Length=0.040296000,Units=km
new line.14663706 bus1=BBT4363214.1.2.3.0,bus2=BBT4363221.1.2.3.0,Phases=3,Linecode=BT810_BT810_4_3_4,Length=0.025486000,Units=km
new line.14811532 bus1=BBT4555728.1.2.0,bus2=BBT4555735.1.2.0,Phases=2,Linecode=BT808_BT808_4_2_3,Length=0.029060000,Units=km
new line.14811539 bus1=BBT4555287.1.2.0,bus2=BBT151827673.1.2.0,Phases=2,Linecode=BT808_BT808_4_2_3,Length=0.021627000,Units=km
new line.14811553 bus1=BBT4555679.1.2.0,bus2=BBT4555672.1.2.0,Phases=2,Linecode=BT808_BT808_4_2_3,Length=0.035457000,Units=km
new line.14811560 bus1=BBT4555672.1.2.0,bus2=BBT4555665.1.2.0,Phases=2,Linecode=BT808_BT808_4_2_3,Length=0.035003000,Units=km
new line.14811567 bus1=BBT4555665.1.2.0,bus2=BBT4555658.1.2.0,Phases=2,Linecode=BT808_BT808_4_2_3,Length=0.033050000,Units=km
new line.14811574 bus1=BBT4555658.1.2.0,bus2=BBT4555644.1.2.0,Phases=2,Linecode=BT808_BT808_4_2_3,Length=0.023846000,Units=km
new line.14811581 bus1=BBT4555644.1.2.0,bus2=BBT6602745.1.2.0,Phases=2,Linecode=BT808_BT808_4_2_3,Length=0.032639000,Units=km
new line.14811595 bus1=BBT4555581.1.2.0,bus2=BBT4555609.1.2.0,Phases=2,Linecode=BT808_BT808_4_2_3,Length=0.028311000,Units=km
new line.14811602 bus1=BBT4555609.1.2.0,bus2=BBT4555630.1.2.0,Phases=2,Linecode=BT808_BT808_4_2_3,Length=0.029823000,Units=km
new line.14811609 bus1=BBT4555574.1.2.0,bus2=BBT4555581.1.2.0,Phases=2,Linecode=BT808_BT808_4_2_3,Length=0.022465000,Units=km
new line.14811616 bus1=BBT4555567.1.2.0,bus2=BBT4555574.1.2.0,Phases=2,Linecode=BT518_BT518_7_2_1,Length=0.000500000,Units=km
new line.10569672 bus1=BBT2794675.1.2.0,bus2=BBT2794682.1.2.0,Phases=2,Linecode=BT508_BT508_7_2_1,Length=0.000500000,Units=km
new line.10998121 bus1=BBT3850387.1.2.0,bus2=BBT3850394.1.2.0,Phases=2,Linecode=BT518_BT518_7_2_1,Length=0.000500000,Units=km
new line.10998170 bus1=BBT2887362.1.2.0,bus2=BBT2887369.1.2.0,Phases=2,Linecode=BT518_BT518_7_2_1,Length=0.000500000,Units=km
new line.10998177 bus1=BBT2887369.1.2.0,bus2=BBT3839824.1.2.0,Phases=2,Linecode=BT106_BT106_7_2_1,Length=0.034222000,Units=km
new line.10998212 bus1=BBT2887376.1.2.0,bus2=BBT2887383.1.2.0,Phases=2,Linecode=BT518_BT518_7_2_1,Length=0.000500000,Units=km
new line.10998219 bus1=BBT2887383.1.2.0,bus2=BBT3850464.1.2.0,Phases=2,Linecode=BT106_BT106_7_2_1,Length=0.068422000,Units=km
new line.10998401 bus1=BBT2986132.1.2.0,bus2=BBT2986139.1.2.0,Phases=2,Linecode=BT518_BT518_7_2_1,Length=0.000500000,Units=km