new line.RML10004275 bus1=BBT2301315.1.2.0,bus2=RML1060004275.1.2.0,Phases=2,Linecode=CABBTG05_4_2,Length=0.017000000,Units=km
new line.RML10004604 bus1=BBT2285376.1.2.0,bus2=RML1060004604.1.2.0,Phases=2,Linecode=CABBTG05_4_2,Length=0.017000000,Units=km
new line.RML10005542 bus1=BBT2302043.1.0,bus2=RML1060005542.1.0,Phases=1,Linecode=CABBTG02_4_1,Length=0.017000000,Units=km
new line.RML10007481 bus1=BBT39851688.1.2.0,bus2=RML1060007481.1.2.0,Phases=2,Linecode=CABBTG05_4_2,Length=0.017000000,Units=km
new line.RML10010701 bus1=BBT3441503.1.2.0,bus2=RML1060010701.1.2.0,Phases=2,Linecode=CABBTG04_4_2,Length=0.017000000,Units=km
new line.RML10010715 bus1=BBT2091581.1.2.0,bus2=RML1060010715.1.2.0,Phases=2,Linecode=CABBTG05_4_2,Length=0.017000000,Units=km
new line.RML10010778 bus1=BBT3831704.1.2.0,bus2=RML1060010778.1.2.0,Phases=2,Linecode=CABBTG05_4_2,Length=0.017000000,Units=km
new line.RML10010792 bus1=BBT2285894.1.2.0,bus2=RML1060010792.1.2.0,Phases=2,Linecode=CABBTG04_4_2,Length=0.017000000,Units=km
new line.RML10010799 bus1=BBT2285894.1.2.0,bus2=RML1060010799.1.2.0,Phases=2,Linecode=CABBTG04_4_2,Length=0.017000000,Units=km
new line.RML10020886 bus1=BBT3438780.1.2.0,bus2=RML1060020886.1.2.0,Phases=2,Linecode=CABBTG05_4_2,Length=0.017000000,Units=km
new line.RML10039027 bus1=BBT123903796.1.0,bus2=RML1060039027.1.0,Phases=1,Linecode=CABBTG02_4_1,Length=0.017000000,Units=km
new line.RML10041341 bus1=BBT2284970.1.2.0,bus2=RML1060041341.1.2.0,Phases=2,Linecode=CABBTG05_4_2,Length=0.017000000,Units=km
new line.RML10041344 bus1=BBT2284970.1.2.0,bus2=RML1060041344.1.2.0,Phases=2,Linecode=CABBTG05_4_2,Length=0.017000000,Units=km
new line.RML10046741 bus1=BBT3828456.1.0,bus2=RML1060046741.1.0,Phases=1,Linecode=CABBTG01_4_1,Length=0.017000000,Units=km
new line.RML10046784 bus1=BBT2092939.3.0,bus2=RML1060046784.3.0,Phases=1,Linecode=CABBTG02_4_1,Length=0.017000000,Units=km
new line.RML10046788 bus1=BBT2092862.1.0,bus2=RML1060046788.1.0,Phases=1,Linecode=CABBTG02_4_1,Length=0.017000000,Units=km
new line.RML10062400 bus1=BBT2093730.1.2.0,bus2=RML1060062400.1.2.0,Phases=2,Linecode=CABBTG05_4_2,Length=0.017000000,Units=km
new line.RML10062794 bus1=BBT2093086.1.0,bus2=RML1060062794.1.0,Phases=1,Linecode=CABBTG02_4_1,Length=0.017000000,Units=km
new line.RML10062827 bus1=BBT2093576.1.2.0,bus2=RML1060062827.1.2.0,Phases=2,Linecode=CABBTG05_4_2,Length=0.017000000,Units=km
new line.RML10063062 bus1=BBT2093590.1.2.0,bus2=RML1060063062.1.2.0,Phases=2,Linecode=CABBTG05_4_2,Length=0.017000000,Units=km
new line.RML10064258 bus1=BBT2284032.1.0,bus2=RML1060064258.1.0,Phases=1,Linecode=CABBTG02_4_1,Length=0.017000000,Units=km
new line.RML10064599 bus1=BBT4523423.1.2.0,bus2=RML1060064599.1.2.0,Phases=2,Linecode=CABBTG05_4_2,Length=0.017000000,Units=km
new line.RML10064965 bus1=BBT2091875.2.0,bus2=RML1060064965.2.0,Phases=1,Linecode=CABBTG02_4_1,Length=0.017000000,Units=km
new line.RML10068348 bus1=BBT2302491.1.0,bus2=RML1060068348.1.0,Phases=1,Linecode=CABBTG02_4_1,Length=0.017000000,Units=km
new line.RML10068689 bus1=BBT2285082.1.2.0,bus2=RML1060068689.1.2.0,Phases=2,Linecode=CABBTG05_4_2,Length=0.017000000,Units=km
new line.RML10068809 bus1=BBT2304766.1.0,bus2=RML1060068809.1.0,Phases=1,Linecode=CABBTG02_4_1,Length=0.017000000,Units=km
new line.RML10068881 bus1=BBT2284578.1.0,bus2=RML1060068881.1.0,Phases=1,Linecode=CABBTG02_4_1,Length=0.017000000,Units=km
new line.RML10068883 bus1=BBT3264214.1.0,bus2=RML1060068883.1.0,Phases=1,Linecode=CABBTG02_4_1,Length=0.017000000,Units=km
new line.RML10069152 bus1=BBT41771102.1.2.0,bus2=RML1060069152.1.2.0,Phases=2,Linecode=CABBTG05_4_2,Length=0.017000000,Units=km
new line.RML10069697 bus1=BBT2285012.1.2.0,bus2=RML1060069697.1.2.0,Phases=2,Linecode=CABBTG05_4_2,Length=0.017000000,Units=km
new line.RML10069722 bus1=BBT2302673.1.2.0,bus2=RML1060069722.1.2.0,Phases=2,Linecode=CABBTG05_4_2,Length=0.017000000,Units=km
new line.RML10071395 bus1=BBT3016939.1.2.0,bus2=RML1060071395.1.2.0,Phases=2,Linecode=CABBTG05_4_2,Length=0.017000000,Units=km
new line.RML10076671 bus1=BBT4363179.1.2.0,bus2=RML1060076671.1.2.0,Phases=2,Linecode=CABBTG05_4_2,Length=0.017000000,Units=km
new line.RML10076940 bus1=BBT2093800.1.0,bus2=RML1060076940.1.0,Phases=1,Linecode=CABBTG02_4_1,Length=0.017000000,Units=km
new line.RML10076941 bus1=BBT2091903.1.0,bus2=RML1060076941.1.0,Phases=1,Linecode=CABBTG02_4_1,Length=0.017000000,Units=km
new line.RML10076956 bus1=BBT2093590.1.2.0,bus2=RML1060076956.1.2.0,Phases=2,Linecode=CABBTG05_4_2,Length=0.017000000,Units=km
new line.RML10077591 bus1=BBT2093254.1.2.3.0,bus2=RML1060077591.1.2.3.0,Phases=3,Linecode=CABBTG11_4_3,Length=0.017000000,Units=km
new line.RML10077599 bus1=BBT3441503.2.0,bus2=RML1060077599.2.0,Phases=1,Linecode=CABBTG02_4_1,Length=0.017000000,Units=km
new line.RML10077600 bus1=BBT3441503.1.2.0,bus2=RML1060077600.1.2.0,Phases=2,Linecode=CABBTG05_4_2,Length=0.017000000,Units=km
new line.RML10077604 bus1=BBT2093100.1.2.0,bus2=RML1060077604.1.2.0,Phases=2,Linecode=CABBTG05_4_2,Length=0.017000000,Units=km
new line.RML10078074 bus1=BBT2091574.2.0,bus2=RML1060078074.2.0,Phases=1,Linecode=CABBTG02_4_1,Length=0.017000000,Units=km
new line.RML10078077 bus1=BBT2094185.2.0,bus2=RML1060078077.2.0,Phases=1,Linecode=CABBTG02_4_1,Length=0.017000000,Units=km
new line.RML10079956 bus1=BBT2094969.1.2.0,bus2=RML1060079956.1.2.0,Phases=2,Linecode=CABBTG05_4_2,Length=0.017000000,Units=km
new line.RML10083810 bus1=BBT2093184.1.2.0,bus2=RML1060083810.1.2.0,Phases=2,Linecode=CABBTG05_4_2,Length=0.017000000,Units=km
new line.RML10083916 bus1=BBT2091672.2.0,bus2=RML1060083916.2.0,Phases=1,Linecode=CABBTG02_4_1,Length=0.017000000,Units=km
new line.RML10083920 bus1=BBT4363179.2.0,bus2=RML1060083920.2.0,Phases=1,Linecode=CABBTG02_4_1,Length=0.017000000,Units=km
new line.RML10083945 bus1=BBT2291844.1.2.0,bus2=RML1060083945.1.2.0,Phases=2,Linecode=CABBTG05_4_2,Length=0.017000000,Units=km
new line.RML10086965 bus1=BBT7105233.1.2.0,bus2=RML1060086965.1.2.0,Phases=2,Linecode=CABBTG05_4_2,Length=0.006000000,Units=km
new line.RML10088829 bus1=BBT2284564.1.0,bus2=RML1060088829.1.0,Phases=1,Linecode=CABBTG02_4_1,Length=0.017000000,Units=km
new line.RML10090291 bus1=BBT2093464.1.2.0,bus2=RML1060090291.1.2.0,Phases=2,Linecode=CABBTG05_4_2,Length=0.017000000,Units=km
new line.RML10090379 bus1=BBT3079533.1.2.0,bus2=RML1060090379.1.2.0,Phases=2,Linecode=CABBTG05_4_2,Length=0.017000000,Units=km
new line.RML10090448 bus1=BBT2094437.1.2.0,bus2=RML1060090448.1.2.0,Phases=2,Linecode=CABBTG05_4_2,Length=0.017000000,Units=km
new line.RML10090459 bus1=BBT2092351.2.0,bus2=RML1060090459.2.0,Phases=1,Linecode=CABBTG02_4_1,Length=0.017000000,Units=km
new line.RML10090492 bus1=BBT2092358.1.2.0,bus2=RML1060090492.1.2.0,Phases=2,Linecode=CABBTG05_4_2,Length=0.017000000,Units=km
new line.RML10090877 bus1=BBT3441489.1.2.0,bus2=RML1060090877.1.2.0,Phases=2,Linecode=CABBTG05_4_2,Length=0.017000000,Units=km
new line.RML10091160 bus1=BBT3493800.1.2.0,bus2=RML1060091160.1.2.0,Phases=2,Linecode=CABBTG05_4_2,Length=0.008000000,Units=km
new line.RML10091165 bus1=BBT3263955.2.0,bus2=RML1060091165.2.0,Phases=1,Linecode=CABBTG02_4_1,Length=0.020000000,Units=km
new line.RML10091751 bus1=BBT2092743.1.2.0,bus2=RML1060091751.1.2.0,Phases=2,Linecode=CABBTG05_4_2,Length=0.017000000,Units=km
new line.RML10092138 bus1=BBT2291774.2.0,bus2=RML1060092138.2.0,Phases=1,Linecode=CABBTG02_4_1,Length=0.017000000,Units=km
new line.RML10092367 bus1=BBT2304486.1.2.0,bus2=RML1060092367.1.2.0,Phases=2,Linecode=CABBTG04_4_2,Length=0.017000000,Units=km
new line.RML10092399 bus1=BBT2303793.1.2.0,bus2=RML1060092399.1.2.0,Phases=2,Linecode=CABBTG04_4_2,Length=0.017000000,Units=km
new line.RML10093217 bus1=BBT3809542.1.2.0,bus2=RML1060093217.1.2.0,Phases=2,Linecode=CABBTG05_4_2,Length=0.017000000,Units=km
new line.RML10093260 bus1=BBT3809542.1.2.0,bus2=RML1060093260.1.2.0,Phases=2,Linecode=CABBTG04_4_2,Length=0.017000000,Units=km
new line.RML10093289 bus1=BBT3809542.1.2.0,bus2=RML1060093289.1.2.0,Phases=2,Linecode=CABBTG05_4_2,Length=0.017000000,Units=km
new line.RML10093358 bus1=BBT2283976.1.2.0,bus2=RML1060093358.1.2.0,Phases=2,Linecode=CABBTG04_4_2,Length=0.017000000,Units=km
new line.RML10093490 bus1=BBT4523423.1.2.0,bus2=RML1060093490.1.2.0,Phases=2,Linecode=CABBTG05_4_2,Length=0.017000000,Units=km
new line.RML10093629 bus1=BBT2302491.1.0,bus2=RML1060093629.1.0,Phases=1,Linecode=CABBTG02_4_1,Length=0.017000000,Units=km
new line.RML10093887 bus1=BBT3437002.1.2.0,bus2=RML1060093887.1.2.0,Phases=2,Linecode=CABBTG05_4_2,Length=0.017000000,Units=km
new line.RML10093895 bus1=BBT3437002.1.2.0,bus2=RML1060093895.1.2.0,Phases=2,Linecode=CABBTG05_4_2,Length=0.017000000,Units=km
new line.RML10093935 bus1=BBT3437002.1.2.0,bus2=RML1060093935.1.2.0,Phases=2,Linecode=CABBTG05_4_2,Length=0.017000000,Units=km
new line.RML10093952 bus1=BBT4168600.1.2.0,bus2=RML1060093952.1.2.0,Phases=2,Linecode=CABBTG05_4_2,Length=0.017000000,Units=km
new line.RML10093958 bus1=BBT3437002.1.2.0,bus2=RML1060093958.1.2.0,Phases=2,Linecode=CABBTG05_4_2,Length=0.017000000,Units=km
new line.RML10094615 bus1=BBT4340751.1.2.0,bus2=RML1060094615.1.2.0,Phases=2,Linecode=CABBTG05_4_2,Length=0.017000000,Units=km
new line.RML10094652 bus1=BBT2302491.1.2.0,bus2=RML1060094652.1.2.0,Phases=2,Linecode=CABBTG05_4_2,Length=0.017000000,Units=km
new line.RML10094751 bus1=BBT2093737.1.2.0,bus2=RML1060094751.1.2.0,Phases=2,Linecode=CABBTG05_4_2,Length=0.017000000,Units=km
new line.RML10094800 bus1=BBT2091581.1.2.0,bus2=RML1060094800.1.2.0,Phases=2,Linecode=CABBTG05_4_2,Length=0.017000000,Units=km
new line.RML10094859 bus1=BBT2095109.1.2.0,bus2=RML1060094859.1.2.0,Phases=2,Linecode=CABBTG05_4_2,Length=0.017000000,Units=km
new line.RML10095124 bus1=BBT3079484.1.2.0,bus2=RML1060095124.1.2.0,Phases=2,Linecode=CABBTG05_4_2,Length=0.017000000,Units=km
new line.RML10095425 bus1=BBT3441517.1.2.0,bus2=RML1060095425.1.2.0,Phases=2,Linecode=CABBTG05_4_2,Length=0.017000000,Units=km
new line.RML10151771 bus1=BBT2302491.1.2.0,bus2=RML1060151771.1.2.0,Phases=2,Linecode=CABBTG04_4_2,Length=0.017000000,Units=km
new line.RML10151775 bus1=BBT2340438.1.2.0,bus2=RML1060151775.1.2.0,Phases=2,Linecode=CABBTG04_4_2,Length=0.017000000,Units=km
new line.RML10151784 bus1=BBT2093051.1.2.0,bus2=RML1060151784.1.2.0,Phases=2,Linecode=CABBTG05_4_2,Length=0.017000000,Units=km
new line.RML10151849 bus1=BBT2286090.1.2.0,bus2=RML1060151849.1.2.0,Phases=2,Linecode=CABBTG05_4_2,Length=0.017000000,Units=km
new line.RML10151856 bus1=BBT2093366.1.2.0,bus2=RML1060151856.1.2.0,Phases=2,Linecode=CABBTG05_4_2,Length=0.017000000,Units=km
new line.RML10151867 bus1=BBT2302491.1.2.0,bus2=RML1060151867.1.2.0,Phases=2,Linecode=CABBTG05_4_2,Length=0.017000000,Units=km
new line.RML10152068 bus1=BBT2093926.1.2.0,bus2=RML1060152068.1.2.0,Phases=2,Linecode=CABBTG05_4_2,Length=0.017000000,Units=km
new line.RML10152114 bus1=BBT2334110.1.2.0,bus2=RML1060152114.1.2.0,Phases=2,Linecode=CABBTG05_4_2,Length=0.017000000,Units=km
new line.RML10152137 bus1=BBT3264046.1.2.0,bus2=RML1060152137.1.2.0,Phases=2,Linecode=CABBTG05_4_2,Length=0.017000000,Units=km
new line.RML10152181 bus1=BBT2304017.1.0,bus2=RML1060152181.1.0,Phases=1,Linecode=CABBTG01_4_1,Length=0.017000000,Units=km
new line.RML10152193 bus1=BBT3835036.1.2.0,bus2=RML1060152193.1.2.0,Phases=2,Linecode=CABBTG05_4_2,Length=0.017000000,Units=km
new line.RML10152194 bus1=BBT3434328.1.2.0,bus2=RML1060152194.1.2.0,Phases=2,Linecode=CABBTG05_4_2,Length=0.017000000,Units=km
new line.RML10152416 bus1=BBT2304990.1.0,bus2=RML1060152416.1.0,Phases=1,Linecode=CABBTG02_4_1,Length=0.017000000,Units=km
new line.RML10152995 bus1=BBT2291417.1.2.0,bus2=RML1060152995.1.2.0,Phases=2,Linecode=CABBTG04_4_2,Length=0.017000000,Units=km
new line.RML10153081 bus1=BBT2094164.1.0,bus2=RML1060153081.1.0,Phases=1,Linecode=CABBTG02_4_1,Length=0.017000000,Units=km
new line.RML10153188 bus1=BBT25776606.2.0,bus2=RML1060153188.2.0,Phases=1,Linecode=CABBTG02_4_1,Length=0.017000000,Units=km
new line.RML10153190 bus1=BBT2092722.3.0,bus2=RML1060153190.3.0,Phases=1,Linecode=CABBTG02_4_1,Length=0.017000000,Units=km
new line.RML10153228 bus1=BBT3802479.1.0,bus2=RML1060153228.1.0,Phases=1,Linecode=CABBTG02_4_1,Length=0.017000000,Units=km
new line.RML10153370 bus1=BBT53025086.1.2.0,bus2=RML1060153370.1.2.0,Phases=2,Linecode=CABBTG04_4_2,Length=0.017000000,Units=km
new line.RML10153423 bus1=BBT2094759.1.2.0,bus2=RML1060153423.1.2.0,Phases=2,Linecode=CABBTG04_4_2,Length=0.017000000,Units=km
new line.RML10164632 bus1=BBT3441132.1.0,bus2=RML1060164632.1.0,Phases=1,Linecode=CABBTG02_4_1,Length=0.017000000,Units=km
new line.RML10165492 bus1=BBT149762816.1.2.0,bus2=RML1060165492.1.2.0,Phases=2,Linecode=CABBTG05_4_2,Length=0.017000000,Units=km
new line.RML10167203 bus1=BBT51897449.1.0,bus2=RML1060167203.1.0,Phases=1,Linecode=CABBTG02_4_1,Length=0.017000000,Units=km
new line.RML10177419 bus1=BBT3437009.1.0,bus2=RML1060177419.1.0,Phases=1,Linecode=CABBTG02_4_1,Length=0.017000000,Units=km
new line.RML10181615 bus1=BBT3418326.1.0,bus2=RML1060181615.1.0,Phases=1,Linecode=CABBTG02_4_1,Length=0.017000000,Units=km
new line.RML10184300 bus1=BBT2304500.2.0,bus2=RML1060184300.2.0,Phases=1,Linecode=CABBTG02_4_1,Length=0.017000000,Units=km
new line.RML10186427 bus1=BBT2093065.1.2.3.0,bus2=RML1060186427.1.2.3.0,Phases=3,Linecode=CABBTG07_4_3,Length=0.017000000,Units=km
new line.RML10186436 bus1=BBT2093009.1.2.0,bus2=RML1060186436.1.2.0,Phases=2,Linecode=CABBTG05_4_2,Length=0.017000000,Units=km
new line.RML10187243 bus1=BBT4555658.1.2.0,bus2=RML1060187243.1.2.0,Phases=2,Linecode=CABBTG05_4_2,Length=0.017000000,Units=km
new line.RML10197148 bus1=BBT51897442.1.0,bus2=RML1060197148.1.0,Phases=1,Linecode=CABBTG02_4_1,Length=0.017000000,Units=km
new line.RML10198961 bus1=BBT3534575.1.0,bus2=RML1060198961.1.0,Phases=1,Linecode=CABBTG02_4_1,Length=0.017000000,Units=km
new line.RML10199309 bus1=BBT70400486.1.2.0,bus2=RML1060199309.1.2.0,Phases=2,Linecode=CABBTG05_4_2,Length=0.017000000,Units=km
new line.RML10200235 bus1=BBT2094038.1.0,bus2=RML1060200235.1.0,Phases=1,Linecode=CABBTG02_4_1,Length=0.017000000,Units=km
new line.RML10200763 bus1=BBT2291795.2.0,bus2=RML1060200763.2.0,Phases=1,Linecode=CABBTG02_4_1,Length=0.017000000,Units=km
new line.RML10206700 bus1=BBT3436925.1.0,bus2=RML1060206700.1.0,Phases=1,Linecode=CABBTG02_4_1,Length=0.017000000,Units=km
new line.RML10207304 bus1=BBT2340473.1.2.0,bus2=RML1060207304.1.2.0,Phases=2,Linecode=CABBTG05_4_2,Length=0.017000000,Units=km
new line.RML10208897 bus1=BBT2093030.1.2.0,bus2=RML1060208897.1.2.0,Phases=2,Linecode=CABBTG05_4_2,Length=0.017000000,Units=km
new line.RML10209531 bus1=BBT3079589.1.2.0,bus2=RML1060209531.1.2.0,Phases=2,Linecode=CABBTG05_4_2,Length=0.017000000,Units=km
new line.RML10210031 bus1=BBT53025086.2.0,bus2=RML1060210031.2.0,Phases=1,Linecode=CABBTG02_4_1,Length=0.017000000,Units=km
new line.RML10210179 bus1=BBT2091931.3.0,bus2=RML1060210179.3.0,Phases=1,Linecode=CABBTG02_4_1,Length=0.017000000,Units=km
new line.RML10216831 bus1=BBT2304822.1.0,bus2=RML1060216831.1.0,Phases=1,Linecode=CABBTG02_4_1,Length=0.017000000,Units=km
new line.RML10216845 bus1=BBT3079540.1.2.0,bus2=RML1060216845.1.2.0,Phases=2,Linecode=CABBTG05_4_2,Length=0.017000000,Units=km
new line.RML10219654 bus1=BBT2094500.1.2.3.0,bus2=RML1060219654.1.2.3.0,Phases=3,Linecode=CABBTG06_4_3,Length=0.017000000,Units=km
new line.RML10220019 bus1=BBT2286202.1.0,bus2=RML1060220019.1.0,Phases=1,Linecode=CABBTG02_4_1,Length=0.017000000,Units=km
new line.RML10220453 bus1=BBT2302421.1.2.0,bus2=RML1060220453.1.2.0,Phases=2,Linecode=CABBTG05_4_2,Length=0.017000000,Units=km
new line.RML10221458 bus1=BBT2303639.1.2.0,bus2=RML1060221458.1.2.0,Phases=2,Linecode=CABBTG05_4_2,Length=0.017000000,Units=km
new line.RML10226619 bus1=BBT2283948.1.2.0,bus2=RML1060226619.1.2.0,Phases=2,Linecode=CABBTG05_4_2,Length=0.017000000,Units=km
new line.RML10226621 bus1=BBT2283948.1.2.0,bus2=RML1060226621.1.2.0,Phases=2,Linecode=CABBTG05_4_2,Length=0.017000000,Units=km
new line.RML10226642 bus1=BBT2302995.1.0,bus2=RML1060226642.1.0,Phases=1,Linecode=CABBTG02_4_1,Length=0.017000000,Units=km
new line.RML10229662 bus1=BBT2092645.2.0,bus2=RML1060229662.2.0,Phases=1,Linecode=CABBTG02_4_1,Length=0.017000000,Units=km
new line.RML10236046 bus1=BBT3016946.1.2.0,bus2=RML1060236046.1.2.0,Phases=2,Linecode=CABBTG05_4_2,Length=0.017000000,Units=km
new line.RML10238049 bus1=BBT2094871.1.2.0,bus2=RML1060238049.1.2.0,Phases=2,Linecode=CABBTG05_4_2,Length=0.017000000,Units=km
new line.RML10239256 bus1=BBT7349085.1.0,bus2=RML1060239256.1.0,Phases=1,Linecode=CABBTG02_4_1,Length=0.017000000,Units=km
new line.RML10239496 bus1=BBT3834595.1.0,bus2=RML1060239496.1.0,Phases=1,Linecode=CABBTG02_4_1,Length=0.017000000,Units=km
new line.RML10244337 bus1=BBT2922488.1.2.0,bus2=RML1060244337.1.2.0,Phases=2,Linecode=CABBTG05_4_2,Length=0.017000000,Units=km
new line.RML10248285 bus1=BBT2888083.1.2.0,bus2=RML1060248285.1.2.0,Phases=2,Linecode=CABBTG05_4_2,Length=0.017000000,Units=km
new line.RML10248909 bus1=BBT51897127.2.0,bus2=RML1060248909.2.0,Phases=1,Linecode=CABBTG02_4_1,Length=0.017000000,Units=km
new line.RML10251836 bus1=BBT2094129.1.2.0,bus2=RML1060251836.1.2.0,Phases=2,Linecode=CABBTG05_4_2,Length=0.017000000,Units=km
new line.RML10251840 bus1=BBT83400270.1.2.0,bus2=RML1060251840.1.2.0,Phases=2,Linecode=CABBTG05_4_2,Length=0.017000000,Units=km
new line.RML10252162 bus1=BBT2284900.1.0,bus2=RML1060252162.1.0,Phases=1,Linecode=CABBTG02_4_1,Length=0.017000000,Units=km
new line.RML10252189 bus1=BBT2302379.1.2.0,bus2=RML1060252189.1.2.0,Phases=2,Linecode=CABBTG05_4_2,Length=0.017000000,Units=km
new line.RML10252213 bus1=BBT2093765.1.2.0,bus2=RML1060252213.1.2.0,Phases=2,Linecode=CABBTG05_4_2,Length=0.017000000,Units=km
new line.RML10257689 bus1=BBT3834637.1.0,bus2=RML1060257689.1.0,Phases=1,Linecode=CABBTG02_4_1,Length=0.017000000,Units=km
new line.RML10266348 bus1=BBT3079596.1.2.0,bus2=RML1060266348.1.2.0,Phases=2,Linecode=CABBTG05_4_2,Length=0.017000000,Units=km
new line.RML10266350 bus1=BBT2301693.1.0,bus2=RML1060266350.1.0,Phases=1,Linecode=CABBTG02_4_1,Length=0.017000000,Units=km
new line.RML10266359 bus1=BBT2093639.1.2.0,bus2=RML1060266359.1.2.0,Phases=2,Linecode=CABBTG05_4_2,Length=0.017000000,Units=km
new line.RML10266365 bus1=BBT2093317.1.2.0,bus2=RML1060266365.1.2.0,Phases=2,Linecode=CABBTG05_4_2,Length=0.017000000,Units=km
new line.RML10266369 bus1=BBT2304031.1.2.0,bus2=RML1060266369.1.2.0,Phases=2,Linecode=CABBTG05_4_2,Length=0.017000000,Units=km
new line.RML10267678 bus1=BBT4452345.1.2.0,bus2=RML1060267678.1.2.0,Phases=2,Linecode=CABBTG05_4_2,Length=0.017000000,Units=km
new line.RML10274682 bus1=BBT3878527.2.0,bus2=RML1060274682.2.0,Phases=1,Linecode=CABBTG02_4_1,Length=0.017000000,Units=km
new line.RML10274718 bus1=BBT47855915.1.2.0,bus2=RML1060274718.1.2.0,Phases=2,Linecode=CABBTG05_4_2,Length=0.017000000,Units=km
new line.RML10285035 bus1=BBT2093051.1.2.0,bus2=RML1060285035.1.2.0,Phases=2,Linecode=CABBTG05_4_2,Length=0.017000000,Units=km
new line.RML10292221 bus1=BBT3843835.1.2.0,bus2=RML1060292221.1.2.0,Phases=2,Linecode=CABBTG05_4_2,Length=0.017000000,Units=km
new line.RML10292237 bus1=BBT3431913.2.0,bus2=RML1060292237.2.0,Phases=1,Linecode=CABBTG02_4_1,Length=0.017000000,Units=km
new line.RML10292413 bus1=BBT2305228.2.0,bus2=RML1060292413.2.0,Phases=1,Linecode=CABBTG02_4_1,Length=0.017000000,Units=km
new line.RML10306028 bus1=BBT2303919.1.2.0,bus2=RML1060306028.1.2.0,Phases=2,Linecode=CABBTG05_4_2,Length=0.017000000,Units=km
new line.RML10318161 bus1=BBT3878555.2.0,bus2=RML1060318161.2.0,Phases=1,Linecode=CABBTG02_4_1,Length=0.017000000,Units=km
new line.RML10318172 bus1=BBT4451428.1.0,bus2=RML1060318172.1.0,Phases=1,Linecode=CABBTG02_4_1,Length=0.017000000,Units=km
new line.RML10318409 bus1=BBT3288084.1.2.0,bus2=RML1060318409.1.2.0,Phases=2,Linecode=CABBTG05_4_2,Length=0.017000000,Units=km
new line.RML10322682 bus1=BBT2094227.1.0,bus2=RML1060322682.1.0,Phases=1,Linecode=CABBTG02_4_1,Length=0.017000000,Units=km
new line.RML10324164 bus1=BBT3443351.2.0,bus2=RML1060324164.2.0,Phases=1,Linecode=CABBTG02_4_1,Length=0.017000000,Units=km
new line.RML10330792 bus1=BBT2094913.2.0,bus2=RML1060330792.2.0,Phases=1,Linecode=CABBTG02_4_1,Length=0.017000000,Units=km
new line.RML10331121 bus1=BBT2092344.2.0,bus2=RML1060331121.2.0,Phases=1,Linecode=CABBTG02_4_1,Length=0.017000000,Units=km
new line.RML10331780 bus1=BBT3447796.1.2.0,bus2=RML1060331780.1.2.0,Phases=2,Linecode=CABBTG05_4_2,Length=0.017000000,Units=km
new line.RML10333699 bus1=BBT2094353.1.2.0,bus2=RML1060333699.1.2.0,Phases=2,Linecode=CABBTG05_4_2,Length=0.017000000,Units=km
new line.RML10349069 bus1=BBT122103151.1.2.0,bus2=RML1060349069.1.2.0,Phases=2,Linecode=CABBT811_4_2,Length=0.017000000,Units=km
new line.RML10349071 bus1=BBT3362641.2.3.0,bus2=RML1060349071.2.3.0,Phases=2,Linecode=CABBT811_4_2,Length=0.017000000,Units=km
new line.RML10350368 bus1=BBT4451442.1.2.0,bus2=RML1060350368.1.2.0,Phases=2,Linecode=CABBTG05_4_2,Length=0.017000000,Units=km
new line.RML10350372 bus1=BBT2094843.1.2.0,bus2=RML1060350372.1.2.0,Phases=2,Linecode=CABBTG05_4_2,Length=0.017000000,Units=km
new line.RML10350377 bus1=BBT2092932.3.0,bus2=RML1060350377.3.0,Phases=1,Linecode=CABBTG02_4_1,Length=0.017000000,Units=km
new line.RML10350441 bus1=BBT2095046.1.0,bus2=RML1060350441.1.0,Phases=1,Linecode=CABBTG02_4_1,Length=0.017000000,Units=km
new line.RML10350494 bus1=BBT2305018.1.2.0,bus2=RML1060350494.1.2.0,Phases=2,Linecode=CABBTG05_4_2,Length=0.017000000,Units=km
new line.RML10350496 bus1=BBT2304514.1.2.0,bus2=RML1060350496.1.2.0,Phases=2,Linecode=CABBTG05_4_2,Length=0.017000000,Units=km
new line.RML10350501 bus1=BBT2302911.1.2.0,bus2=RML1060350501.1.2.0,Phases=2,Linecode=CABBTG05_4_2,Length=0.017000000,Units=km
new line.RML10357546 bus1=BBT2093247.1.2.3.0,bus2=RML1060357546.1.2.3.0,Phases=3,Linecode=CABBTG06_4_3,Length=0.017000000,Units=km
new line.RML10357569 bus1=BBT4666622.1.2.0,bus2=RML1060357569.1.2.0,Phases=2,Linecode=CABBTG05_4_2,Length=0.017000000,Units=km
new line.RML10357600 bus1=BBT3437009.1.2.0,bus2=RML1060357600.1.2.0,Phases=2,Linecode=CABBTG05_4_2,Length=0.017000000,Units=km
new line.RML10357644 bus1=BBT2304598.1.2.0,bus2=RML1060357644.1.2.0,Phases=2,Linecode=CABBTG05_4_2,Length=0.017000000,Units=km
new line.RML10365461 bus1=BBT2340459.1.2.0,bus2=RML1060365461.1.2.0,Phases=2,Linecode=CABBTG05_4_2,Length=0.017000000,Units=km
new line.RML10365465 bus1=BBT4523465.2.0,bus2=RML1060365465.2.0,Phases=1,Linecode=CABBTG02_4_1,Length=0.017000000,Units=km
new line.RML10365559 bus1=BBT2091630.1.2.0,bus2=RML1060365559.1.2.0,Phases=2,Linecode=CABBTG05_4_2,Length=0.017000000,Units=km
new line.RML10365606 bus1=BBT2092498.3.0,bus2=RML1060365606.3.0,Phases=1,Linecode=CABBTG02_4_1,Length=0.017000000,Units=km
new line.RML10365664 bus1=BBT51897127.1.0,bus2=RML1060365664.1.0,Phases=1,Linecode=CABBTG02_4_1,Length=0.017000000,Units=km
new line.RML10365668 bus1=BBT3773233.1.2.0,bus2=RML1060365668.1.2.0,Phases=2,Linecode=CABBTG05_4_2,Length=0.017000000,Units=km
new line.RML10365755 bus1=BBT2298732.1.2.0,bus2=RML1060365755.1.2.0,Phases=2,Linecode=CABBTG05_4_2,Length=0.017000000,Units=km
new line.RML10365860 bus1=BBT51897127.2.0,bus2=RML1060365860.2.0,Phases=1,Linecode=CABBTG02_4_1,Length=0.017000000,Units=km
new line.RML10365909 bus1=BBT3441503.1.2.0,bus2=RML1060365909.1.2.0,Phases=2,Linecode=CABBTG05_4_2,Length=0.017000000,Units=km
new line.RML10365914 bus1=BBT3441489.1.2.0,bus2=RML1060365914.1.2.0,Phases=2,Linecode=CABBTG05_4_2,Length=0.017000000,Units=km
new line.RML10365934 bus1=BBT2304850.1.2.0,bus2=RML1060365934.1.2.0,Phases=2,Linecode=CABBTG05_4_2,Length=0.017000000,Units=km
new line.RML10365979 bus1=BBT3441503.1.0,bus2=RML1060365979.1.0,Phases=1,Linecode=CABBTG02_4_1,Length=0.017000000,Units=km
new line.RML10365984 bus1=BBT2302421.1.0,bus2=RML1060365984.1.0,Phases=1,Linecode=CABBTG02_4_1,Length=0.017000000,Units=km
new line.RML10372190 bus1=BBT2093282.1.2.0,bus2=RML1060372190.1.2.0,Phases=2,Linecode=CABBTG13_4_2,Length=0.017000000,Units=km
new line.RML10374762 bus1=BBT3462160.2.0,bus2=RML1060374762.2.0,Phases=1,Linecode=CABBTG02_4_1,Length=0.017000000,Units=km
new line.RML10374834 bus1=BBT3834798.1.0,bus2=RML1060374834.1.0,Phases=1,Linecode=CABBTG02_4_1,Length=0.017000000,Units=km
new line.RML10374889 bus1=BBT2286020.2.0,bus2=RML1060374889.2.0,Phases=1,Linecode=CABBTG02_4_1,Length=0.017000000,Units=km
new line.RML10374904 bus1=BBT2888097.1.2.0,bus2=RML1060374904.1.2.0,Phases=2,Linecode=CABBTG05_4_2,Length=0.017000000,Units=km
new line.RML10374914 bus1=BBT2302911.1.2.0,bus2=RML1060374914.1.2.0,Phases=2,Linecode=CABBTG05_4_2,Length=0.017000000,Units=km
new line.RML10376622 bus1=BBT4363193.2.0,bus2=RML1060376622.2.0,Phases=1,Linecode=CABBTG02_4_1,Length=0.017000000,Units=km
new line.RML10376927 bus1=BBT2094185.1.2.0,bus2=RML1060376927.1.2.0,Phases=2,Linecode=CABBTG05_4_2,Length=0.017000000,Units=km
new line.RML10377069 bus1=BBT2291788.2.0,bus2=RML1060377069.2.0,Phases=1,Linecode=CABBTG02_4_1,Length=0.017000000,Units=km
new line.RML10377136 bus1=BBT2095046.1.2.0,bus2=RML1060377136.1.2.0,Phases=2,Linecode=CABBTG05_4_2,Length=0.017000000,Units=km
new line.RML10377504 bus1=BBT4363039.1.0,bus2=RML1060377504.1.0,Phases=1,Linecode=CABBTG02_4_1,Length=0.017000000,Units=km
new line.RML10377775 bus1=BBT152216126.1.2.0,bus2=RML1060377775.1.2.0,Phases=2,Linecode=CABBTG05_4_2,Length=0.017000000,Units=km
new line.RML10377817 bus1=BBT3354031.1.2.0,bus2=RML1060377817.1.2.0,Phases=2,Linecode=CABBTG05_4_2,Length=0.017000000,Units=km
new line.RML10377822 bus1=BBT41771102.1.2.0,bus2=RML1060377822.1.2.0,Phases=2,Linecode=CABBTG05_4_2,Length=0.017000000,Units=km
new line.RML10377829 bus1=BBT2285880.1.2.0,bus2=RML1060377829.1.2.0,Phases=2,Linecode=CABBTG05_4_2,Length=0.017000000,Units=km
new line.RML10377902 bus1=BBT3534575.1.0,bus2=RML1060377902.1.0,Phases=1,Linecode=CABBTG02_4_1,Length=0.017000000,Units=km
new line.RML10378014 bus1=BBT2094577.1.2.3.0,bus2=RML1060378014.1.2.3.0,Phases=3,Linecode=CABBTG06_4_3,Length=0.017000000,Units=km
new line.RML10378015 bus1=BBT47855915.1.0,bus2=RML1060378015.1.0,Phases=1,Linecode=CABBTG02_4_1,Length=0.017000000,Units=km
new line.RML10379789 bus1=BBT2283934.1.0,bus2=RML1060379789.1.0,Phases=1,Linecode=CABBTG02_4_1,Length=0.017000000,Units=km
new line.RML10379791 bus1=BBT2283976.1.2.0,bus2=RML1060379791.1.2.0,Phases=2,Linecode=CABBTG05_4_2,Length=0.017000000,Units=km
new line.RML10380459 bus1=BBT83413388.1.2.0,bus2=RML1060380459.1.2.0,Phases=2,Linecode=CABBTG05_4_2,Length=0.017000000,Units=km
new line.RML10380512 bus1=BBT83413388.1.0,bus2=RML1060380512.1.0,Phases=1,Linecode=CABBTG02_4_1,Length=0.017000000,Units=km
new line.RML10382429 bus1=BBT3812048.1.2.0,bus2=RML1060382429.1.2.0,Phases=2,Linecode=CABBTG05_4_2,Length=0.017000000,Units=km
new line.RML10382436 bus1=BBT122392265.1.2.0,bus2=RML1060382436.1.2.0,Phases=2,Linecode=CABBTG05_4_2,Length=0.017000000,Units=km
new line.RML10382442 bus1=BBT3436442.1.2.0,bus2=RML1060382442.1.2.0,Phases=2,Linecode=CABBTG05_4_2,Length=0.017000000,Units=km
new line.RML10383103 bus1=BBT2283976.1.0,bus2=RML1060383103.1.0,Phases=1,Linecode=CABBTG02_4_1,Length=0.017000000,Units=km
new line.RML10383109 bus1=BBT2286118.1.0,bus2=RML1060383109.1.0,Phases=1,Linecode=CABBTG02_4_1,Length=0.017000000,Units=km
new line.RML10384704 bus1=BBT2091651.1.0,bus2=RML1060384704.1.0,Phases=1,Linecode=CABBTG02_4_1,Length=0.017000000,Units=km
new line.RML10384967 bus1=BBT2291823.2.0,bus2=RML1060384967.2.0,Phases=1,Linecode=CABBTG02_4_1,Length=0.017000000,Units=km
new line.RML10385004 bus1=BBT2302253.1.2.0,bus2=RML1060385004.1.2.0,Phases=2,Linecode=CABBTG05_4_2,Length=0.017000000,Units=km
new line.RML10386273 bus1=BBT2305564.1.0,bus2=RML1060386273.1.0,Phases=1,Linecode=CABBTG02_4_1,Length=0.017000000,Units=km
new line.RML10386839 bus1=BBT2092645.2.0,bus2=RML1060386839.2.0,Phases=1,Linecode=CABBTG02_4_1,Length=0.017000000,Units=km
new line.RML10386919 bus1=BBT70399856.1.0,bus2=RML1060386919.1.0,Phases=1,Linecode=CABBTG02_4_1,Length=0.017000000,Units=km
new line.RML10395364 bus1=BBT2094934.1.2.0,bus2=RML1060395364.1.2.0,Phases=2,Linecode=CABBTG05_4_2,Length=0.017000000,Units=km
new line.RML10395395 bus1=BBT2093107.1.0,bus2=RML1060395395.1.0,Phases=1,Linecode=CABBTG02_4_1,Length=0.017000000,Units=km
new line.RML10400932 bus1=BBT2095053.1.0,bus2=RML1060400932.1.0,Phases=1,Linecode=CABBTG02_4_1,Length=0.017000000,Units=km
new line.RML10401895 bus1=BBT70399856.1.2.0,bus2=RML1060401895.1.2.0,Phases=2,Linecode=CABBTG05_4_2,Length=0.017000000,Units=km
new line.RML10401907 bus1=BBT2094801.2.0,bus2=RML1060401907.2.0,Phases=1,Linecode=CABBT811_4_1,Length=0.017000000,Units=km
new line.RML10401908 bus1=BBT2305508.2.0,bus2=RML1060401908.2.0,Phases=1,Linecode=CABBT811_4_1,Length=0.017000000,Units=km
new line.RML10401911 bus1=BBT2093436.2.3.0,bus2=RML1060401911.2.3.0,Phases=2,Linecode=CABBT811_4_2,Length=0.017000000,Units=km
new line.RML10401956 bus1=BBT2286475.1.2.0,bus2=RML1060401956.1.2.0,Phases=2,Linecode=CABBTG05_4_2,Length=0.017000000,Units=km
new line.RML10402021 bus1=BBT122392265.1.2.0,bus2=RML1060402021.1.2.0,Phases=2,Linecode=CABBTG05_4_2,Length=0.017000000,Units=km
new line.RML10402080 bus1=BBT2300769.1.0,bus2=RML1060402080.1.0,Phases=1,Linecode=CABBTG02_4_1,Length=0.017000000,Units=km
new line.RML10402103 bus1=BBT2283976.1.0,bus2=RML1060402103.1.0,Phases=1,Linecode=CABBTG02_4_1,Length=0.017000000,Units=km
new line.RML10408066 bus1=BBT3441496.1.2.0,bus2=RML1060408066.1.2.0,Phases=2,Linecode=CABBTG05_4_2,Length=0.017000000,Units=km
new line.RML10409802 bus1=BBT2302547.1.0,bus2=RML1060409802.1.0,Phases=1,Linecode=CABBTG02_4_1,Length=0.017000000,Units=km
new line.RML10409976 bus1=BBT2302547.1.2.0,bus2=RML1060409976.1.2.0,Phases=2,Linecode=CABBTG05_4_2,Length=0.017000000,Units=km
new line.RML10410271 bus1=BBT3163701.1.2.0,bus2=RML1060410271.1.2.0,Phases=2,Linecode=CABBTG05_4_2,Length=0.017000000,Units=km