! manter este comentario para compatibilidade do C#
new circuit.alimUHSG27 bus1=BMT103611720.1.2.3,basekv=13.800000000,pu=1.040000000