new line.12313141 bus1=BBT3752295.1.2.3.0,bus2=BBT4782772.1.2.3.0,Phases=3,Linecode=BT803_BT803_4_3_4,Length=0.016406000,Units=km
new line.12313148 bus1=BBT3752309.1.2.3.0,bus2=BBT3752316.1.2.3.0,Phases=3,Linecode=BT514_BT514_7_3_1,Length=0.000501000,Units=km
new line.13238156 bus1=BBT4128440.1.3.0,bus2=BBT4128447.1.3.0,Phases=2,Linecode=BT503_BT503_5_2_1,Length=0.011184000,Units=km
new line.13238163 bus1=BBT4128440.1.3.0,bus2=BBT4128531.1.3.0,Phases=2,Linecode=BT503_BT503_5_2_1,Length=0.005002000,Units=km
new line.13238170 bus1=BBT4128440.1.3.0,bus2=BBT4128580.1.3.0,Phases=2,Linecode=BT503_BT503_5_2_1,Length=0.009058000,Units=km
new line.13238191 bus1=BBT4128489.1.3.0,bus2=BBT4128496.1.3.0,Phases=2,Linecode=BT503_BT503_5_2_1,Length=0.009222000,Units=km
new line.13238198 bus1=BBT4128489.1.3.0,bus2=BBT4128503.1.3.0,Phases=2,Linecode=BT503_BT503_5_2_1,Length=0.004125000,Units=km
new line.13238226 bus1=BBT4128461.1.3.0,bus2=BBT4128489.1.3.0,Phases=2,Linecode=BT503_BT503_5_2_1,Length=0.008249000,Units=km
new line.13238233 bus1=BBT4128461.1.3.0,bus2=BBT4128482.1.3.0,Phases=2,Linecode=BT503_BT503_5_2_1,Length=0.005387000,Units=km
new line.13238247 bus1=BBT4128447.1.3.0,bus2=BBT4128461.1.3.0,Phases=2,Linecode=BT503_BT503_5_2_1,Length=0.009490000,Units=km
new line.13238289 bus1=BBT4128503.1.3.0,bus2=BBT4128510.1.3.0,Phases=2,Linecode=BT503_BT503_5_2_1,Length=0.004125000,Units=km
new line.13238296 bus1=BBT4128503.1.3.0,bus2=BBT4128517.1.3.0,Phases=2,Linecode=BT503_BT503_5_2_1,Length=0.009058000,Units=km
new line.13238324 bus1=BBT4128510.1.3.0,bus2=BBT4128524.1.3.0,Phases=2,Linecode=BT503_BT503_5_2_1,Length=0.009058000,Units=km
new line.13238401 bus1=BBT4128531.1.3.0,bus2=BBT4128538.1.3.0,Phases=2,Linecode=BT503_BT503_5_2_1,Length=0.008065000,Units=km
new line.13238422 bus1=BBT4128538.1.3.0,bus2=BBT4128545.1.3.0,Phases=2,Linecode=BT503_BT503_5_2_1,Length=0.005002000,Units=km
new line.13238443 bus1=BBT4128545.1.3.0,bus2=BBT4128552.1.3.0,Phases=2,Linecode=BT503_BT503_5_2_1,Length=0.010443000,Units=km
new line.13238464 bus1=BBT4128552.1.3.0,bus2=BBT4128559.1.3.0,Phases=2,Linecode=BT503_BT503_5_2_1,Length=0.010201000,Units=km
new line.13238485 bus1=BBT4128559.1.3.0,bus2=BBT4128573.1.3.0,Phases=2,Linecode=BT503_BT503_5_2_1,Length=0.004244000,Units=km
new line.13238492 bus1=BBT4128559.1.3.0,bus2=BBT4128566.1.3.0,Phases=2,Linecode=BT503_BT503_5_2_1,Length=0.009222000,Units=km
new line.13238548 bus1=BBT4128685.1.3.0,bus2=BBT4128692.1.3.0,Phases=2,Linecode=BT503_BT503_5_2_1,Length=0.008002000,Units=km
new line.13238555 bus1=BBT4128685.1.3.0,bus2=BBT4128734.1.3.0,Phases=2,Linecode=BT503_BT503_5_2_1,Length=0.012373000,Units=km
new line.13238576 bus1=BBT4128580.1.3.0,bus2=BBT4128594.1.3.0,Phases=2,Linecode=BT503_BT503_5_2_1,Length=0.008065000,Units=km
new line.13238583 bus1=BBT4128580.1.3.0,bus2=BBT4128587.1.3.0,Phases=2,Linecode=BT503_BT503_5_2_1,Length=0.005833000,Units=km
new line.13238611 bus1=BBT4128594.1.3.0,bus2=BBT4128601.1.3.0,Phases=2,Linecode=BT503_BT503_5_2_1,Length=0.012045000,Units=km
new line.13238639 bus1=BBT4128608.1.3.0,bus2=BBT4128678.1.3.0,Phases=2,Linecode=BT503_BT503_5_2_1,Length=0.010053000,Units=km
new line.13238646 bus1=BBT4128608.1.3.0,bus2=BBT4128615.1.3.0,Phases=2,Linecode=BT503_BT503_5_2_1,Length=0.007213000,Units=km
new line.13238653 bus1=BBT4128608.1.3.0,bus2=BBT4128650.1.3.0,Phases=2,Linecode=BT503_BT503_5_2_1,Length=0.006327000,Units=km
new line.13238674 bus1=BBT4128678.1.3.0,bus2=BBT4128685.1.3.0,Phases=2,Linecode=BT503_BT503_5_2_1,Length=0.011003000,Units=km
new line.13238681 bus1=BBT4128678.1.3.0,bus2=BBT4128720.1.3.0,Phases=2,Linecode=BT503_BT503_5_2_1,Length=0.007282000,Units=km
new line.13238737 bus1=BBT4128615.1.3.0,bus2=BBT4128622.1.3.0,Phases=2,Linecode=BT503_BT503_5_2_1,Length=0.004125000,Units=km
new line.13238751 bus1=BBT4128622.1.3.0,bus2=BBT4128629.1.3.0,Phases=2,Linecode=BT503_BT503_5_2_1,Length=0.004125000,Units=km
new line.13238779 bus1=BBT4128629.1.3.0,bus2=BBT4128636.1.3.0,Phases=2,Linecode=BT503_BT503_5_2_1,Length=0.008065000,Units=km
new line.13238786 bus1=BBT4128629.1.3.0,bus2=BBT4128664.1.3.0,Phases=2,Linecode=BT503_BT503_5_2_1,Length=0.010443000,Units=km
new line.13238814 bus1=BBT4128636.1.3.0,bus2=BBT4128643.1.3.0,Phases=2,Linecode=BT503_BT503_5_2_1,Length=0.006085000,Units=km
new line.13238849 bus1=BBT4128650.1.3.0,bus2=BBT4128657.1.3.0,Phases=2,Linecode=BT503_BT503_5_2_1,Length=0.004125000,Units=km
new line.13238891 bus1=BBT4128720.1.3.0,bus2=BBT4128727.1.3.0,Phases=2,Linecode=BT503_BT503_5_2_1,Length=0.005002000,Units=km
new line.13238926 bus1=BBT4128664.1.3.0,bus2=BBT4128671.1.3.0,Phases=2,Linecode=BT503_BT503_5_2_1,Length=0.013345000,Units=km
new line.13238968 bus1=BBT4128692.1.3.0,bus2=BBT4128699.1.3.0,Phases=2,Linecode=BT503_BT503_5_2_1,Length=0.007002000,Units=km
new line.13238996 bus1=BBT4128734.1.3.0,bus2=BBT4128741.1.3.0,Phases=2,Linecode=BT503_BT503_5_2_1,Length=0.006085000,Units=km
new line.13239017 bus1=BBT4128741.1.3.0,bus2=BBT4128748.1.3.0,Phases=2,Linecode=BT503_BT503_5_2_1,Length=0.010003000,Units=km
new line.13239059 bus1=BBT4128748.1.3.0,bus2=BBT4128755.1.3.0,Phases=2,Linecode=BT503_BT503_5_2_1,Length=0.008488000,Units=km
new line.13961039 bus1=BBT150175050.1.2.0,bus2=BBT4656639.1.2.0,Phases=2,Linecode=BT521_BT521_5_2_1,Length=0.004125000,Units=km
new line.13961060 bus1=BBT4656639.1.2.0,bus2=BBT4656646.1.2.0,Phases=2,Linecode=BT808_BT808_4_2_3,Length=0.033965000,Units=km
new line.13961067 bus1=BBT4656646.1.2.0,bus2=BBT4656653.1.2.0,Phases=2,Linecode=BT808_BT808_4_2_3,Length=0.047688000,Units=km
new line.13961081 bus1=BBT4656653.1.2.0,bus2=BBT4656660.1.2.0,Phases=2,Linecode=BT808_BT808_4_2_3,Length=0.050172000,Units=km
new line.13961095 bus1=BBT4656660.1.2.0,bus2=BBT4656667.1.2.0,Phases=2,Linecode=BT808_BT808_4_2_3,Length=0.028025000,Units=km
new line.13961102 bus1=BBT4656667.1.2.0,bus2=BBT4656702.1.2.0,Phases=2,Linecode=BT808_BT808_4_2_3,Length=0.032581000,Units=km
new line.13961116 bus1=BBT4656702.1.2.0,bus2=BBT4656709.1.2.0,Phases=2,Linecode=BT808_BT808_4_2_3,Length=0.029025000,Units=km
new line.13961130 bus1=BBT4656709.1.2.0,bus2=BBT4656716.1.2.0,Phases=2,Linecode=BT808_BT808_4_2_3,Length=0.030024000,Units=km
new line.13961144 bus1=BBT4656716.1.2.0,bus2=BBT4656723.1.2.0,Phases=2,Linecode=BT808_BT808_4_2_3,Length=0.031072000,Units=km
new line.13961158 bus1=BBT4656723.1.2.0,bus2=BBT4656730.1.2.0,Phases=2,Linecode=BT808_BT808_4_2_3,Length=0.031153000,Units=km
new line.13961172 bus1=BBT4656730.1.2.0,bus2=BBT4656737.1.2.0,Phases=2,Linecode=BT808_BT808_4_2_3,Length=0.029076000,Units=km
new line.13961186 bus1=BBT4656737.1.2.0,bus2=BBT4656744.1.2.0,Phases=2,Linecode=BT808_BT808_4_2_3,Length=0.022097000,Units=km
new line.13961200 bus1=BBT4648477.1.2.0,bus2=BBT150169797.1.2.0,Phases=2,Linecode=BT807_BT807_4_2_3,Length=0.036888000,Units=km
new line.14204961 bus1=BBT5140927.1.2.0,bus2=BBT4648351.1.2.0,Phases=2,Linecode=BT808_BT808_4_2_3,Length=0.037131000,Units=km
new line.16339170 bus1=BBT20624382.1.2.3.0,bus2=BBT20624389.1.2.3.0,Phases=3,Linecode=BT514_BT514_7_3_1,Length=0.000501000,Units=km
new line.16348256 bus1=BBT20859897.1.2.3.0,bus2=BBT20859904.1.2.3.0,Phases=3,Linecode=BT514_BT514_7_3_1,Length=0.000501000,Units=km
new line.11211026 bus1=BBT3354149.1.2.3.0,bus2=BBT3354156.1.2.3.0,Phases=3,Linecode=BT810_BT810_4_3_4,Length=0.034185000,Units=km
new line.11211138 bus1=BBT3354170.1.2.3.0,bus2=BBT3354177.1.2.3.0,Phases=3,Linecode=BT803_BT803_4_3_4,Length=0.044565000,Units=km
new line.11211166 bus1=BBT3354177.1.2.3.0,bus2=BBT4092663.1.2.3.0,Phases=3,Linecode=BT810_BT810_4_3_4,Length=0.041242000,Units=km
new line.12197445 bus1=BBT4497452.1.2.3.0,bus2=BBT4497459.1.2.3.0,Phases=3,Linecode=BT803_BT803_4_3_4,Length=0.031329000,Units=km
new line.12197452 bus1=BBT4950800.1.2.3.0,bus2=BBT4497452.1.2.3.0,Phases=3,Linecode=BT518_BT518_7_3_1,Length=0.000501000,Units=km
new line.12197473 bus1=BBT4648561.1.2.0,bus2=BBT4648568.1.2.0,Phases=2,Linecode=BT807_BT807_4_2_3,Length=0.038907000,Units=km
new line.12797555 bus1=BBT4026268.1.2.3.0,bus2=BBT2200731.1.2.3.0,Phases=3,Linecode=BT810_BT810_4_3_4,Length=0.024338000,Units=km
new line.12797562 bus1=BBT4026268.1.2.3.0,bus2=BBT4048500.1.2.3.0,Phases=3,Linecode=BT810_BT810_4_3_4,Length=0.026578000,Units=km
new line.14219626 bus1=BBT5178342.1.2.3.0,bus2=BBT5178349.1.2.3.0,Phases=3,Linecode=BT810_BT810_4_3_4,Length=0.036779000,Units=km
new line.14219640 bus1=BBT5178349.1.2.3.0,bus2=BBT5178356.1.2.3.0,Phases=3,Linecode=BT810_BT810_4_3_4,Length=0.021266000,Units=km
new line.18123197 bus1=BBT107556220.1.2.3.0,bus2=BBT107556227.1.2.3.0,Phases=3,Linecode=BT514_BT514_7_3_1,Length=0.000501000,Units=km
new line.18126081 bus1=BBT107644910.1.2.3.0,bus2=BBT2124375.1.2.3.0,Phases=3,Linecode=BT513_BT513_7_3_1,Length=0.000501000,Units=km
new line.18523415 bus1=BBT133018888.1.2.3.0,bus2=BBT133018895.1.2.3.0,Phases=3,Linecode=BT514_BT514_7_3_1,Length=0.000501000,Units=km
new line.18539151 bus1=BBT134041973.1.2.3.0,bus2=BBT134041980.1.2.3.0,Phases=3,Linecode=BT514_BT509_7_3_1,Length=0.000501000,Units=km
new line.18679396 bus1=BBT4756739.1.2.3.0,bus2=BBT139679836.1.2.3.0,Phases=3,Linecode=BT803_BT803_4_3_4,Length=0.024193000,Units=km
new line.18679403 bus1=BBT139679836.1.2.3.0,bus2=BBT139679843.1.2.3.0,Phases=3,Linecode=BT803_BT803_4_3_4,Length=0.029975000,Units=km
new line.18679410 bus1=BBT4756739.1.2.3.0,bus2=BBT139679850.1.2.3.0,Phases=3,Linecode=BT803_BT803_4_3_4,Length=0.039822000,Units=km
new line.18679417 bus1=BBT139679850.1.2.3.0,bus2=BBT139679857.1.2.3.0,Phases=3,Linecode=BT803_BT803_4_3_4,Length=0.019703000,Units=km
new line.18891906 bus1=BBT680128.1.2.3.0,bus2=BBT154217552.1.2.3.0,Phases=3,Linecode=BT803_BT803_4_3_4,Length=0.019215000,Units=km
new line.18985868 bus1=BBT157057592.1.2.3.0,bus2=BBT157057593.1.2.3.0,Phases=3,Linecode=BT514_BT514_7_3_1,Length=0.000501000,Units=km
new line.19155207 bus1=BBT27266325.1.2.3.0,bus2=BBT162828439.1.2.3.0,Phases=3,Linecode=BT513_BT513_5_3_1,Length=0.022810000,Units=km
new line.19155211 bus1=BBT27269160.1.2.3.0,bus2=BBT162828772.1.2.3.0,Phases=3,Linecode=BT513_BT513_5_3_1,Length=0.011184000,Units=km
new line.19155212 bus1=BBT162828772.1.2.3.0,bus2=BBT162829013.1.2.3.0,Phases=3,Linecode=BT505_BT505_5_3_1,Length=0.032289000,Units=km
new line.19155225 bus1=BBT162829013.1.2.3.0,bus2=BBT162829570.1.2.3.0,Phases=3,Linecode=BT505_BT505_5_3_1,Length=0.034938000,Units=km
new line.19155263 bus1=BBT162829570.1.2.3.0,bus2=BBT162831077.1.2.3.0,Phases=3,Linecode=BT505_BT505_5_3_1,Length=0.031057000,Units=km
new line.19155266 bus1=BBT162831077.1.2.3.0,bus2=BBT162831121.1.2.3.0,Phases=3,Linecode=BT505_BT505_5_3_1,Length=0.015269000,Units=km
new line.19155278 bus1=BBT162831121.1.2.3.0,bus2=BBT162831164.1.2.3.0,Phases=3,Linecode=BT505_BT505_5_3_1,Length=0.054604000,Units=km
new line.19155279 bus1=BBT162831164.1.2.3.0,bus2=BBT162831167.1.2.3.0,Phases=3,Linecode=BT505_BT505_5_3_1,Length=0.058265000,Units=km
new line.19155281 bus1=BBT162831167.1.2.3.0,bus2=BBT162831210.1.2.3.0,Phases=3,Linecode=BT505_BT505_5_3_1,Length=0.062658000,Units=km
new line.19155296 bus1=BBT162831210.1.2.3.0,bus2=BBT162831693.1.2.3.0,Phases=3,Linecode=BT505_BT505_5_3_1,Length=0.052186000,Units=km
new line.19155297 bus1=BBT162831693.1.2.3.0,bus2=BBT162831747.1.2.3.0,Phases=3,Linecode=BT505_BT505_5_3_1,Length=0.014426000,Units=km
new line.19155298 bus1=BBT162831747.1.2.3.0,bus2=BBT162831750.1.2.3.0,Phases=3,Linecode=BT505_BT505_5_3_1,Length=0.010443000,Units=km
new line.19155302 bus1=BBT162831750.1.2.3.0,bus2=BBT162832111.1.2.3.0,Phases=3,Linecode=BT505_BT505_5_3_1,Length=0.055728000,Units=km
new line.19155303 bus1=BBT162832111.1.2.3.0,bus2=BBT162832144.1.2.3.0,Phases=3,Linecode=BT505_BT505_5_3_1,Length=0.053174000,Units=km
new line.19155304 bus1=BBT162832144.1.2.3.0,bus2=BBT162832154.1.2.3.0,Phases=3,Linecode=BT505_BT505_5_3_1,Length=0.057504000,Units=km
new line.19155305 bus1=BBT162832154.2.3.0,bus2=BBT162832187.2.3.0,Phases=2,Linecode=BT505_BT505_5_2_1,Length=0.057286000,Units=km
new line.19155314 bus1=BBT162831693.1.2.3.0,bus2=BBT162832429.1.2.3.0,Phases=3,Linecode=BT505_BT505_5_3_1,Length=0.043093000,Units=km
new line.19155315 bus1=BBT162832429.1.2.0,bus2=BBT162832434.1.2.0,Phases=2,Linecode=BT505_BT505_5_2_1,Length=0.033550000,Units=km
new line.19155316 bus1=BBT162831750.1.2.3.0,bus2=BBT162832439.1.2.3.0,Phases=3,Linecode=BT505_BT505_5_3_1,Length=0.041604000,Units=km
new line.19155319 bus1=BBT162832439.1.2.3.0,bus2=BBT162832442.1.2.3.0,Phases=3,Linecode=BT505_BT505_5_3_1,Length=0.032258000,Units=km
new line.19155320 bus1=BBT162832442.1.2.3.0,bus2=BBT162832443.1.2.3.0,Phases=3,Linecode=BT505_BT505_5_3_1,Length=0.038220000,Units=km
new line.19155323 bus1=BBT162832443.1.2.3.0,bus2=BBT162832467.1.2.3.0,Phases=3,Linecode=BT505_BT505_5_3_1,Length=0.019005000,Units=km
new line.19155343 bus1=BBT162832467.1.2.3.0,bus2=BBT162832584.1.2.3.0,Phases=3,Linecode=BT521_BT521_5_3_1,Length=0.043875000,Units=km
new line.19155345 bus1=BBT162832584.1.2.3.0,bus2=BBT162832624.1.2.3.0,Phases=3,Linecode=BT521_BT521_5_3_1,Length=0.051869000,Units=km
new line.19155347 bus1=BBT162832624.1.2.3.0,bus2=BBT162832771.1.2.3.0,Phases=3,Linecode=BT521_BT521_5_3_1,Length=0.060016000,Units=km
new line.19155348 bus1=BBT162832771.1.2.3.0,bus2=BBT162832776.1.2.3.0,Phases=3,Linecode=BT521_BT521_5_3_1,Length=0.027594000,Units=km
new line.19155350 bus1=BBT162832776.1.2.3.0,bus2=BBT162832828.1.2.3.0,Phases=3,Linecode=BT521_BT521_5_3_1,Length=0.027466000,Units=km
new line.19155351 bus1=BBT162832828.1.2.3.0,bus2=BBT162832927.1.2.3.0,Phases=3,Linecode=BT521_BT521_5_3_1,Length=0.028643000,Units=km
new line.19155391 bus1=BBT162832927.1.2.3.0,bus2=BBT162835240.1.2.3.0,Phases=3,Linecode=BT521_BT521_5_3_1,Length=0.005101000,Units=km
new line.19155392 bus1=BBT162832828.1.2.3.0,bus2=BBT162835241.1.2.3.0,Phases=3,Linecode=BT521_BT521_5_3_1,Length=0.005002000,Units=km
new line.19155394 bus1=BBT162832776.1.2.3.0,bus2=BBT162835248.1.2.3.0,Phases=3,Linecode=BT521_BT521_5_3_1,Length=0.004244000,Units=km
new line.19155395 bus1=BBT162832771.1.2.3.0,bus2=BBT162835249.1.2.3.0,Phases=3,Linecode=BT521_BT521_5_3_1,Length=0.005659000,Units=km
new line.19155401 bus1=BBT162832624.1.2.3.0,bus2=BBT162835609.1.2.3.0,Phases=3,Linecode=BT521_BT521_5_3_1,Length=0.005002000,Units=km
new line.19155402 bus1=BBT162832584.1.2.3.0,bus2=BBT162835610.1.2.3.0,Phases=3,Linecode=BT521_BT521_5_3_1,Length=0.005002000,Units=km
new line.19155403 bus1=BBT162832443.1.2.3.0,bus2=BBT162835635.1.2.3.0,Phases=3,Linecode=BT505_BT505_5_3_1,Length=0.006327000,Units=km
new line.12911634 bus1=BBT4050621.1.2.3.0,bus2=BBT4050628.1.2.3.0,Phases=3,Linecode=BT810_BT810_4_3_4,Length=0.035123000,Units=km
new line.12911963 bus1=BBT4050635.1.2.3.0,bus2=BBT4050642.1.2.3.0,Phases=3,Linecode=BT810_BT810_4_3_4,Length=0.036065000,Units=km
new line.12911984 bus1=BBT4050628.1.2.3.0,bus2=BBT4050635.1.2.3.0,Phases=3,Linecode=BT810_BT810_4_3_4,Length=0.035478000,Units=km
new line.16504475 bus1=BBT27266318.1.2.3.0,bus2=BBT27266325.1.2.3.0,Phases=3,Linecode=BT513_BT513_5_3_1,Length=0.023028000,Units=km
new line.16504482 bus1=BBT27266325.1.2.3.0,bus2=BBT27269132.1.2.3.0,Phases=3,Linecode=BT513_BT513_5_3_1,Length=0.023416000,Units=km
new line.16504489 bus1=BBT162828439.1.2.3.0,bus2=BBT27269160.1.2.3.0,Phases=3,Linecode=BT513_BT513_5_3_1,Length=0.018687000,Units=km
new line.16504496 bus1=BBT27266822.1.2.3.0,bus2=BBT27266829.1.2.3.0,Phases=3,Linecode=BT521_BT521_5_3_1,Length=0.012169000,Units=km
new line.16504699 bus1=BBT27269594.1.2.3.0,bus2=BBT27269601.1.2.3.0,Phases=3,Linecode=BT518_BT518_5_3_1,Length=0.005387000,Units=km
new line.16504706 bus1=BBT27269580.1.2.3.0,bus2=BBT27269587.1.2.3.0,Phases=3,Linecode=BT518_BT518_5_3_1,Length=0.005387000,Units=km
new line.16504713 bus1=BBT27266822.1.2.3.0,bus2=BBT27269573.1.2.3.0,Phases=3,Linecode=BT518_BT518_5_3_1,Length=0.014004000,Units=km
new line.16504720 bus1=BBT27269139.1.2.3.0,bus2=BBT27269146.1.2.3.0,Phases=3,Linecode=BT513_BT513_5_3_1,Length=0.025949000,Units=km
new line.16504727 bus1=BBT27269153.1.2.3.0,bus2=BBT27269377.1.2.3.0,Phases=3,Linecode=BT513_BT513_5_3_1,Length=0.025246000,Units=km
new line.16504734 bus1=BBT27269146.1.2.3.0,bus2=BBT27269153.1.2.3.0,Phases=3,Linecode=BT513_BT513_5_3_1,Length=0.005002000,Units=km
new line.16504741 bus1=BBT27269132.1.2.3.0,bus2=BBT27269139.1.2.3.0,Phases=3,Linecode=BT513_BT513_5_3_1,Length=0.005833000,Units=km
new line.16504748 bus1=BBT162829013.1.2.3.0,bus2=BBT27269167.1.2.3.0,Phases=3,Linecode=BT505_BT505_5_3_1,Length=0.005101000,Units=km
new line.16504755 bus1=BBT27269384.1.2.3.0,bus2=BBT27269426.1.2.3.0,Phases=3,Linecode=BT513_BT513_5_3_1,Length=0.027666000,Units=km
new line.16504762 bus1=BBT27269489.1.2.3.0,bus2=BBT27269496.1.2.3.0,Phases=3,Linecode=BT518_BT518_5_3_1,Length=0.024766000,Units=km
new line.16504769 bus1=BBT27269573.1.2.3.0,bus2=BBT27269566.1.2.3.0,Phases=3,Linecode=BT518_BT518_5_3_1,Length=0.005002000,Units=km
new line.16504776 bus1=BBT27269377.1.2.3.0,bus2=BBT27269384.1.2.3.0,Phases=3,Linecode=BT513_BT513_5_3_1,Length=0.005002000,Units=km
new line.16504783 bus1=BBT27269426.1.2.3.0,bus2=BBT27269489.1.2.3.0,Phases=3,Linecode=BT513_BT513_5_3_1,Length=0.004244000,Units=km
new line.16504790 bus1=BBT27269496.1.2.3.0,bus2=BBT27269503.1.2.3.0,Phases=3,Linecode=BT518_BT518_5_3_1,Length=0.005002000,Units=km
new line.16504797 bus1=BBT27269608.1.2.3.0,bus2=BBT27269657.1.2.3.0,Phases=3,Linecode=BT518_BT518_5_3_1,Length=0.005387000,Units=km
new line.16504804 bus1=BBT27269664.1.2.3.0,bus2=BBT27269671.1.2.3.0,Phases=3,Linecode=BT518_BT518_5_3_1,Length=0.007002000,Units=km
new line.16504811 bus1=BBT27269573.1.2.3.0,bus2=BBT27269580.1.2.3.0,Phases=3,Linecode=BT518_BT518_5_3_1,Length=0.032704000,Units=km
new line.16504818 bus1=BBT27269587.1.2.3.0,bus2=BBT27269594.1.2.3.0,Phases=3,Linecode=BT518_BT518_5_3_1,Length=0.027521000,Units=km
new line.16504825 bus1=BBT27269601.1.2.3.0,bus2=BBT27269608.1.2.3.0,Phases=3,Linecode=BT518_BT518_5_3_1,Length=0.025007000,Units=km
new line.16504832 bus1=BBT27269657.1.2.3.0,bus2=BBT27269664.1.2.3.0,Phases=3,Linecode=BT518_BT518_5_3_1,Length=0.021593000,Units=km
new line.16504839 bus1=BBT27269671.1.2.3.0,bus2=BBT27269790.1.2.3.0,Phases=3,Linecode=BT518_BT518_5_3_1,Length=0.027900000,Units=km
new line.16504846 bus1=BBT27269790.1.2.3.0,bus2=BBT27269797.1.2.3.0,Phases=3,Linecode=BT518_BT518_5_3_1,Length=0.005387000,Units=km
new line.17309027 bus1=BBT59523459.1.2.3.0,bus2=BBT59523466.1.2.3.0,Phases=3,Linecode=BT514_BT514_7_3_1,Length=0.000501000,Units=km
new line.2191953 bus1=BBT684517.1.2.3.0,bus2=BBT684524.1.2.3.0,Phases=3,Linecode=BT514_BT514_7_3_1,Length=0.000501000,Units=km
new line.2192177 bus1=BBT4497417.1.2.0,bus2=BBT4497424.1.2.0,Phases=2,Linecode=BT808_BT808_4_2_3,Length=0.041120000,Units=km
new line.2192212 bus1=BBT684594.1.2.3.0,bus2=BBT4497417.1.2.3.0,Phases=3,Linecode=BT810_BT810_4_3_4,Length=0.033550000,Units=km
new line.2192261 bus1=BBT104999274.1.2.3.0,bus2=BBT684601.1.2.3.0,Phases=3,Linecode=BT803_BT803_4_3_4,Length=0.020621000,Units=km
new line.2192310 bus1=BBT684601.1.2.3.0,bus2=BBT684608.1.2.3.0,Phases=3,Linecode=BT810_BT810_4_3_4,Length=0.029841000,Units=km
new line.2192359 bus1=BBT684615.1.2.3.0,bus2=BBT4733401.1.2.3.0,Phases=3,Linecode=BT810_BT810_4_3_4,Length=0.033847000,Units=km
new line.2192387 bus1=BBT684608.1.2.3.0,bus2=BBT684622.1.2.3.0,Phases=3,Linecode=BT810_BT810_4_3_4,Length=0.028643000,Units=km
new line.2192408 bus1=BBT684622.1.2.3.0,bus2=BBT684629.1.2.3.0,Phases=3,Linecode=BT810_BT810_4_3_4,Length=0.028869000,Units=km
new line.2192443 bus1=BBT684636.1.2.3.0,bus2=BBT684615.1.2.3.0,Phases=3,Linecode=BT810_BT810_4_3_4,Length=0.035856000,Units=km
new line.2192478 bus1=BBT684629.1.2.3.0,bus2=BBT684643.1.2.3.0,Phases=3,Linecode=BT810_BT810_4_3_4,Length=0.031056000,Units=km
new line.2192513 bus1=BBT684650.1.2.3.0,bus2=BBT684636.1.2.3.0,Phases=3,Linecode=BT803_BT803_4_3_4,Length=0.033965000,Units=km
new line.2192520 bus1=BBT684587.1.2.3.0,bus2=BBT684650.1.2.3.0,Phases=3,Linecode=BT313_BT313_7_3_1,Length=0.000501000,Units=km
new line.2192527 bus1=BBT684650.1.2.3.0,bus2=BBT684664.1.2.3.0,Phases=3,Linecode=BT803_BT803_4_3_4,Length=0.036148000,Units=km
new line.2192555 bus1=BBT684643.1.2.3.0,bus2=BBT153408896.1.2.3.0,Phases=3,Linecode=BT810_BT810_4_3_4,Length=0.026914000,Units=km
new line.2192590 bus1=BBT684664.1.2.3.0,bus2=BBT684685.1.2.3.0,Phases=3,Linecode=BT803_BT803_4_3_4,Length=0.032288000,Units=km
new line.2192604 bus1=BBT684671.1.2.3.0,bus2=BBT684657.1.2.3.0,Phases=3,Linecode=BT810_BT810_4_3_4,Length=0.056618000,Units=km
new line.2192625 bus1=BBT684678.1.2.3.0,bus2=BBT684671.1.2.3.0,Phases=3,Linecode=BT810_BT810_4_3_4,Length=0.035786000,Units=km
new line.2192646 bus1=BBT684685.1.2.3.0,bus2=BBT684699.1.2.3.0,Phases=3,Linecode=BT810_BT810_4_3_4,Length=0.032211000,Units=km
new line.2192653 bus1=BBT684685.1.2.3.0,bus2=BBT684720.1.2.3.0,Phases=3,Linecode=BT803_BT803_4_3_4,Length=0.037865000,Units=km
new line.2192688 bus1=BBT684699.1.2.3.0,bus2=BBT684713.1.2.3.0,Phases=3,Linecode=BT810_BT810_4_3_4,Length=0.030008000,Units=km
new line.2192716 bus1=BBT684706.1.2.3.0,bus2=BBT684678.1.2.3.0,Phases=3,Linecode=BT810_BT810_4_3_4,Length=0.035123000,Units=km
new line.2192723 bus1=BBT684706.1.2.0,bus2=BBT684692.1.2.0,Phases=2,Linecode=BT107_BT107_7_2_1,Length=0.012534000,Units=km
new line.2192744 bus1=BBT684713.1.2.3.0,bus2=BBT684706.1.2.3.0,Phases=3,Linecode=BT810_BT810_4_3_4,Length=0.024048000,Units=km
new line.2192765 bus1=BBT684720.1.2.3.0,bus2=BBT684727.1.2.3.0,Phases=3,Linecode=BT803_BT803_4_3_4,Length=0.030091000,Units=km
new line.2192793 bus1=BBT684727.1.2.3.0,bus2=BBT684734.1.2.3.0,Phases=3,Linecode=BT803_BT803_4_3_4,Length=0.035744000,Units=km
new line.2192828 bus1=BBT684734.1.2.3.0,bus2=BBT684741.1.2.3.0,Phases=3,Linecode=BT803_BT803_4_3_4,Length=0.032658000,Units=km
new line.2192835 bus1=BBT684734.1.2.3.0,bus2=BBT3354149.1.2.3.0,Phases=3,Linecode=BT810_BT810_4_3_4,Length=0.037373000,Units=km
new line.2192856 bus1=BBT684741.1.2.3.0,bus2=BBT684748.1.2.3.0,Phases=3,Linecode=BT803_BT803_4_3_4,Length=0.043612000,Units=km
new line.11434501 bus1=BBT3424009.1.2.3.0,bus2=BBT3424002.1.2.3.0,Phases=3,Linecode=BT810_BT810_4_3_4,Length=0.041047000,Units=km
new line.11434529 bus1=BBT3424016.1.2.3.0,bus2=BBT3424009.1.2.3.0,Phases=3,Linecode=BT810_BT810_4_3_4,Length=0.038429000,Units=km
new line.11434557 bus1=BBT3424023.1.2.3.0,bus2=BBT3424016.1.2.3.0,Phases=3,Linecode=BT810_BT810_4_3_4,Length=0.047182000,Units=km
new line.11434585 bus1=BBT27266304.1.2.3.0,bus2=BBT3424023.1.2.3.0,Phases=3,Linecode=BT518_BT518_7_3_1,Length=0.000501000,Units=km
new line.11434592 bus1=BBT3424023.1.2.3.0,bus2=BBT164890115.1.2.3.0,Phases=3,Linecode=BT810_BT810_4_3_4,Length=0.020621000,Units=km
new line.11434599 bus1=BBT3424023.1.2.3.0,bus2=BBT27266318.1.2.3.0,Phases=3,Linecode=BT513_BT513_5_3_1,Length=0.008488000,Units=km
new line.11434620 bus1=BBT3424030.1.2.3.0,bus2=BBT4014599.1.2.3.0,Phases=3,Linecode=BT810_BT810_4_3_4,Length=0.024358000,Units=km
new line.11986171 bus1=BBT3619596.1.2.3.0,bus2=BBT3619603.1.2.3.0,Phases=3,Linecode=BT514_BT514_7_3_1,Length=0.000501000,Units=km
new line.13827080 bus1=BBT4476655.1.2.3.0,bus2=BBT4520286.1.2.3.0,Phases=3,Linecode=BT514_BT509_7_3_1,Length=0.000501000,Units=km
new line.17059904 bus1=BBT45903139.1.2.3.0,bus2=BBT45903146.1.2.3.0,Phases=3,Linecode=BT514_BT514_7_3_1,Length=0.000501000,Units=km
new line.18865750 bus1=BBT4497410.1.2.0,bus2=BBT153408076.1.2.0,Phases=2,Linecode=BT808_BT808_4_2_3,Length=0.031008000,Units=km
new line.18933052 bus1=BBT155605507.1.2.3.0,bus2=BBT4497445.1.2.3.0,Phases=3,Linecode=BT803_BT803_4_3_4,Length=0.025027000,Units=km
new line.18933084 bus1=BBT155605845.1.2.3.0,bus2=BBT155605846.1.2.3.0,Phases=3,Linecode=BT514_BT514_7_3_1,Length=0.000501000,Units=km
new line.19212871 bus1=BBT164890115.1.2.3.0,bus2=BBT3424030.1.2.3.0,Phases=3,Linecode=BT810_BT810_4_3_4,Length=0.020254000,Units=km
new line.19212882 bus1=BBT164890752.1.2.3.0,bus2=BBT164890753.1.2.3.0,Phases=3,Linecode=BT514_BT514_7_3_1,Length=0.000501000,Units=km
new line.6744837 bus1=BBT2151626.1.2.3.0,bus2=BBT4809624.1.2.3.0,Phases=3,Linecode=BT803_BT803_4_3_4,Length=0.028800000,Units=km
new line.6744865 bus1=BBT2151633.1.2.3.0,bus2=BBT2151626.1.2.3.0,Phases=3,Linecode=BT803_BT803_4_3_4,Length=0.030814000,Units=km
new line.6744907 bus1=BBT4723468.1.2.3.0,bus2=BBT2151633.1.2.3.0,Phases=3,Linecode=BT803_BT803_4_3_4,Length=0.029436000,Units=km
new line.6744928 bus1=BBT2151640.1.2.3.0,bus2=BBT4723468.1.2.3.0,Phases=3,Linecode=BT803_BT803_4_3_4,Length=0.031024000,Units=km
new line.6744949 bus1=BBT2151647.1.2.3.0,bus2=BBT2151640.1.2.3.0,Phases=3,Linecode=BT803_BT803_4_3_4,Length=0.030008000,Units=km
new line.6744956 bus1=BBT2151647.1.2.3.0,bus2=BBT4723461.1.2.3.0,Phases=3,Linecode=BT803_BT803_4_3_4,Length=0.031024000,Units=km
new line.6744984 bus1=BBT4723461.1.2.3.0,bus2=BBT2151654.1.2.3.0,Phases=3,Linecode=BT803_BT803_4_3_4,Length=0.033145000,Units=km
new line.6745005 bus1=BBT2151654.1.2.3.0,bus2=BBT2151661.1.2.3.0,Phases=3,Linecode=BT803_BT803_4_3_4,Length=0.033145000,Units=km
new line.6745033 bus1=BBT2151661.1.2.3.0,bus2=BBT2151668.1.2.3.0,Phases=3,Linecode=BT803_BT803_4_3_4,Length=0.034068000,Units=km
new line.6745061 bus1=BBT2151668.1.2.3.0,bus2=BBT2151675.1.2.3.0,Phases=3,Linecode=BT803_BT803_4_3_4,Length=0.035138000,Units=km
new line.6748029 bus1=BBT2152487.1.2.3.0,bus2=BBT2119860.1.2.3.0,Phases=3,Linecode=BT803_BT803_4_3_4,Length=0.036245000,Units=km
new line.6748036 bus1=BBT2124375.1.2.3.0,bus2=BBT2152487.1.2.3.0,Phases=3,Linecode=BT803_BT803_4_3_4,Length=0.042023000,Units=km
new line.6748064 bus1=BBT2152487.1.2.3.0,bus2=BBT107645113.1.2.3.0,Phases=3,Linecode=BT803_BT803_4_3_4,Length=0.032024000,Units=km
new line.6748092 bus1=BBT2152501.1.2.3.0,bus2=BBT2152494.1.2.3.0,Phases=3,Linecode=BT803_BT803_4_3_4,Length=0.032765000,Units=km
new line.6748099 bus1=BBT2152473.1.2.3.0,bus2=BBT2152522.1.2.3.0,Phases=3,Linecode=BT513_BT513_7_3_1,Length=0.000501000,Units=km
new line.6748106 bus1=BBT2152508.1.2.3.0,bus2=BBT2152501.1.2.3.0,Phases=3,Linecode=BT803_BT803_4_3_4,Length=0.031057000,Units=km
new line.6748141 bus1=BBT2152515.1.2.3.0,bus2=BBT2152508.1.2.3.0,Phases=3,Linecode=BT803_BT803_4_3_4,Length=0.034938000,Units=km
new line.6748169 bus1=BBT2152522.1.2.3.0,bus2=BBT2152515.1.2.3.0,Phases=3,Linecode=BT803_BT803_4_3_4,Length=0.027900000,Units=km
new line.6748190 bus1=BBT2152522.1.2.3.0,bus2=BBT2152529.1.2.3.0,Phases=3,Linecode=BT803_BT803_4_3_4,Length=0.032024000,Units=km
new line.6748211 bus1=BBT2152529.1.2.3.0,bus2=BBT2152536.1.2.3.0,Phases=3,Linecode=BT803_BT803_4_3_4,Length=0.031789000,Units=km
new line.6748232 bus1=BBT2152536.1.2.3.0,bus2=BBT2152550.1.2.3.0,Phases=3,Linecode=BT803_BT803_4_3_4,Length=0.031057000,Units=km
new line.6978581 bus1=BBT2220422.1.2.3.0,bus2=BBT2220415.1.2.3.0,Phases=3,Linecode=BT805_BT805_4_3_4,Length=0.018687000,Units=km
new line.6978623 bus1=BBT2220436.1.2.3.0,bus2=BBT2220422.1.2.3.0,Phases=3,Linecode=BT805_BT805_4_3_4,Length=0.022810000,Units=km
new line.6978672 bus1=BBT2220443.1.2.3.0,bus2=BBT2220436.1.2.3.0,Phases=3,Linecode=BT805_BT805_4_3_4,Length=0.034214000,Units=km
new line.6978693 bus1=BBT2220450.1.2.3.0,bus2=BBT2220443.1.2.3.0,Phases=3,Linecode=BT805_BT805_4_3_4,Length=0.032658000,Units=km
new line.6978700 bus1=BBT2220380.1.2.3.0,bus2=BBT2220450.1.2.3.0,Phases=3,Linecode=BT514_BT514_7_3_1,Length=0.000501000,Units=km
new line.6978707 bus1=BBT2220450.1.2.3.0,bus2=BBT2220457.1.2.3.0,Phases=3,Linecode=BT805_BT805_4_3_4,Length=0.034214000,Units=km
new line.6978735 bus1=BBT2220457.1.2.3.0,bus2=BBT2220471.1.2.3.0,Phases=3,Linecode=BT805_BT805_4_3_4,Length=0.032658000,Units=km
new line.6978763 bus1=BBT2220464.1.2.3.0,bus2=BBT2215221.1.2.3.0,Phases=3,Linecode=BT803_BT803_4_3_4,Length=0.027594000,Units=km
new line.6978791 bus1=BBT2220471.1.2.3.0,bus2=BBT2220478.1.2.3.0,Phases=3,Linecode=BT805_BT805_4_3_4,Length=0.026256000,Units=km
new line.6978812 bus1=BBT2220478.1.2.3.0,bus2=BBT2220464.1.2.3.0,Phases=3,Linecode=BT803_BT803_4_3_4,Length=0.027666000,Units=km
new line.6978819 bus1=BBT2220478.1.2.3.0,bus2=BBT2221346.1.2.3.0,Phases=3,Linecode=BT803_BT803_4_3_4,Length=0.029077000,Units=km
new line.6981360 bus1=BBT2221304.1.2.3.0,bus2=BBT2221297.1.2.3.0,Phases=3,Linecode=BT805_BT805_4_3_4,Length=0.024846000,Units=km
new line.6981367 bus1=BBT4972304.1.2.3.0,bus2=BBT2221304.1.2.3.0,Phases=3,Linecode=BT514_BT514_7_3_1,Length=0.000501000,Units=km
new line.6981374 bus1=BBT2221304.1.2.3.0,bus2=BBT4972745.1.2.3.0,Phases=3,Linecode=BT514_BT509_5_3_1,Length=0.005002000,Units=km
new line.6981423 bus1=BBT2221304.1.2.3.0,bus2=BBT108670207.1.2.3.0,Phases=3,Linecode=BT805_BT805_4_3_4,Length=0.024214000,Units=km
new line.6981451 bus1=BBT2221332.1.2.3.0,bus2=BBT2221318.1.2.3.0,Phases=3,Linecode=BT805_BT805_4_3_4,Length=0.033430000,Units=km
new line.6981458 bus1=BBT2221276.1.2.3.0,bus2=BBT2221332.1.2.3.0,Phases=3,Linecode=BT514_BT514_7_3_1,Length=0.000501000,Units=km
new line.6981465 bus1=BBT2221332.1.2.3.0,bus2=BBT2221339.1.2.3.0,Phases=3,Linecode=BT805_BT805_4_3_4,Length=0.032658000,Units=km
new line.6981500 bus1=BBT2221339.1.2.3.0,bus2=BBT2221353.1.2.3.0,Phases=3,Linecode=BT805_BT805_4_3_4,Length=0.033430000,Units=km
new line.6981542 bus1=BBT2221353.1.2.3.0,bus2=BBT2221367.1.2.3.0,Phases=3,Linecode=BT810_BT810_4_3_4,Length=0.038959000,Units=km
new line.6981563 bus1=BBT2221346.1.2.3.0,bus2=BBT107555492.1.2.3.0,Phases=3,Linecode=BT803_BT803_4_3_4,Length=0.025502000,Units=km
new line.16871219 bus1=BBT2249955.1.2.0,bus2=BBT38536724.1.2.0,Phases=2,Linecode=BT503_BT503_5_2_1,Length=0.004125000,Units=km
new line.16871233 bus1=BBT38536724.1.2.0,bus2=BBT38536829.1.2.0,Phases=2,Linecode=BT503_BT503_5_2_1,Length=0.031393000,Units=km
new line.16871240 bus1=BBT38536829.1.2.0,bus2=BBT38536836.1.2.0,Phases=2,Linecode=BT503_BT503_5_2_1,Length=0.012045000,Units=km
new line.16871247 bus1=BBT38536836.1.2.0,bus2=BBT38536843.1.2.0,Phases=2,Linecode=BT503_BT503_5_2_1,Length=0.012087000,Units=km