new line.TR12217851 bus1=BMT154395112.1.2.3,bus2=BMT154395113.1.2.3,Phases=3,Linecode=CABA06_3_3,Length=0.031008000,Units=km
new line.TR12255156 bus1=BMT165597330.1.2.3,bus2=BMT8856779B.1.2.3,Phases=3,Linecode=CABA08_3_3,Length=0.019032000,Units=km
new line.TR12255157 bus1=BMT8856779B.1.2.3,bus2=BMT165597329.1.2.3,Phases=3,Linecode=CABA08_3_3,Length=0.005659000,Units=km
new line.TR12255158 bus1=BMT165597329.1.2.3,bus2=BMT8856781B.1.2.3,Phases=3,Linecode=CABA08_3_3,Length=0.038023000,Units=km
new line.TR12255160 bus1=BMT8856781B.1.2.3,bus2=BMT164634173.1.2.3,Phases=3,Linecode=CABA08_3_3,Length=0.031073000,Units=km
new line.TR12255161 bus1=BMT165597331.1.2.3,bus2=BMT165597329.1.2.3,Phases=3,Linecode=CABA08_3_3,Length=0.029841000,Units=km
new line.TR12331247 bus1=BMT8932562B.1.2.3,bus2=BMT161468467.1.2.3,Phases=3,Linecode=CABA08_3_3,Length=0.035702000,Units=km
new line.TR12331257 bus1=BMT165638111.1.2.3,bus2=BMT165638112.1.2.3,Phases=3,Linecode=CABA08_3_3,Length=0.020030000,Units=km
new line.TR12331262 bus1=BMT165640891.1.2.3,bus2=BMT165640892.1.2.3,Phases=3,Linecode=CAB611_3_3,Length=0.047720000,Units=km
new line.TR12332643 bus1=BMT8933901B.1.2.3,bus2=BMT8932562B.1.2.3,Phases=3,Linecode=CABA08_3_3,Length=0.036779000,Units=km
new line.TR12332645 bus1=BMT165637103.1.2.3,bus2=BMT8933901B.1.2.3,Phases=3,Linecode=CABA08_3_3,Length=0.036245000,Units=km
new line.TR12332647 bus1=BMT8933906B.1.2.3,bus2=BMT164495954.1.2.3,Phases=3,Linecode=CABA08_3_3,Length=0.043197000,Units=km
new line.TR12332651 bus1=BMT8933911B.1.2.3,bus2=BMT8933909B.1.2.3,Phases=3,Linecode=CABA08_3_3,Length=0.043197000,Units=km
new line.TR12332653 bus1=BMT8933914B.1.2.3,bus2=BMT8933911B.1.2.3,Phases=3,Linecode=CABA08_3_3,Length=0.041120000,Units=km
new line.TR12479561 bus1=BMT8932567B.1.2.3,bus2=BMT165638115.1.2.3,Phases=3,Linecode=CABA08_3_3,Length=0.024006000,Units=km
new line.TR12479567 bus1=BMT164495961.1.2.3,bus2=BMT165640891.1.2.3,Phases=3,Linecode=CAB611_3_3,Length=0.005002000,Units=km
new line.TR12479573 bus1=BMT9089524B.1.2.3,bus2=BMT8932567B.1.2.3,Phases=3,Linecode=CABA08_3_3,Length=0.017005000,Units=km
new line.TR12479583 bus1=BMT9089537B.1.2.3,bus2=BMT9089524B.1.2.3,Phases=3,Linecode=CABA08_3_3,Length=0.016283000,Units=km
new line.TR12479588 bus1=BMT9089540B.1.2.3,bus2=BMT9089537B.1.2.3,Phases=3,Linecode=CABA08_3_3,Length=0.041011000,Units=km
new line.TR12479591 bus1=BMT9089543B.1.2.3,bus2=BMT9089540B.1.2.3,Phases=3,Linecode=CABA08_3_3,Length=0.044023000,Units=km
new line.TR12479643 bus1=BMT165638112.1.2.3,bus2=BMT165638113.1.2.3,Phases=3,Linecode=CABA08_3_3,Length=0.022029000,Units=km
new line.TR12479645 bus1=BMT165638113.1.2.3,bus2=BMT9089543B.1.2.3,Phases=3,Linecode=CABA08_3_3,Length=0.035023000,Units=km
new line.TR12479679 bus1=BMT161468467.1.2.3,bus2=BMT164495956.1.2.3,Phases=3,Linecode=CABA08_3_3,Length=0.026007000,Units=km
new line.TR12479680 bus1=BMT164495956.1.2.3,bus2=BMT164495957.1.2.3,Phases=3,Linecode=CABA08_3_3,Length=0.021006000,Units=km
new line.TR12480367 bus1=BMT8963758B.1.2.3,bus2=BMT171281810.1.2.3,Phases=3,Linecode=CABA08_3_3,Length=0.035365000,Units=km
new line.TR12480371 bus1=BMT171281810.1.2.3,bus2=BMT593951C.1.2.3,Phases=3,Linecode=CABA08_3_3,Length=0.036134000,Units=km
new line.TR12480373 bus1=BMT593951C.1.2.3,bus2=BMT171281811.1.2.3,Phases=3,Linecode=CABA08_3_3,Length=0.021593000,Units=km
new line.TR12480375 bus1=BMT171281811.1.2.3,bus2=BMT8933914B.1.2.3,Phases=3,Linecode=CABA08_3_3,Length=0.046767000,Units=km
new line.TR12559217 bus1=BMT164890259.1.2.3,bus2=BMT164890260.1.2.3,Phases=3,Linecode=CABA06_3_3,Length=0.020254000,Units=km
new line.TR12559218 bus1=BMT164890470.1.2.3,bus2=BMT164890471.1.2.3,Phases=3,Linecode=CABA06_3_3,Length=0.020621000,Units=km
new line.TR12559224 bus1=BMT166407282.1.2.3,bus2=BMT166407283.1.2.3,Phases=3,Linecode=CAB609_3_3,Length=0.009437000,Units=km
new line.TR12559229 bus1=BMT166407283.1.2.3,bus2=BMT166407284.1.2.3,Phases=3,Linecode=CAB609_3_3,Length=0.021101000,Units=km
new line.TR12631089 bus1=BMT167747846.1.2.3,bus2=BMT167747847.1.2.3,Phases=3,Linecode=CABA06_3_3,Length=0.005002000,Units=km
new line.TR12631090 bus1=BMT167747847.1.2.3,bus2=BMT167747848.1.2.3,Phases=3,Linecode=CAB609_3_3,Length=0.012003000,Units=km
new line.TR12632077 bus1=BMT169632785.1.2.3,bus2=BMT1799582B.1.2.3,Phases=3,Linecode=CAB907_4_3,Length=0.035449000,Units=km
new line.TR2942045 bus1=BMT158942478.1.2.3,bus2=BMT158942479.1.2.3,Phases=3,Linecode=CABA06_3_3,Length=0.031409000,Units=km
new line.TR2942073 bus1=BMT1771211B.1.2.3,bus2=BMT158942478.1.2.3,Phases=3,Linecode=CABA06_3_3,Length=0.032024000,Units=km
new line.TR2942094 bus1=BMT1771218B.1.2.3,bus2=BMT1878773B.1.2.3,Phases=3,Linecode=CABA08_3_3,Length=0.027594000,Units=km
new line.TR2942115 bus1=BMT1771225B.1.2.3,bus2=BMT1771211B.1.2.3,Phases=3,Linecode=CABA06_3_3,Length=0.029841000,Units=km
new line.TR2942143 bus1=BMT158942465.1.2.3,bus2=BMT1771218B.1.2.3,Phases=3,Linecode=CABA08_3_3,Length=0.026256000,Units=km
new line.TR2942150 bus1=BMT158942477.1.2.3,bus2=BMT1771225B.1.2.3,Phases=3,Linecode=CABA06_3_3,Length=0.026877000,Units=km
new line.TR2942171 bus1=BMT1771239B.1.2.3,bus2=BMT158942465.1.2.3,Phases=3,Linecode=CABA08_3_3,Length=0.026914000,Units=km
new line.TR2942199 bus1=BMT1771246B.1.2.3,bus2=BMT1771239B.1.2.3,Phases=3,Linecode=CABA08_3_3,Length=0.026180000,Units=km
new line.TR2995301 bus1=BMT1790314B.1.2.3,bus2=BMT169632779.1.2.3,Phases=3,Linecode=CABA08_3_3,Length=0.036245000,Units=km
new line.TR2995329 bus1=BMT158942429.1.2.3,bus2=BMT158942428.1.2.3,Phases=3,Linecode=CABA08_3_3,Length=0.035009000,Units=km
new line.TR2995357 bus1=BMT158942428.1.2.3,bus2=BMT1789355B.1.2.3,Phases=3,Linecode=CABA08_3_3,Length=0.024420000,Units=km
new line.TR2995364 bus1=BMT158942428.1.2.3,bus2=BMT158942427.1.2.3,Phases=3,Linecode=CABA08_3_3,Length=0.023860000,Units=km
new line.TR2995371 bus1=BMT158942428.1.2.3,bus2=BMT158942431.1.2.3,Phases=3,Linecode=CABA08_3_3,Length=0.020621000,Units=km
new line.TR3291569 bus1=BMT1897883B.1.2.3,bus2=BMT1818566B.1.2.3,Phases=3,Linecode=CABA08_3_3,Length=0.041784000,Units=km
new line.TR3291583 bus1=BMT158942452.1.2.3,bus2=BMT4685108.1.2.3,Phases=3,Linecode=CABA08_3_3,Length=0.029740000,Units=km
new line.TR3291590 bus1=BMT158942453.1.2.3,bus2=BMT1897883B.1.2.3,Phases=3,Linecode=CABA08_3_3,Length=0.021219000,Units=km
new line.TR3291618 bus1=BMT158942451.1.2.3,bus2=BMT158942452.1.2.3,Phases=3,Linecode=CABA08_3_3,Length=0.030091000,Units=km
new line.TR3291653 bus1=BMT1897918B.1.2.3,bus2=BMT158942450.1.2.3,Phases=3,Linecode=CABA08_3_3,Length=0.031024000,Units=km
new line.TR3291688 bus1=BMT1897932B.1.2.3,bus2=BMT1897918B.1.2.3,Phases=3,Linecode=CABA08_3_3,Length=0.026578000,Units=km
new line.TR10796101 bus1=BMT98977552.1.2.3,bus2=BMT98977559.1.2.3,Phases=3,Linecode=CABA06_3_3,Length=0.013004000,Units=km
new line.TR10796108 bus1=BMT98977559.1.2.3,bus2=BMT98977566.1.2.3,Phases=3,Linecode=CABA06_3_3,Length=0.017469000,Units=km
new line.TR10796178 bus1=BMT150339211.1.2.3,bus2=BMT150339212.1.2.3,Phases=3,Linecode=CAB609_3_3,Length=0.004002000,Units=km
new line.TR10796185 bus1=BMT150339212.1.2.3,bus2=BMT7054826B.1.2.3,Phases=3,Linecode=CAB609_3_3,Length=0.008547000,Units=km
new line.TR11540586 bus1=BMT596380B.1.2.3,bus2=BMT162611422.1.2.3,Phases=3,Linecode=CABA06_3_3,Length=0.020621000,Units=km
new line.TR11540593 bus1=BMT162611421.1.2.3,bus2=BMT162611422.1.2.3,Phases=3,Linecode=CABA06_3_3,Length=0.014322000,Units=km
new line.TR12144208 bus1=BMT162670267.1.2.3,bus2=BMT162670268.1.2.3,Phases=3,Linecode=CAB609_3_3,Length=0.010774000,Units=km
new line.TR12222782 bus1=BMT171043774.1.2.3,bus2=BMT171043773.1.2.3,Phases=3,Linecode=CABA06_3_3,Length=0.018253000,Units=km
new line.TR12222783 bus1=BMT152180685.1.2.3,bus2=BMT154395112.1.2.3,Phases=3,Linecode=CABA06_3_3,Length=0.020402000,Units=km
new line.TR3231880 bus1=BMT1873894B.1.2.3,bus2=BMT165600330.1.2.3,Phases=3,Linecode=CABA08_3_3,Length=0.021219000,Units=km
new line.TR3231936 bus1=BMT165600329.1.2.3,bus2=BMT1873894B.1.2.3,Phases=3,Linecode=CABA08_3_3,Length=0.028327000,Units=km
new line.TR3231964 bus1=BMT1873915B.1.2.3,bus2=BMT165600329.1.2.3,Phases=3,Linecode=CABA08_3_3,Length=0.029841000,Units=km
new line.TR3296994 bus1=BMT1900312B.1.2.3,bus2=BMT158942444.1.2.3,Phases=3,Linecode=CABA06_3_3,Length=0.030158000,Units=km
new line.TR3297001 bus1=BMT1900312B.1.2.3,bus2=BMT158942443.1.2.3,Phases=3,Linecode=CABA06_3_3,Length=0.040532000,Units=km
new line.TR3297022 bus1=BMT158942443.1.2.3,bus2=BMT1900326B.1.2.3,Phases=3,Linecode=CABA06_3_3,Length=0.031393000,Units=km
new line.TR3297036 bus1=BMT1900326B.1.2.3,bus2=BMT158942442.1.2.3,Phases=3,Linecode=CABA06_3_3,Length=0.030537000,Units=km
new line.TR3297057 bus1=BMT158942445.1.2.3,bus2=BMT158942446.1.2.3,Phases=3,Linecode=CAB402_3_3,Length=0.024765000,Units=km
new line.TR3297078 bus1=BMT1900340B.1.2.3,bus2=BMT158942441.1.2.3,Phases=3,Linecode=CABA06_3_3,Length=0.031073000,Units=km
new line.TR4998582 bus1=BMT2435728B.1.2.3,bus2=BMT131441438.1.2.3,Phases=3,Linecode=CABA08_3_3,Length=0.019703000,Units=km
new line.TR4998638 bus1=BMT99173426.1.2.3,bus2=BMT2435735B.1.2.3,Phases=3,Linecode=CABA08_3_3,Length=0.027666000,Units=km
new line.TR4998645 bus1=BMT161669208.1.2.3,bus2=BMT161669209.1.2.3,Phases=3,Linecode=CABA08_3_3,Length=0.037118000,Units=km
new line.TR4998666 bus1=BMT161669209.1.2.3,bus2=BMT2591135B.1.2.3,Phases=3,Linecode=CABA08_3_3,Length=0.035912000,Units=km
new line.TR4998687 bus1=BMT2435756B.1.2.3,bus2=BMT161669210.1.2.3,Phases=3,Linecode=CABA08_3_3,Length=0.033965000,Units=km
new line.TR4998694 bus1=BMT2435756B.1.2.3,bus2=BMT2591135B.1.2.3,Phases=3,Linecode=CABA08_3_3,Length=0.032024000,Units=km
new line.TR4998722 bus1=BMT161669210.1.2.3,bus2=BMT2435770B.1.2.3,Phases=3,Linecode=CABA08_3_3,Length=0.030684000,Units=km
new line.TR4998743 bus1=BMT2435770B.1.2.3,bus2=BMT2435777B.1.2.3,Phases=3,Linecode=CABA08_3_3,Length=0.037706000,Units=km
new line.TR4998757 bus1=BMT2435777B.1.2.3,bus2=BMT2435784B.1.2.3,Phases=3,Linecode=CABA08_3_3,Length=0.034447000,Units=km
new line.TR4998778 bus1=BMT2435784B.1.2.3,bus2=BMT2591121B.1.2.3,Phases=3,Linecode=CABA08_3_3,Length=0.033550000,Units=km
new line.TR4998799 bus1=BMT2435791B.1.2.3,bus2=BMT99173454.1.2.3,Phases=3,Linecode=CABA08_3_3,Length=0.036779000,Units=km
new line.TR4998813 bus1=BMT99173475.1.2.3,bus2=BMT99173482.1.2.3,Phases=3,Linecode=CAB905_4_3,Length=0.012003000,Units=km
new line.TR4998834 bus1=BMT2435805B.1.2.3,bus2=BMT2590974B.1.2.3,Phases=3,Linecode=CABA08_3_3,Length=0.038610000,Units=km
new line.TR4998862 bus1=BMT161669212.1.2.3,bus2=BMT161669211.1.2.3,Phases=3,Linecode=CABA08_3_3,Length=0.037706000,Units=km
new line.TR4998897 bus1=BMT161669213.1.2.3,bus2=BMT161669212.1.2.3,Phases=3,Linecode=CABA08_3_3,Length=0.030684000,Units=km
new line.TR4998925 bus1=BMT2435826B.1.2.3,bus2=BMT99177493.1.2.3,Phases=3,Linecode=CABA06_3_3,Length=0.027666000,Units=km
new line.TR4998974 bus1=BMT173206643.1.2.3,bus2=BMT2435854B.1.2.3,Phases=3,Linecode=CABA06_3_3,Length=0.032566000,Units=km
new line.TR4999002 bus1=BMT2435854B.1.2.3,bus2=BMT153551198.1.2.3,Phases=3,Linecode=CABA06_3_3,Length=0.035023000,Units=km
new line.TR4999051 bus1=BMT99177535.1.2.3,bus2=BMT4113117B.1.2.3,Phases=3,Linecode=CABA06_3_3,Length=0.034491000,Units=km
new line.TR4999058 bus1=BMT160562491.1.2.3,bus2=BMT160562492.1.2.3,Phases=3,Linecode=CAB902_4_3,Length=0.015236000,Units=km
new line.TR4999079 bus1=BMT2435875B.1.2.3,bus2=BMT173206645.1.2.3,Phases=3,Linecode=CABA06_3_3,Length=0.024420000,Units=km
new line.TR4999100 bus1=BMT173206646.1.2.3,bus2=BMT2435889B.1.2.3,Phases=3,Linecode=CABA06_3_3,Length=0.031631000,Units=km
new line.TR4999121 bus1=BMT2435889B.1.2.3,bus2=BMT3300270B.1.2.3,Phases=3,Linecode=CABA06_3_3,Length=0.033430000,Units=km
new line.TR4999135 bus1=BMT2435896B.1.2.3,bus2=BMT3300277B.1.2.3,Phases=3,Linecode=CABA06_3_3,Length=0.037812000,Units=km
new line.TR4999156 bus1=BMT2435903B.1.2.3,bus2=BMT2435910B.1.2.3,Phases=3,Linecode=CABA06_3_3,Length=0.036065000,Units=km
new line.TR4999177 bus1=BMT2435910B.1.2.3,bus2=BMT2435917B.1.2.3,Phases=3,Linecode=CABA06_3_3,Length=0.035702000,Units=km
new line.TR4999191 bus1=BMT2435917B.1.2.3,bus2=BMT2435924B.1.2.3,Phases=3,Linecode=CABA06_3_3,Length=0.034679000,Units=km
new line.TR4999233 bus1=BMT173206647.1.2.3,bus2=BMT2435938B.1.2.3,Phases=3,Linecode=CABA06_3_3,Length=0.034214000,Units=km
new line.TR4999268 bus1=BMT2435945B.1.2.3,bus2=BMT3516262B.1.2.3,Phases=3,Linecode=CAB103_3_3,Length=0.038843000,Units=km
new line.TR4999289 bus1=BMT157732577.1.2.3,bus2=BMT2435959B.1.2.3,Phases=3,Linecode=CAB202_3_3,Length=0.066507000,Units=km
new line.TR4999310 bus1=BMT2435959B.1.2.3,bus2=BMT3516269B.1.2.3,Phases=3,Linecode=CAB202_3_3,Length=0.130424000,Units=km
new line.TR4999324 bus1=BMT157732578.1.2.3,bus2=BMT157732579.1.2.3,Phases=3,Linecode=CAB610_3_3,Length=0.005833000,Units=km
new line.TR6329485 bus1=BMT164495942.1.2.3,bus2=BMT164495943.1.2.3,Phases=3,Linecode=CABA06_3_3,Length=0.023201000,Units=km
new line.TR7273904 bus1=BMT165597331.1.2.3,bus2=BMT164495923.1.2.3,Phases=3,Linecode=CAB609_3_3,Length=0.009058000,Units=km
new line.TR8617960 bus1=BMT4113117B.1.2.3,bus2=BMT2435875B.1.2.3,Phases=3,Linecode=CABA06_3_3,Length=0.037131000,Units=km
new line.TR8627228 bus1=BMT4122000B.1.2.3,bus2=BMT157732582.1.2.3,Phases=3,Linecode=CAB203_3_3,Length=0.067559000,Units=km
new line.TR8627242 bus1=BMT4122007B.1.2.3,bus2=BMT4122000B.1.2.3,Phases=3,Linecode=CAB203_3_3,Length=0.036779000,Units=km
new line.TR12277985 bus1=BMT165451396.1.2.3,bus2=BMT165451395.1.2.3,Phases=3,Linecode=CABA08_3_3,Length=0.019422000,Units=km
new line.TR12277986 bus1=BMT165451395.1.2.3,bus2=BMT164495916.1.2.3,Phases=3,Linecode=CABA08_3_3,Length=0.020621000,Units=km
new line.TR12277994 bus1=BMT165451395.1.2.3,bus2=BMT8880997B.1.2.3,Phases=3,Linecode=CABA08_3_3,Length=0.012045000,Units=km
new line.TR12277995 bus1=BMT8880997B.1.2.3,bus2=BMT8881002B.1.2.3,Phases=3,Linecode=CABA08_3_3,Length=0.028608000,Units=km
new line.TR12278017 bus1=BMT164495916.1.2.3,bus2=BMT165451394.1.2.3,Phases=3,Linecode=CABA08_3_3,Length=0.019422000,Units=km
new line.TR12278018 bus1=BMT164495920.1.2.3,bus2=BMT165597332.1.2.3,Phases=3,Linecode=CABA08_3_3,Length=0.017034000,Units=km
new line.TR12316705 bus1=BMT161669211.1.2.3,bus2=BMT160919093.1.2.3,Phases=3,Linecode=CABA06_3_3,Length=0.010773000,Units=km
new line.TR12356530 bus1=BMT2393420B.1.2.3,bus2=BMT156812451.1.2.3,Phases=3,Linecode=CABA08_3_3,Length=0.017809000,Units=km
new line.TR12356531 bus1=BMT171044100.1.2.3,bus2=BMT155912264.1.2.3,Phases=3,Linecode=CABA08_3_3,Length=0.017809000,Units=km
new line.TR12356596 bus1=BMT171044099.1.2.3,bus2=BMT171044098.1.2.3,Phases=3,Linecode=CABA08_3_3,Length=0.024214000,Units=km
new line.TR12356597 bus1=BMT171044098.1.2.3,bus2=BMT156816913.1.2.3,Phases=3,Linecode=CABA08_3_3,Length=0.011405000,Units=km
new line.TR12356629 bus1=BMT148687306.1.2.3,bus2=BMT171044260.1.2.3,Phases=3,Linecode=CABA08_3_3,Length=0.029975000,Units=km
new line.TR12356630 bus1=BMT171044260.1.2.3,bus2=BMT2393420B.1.2.3,Phases=3,Linecode=CABA08_3_3,Length=0.033385000,Units=km
new line.TR12356648 bus1=BMT171044260.1.2.3,bus2=BMT2591303D.1.2.3,Phases=3,Linecode=CABA08_3_3,Length=0.024193000,Units=km
new line.TR12356649 bus1=BMT2591303D.1.2.3,bus2=BMT99173412.1.2.3,Phases=3,Linecode=CABA08_3_3,Length=0.039822000,Units=km
new line.TR12356656 bus1=BMT165640892.1.2.3,bus2=BMT165640893.1.2.3,Phases=3,Linecode=CABA08_3_3,Length=0.005659000,Units=km
new line.TR12356725 bus1=BMT164495946.1.2.3,bus2=BMT166845115.1.2.3,Phases=3,Linecode=CABA08_3_3,Length=0.024846000,Units=km
new line.TR12356742 bus1=BMT167041362.1.2.3,bus2=BMT167041363.1.2.3,Phases=3,Linecode=CABA08_3_3,Length=0.018873000,Units=km
new line.TR12356751 bus1=BMT167041363.1.2.3,bus2=BMT167041364.1.2.3,Phases=3,Linecode=CABA08_3_3,Length=0.021219000,Units=km
new line.TR12430054 bus1=BMT8885717B.1.2.3,bus2=BMT9036058B.1.2.3,Phases=3,Linecode=CABA08_3_3,Length=0.008065000,Units=km
new line.TR12430055 bus1=BMT9036058B.1.2.3,bus2=BMT171174499.1.2.3,Phases=3,Linecode=CABA08_3_3,Length=0.026427000,Units=km
new line.TR12464902 bus1=BMT161669185.1.2.3,bus2=BMT161669186.1.2.3,Phases=3,Linecode=CAB609_3_3,Length=0.015816000,Units=km
new line.TR12464903 bus1=BMT161669186.1.2.3,bus2=BMT161669187.1.2.3,Phases=3,Linecode=CAB609_3_3,Length=0.005002000,Units=km
new line.TR12505368 bus1=BMT158942490.1.2.3,bus2=BMT9114550B.1.2.3,Phases=3,Linecode=CAB609_3_3,Length=0.026427000,Units=km
new line.TR12505369 bus1=BMT158942490.1.2.3,bus2=BMT9114551B.1.2.3,Phases=3,Linecode=CAB609_3_3,Length=0.025502000,Units=km
new line.TR12578023 bus1=BMT1873866D.1.2.3,bus2=BMT165600381.1.2.3,Phases=3,Linecode=CABA08_3_3,Length=0.023437000,Units=km
new line.TR12578026 bus1=BMT165600381.1.2.3,bus2=BMT3701860.1.2.3,Phases=3,Linecode=CABA08_3_3,Length=0.018390000,Units=km
new line.TR12718073 bus1=BMT171281813.1.2.3,bus2=BMT171281814.1.2.3,Phases=3,Linecode=CAB609_3_3,Length=0.005659000,Units=km
new line.TR12718074 bus1=BMT171281814.1.2.3,bus2=BMT171281815.1.2.3,Phases=3,Linecode=CAB609_3_3,Length=0.005659000,Units=km
new line.TR3022552 bus1=BMT169632785.1.2.3,bus2=BMT1799596B.1.2.3,Phases=3,Linecode=CABA08_3_3,Length=0.028168000,Units=km
new line.TR3022573 bus1=BMT1799596B.1.2.3,bus2=BMT1799603B.1.2.3,Phases=3,Linecode=CABA08_3_3,Length=0.036065000,Units=km
new line.TR3022601 bus1=BMT1799603B.1.2.3,bus2=BMT1799617B.1.2.3,Phases=3,Linecode=CABA08_3_3,Length=0.030537000,Units=km
new line.TR3022636 bus1=BMT1799617B.1.2.3,bus2=BMT158942422.1.2.3,Phases=3,Linecode=CABA08_3_3,Length=0.042213000,Units=km
new line.TR3022671 bus1=BMT158942422.1.2.3,bus2=BMT169632783.1.2.3,Phases=3,Linecode=CABA08_3_3,Length=0.041047000,Units=km
new line.TR3022692 bus1=BMT169632783.1.2.3,bus2=BMT169632781.1.2.3,Phases=3,Linecode=CABA08_3_3,Length=0.042023000,Units=km
new line.TR3076487 bus1=BMT158942499.1.2.3,bus2=BMT158942500.1.2.3,Phases=3,Linecode=CABA06_3_3,Length=0.024705000,Units=km
new line.TR3076522 bus1=BMT1818517B.1.2.3,bus2=BMT158942495.1.2.3,Phases=3,Linecode=CABA06_3_3,Length=0.015236000,Units=km
new line.TR3076543 bus1=BMT158942494.1.2.3,bus2=BMT1818517B.1.2.3,Phases=3,Linecode=CABA06_3_3,Length=0.025639000,Units=km
new line.TR3076564 bus1=BMT1818531B.1.2.3,bus2=BMT158942494.1.2.3,Phases=3,Linecode=CABA06_3_3,Length=0.029740000,Units=km
new line.TR3076592 bus1=BMT158942493.1.2.3,bus2=BMT1818531B.1.2.3,Phases=3,Linecode=CABA06_3_3,Length=0.029740000,Units=km
new line.TR3076613 bus1=BMT162670273.1.2.3,bus2=BMT158942492.1.2.3,Phases=3,Linecode=CABA06_3_3,Length=0.025639000,Units=km
new line.TR3076676 bus1=BMT1818566B.1.2.3,bus2=BMT1818580B.1.2.3,Phases=3,Linecode=CABA08_3_3,Length=0.020254000,Units=km
new line.TR3076725 bus1=BMT1818580B.1.2.3,bus2=BMT158942454.1.2.3,Phases=3,Linecode=CABA08_3_3,Length=0.028869000,Units=km
new line.TR3186079 bus1=BMT164890222.1.2.3,bus2=BMT164890221.1.2.3,Phases=3,Linecode=CABA08_3_3,Length=0.045892000,Units=km
new line.TR3186100 bus1=BMT1858592B.1.2.3,bus2=BMT164890222.1.2.3,Phases=3,Linecode=CABA08_3_3,Length=0.014040000,Units=km
new line.TR3186107 bus1=BMT1858592B.1.2.3,bus2=BMT164890223.1.2.3,Phases=3,Linecode=CABA08_3_3,Length=0.034009000,Units=km
new line.TR3186170 bus1=BMT1858620B.1.2.3,bus2=BMT1862155B.1.2.3,Phases=3,Linecode=CABA08_3_3,Length=0.013896000,Units=km
new line.TR3186177 bus1=BMT1858620B.1.2.3,bus2=BMT98977538.1.2.3,Phases=3,Linecode=CABA08_3_3,Length=0.024705000,Units=km
new line.TR7271636 bus1=BMT173206644.1.2.3,bus2=BMT99177535.1.2.3,Phases=3,Linecode=CABA06_3_3,Length=0.031329000,Units=km
new line.TR7271657 bus1=BMT3300270B.1.2.3,bus2=BMT2435896B.1.2.3,Phases=3,Linecode=CABA06_3_3,Length=0.038907000,Units=km
new line.TR7271678 bus1=BMT3300277B.1.2.3,bus2=BMT3300284B.1.2.3,Phases=3,Linecode=CABA06_3_3,Length=0.041351000,Units=km
new line.TR7271699 bus1=BMT3300284B.1.2.3,bus2=BMT2435903B.1.2.3,Phases=3,Linecode=CABA06_3_3,Length=0.036901000,Units=km
new line.TR876352 bus1=BMT165597332.1.2.3,bus2=BMT165597331.1.2.3,Phases=3,Linecode=CABA08_3_3,Length=0.035814000,Units=km
new line.TR876366 bus1=BMT164495929.1.2.3,bus2=BMT164495930.1.2.3,Phases=3,Linecode=CABA06_3_3,Length=0.023437000,Units=km
new line.TR10267538 bus1=BMT162201819.1.2.3,bus2=BMT6466707B.1.2.3,Phases=3,Linecode=CAB609_3_3,Length=0.009437000,Units=km
new line.TR10267545 bus1=BMT6466707B.1.2.3,bus2=BMT162201820.1.2.3,Phases=3,Linecode=CAB609_3_3,Length=0.020886000,Units=km
new line.TR12251407 bus1=BMT154395116.1.2.3,bus2=BMT8852688B.1.2.3,Phases=3,Linecode=CAB609_3_3,Length=0.006085000,Units=km
new line.TR12251408 bus1=BMT8852688B.1.2.3,bus2=BMT154395117.1.2.3,Phases=3,Linecode=CAB609_3_3,Length=0.006085000,Units=km
new line.TR12287853 bus1=BMT154395114.1.2.3,bus2=BMT154395115.1.2.3,Phases=3,Linecode=CABA06_3_3,Length=0.004001000,Units=km
new line.TR12287854 bus1=BMT154395115.1.2.3,bus2=BMT154395116.1.2.3,Phases=3,Linecode=CAB609_3_3,Length=0.006327000,Units=km
new line.TR12364721 bus1=BMT165639226.1.2.3,bus2=BMT165639227.1.2.3,Phases=3,Linecode=CAB609_3_3,Length=0.009222000,Units=km
new line.TR12551532 bus1=BMT166251628.1.2.3,bus2=BMT9150001C.1.2.3,Phases=3,Linecode=CAB611_3_3,Length=0.047394000,Units=km
new line.TR12551540 bus1=BMT9150001C.1.2.3,bus2=BMT9160550D.1.2.3,Phases=3,Linecode=CAB611_3_3,Length=0.014769000,Units=km
new line.TR12551551 bus1=BMT9160550D.1.2.3,bus2=BMT9160564D.1.2.3,Phases=3,Linecode=CAB611_3_3,Length=0.056415000,Units=km
new line.TR12551583 bus1=BMT9160564D.1.2.3,bus2=BMT9160573D.1.2.3,Phases=3,Linecode=CAB611_3_3,Length=0.075471000,Units=km
new line.TR12551588 bus1=BMT9160573D.1.2.3,bus2=BMT9160574D.1.2.3,Phases=3,Linecode=CAB611_3_3,Length=0.073258000,Units=km
new line.TR12551607 bus1=BMT9160574D.1.2.3,bus2=BMT9160593D.1.2.3,Phases=3,Linecode=CAB611_3_3,Length=0.011405000,Units=km
new line.TR12551626 bus1=BMT9160593D.1.2.3,bus2=BMT9160601D.1.2.3,Phases=3,Linecode=CAB611_3_3,Length=0.094008000,Units=km
new line.TR12551667 bus1=BMT9160601D.1.2.3,bus2=BMT166251629.1.2.3,Phases=3,Linecode=CAB611_3_3,Length=0.079077000,Units=km
new line.TR12551733 bus1=BMT166251629.1.2.3,bus2=BMT166251630.1.2.3,Phases=3,Linecode=CAB611_3_3,Length=0.008605000,Units=km
new line.TR12551737 bus1=BMT166251630.1.2.3,bus2=BMT166251631.1.2.3,Phases=3,Linecode=CABA08_3_3,Length=0.005387000,Units=km
new line.TR2992739 bus1=BMT1789355B.1.2.3,bus2=BMT1789362B.1.2.3,Phases=3,Linecode=CABA08_3_3,Length=0.036410000,Units=km
new line.TR2992767 bus1=BMT1789362B.1.2.3,bus2=BMT158942430.1.2.3,Phases=3,Linecode=CABA08_3_3,Length=0.030240000,Units=km
new line.TR2992802 bus1=BMT158942430.1.2.3,bus2=BMT158942432.1.2.3,Phases=3,Linecode=CABA08_3_3,Length=0.031313000,Units=km
new line.TR2992809 bus1=BMT158942440.1.2.3,bus2=BMT2591415B.1.2.3,Phases=3,Linecode=CABA06_3_3,Length=0.017034000,Units=km
new line.TR2992844 bus1=BMT158942432.1.2.3,bus2=BMT138896361.1.2.3,Phases=3,Linecode=CABA08_3_3,Length=0.030879000,Units=km
new line.TR3040822 bus1=BMT158942487.1.2.3,bus2=BMT158942488.1.2.3,Phases=3,Linecode=CAB103_3_3,Length=0.021846000,Units=km
new line.TR3040843 bus1=BMT158942484.1.2.3,bus2=BMT158942485.1.2.3,Phases=3,Linecode=CABA06_3_3,Length=0.032902000,Units=km
new line.TR3040871 bus1=BMT158942483.1.2.3,bus2=BMT158942484.1.2.3,Phases=3,Linecode=CABA06_3_3,Length=0.020621000,Units=km
new line.TR3040920 bus1=BMT1806064B.1.2.3,bus2=BMT158942483.1.2.3,Phases=3,Linecode=CABA06_3_3,Length=0.027210000,Units=km
new line.TR3040962 bus1=BMT1806085B.1.2.3,bus2=BMT158942482.1.2.3,Phases=3,Linecode=CABA06_3_3,Length=0.016406000,Units=km
new line.TR3040983 bus1=BMT158942481.1.2.3,bus2=BMT1806085B.1.2.3,Phases=3,Linecode=CABA06_3_3,Length=0.032811000,Units=km
new line.TR3041004 bus1=BMT158942464.1.2.3,bus2=BMT1771246B.1.2.3,Phases=3,Linecode=CABA08_3_3,Length=0.026914000,Units=km
new line.TR3041011 bus1=BMT158942480.1.2.3,bus2=BMT158942481.1.2.3,Phases=3,Linecode=CABA06_3_3,Length=0.033310000,Units=km
new line.TR3041039 bus1=BMT1806106B.1.2.3,bus2=BMT158942464.1.2.3,Phases=3,Linecode=CABA08_3_3,Length=0.030422000,Units=km
new line.TR3041081 bus1=BMT165600324.1.2.3,bus2=BMT1806106B.1.2.3,Phases=3,Linecode=CABA08_3_3,Length=0.029740000,Units=km
new line.TR3212175 bus1=BMT164890473.1.2.3,bus2=BMT99179530.1.2.3,Phases=3,Linecode=CABA06_3_3,Length=0.028025000,Units=km
new line.TR6619887 bus1=BMT149716307.1.2.3,bus2=BMT1862197B.1.2.3,Phases=3,Linecode=CABA08_3_3,Length=0.035520000,Units=km
new line.TR10926140 bus1=BMT165600329.1.2.3,bus2=BMT165600331.1.2.3,Phases=3,Linecode=CABA06_3_3,Length=0.024193000,Units=km
new line.TR12168896 bus1=BMT2435924B.1.2.3,bus2=BMT8766726B.1.2.3,Phases=3,Linecode=CABA06_3_3,Length=0.034722000,Units=km
new line.TR12168897 bus1=BMT8766726B.1.2.3,bus2=BMT3971010B.1.2.3,Phases=3,Linecode=CABA06_3_3,Length=0.036888000,Units=km
new line.TR12169004 bus1=BMT2435938B.1.2.3,bus2=BMT150175074.1.2.3,Phases=3,Linecode=CABA06_3_3,Length=0.039633000,Units=km
new line.TR12282064 bus1=BMT164495617.1.2.3,bus2=BMT8884587B.1.2.3,Phases=3,Linecode=CABA08_3_3,Length=0.034995000,Units=km
new line.TR12282068 bus1=BMT167041363.1.2.3,bus2=BMT8884597B.1.2.3,Phases=3,Linecode=CABA08_3_3,Length=0.022810000,Units=km
new line.TR12282069 bus1=BMT8884597B.1.2.3,bus2=BMT164495939.1.2.3,Phases=3,Linecode=CABA08_3_3,Length=0.036410000,Units=km
new line.TR12282095 bus1=BMT164495611.1.2.3,bus2=BMT171174501.1.2.3,Phases=3,Linecode=CABA08_3_3,Length=0.007618000,Units=km
new line.TR12283104 bus1=BMT8881002B.1.2.3,bus2=BMT8885703B.1.2.3,Phases=3,Linecode=CABA08_3_3,Length=0.007618000,Units=km
new line.TR12283109 bus1=BMT165451398.1.2.3,bus2=BMT165451396.1.2.3,Phases=3,Linecode=CABA08_3_3,Length=0.019215000,Units=km
new line.TR12283123 bus1=BMT8885703B.1.2.3,bus2=BMT165451397.1.2.3,Phases=3,Linecode=CABA08_3_3,Length=0.030895000,Units=km
new line.TR12283126 bus1=BMT8885717B.1.2.3,bus2=BMT164495918.1.2.3,Phases=3,Linecode=CABA08_3_3,Length=0.033624000,Units=km
new line.TR12322184 bus1=BMT153551198.1.2.3,bus2=BMT167417955.1.2.3,Phases=3,Linecode=CABA06_3_3,Length=0.025027000,Units=km
new line.TR12322185 bus1=BMT167417955.1.2.3,bus2=BMT173206644.1.2.3,Phases=3,Linecode=CABA06_3_3,Length=0.022029000,Units=km
new line.TR12322190 bus1=BMT167747848.1.2.3,bus2=BMT167747849.1.2.3,Phases=3,Linecode=CAB609_5_3,Length=0.005002000,Units=km
new line.TR12359898 bus1=BMT8884595B.1.2.3,bus2=BMT164495933.1.2.3,Phases=3,Linecode=CABA08_3_3,Length=0.008947000,Units=km
new line.TR12359900 bus1=BMT164495933.1.2.3,bus2=BMT164495936.1.2.3,Phases=3,Linecode=CABA08_3_3,Length=0.018033000,Units=km
new line.TR12359952 bus1=BMT164495941.1.2.3,bus2=BMT164495942.1.2.3,Phases=3,Linecode=CABA08_3_3,Length=0.031153000,Units=km
new line.TR12359961 bus1=BMT164495942.1.2.3,bus2=BMT164495944.1.2.3,Phases=3,Linecode=CABA08_3_3,Length=0.042449000,Units=km
new line.TR12359971 bus1=BMT164495944.1.2.3,bus2=BMT8963732B.1.2.3,Phases=3,Linecode=CABA08_3_3,Length=0.023860000,Units=km
new line.TR12359974 bus1=BMT8963732B.1.2.3,bus2=BMT164495945.1.2.3,Phases=3,Linecode=CABA08_3_3,Length=0.022478000,Units=km
new line.TR12359990 bus1=BMT166845115.1.2.3,bus2=BMT166845116.1.2.3,Phases=3,Linecode=CABA08_3_3,Length=0.030025000,Units=km
new line.TR12359991 bus1=BMT166845115.1.2.3,bus2=BMT166845117.1.2.3,Phases=3,Linecode=CABA08_3_3,Length=0.023352000,Units=km
new line.TR12359992 bus1=BMT166845117.1.2.3,bus2=BMT164495950.1.2.3,Phases=3,Linecode=CABA08_3_3,Length=0.044699000,Units=km
new line.TR12360001 bus1=BMT171281809.1.2.3,bus2=BMT8963758B.1.2.3,Phases=3,Linecode=CABA08_3_3,Length=0.041784000,Units=km
new line.TR12360045 bus1=BMT164495968.1.2.3,bus2=BMT164495969.1.2.3,Phases=3,Linecode=CAB902_4_3,Length=0.015038000,Units=km
new line.TR12434357 bus1=BMT159478078.1.2.3,bus2=BMT166251628.1.2.3,Phases=3,Linecode=CAB611_3_3,Length=0.017122000,Units=km
new line.TR12619300 bus1=BMT1775992B.1.2.3,bus2=BMT1799575B.1.2.3,Phases=3,Linecode=CAB907_4_3,Length=0.035066000,Units=km
new line.TR3010631 bus1=BMT158942442.1.2.3,bus2=BMT158942441.1.2.3,Phases=3,Linecode=CABA06_3_3,Length=0.029689000,Units=km
new line.TR3011555 bus1=BMT1795606B.1.2.3,bus2=BMT1795613B.1.2.3,Phases=3,Linecode=CABA08_3_3,Length=0.039835000,Units=km
new line.TR3011583 bus1=BMT1795613B.1.2.3,bus2=BMT169632780.1.2.3,Phases=3,Linecode=CABA08_3_3,Length=0.038023000,Units=km
new line.TR3011611 bus1=BMT169632780.1.2.3,bus2=BMT1790314B.1.2.3,Phases=3,Linecode=CABA08_3_3,Length=0.041047000,Units=km
new line.TR3011618 bus1=BMT169632780.1.2.3,bus2=BMT1795627B.1.2.3,Phases=3,Linecode=CABA06_3_3,Length=0.032024000,Units=km
new line.TR3011639 bus1=BMT1795627B.1.2.3,bus2=BMT1795634B.1.2.3,Phases=3,Linecode=CABA06_3_3,Length=0.029841000,Units=km
new line.TR3011674 bus1=BMT1795634B.1.2.3,bus2=BMT169632782.1.2.3,Phases=3,Linecode=CABA06_3_3,Length=0.029841000,Units=km
new line.TR3365755 bus1=BMT1929544B.1.2.3,bus2=BMT1929551B.1.2.3,Phases=3,Linecode=CABA08_3_3,Length=0.030879000,Units=km
new line.TR3365762 bus1=BMT1929544B.1.2.3,bus2=BMT2435728B.1.2.3,Phases=3,Linecode=CABA08_3_3,Length=0.022367000,Units=km
new line.TR3365783 bus1=BMT1929551B.1.2.3,bus2=BMT1929558B.1.2.3,Phases=3,Linecode=CABA08_3_3,Length=0.037666000,Units=km
new line.TR3365804 bus1=BMT1929558B.1.2.3,bus2=BMT3432444B.1.2.3,Phases=3,Linecode=CABA08_3_3,Length=0.052052000,Units=km
new line.TR4954860 bus1=BMT164531361.1.2.3,bus2=BMT2424080B.1.2.3,Phases=3,Linecode=CABA06_3_3,Length=0.027666000,Units=km
new line.TR4954881 bus1=BMT2424080B.1.2.3,bus2=BMT164531362.1.2.3,Phases=3,Linecode=CABA06_3_3,Length=0.039823000,Units=km
new line.TR4954902 bus1=BMT164531362.1.2.3,bus2=BMT164531363.1.2.3,Phases=3,Linecode=CAB103_3_3,Length=0.042438000,Units=km
new line.TR4954930 bus1=BMT2424094B.1.2.3,bus2=BMT164890219.1.2.3,Phases=3,Linecode=CAB108_3_3,Length=0.060852000,Units=km
new line.TR4954993 bus1=BMT149815684.1.2.3,bus2=BMT595750B.1.2.3,Phases=3,Linecode=CABA08_3_3,Length=0.030091000,Units=km
new line.TR7539736 bus1=BMT3432444B.1.2.3,bus2=BMT2435735B.1.2.3,Phases=3,Linecode=CABA08_3_3,Length=0.018444000,Units=km