new line.RML10004107 bus1=BBT2685782.1.2.3.0,bus2=RML1060004107.1.2.3.0,Phases=3,Linecode=CABBTG12_4_3,Length=0.017000000,Units=km
new line.RML10021964 bus1=BBT3424030.1.2.0,bus2=RML1060021964.1.2.0,Phases=2,Linecode=CABBTG05_4_2,Length=0.017000000,Units=km
new line.RML10055192 bus1=BBT2220450.1.2.3.0,bus2=RML1060055192.1.2.3.0,Phases=3,Linecode=CABBTG06_4_3,Length=0.017000000,Units=km
new line.RML10163475 bus1=BBT45903146.1.2.3.0,bus2=RML1060163475.1.2.3.0,Phases=3,Linecode=CABBTG09_4_3,Length=0.017000000,Units=km
new line.RML10165400 bus1=BBT684664.1.2.0,bus2=RML1060165400.1.2.0,Phases=2,Linecode=CABBTG04_4_2,Length=0.017000000,Units=km
new line.RML10188083 bus1=BBT684671.1.2.0,bus2=RML1060188083.1.2.0,Phases=2,Linecode=CABBTG05_4_2,Length=0.017000000,Units=km
new line.RML10259704 bus1=BBT153551434.1.2.3.0,bus2=RML1060259704.1.2.3.0,Phases=3,Linecode=CABBTG08_4_3,Length=0.029000000,Units=km
new line.RML10303749 bus1=BBT684720.1.2.0,bus2=RML1060303749.1.2.0,Phases=2,Linecode=CABBTG05_4_2,Length=0.017000000,Units=km
new line.RML10351709 bus1=BBT152467891.1.2.3.0,bus2=RML1060351709.1.2.3.0,Phases=3,Linecode=CABBTG06_4_3,Length=0.017000000,Units=km
new line.RML10468963 bus1=BBT153129624.1.2.3.0,bus2=RML1060468963.1.2.3.0,Phases=3,Linecode=CABBTG09_4_3,Length=0.017000000,Units=km
new line.RML10500905 bus1=BBT153129624.1.2.3.0,bus2=RML1060500905.1.2.3.0,Phases=3,Linecode=CABBTG06_4_3,Length=0.017000000,Units=km
new line.RML10514875 bus1=BBT155605846.1.2.3.0,bus2=RML1060514875.1.2.3.0,Phases=3,Linecode=CABBTG06_4_3,Length=0.029000000,Units=km
new line.RML10525063 bus1=BBT155605846.1.2.3.0,bus2=RML1060525063.1.2.3.0,Phases=3,Linecode=CABBTG06_4_3,Length=0.029000000,Units=km
new line.RML10579308 bus1=BBT2200759.2.0,bus2=RML1060579308.2.0,Phases=1,Linecode=CABBT504_7_1,Length=0.015000000,Units=km
new line.RML10648742 bus1=BBT2130346.1.2.3.0,bus2=RML1060648742.1.2.3.0,Phases=3,Linecode=CABBTG06_4_3,Length=0.029000000,Units=km
new line.RML10656021 bus1=BBT2249962.1.0,bus2=RML1060656021.1.0,Phases=1,Linecode=CABBTG02_4_1,Length=0.017000000,Units=km
new line.RML10664680 bus1=BBT2119895.1.0,bus2=RML1060664680.1.0,Phases=1,Linecode=CABBTG02_4_1,Length=0.008000000,Units=km
new line.RML10701725 bus1=BBT157057593.1.2.0,bus2=RML1060701725.1.2.0,Phases=2,Linecode=CABBTG05_4_2,Length=0.029000000,Units=km
new line.RML10722381 bus1=BBT2119895.3.0,bus2=RML1060722381.3.0,Phases=1,Linecode=CABBTG02_4_1,Length=0.010000000,Units=km
new line.RML10729426 bus1=BBT2119895.1.2.0,bus2=RML1060729426.1.2.0,Phases=2,Linecode=CABBTG05_4_2,Length=0.013000000,Units=km
new line.RML10749991 bus1=BBT152467891.1.2.3.0,bus2=RML1060749991.1.2.3.0,Phases=3,Linecode=CABBTG07_4_3,Length=0.015000000,Units=km
new line.RML10780465 bus1=BBT2119895.1.0,bus2=RML1060780465.1.0,Phases=1,Linecode=CABBTG02_4_1,Length=0.017000000,Units=km
new line.RML10795351 bus1=BBT2119895.1.0,bus2=RML1060795351.1.0,Phases=1,Linecode=CABBTG02_4_1,Length=0.015000000,Units=km
new line.RML10801942 bus1=BBT2119895.2.0,bus2=RML1060801942.2.0,Phases=1,Linecode=CABBTG02_4_1,Length=0.025000000,Units=km
new line.RML10806082 bus1=BBT155605846.1.2.3.0,bus2=RML1060806082.1.2.3.0,Phases=3,Linecode=CABBTG06_4_3,Length=0.029000000,Units=km
new line.RML10816107 bus1=BBT3424030.1.2.3.0,bus2=RML1060816107.1.2.3.0,Phases=3,Linecode=CABBT514_7_3,Length=0.017000000,Units=km
new line.RML10830089 bus1=BBT2119895.1.0,bus2=RML1060830089.1.0,Phases=1,Linecode=CABBTG02_4_1,Length=0.017000000,Units=km
new line.RML10830096 bus1=BBT2119895.2.0,bus2=RML1060830096.2.0,Phases=1,Linecode=CABBTG02_4_1,Length=0.006000000,Units=km
new line.RML10831834 bus1=BBT4628373.1.2.0,bus2=RML1060831834.1.2.0,Phases=2,Linecode=CABBTG05_4_2,Length=0.017000000,Units=km
new line.RML10845926 bus1=BBT2152508.1.2.3.0,bus2=RML1060845926.1.2.3.0,Phases=3,Linecode=CABBTG06_4_3,Length=0.017000000,Units=km
new line.RML10867223 bus1=BBT155605846.1.2.0,bus2=RML1060867223.1.2.0,Phases=2,Linecode=CABBTG05_4_2,Length=0.029000000,Units=km
new line.RML10927975 bus1=BBT2249990.1.2.3.0,bus2=RML1060927975.1.2.3.0,Phases=3,Linecode=CABBTG06_4_3,Length=0.017000000,Units=km
new line.RML11006132 bus1=BBT2124319.1.0,bus2=RML1061006132.1.0,Phases=1,Linecode=CABBTG02_4_1,Length=0.017000000,Units=km
new line.RML11041926 bus1=BBT153551434.1.2.0,bus2=RML1061041926.1.2.0,Phases=2,Linecode=CABBTG05_4_2,Length=0.029000000,Units=km
new line.RML1444318 bus1=BBT680128.1.2.3.0,bus2=RML1051444318.1.2.3.0,Phases=3,Linecode=CABBTG07_4_3,Length=0.017000000,Units=km
new line.RML1444325 bus1=BBT2818516.1.2.3.0,bus2=RML1051444325.1.2.3.0,Phases=3,Linecode=CABBTG07_4_3,Length=0.029000000,Units=km
new line.RML1444976 bus1=BBT679953.1.2.3.0,bus2=RML1051444976.1.2.3.0,Phases=3,Linecode=CABBTG07_4_3,Length=0.017000000,Units=km
new line.RML1445116 bus1=BBT2685782.1.2.3.0,bus2=RML1051445116.1.2.3.0,Phases=3,Linecode=CABBTG07_4_3,Length=0.017000000,Units=km
new line.RML1447622 bus1=BBT684524.1.2.3.0,bus2=RML1051447622.1.2.3.0,Phases=3,Linecode=CABBTG08_4_3,Length=0.017000000,Units=km
new line.RML1447636 bus1=BBT684734.1.2.0,bus2=RML1051447636.1.2.0,Phases=2,Linecode=CABBTG05_4_2,Length=0.017000000,Units=km
new line.RML1447643 bus1=BBT684734.1.0,bus2=RML1051447643.1.0,Phases=1,Linecode=CABBTG01_4_1,Length=0.017000000,Units=km
new line.RML1447650 bus1=BBT684748.2.0,bus2=RML1051447650.2.0,Phases=1,Linecode=CABBTG01_4_1,Length=0.017000000,Units=km
new line.RML1447657 bus1=BBT684748.1.2.0,bus2=RML1051447657.1.2.0,Phases=2,Linecode=CABBTG05_4_2,Length=0.017000000,Units=km
new line.RML4154592 bus1=BBT2093141.1.2.3.0,bus2=RML1054154592.1.2.3.0,Phases=3,Linecode=CABBTG09_4_3,Length=0.017000000,Units=km
new line.RML4154599 bus1=BBT2093148.1.2.3.0,bus2=RML1054154599.1.2.3.0,Phases=3,Linecode=CABBTG09_4_3,Length=0.017000000,Units=km
new line.RML4166478 bus1=BBT2098300.1.2.3.0,bus2=RML1054166478.1.2.3.0,Phases=3,Linecode=CABBTG07_4_3,Length=0.017000000,Units=km
new line.RML4166485 bus1=BBT2098300.1.2.3.0,bus2=RML1054166485.1.2.3.0,Phases=3,Linecode=CABBTG07_4_3,Length=0.017000000,Units=km
new line.RML4204684 bus1=BBT2113035.1.2.3.0,bus2=RML1054204684.1.2.3.0,Phases=3,Linecode=CABBTG07_4_3,Length=0.017000000,Units=km
new line.RML4204691 bus1=BBT2113042.1.2.3.0,bus2=RML1054204691.1.2.3.0,Phases=3,Linecode=CABBTG07_4_3,Length=0.017000000,Units=km
new line.RML4204698 bus1=BBT4639307.1.2.3.0,bus2=RML1054204698.1.2.3.0,Phases=3,Linecode=CABBTG07_4_3,Length=0.017000000,Units=km
new line.RML4204705 bus1=BBT2113056.1.2.3.0,bus2=RML1054204705.1.2.3.0,Phases=3,Linecode=CABBTG07_4_3,Length=0.017000000,Units=km
new line.RML4204712 bus1=BBT2113056.1.2.3.0,bus2=RML1054204712.1.2.3.0,Phases=3,Linecode=CABBTG07_4_3,Length=0.017000000,Units=km
new line.RML4204719 bus1=BBT2284220.1.2.3.0,bus2=RML1054204719.1.2.3.0,Phases=3,Linecode=CABBTG07_4_3,Length=0.017000000,Units=km
new line.RML4220007 bus1=BBT2250004.1.2.3.0,bus2=RML1054220007.1.2.3.0,Phases=3,Linecode=CABBTG07_4_3,Length=0.029000000,Units=km
new line.RML4220861 bus1=BBT2119860.1.2.3.0,bus2=RML1054220861.1.2.3.0,Phases=3,Linecode=CABBTG07_4_3,Length=0.017000000,Units=km
new line.RML4220868 bus1=BBT2119860.1.2.3.0,bus2=RML1054220868.1.2.3.0,Phases=3,Linecode=CABBTG07_4_3,Length=0.017000000,Units=km
new line.RML4220875 bus1=BBT2119867.1.2.3.0,bus2=RML1054220875.1.2.3.0,Phases=3,Linecode=CABBTG06_4_3,Length=0.017000000,Units=km
new line.RML4220882 bus1=BBT2119867.1.2.3.0,bus2=RML1054220882.1.2.3.0,Phases=3,Linecode=CABBTG07_4_3,Length=0.017000000,Units=km
new line.RML4220889 bus1=BBT2119874.1.2.3.0,bus2=RML1054220889.1.2.3.0,Phases=3,Linecode=CABBTG07_4_3,Length=0.017000000,Units=km
new line.RML4220896 bus1=BBT2119874.1.2.3.0,bus2=RML1054220896.1.2.3.0,Phases=3,Linecode=CABBTG07_4_3,Length=0.017000000,Units=km
new line.RML4220903 bus1=BBT2119874.1.2.3.0,bus2=RML1054220903.1.2.3.0,Phases=3,Linecode=CABBTG07_4_3,Length=0.017000000,Units=km
new line.RML4220910 bus1=BBT2119874.1.2.3.0,bus2=RML1054220910.1.2.3.0,Phases=3,Linecode=CABBTG07_4_3,Length=0.017000000,Units=km
new line.RML4220917 bus1=BBT2119874.1.2.3.0,bus2=RML1054220917.1.2.3.0,Phases=3,Linecode=CABBTG07_4_3,Length=0.017000000,Units=km
new line.RML4220924 bus1=BBT2119874.1.2.3.0,bus2=RML1054220924.1.2.3.0,Phases=3,Linecode=CABBTG07_4_3,Length=0.017000000,Units=km
new line.RML4220931 bus1=BBT2114050.1.2.3.0,bus2=RML1054220931.1.2.3.0,Phases=3,Linecode=CABBTG07_4_3,Length=0.017000000,Units=km
new line.RML4220938 bus1=BBT2119881.1.2.3.0,bus2=RML1054220938.1.2.3.0,Phases=3,Linecode=CABBTG07_4_3,Length=0.017000000,Units=km
new line.RML4220945 bus1=BBT2119888.1.2.3.0,bus2=RML1054220945.1.2.3.0,Phases=3,Linecode=CABBTG07_4_3,Length=0.017000000,Units=km
new line.RML4220952 bus1=BBT2119888.1.2.3.0,bus2=RML1054220952.1.2.3.0,Phases=3,Linecode=CABBTG07_4_3,Length=0.017000000,Units=km
new line.RML4220959 bus1=BBT2119888.1.2.3.0,bus2=RML1054220959.1.2.3.0,Phases=3,Linecode=CABBTG07_4_3,Length=0.017000000,Units=km
new line.RML4220966 bus1=BBT2119895.1.2.3.0,bus2=RML1054220966.1.2.3.0,Phases=3,Linecode=CABBTG07_4_3,Length=0.017000000,Units=km
new line.RML4220973 bus1=BBT2119895.1.2.3.0,bus2=RML1054220973.1.2.3.0,Phases=3,Linecode=CABBTG07_4_3,Length=0.017000000,Units=km
new line.RML4220980 bus1=BBT2119902.1.2.3.0,bus2=RML1054220980.1.2.3.0,Phases=3,Linecode=CABBTG07_4_3,Length=0.017000000,Units=km
new line.RML4220987 bus1=BBT2119902.1.2.3.0,bus2=RML1054220987.1.2.3.0,Phases=3,Linecode=CABBTG07_4_3,Length=0.017000000,Units=km
new line.RML4220994 bus1=BBT2119902.1.2.3.0,bus2=RML1054220994.1.2.3.0,Phases=3,Linecode=CABBTG07_4_3,Length=0.017000000,Units=km
new line.RML4221001 bus1=BBT2119909.1.2.3.0,bus2=RML1054221001.1.2.3.0,Phases=3,Linecode=CABBTG07_4_3,Length=0.017000000,Units=km
new line.RML4221008 bus1=BBT2119909.1.2.3.0,bus2=RML1054221008.1.2.3.0,Phases=3,Linecode=CABBTG07_4_3,Length=0.017000000,Units=km
new line.RML4221029 bus1=BBT2119937.1.2.3.0,bus2=RML1054221029.1.2.3.0,Phases=3,Linecode=CABBTG07_4_3,Length=0.017000000,Units=km
new line.RML4221036 bus1=BBT2119937.1.2.3.0,bus2=RML1054221036.1.2.3.0,Phases=3,Linecode=CABBTG07_4_3,Length=0.017000000,Units=km
new line.RML4231697 bus1=BBT2124319.1.2.3.0,bus2=RML1054231697.1.2.3.0,Phases=3,Linecode=CABBTG07_4_3,Length=0.017000000,Units=km
new line.RML4231704 bus1=BBT2124319.1.2.3.0,bus2=RML1054231704.1.2.3.0,Phases=3,Linecode=CABBTG07_4_3,Length=0.017000000,Units=km
new line.RML4231711 bus1=BBT2124319.1.2.3.0,bus2=RML1054231711.1.2.3.0,Phases=3,Linecode=CABBTG07_4_3,Length=0.017000000,Units=km
new line.RML4231718 bus1=BBT2124319.1.2.3.0,bus2=RML1054231718.1.2.3.0,Phases=3,Linecode=CABBTG07_4_3,Length=0.017000000,Units=km
new line.RML4231725 bus1=BBT2124326.1.2.3.0,bus2=RML1054231725.1.2.3.0,Phases=3,Linecode=CABBTG07_4_3,Length=0.017000000,Units=km
new line.RML4231732 bus1=BBT2124326.1.2.3.0,bus2=RML1054231732.1.2.3.0,Phases=3,Linecode=CABBTG07_4_3,Length=0.017000000,Units=km
new line.RML4231739 bus1=BBT2124333.1.2.3.0,bus2=RML1054231739.1.2.3.0,Phases=3,Linecode=CABBTG07_4_3,Length=0.017000000,Units=km
new line.RML4231746 bus1=BBT2124347.1.2.3.0,bus2=RML1054231746.1.2.3.0,Phases=3,Linecode=CABBTG11_4_3,Length=0.017000000,Units=km
new line.RML4231753 bus1=BBT2124333.1.2.3.0,bus2=RML1054231753.1.2.3.0,Phases=3,Linecode=CABBTG07_4_3,Length=0.017000000,Units=km
new line.RML4231760 bus1=BBT2124340.1.2.3.0,bus2=RML1054231760.1.2.3.0,Phases=3,Linecode=CABBTG07_4_3,Length=0.017000000,Units=km
new line.RML4231767 bus1=BBT2124340.1.2.3.0,bus2=RML1054231767.1.2.3.0,Phases=3,Linecode=CABBTG07_4_3,Length=0.017000000,Units=km
new line.RML4231774 bus1=BBT2124340.1.2.3.0,bus2=RML1054231774.1.2.3.0,Phases=3,Linecode=CABBTG07_4_3,Length=0.017000000,Units=km
new line.RML4231781 bus1=BBT2124340.1.2.3.0,bus2=RML1054231781.1.2.3.0,Phases=3,Linecode=CABBTG07_4_3,Length=0.017000000,Units=km
new line.RML4231788 bus1=BBT2124347.1.2.3.0,bus2=RML1054231788.1.2.3.0,Phases=3,Linecode=CABBTG07_4_3,Length=0.017000000,Units=km
new line.RML4231795 bus1=BBT2124354.1.2.3.0,bus2=RML1054231795.1.2.3.0,Phases=3,Linecode=CABBTG07_4_3,Length=0.017000000,Units=km
new line.RML4231802 bus1=BBT2124354.1.2.3.0,bus2=RML1054231802.1.2.3.0,Phases=3,Linecode=CABBTG07_4_3,Length=0.017000000,Units=km
new line.RML4231809 bus1=BBT2124354.1.2.3.0,bus2=RML1054231809.1.2.3.0,Phases=3,Linecode=CABBTG06_4_3,Length=0.017000000,Units=km
new line.RML4231816 bus1=BBT2124361.1.2.3.0,bus2=RML1054231816.1.2.3.0,Phases=3,Linecode=CABBTG07_4_3,Length=0.017000000,Units=km
new line.RML4231823 bus1=BBT2124368.1.2.3.0,bus2=RML1054231823.1.2.3.0,Phases=3,Linecode=CABBTG07_4_3,Length=0.017000000,Units=km
new line.RML4231830 bus1=BBT2124368.1.2.3.0,bus2=RML1054231830.1.2.3.0,Phases=3,Linecode=CABBTG07_4_3,Length=0.017000000,Units=km
new line.RML4257667 bus1=BBT2130059.1.2.3.0,bus2=RML1054257667.1.2.3.0,Phases=3,Linecode=CABBTG09_4_3,Length=0.029000000,Units=km
new line.RML4257674 bus1=BBT3194220.1.2.3.0,bus2=RML1054257674.1.2.3.0,Phases=3,Linecode=CABBTG07_4_3,Length=0.029000000,Units=km
new line.RML4262140 bus1=BBT2131956.1.2.3.0,bus2=RML1054262140.1.2.3.0,Phases=3,Linecode=CABBTG07_4_3,Length=0.029000000,Units=km
new line.RML4262147 bus1=BBT2131956.1.2.3.0,bus2=RML1054262147.1.2.3.0,Phases=3,Linecode=CABBTG07_4_3,Length=0.029000000,Units=km
new line.RML4276518 bus1=BBT2147510.1.2.3.0,bus2=RML1054276518.1.2.3.0,Phases=3,Linecode=CABBTG07_4_3,Length=0.017000000,Units=km
new line.RML4301746 bus1=BBT2130346.1.2.3.0,bus2=RML1054301746.1.2.3.0,Phases=3,Linecode=CABBTG07_4_3,Length=0.029000000,Units=km
new line.RML4301753 bus1=BBT150874440.1.2.3.0,bus2=RML1054301753.1.2.3.0,Phases=3,Linecode=CABBTG09_4_3,Length=0.029000000,Units=km
new line.RML4313030 bus1=BBT4723461.1.2.3.0,bus2=RML1054313030.1.2.3.0,Phases=3,Linecode=CABBTG07_4_3,Length=0.017000000,Units=km
new line.RML4314913 bus1=BBT2124375.1.2.3.0,bus2=RML1054314913.1.2.3.0,Phases=3,Linecode=CABBTG07_4_3,Length=0.017000000,Units=km
new line.RML4314920 bus1=BBT2152487.1.2.3.0,bus2=RML1054314920.1.2.3.0,Phases=3,Linecode=CABBTG07_4_3,Length=0.017000000,Units=km
new line.RML4314927 bus1=BBT2152487.1.2.3.0,bus2=RML1054314927.1.2.3.0,Phases=3,Linecode=CABBTG07_4_3,Length=0.017000000,Units=km
new line.RML4314934 bus1=BBT2152494.1.2.3.0,bus2=RML1054314934.1.2.3.0,Phases=3,Linecode=CABBTG07_4_3,Length=0.017000000,Units=km
new line.RML4314941 bus1=BBT2152494.1.2.3.0,bus2=RML1054314941.1.2.3.0,Phases=3,Linecode=CABBTG07_4_3,Length=0.017000000,Units=km
new line.RML4314948 bus1=BBT2152501.2.3.0,bus2=RML1054314948.2.3.0,Phases=2,Linecode=CABBTG05_4_2,Length=0.017000000,Units=km
new line.RML4314955 bus1=BBT2152501.1.2.3.0,bus2=RML1054314955.1.2.3.0,Phases=3,Linecode=CABBTG11_4_3,Length=0.017000000,Units=km
new line.RML4314962 bus1=BBT2152501.1.2.3.0,bus2=RML1054314962.1.2.3.0,Phases=3,Linecode=CABBTG07_4_3,Length=0.017000000,Units=km
new line.RML4314969 bus1=BBT2152508.1.2.3.0,bus2=RML1054314969.1.2.3.0,Phases=3,Linecode=CABBTG07_4_3,Length=0.017000000,Units=km
new line.RML4314976 bus1=BBT2152508.1.2.3.0,bus2=RML1054314976.1.2.3.0,Phases=3,Linecode=CABBTG07_4_3,Length=0.017000000,Units=km
new line.RML4314983 bus1=BBT2152515.1.2.3.0,bus2=RML1054314983.1.2.3.0,Phases=3,Linecode=CABBTG07_4_3,Length=0.017000000,Units=km
new line.RML4314990 bus1=BBT2152515.1.2.3.0,bus2=RML1054314990.1.2.3.0,Phases=3,Linecode=CABBTG07_4_3,Length=0.017000000,Units=km
new line.RML4315004 bus1=BBT2152522.1.2.3.0,bus2=RML1054315004.1.2.3.0,Phases=3,Linecode=CABBTG07_4_3,Length=0.017000000,Units=km
new line.RML4315011 bus1=BBT2152529.1.2.3.0,bus2=RML1054315011.1.2.3.0,Phases=3,Linecode=CABBTG07_4_3,Length=0.017000000,Units=km
new line.RML4315018 bus1=BBT2152529.1.2.3.0,bus2=RML1054315018.1.2.3.0,Phases=3,Linecode=CABBTG07_4_3,Length=0.017000000,Units=km
new line.RML4315025 bus1=BBT2152529.1.2.3.0,bus2=RML1054315025.1.2.3.0,Phases=3,Linecode=CABBTG07_4_3,Length=0.017000000,Units=km
new line.RML4315032 bus1=BBT2152529.1.2.3.0,bus2=RML1054315032.1.2.3.0,Phases=3,Linecode=CABBTG07_4_3,Length=0.017000000,Units=km
new line.RML4315039 bus1=BBT2152536.1.2.3.0,bus2=RML1054315039.1.2.3.0,Phases=3,Linecode=CABBTG07_4_3,Length=0.017000000,Units=km
new line.RML4315046 bus1=BBT2152536.1.2.3.0,bus2=RML1054315046.1.2.3.0,Phases=3,Linecode=CABBTG07_4_3,Length=0.017000000,Units=km
new line.RML4405619 bus1=BBT2192919.1.2.3.0,bus2=RML1054405619.1.2.3.0,Phases=3,Linecode=CABBTG07_4_3,Length=0.017000000,Units=km
new line.RML4412423 bus1=BBT2196356.1.0,bus2=RML1054412423.1.0,Phases=1,Linecode=CABBTG01_4_1,Length=0.017000000,Units=km
new line.RML4412430 bus1=BBT2196356.1.2.0,bus2=RML1054412430.1.2.0,Phases=2,Linecode=CABBTG05_4_2,Length=0.017000000,Units=km
new line.RML4415314 bus1=BBT2197644.1.2.3.0,bus2=RML1054415314.1.2.3.0,Phases=3,Linecode=CABBTG07_4_3,Length=0.017000000,Units=km
new line.RML4423231 bus1=BBT2200745.1.2.3.0,bus2=RML1054423231.1.2.3.0,Phases=3,Linecode=CABBTG07_4_3,Length=0.017000000,Units=km
new line.RML4423238 bus1=BBT2200745.1.0,bus2=RML1054423238.1.0,Phases=1,Linecode=CABBTG01_4_1,Length=0.017000000,Units=km
new line.RML4437742 bus1=BBT3619603.1.2.3.0,bus2=RML1054437742.1.2.3.0,Phases=3,Linecode=CABBTG07_4_3,Length=0.017000000,Units=km
new line.RML4458602 bus1=BBT42610311.1.2.3.0,bus2=RML1054458602.1.2.3.0,Phases=3,Linecode=CABBTG07_4_3,Length=0.017000000,Units=km
new line.RML4468892 bus1=BBT108670844.1.2.3.0,bus2=RML1054468892.1.2.3.0,Phases=3,Linecode=CABBTG07_4_3,Length=0.029000000,Units=km
new line.RML4479581 bus1=BBT2095507.1.2.3.0,bus2=RML1054479581.1.2.3.0,Phases=3,Linecode=CABBTG07_4_3,Length=0.029000000,Units=km
new line.RML4566402 bus1=BBT2246588.1.2.3.0,bus2=RML1054566402.1.2.3.0,Phases=3,Linecode=CABBTG07_4_3,Length=0.017000000,Units=km
new line.RML4566409 bus1=BBT2246637.1.2.3.0,bus2=RML1054566409.1.2.3.0,Phases=3,Linecode=CABBTG07_4_3,Length=0.017000000,Units=km
new line.RML4573437 bus1=BBT2248107.1.2.3.0,bus2=RML1054573437.1.2.3.0,Phases=3,Linecode=CABBTG07_4_3,Length=0.017000000,Units=km
new line.RML4573444 bus1=BBT2248107.1.2.3.0,bus2=RML1054573444.1.2.3.0,Phases=3,Linecode=CABBTG07_4_3,Length=0.017000000,Units=km
new line.RML4581830 bus1=BBT2249962.1.2.3.0,bus2=RML1054581830.1.2.3.0,Phases=3,Linecode=CABBT806_4_3,Length=0.017000000,Units=km
new line.RML4581837 bus1=BBT3549428.1.2.3.0,bus2=RML1054581837.1.2.3.0,Phases=3,Linecode=CABBTG07_4_3,Length=0.017000000,Units=km
new line.RML4725778 bus1=BBT2113028.1.2.3.0,bus2=RML1054725778.1.2.3.0,Phases=3,Linecode=CABBTG11_4_3,Length=0.017000000,Units=km
new line.RML4725785 bus1=BBT2113042.1.2.3.0,bus2=RML1054725785.1.2.3.0,Phases=3,Linecode=CABBTG07_4_3,Length=0.017000000,Units=km
new line.RML4725806 bus1=BBT2286299.1.2.3.0,bus2=RML1054725806.1.2.3.0,Phases=3,Linecode=CABBTG07_4_3,Length=0.017000000,Units=km
new line.RML4747191 bus1=BBT3722741.1.2.3.0,bus2=RML1054747191.1.2.3.0,Phases=3,Linecode=CABBTG07_4_3,Length=0.017000000,Units=km
new line.RML4747198 bus1=BBT3722741.1.2.3.0,bus2=RML1054747198.1.2.3.0,Phases=3,Linecode=CABBTG07_4_3,Length=0.017000000,Units=km
new line.RML5263749 bus1=BBT2200717.1.2.3.0,bus2=RML1055263749.1.2.3.0,Phases=3,Linecode=CABBTG07_4_3,Length=0.017000000,Units=km
new line.RML6070044 bus1=BBT2124347.1.2.3.0,bus2=RML1056070044.1.2.3.0,Phases=3,Linecode=CABBTG06_4_3,Length=0.017000000,Units=km
new line.RML6070051 bus1=BBT2124333.1.2.3.0,bus2=RML1056070051.1.2.3.0,Phases=3,Linecode=CABBTG06_4_3,Length=0.017000000,Units=km
new line.RML6101229 bus1=BBT2147538.1.2.3.0,bus2=RML1056101229.1.2.3.0,Phases=3,Linecode=CABBTG06_4_3,Length=0.017000000,Units=km
new line.RML6101250 bus1=BBT2246525.2.3.0,bus2=RML1056101250.2.3.0,Phases=2,Linecode=CABBTG05_4_2,Length=0.017000000,Units=km
new line.RML6102244 bus1=BBT2248107.1.2.3.0,bus2=RML1056102244.1.2.3.0,Phases=3,Linecode=CABBTG06_4_3,Length=0.017000000,Units=km
new line.RML6111162 bus1=BBT2124340.1.2.3.0,bus2=RML1056111162.1.2.3.0,Phases=3,Linecode=CABBTG06_4_3,Length=0.017000000,Units=km
new line.RML6133688 bus1=BBT2196398.1.2.3.0,bus2=RML1056133688.1.2.3.0,Phases=3,Linecode=CABBTG06_4_3,Length=0.017000000,Units=km
new line.RML6144181 bus1=BBT2124312.1.2.3.0,bus2=RML1056144181.1.2.3.0,Phases=3,Linecode=CABBTG06_4_3,Length=0.017000000,Units=km
new line.RML6177361 bus1=BBT2295462.1.2.3.0,bus2=RML1056177361.1.2.3.0,Phases=3,Linecode=CABBTG06_4_3,Length=0.017000000,Units=km
new line.RML6180924 bus1=BBT2098293.1.2.3.0,bus2=RML1056180924.1.2.3.0,Phases=3,Linecode=CABBTG06_4_3,Length=0.017000000,Units=km
new line.RML6270139 bus1=BBT2147517.1.2.3.0,bus2=RML1056270139.1.2.3.0,Phases=3,Linecode=CABBTG07_4_3,Length=0.029000000,Units=km
new line.RML6282725 bus1=BBT3354177.1.2.0,bus2=RML1056282725.1.2.0,Phases=2,Linecode=CABBTG05_4_2,Length=0.017000000,Units=km
new line.RML6312244 bus1=BBT3202557.1.2.3.0,bus2=RML1056312244.1.2.3.0,Phases=3,Linecode=CABBT803_4_3,Length=0.017000000,Units=km
new line.RML6360229 bus1=BBT2119909.1.2.3.0,bus2=RML1056360229.1.2.3.0,Phases=3,Linecode=CABBTG06_4_3,Length=0.017000000,Units=km
new line.RML6390595 bus1=BBT2685782.1.2.3.0,bus2=RML1056390595.1.2.3.0,Phases=3,Linecode=CABBTG07_4_3,Length=0.017000000,Units=km
new line.RML6415431 bus1=BBT2124312.1.2.3.0,bus2=RML1056415431.1.2.3.0,Phases=3,Linecode=CABBTG06_4_3,Length=0.017000000,Units=km
new line.RML6424916 bus1=BBT2095507.1.2.3.0,bus2=RML1056424916.1.2.3.0,Phases=3,Linecode=CABBTG06_4_3,Length=0.029000000,Units=km
new line.RML6428367 bus1=BBT679960.1.2.3.0,bus2=RML1056428367.1.2.3.0,Phases=3,Linecode=CABBTG06_4_3,Length=0.017000000,Units=km
new line.RML6436522 bus1=BBT3354149.1.2.3.0,bus2=RML1056436522.1.2.3.0,Phases=3,Linecode=CABBTG06_4_3,Length=0.017000000,Units=km
new line.RML6589458 bus1=BBT2221304.1.2.3.0,bus2=RML1056589458.1.2.3.0,Phases=3,Linecode=CABBTG09_4_3,Length=0.029000000,Units=km
new line.RML6591516 bus1=BBT684685.1.2.3.0,bus2=RML1056591516.1.2.3.0,Phases=3,Linecode=CABBTG06_4_3,Length=0.017000000,Units=km
new line.RML6591530 bus1=BBT684594.1.2.3.0,bus2=RML1056591530.1.2.3.0,Phases=3,Linecode=CABBTG06_4_3,Length=0.017000000,Units=km
new line.RML6617696 bus1=BBT2124319.1.2.3.0,bus2=RML1056617696.1.2.3.0,Phases=3,Linecode=CABBTG06_4_3,Length=0.017000000,Units=km
new line.RML6617710 bus1=BBT2248107.1.2.3.0,bus2=RML1056617710.1.2.3.0,Phases=3,Linecode=CABBTG06_4_3,Length=0.017000000,Units=km
new line.RML6617717 bus1=BBT2152508.1.2.3.0,bus2=RML1056617717.1.2.3.0,Phases=3,Linecode=CABBTG06_4_3,Length=0.017000000,Units=km
new line.RML6617738 bus1=BBT2113035.1.0,bus2=RML1056617738.1.0,Phases=1,Linecode=CABBTG02_4_1,Length=0.017000000,Units=km
new line.RML6619432 bus1=BBT2124375.1.2.3.0,bus2=RML1056619432.1.2.3.0,Phases=3,Linecode=CABBTG06_4_3,Length=0.017000000,Units=km
new line.RML6619467 bus1=BBT3411150.1.2.3.0,bus2=RML1056619467.1.2.3.0,Phases=3,Linecode=CABBTG09_4_3,Length=0.017000000,Units=km
new line.RML6624549 bus1=BBT3354149.1.2.3.0,bus2=RML1056624549.1.2.3.0,Phases=3,Linecode=CABBTG10_4_3,Length=0.017000000,Units=km
new line.RML6626047 bus1=BBT2286299.1.2.3.0,bus2=RML1056626047.1.2.3.0,Phases=3,Linecode=CABBTG06_4_3,Length=0.017000000,Units=km
new line.RML6638899 bus1=BBT2131956.1.2.3.0,bus2=RML1056638899.1.2.3.0,Phases=3,Linecode=CABBTG06_4_3,Length=0.029000000,Units=km
new line.RML6711034 bus1=BBT684678.1.2.0,bus2=RML1056711034.1.2.0,Phases=2,Linecode=CABBTG05_4_2,Length=0.017000000,Units=km
new line.RML6746951 bus1=BBT156814975.1.2.3.0,bus2=RML1056746951.1.2.3.0,Phases=3,Linecode=CABBTG06_4_3,Length=0.017000000,Units=km
new line.RML6761154 bus1=BBT684615.1.0,bus2=RML1056761154.1.0,Phases=1,Linecode=CABBTG02_4_1,Length=0.017000000,Units=km
new line.RML6763464 bus1=BBT684748.1.0,bus2=RML1056763464.1.0,Phases=1,Linecode=CABBTG02_4_1,Length=0.017000000,Units=km
new line.RML6764591 bus1=BBT3354170.1.3.0,bus2=RML1056764591.1.3.0,Phases=2,Linecode=CABBTG05_4_2,Length=0.017000000,Units=km
new line.RML6779837 bus1=BBT3424030.1.2.0,bus2=RML1056779837.1.2.0,Phases=2,Linecode=CABBTG05_4_2,Length=0.017000000,Units=km
new line.RML6779907 bus1=BBT3740451.1.2.3.0,bus2=RML1056779907.1.2.3.0,Phases=3,Linecode=CABBTG06_4_3,Length=0.029000000,Units=km
new line.RML6799990 bus1=BBT684734.1.2.0,bus2=RML1056799990.1.2.0,Phases=2,Linecode=CABBTG05_4_2,Length=0.017000000,Units=km
new line.RML6824168 bus1=BBT2246581.1.2.3.0,bus2=RML1056824168.1.2.3.0,Phases=3,Linecode=CABBTG07_4_3,Length=0.017000000,Units=km
new line.RML6824469 bus1=BBT2151661.1.2.3.0,bus2=RML1056824469.1.2.3.0,Phases=3,Linecode=CABBTG06_4_3,Length=0.017000000,Units=km
new line.RML6831791 bus1=BBT4853864.1.2.3.0,bus2=RML1056831791.1.2.3.0,Phases=3,Linecode=CABBTG06_4_3,Length=0.029000000,Units=km
new line.RML6835102 bus1=BBT3752316.1.2.3.0,bus2=RML1056835102.1.2.3.0,Phases=3,Linecode=CABBTG07_4_3,Length=0.017000000,Units=km
new line.RML6847660 bus1=BBT2295420.1.2.3.0,bus2=RML1056847660.1.2.3.0,Phases=3,Linecode=CABBTG07_4_3,Length=0.017000000,Units=km
new line.RML6850565 bus1=BBT2246532.1.2.3.0,bus2=RML1056850565.1.2.3.0,Phases=3,Linecode=CABBTG08_4_3,Length=0.017000000,Units=km
new line.RML6850586 bus1=BBT2221297.1.2.3.0,bus2=RML1056850586.1.2.3.0,Phases=3,Linecode=CABBTG07_4_3,Length=0.017000000,Units=km
new line.RML6897451 bus1=BBT2114050.1.2.3.0,bus2=RML1056897451.1.2.3.0,Phases=3,Linecode=CABBTG12_4_3,Length=0.017000000,Units=km
new line.RML6917723 bus1=BBT4520286.1.2.3.0,bus2=RML1056917723.1.2.3.0,Phases=3,Linecode=CABBTG08_4_3,Length=0.029000000,Units=km
new line.RML6919207 bus1=BBT2250004.1.2.3.0,bus2=RML1056919207.1.2.3.0,Phases=3,Linecode=CABBTG12_4_3,Length=0.029000000,Units=km
new line.RML6927341 bus1=BBT2095507.1.2.3.0,bus2=RML1056927341.1.2.3.0,Phases=3,Linecode=CABBTG06_4_3,Length=0.029000000,Units=km
new line.RML6928657 bus1=BBT4783220.1.2.3.0,bus2=RML1056928657.1.2.3.0,Phases=3,Linecode=CABBTG06_4_3,Length=0.017000000,Units=km
new line.RML6928664 bus1=BBT4342374.1.2.3.0,bus2=RML1056928664.1.2.3.0,Phases=3,Linecode=CABBTG10_4_3,Length=0.029000000,Units=km
new line.RML6945450 bus1=BBT3978297.1.2.3.0,bus2=RML1056945450.1.2.3.0,Phases=3,Linecode=CABBT810_4_3,Length=0.017000000,Units=km
new line.RML6959275 bus1=BBT2124305.1.2.3.0,bus2=RML1056959275.1.2.3.0,Phases=3,Linecode=CABBTG06_4_3,Length=0.017000000,Units=km
new line.RML6972631 bus1=BBT684734.1.2.3.0,bus2=RML1056972631.1.2.3.0,Phases=3,Linecode=CABBTG06_4_3,Length=0.017000000,Units=km
new line.RML6996158 bus1=BBT4727556.1.2.3.0,bus2=RML1056996158.1.2.3.0,Phases=3,Linecode=CABBT806_4_3,Length=0.017000000,Units=km
new line.RML7033937 bus1=BBT67430071.1.2.3.0,bus2=RML1057033937.1.2.3.0,Phases=3,Linecode=CABBTG08_4_3,Length=0.017000000,Units=km
new line.RML7073984 bus1=BBT3354170.1.2.3.0,bus2=RML1057073984.1.2.3.0,Phases=3,Linecode=CABBTG06_4_3,Length=0.017000000,Units=km
new line.RML7075867 bus1=BBT2147489.1.2.3.0,bus2=RML1057075867.1.2.3.0,Phases=3,Linecode=CABBTG08_4_3,Length=0.029000000,Units=km
new line.RML7090714 bus1=BBT4092670.1.2.0,bus2=RML1057090714.1.2.0,Phases=2,Linecode=CABBTG05_4_2,Length=0.017000000,Units=km
new line.RML7126687 bus1=BBT2206856.1.2.3.0,bus2=RML1057126687.1.2.3.0,Phases=3,Linecode=CABBT806_4_3,Length=0.029000000,Units=km
new line.RML7131335 bus1=BBT3424016.1.3.0,bus2=RML1057131335.1.3.0,Phases=2,Linecode=CABBTG04_4_2,Length=0.017000000,Units=km
new line.RML7142290 bus1=BBT2220415.1.2.3.0,bus2=RML1057142290.1.2.3.0,Phases=3,Linecode=CABBTG06_4_3,Length=0.017000000,Units=km
new line.RML7143473 bus1=BBT3354149.1.2.3.0,bus2=RML1057143473.1.2.3.0,Phases=3,Linecode=CABBTG06_4_3,Length=0.017000000,Units=km
new line.RML7162527 bus1=BBT4092663.3.0,bus2=RML1057162527.3.0,Phases=1,Linecode=CABBTG02_4_1,Length=0.017000000,Units=km
new line.RML7165908 bus1=BBT679960.1.2.3.0,bus2=RML1057165908.1.2.3.0,Phases=3,Linecode=CABBTG06_4_3,Length=0.017000000,Units=km
new line.RML7166412 bus1=BBT4727570.1.2.3.0,bus2=RML1057166412.1.2.3.0,Phases=3,Linecode=CABBT806_4_3,Length=0.029000000,Units=km
new line.RML7211051 bus1=BBT2220450.1.2.3.0,bus2=RML1057211051.1.2.3.0,Phases=3,Linecode=CABBTG08_4_3,Length=0.017000000,Units=km
new line.RML7228978 bus1=BBT2220471.1.2.3.0,bus2=RML1057228978.1.2.3.0,Phases=3,Linecode=CABBTG06_4_3,Length=0.017000000,Units=km
new line.RML7268136 bus1=BBT2113021.1.2.0,bus2=RML1057268136.1.2.0,Phases=2,Linecode=CABBTG05_4_2,Length=0.017000000,Units=km
new line.RML7332305 bus1=BBT3354156.1.2.3.0,bus2=RML1057332305.1.2.3.0,Phases=3,Linecode=CABBTG07_4_3,Length=0.017000000,Units=km
new line.RML7337800 bus1=BBT2108443.1.2.0,bus2=RML1057337800.1.2.0,Phases=2,Linecode=CABBTG05_4_2,Length=0.017000000,Units=km
new line.RML7377371 bus1=BBT3354177.1.0,bus2=RML1057377371.1.0,Phases=1,Linecode=CABBTG02_4_1,Length=0.017000000,Units=km
new line.RML7406449 bus1=BBT2246567.2.3.0,bus2=RML1057406449.2.3.0,Phases=2,Linecode=CABBTG05_4_2,Length=0.017000000,Units=km
new line.RML7419854 bus1=BBT2151682.1.2.3.0,bus2=RML1057419854.1.2.3.0,Phases=3,Linecode=CABBTG06_4_3,Length=0.017000000,Units=km
new line.RML7420092 bus1=BBT2206856.1.2.3.0,bus2=RML1057420092.1.2.3.0,Phases=3,Linecode=CABBT806_4_3,Length=0.029000000,Units=km
new line.RML7475238 bus1=BBT2152487.1.2.3.0,bus2=RML1057475238.1.2.3.0,Phases=3,Linecode=CABBTG12_4_3,Length=0.017000000,Units=km
new line.RML7585747 bus1=BBT2284220.1.2.3.0,bus2=RML1057585747.1.2.3.0,Phases=3,Linecode=CABBTG06_4_3,Length=0.017000000,Units=km
new line.RML7606341 bus1=BBT91750997.1.2.3.0,bus2=RML1057606341.1.2.3.0,Phases=3,Linecode=CABBTG07_4_3,Length=0.017000000,Units=km
new line.RML7630015 bus1=BBT4092670.1.2.3.0,bus2=RML1057630015.1.2.3.0,Phases=3,Linecode=CABBTG06_4_3,Length=0.017000000,Units=km
new line.RML7644442 bus1=BBT107556227.1.2.3.0,bus2=RML1057644442.1.2.3.0,Phases=3,Linecode=CABBTG09_4_3,Length=0.017000000,Units=km
new line.RML7720805 bus1=BBT684685.1.3.0,bus2=RML1057720805.1.3.0,Phases=2,Linecode=CABBTG05_4_2,Length=0.017000000,Units=km
new line.RML7727903 bus1=BBT2147524.1.2.3.0,bus2=RML1057727903.1.2.3.0,Phases=3,Linecode=CABBT806_4_3,Length=0.029000000,Units=km
new line.RML7727917 bus1=BBT2114050.1.2.3.0,bus2=RML1057727917.1.2.3.0,Phases=3,Linecode=CABBTG06_4_3,Length=0.017000000,Units=km
new line.RML8023058 bus1=BBT2152501.1.2.3.0,bus2=RML1058023058.1.2.3.0,Phases=3,Linecode=CABBTG06_4_3,Length=0.017000000,Units=km