new transformer.1495279 Phases=1,Windings=3,Buses=[BMT171044098.1 BBT171044101.1.0 BBT171044101.0.2],Conns=[wye wye wye],kvs=[7.967 0.12 0.12],kvas=[10.000000000 10.000000000 10.000000000],Taps=[1,1.000000000,1.000000000],XHL=1.877000000,XHT=1.877000000,XLT=1.252000000,%loadloss=1.800000000,%noloadloss=0.450000000
new transformer.291096 Phases=3,Windings=2,Buses=[BMT158942449.1.2.3 BBT2246511.1.2.3.0],Conns=[delta wye],kvs=[13.8 0.22],kvas=[150.000000000 150.000000000],Taps=[1,1.000000000],XHL=3.805000000,%loadloss=1.127000000,%noloadloss=0.280000000
new transformer.377077 Phases=1,Windings=3,Buses=[BMT161669212.2 BBT3327654.1.0 BBT3327654.0.2],Conns=[wye wye wye],kvs=[7.967 0.12 0.12],kvas=[5.000000000 5.000000000 5.000000000],Taps=[1,1.000000000,1.000000000],XHL=1.628000000,XHT=1.628000000,XLT=1.085000000,%loadloss=1.900000000,%noloadloss=0.600000000
new transformer.409641 Phases=3,Windings=2,Buses=[BMT158942443.1.2.3 BBT3740444.1.2.3.0],Conns=[delta wye],kvs=[13.8 0.22],kvas=[150.000000000 150.000000000],Taps=[1,1.000000000],XHL=3.805000000,%loadloss=1.127000000,%noloadloss=0.280000000
new transformer.458375 Phases=3,Windings=2,Buses=[BMT158942454.1.2.3 BBT4783213.1.2.3.0],Conns=[delta wye],kvs=[13.8 0.22],kvas=[45.000000000 45.000000000],Taps=[1,1.000000000],XHL=3.636000000,%loadloss=1.522000000,%noloadloss=0.377777000
new transformer.1372457 Phases=3,Windings=2,Buses=[BMT164495972.1.2.3 BBT133018888.1.2.3.0],Conns=[delta wye],kvs=[13.8 0.22],kvas=[833.000000000 833.000000000],Taps=[1,1.000000000],XHL=4.886000000,%loadloss=1.060000000,%noloadloss=0.252100000
new transformer.1466030 Phases=1,Windings=3,Buses=[BMT165600381.1 BBT165600382.1.0 BBT165600382.0.2],Conns=[wye wye wye],kvs=[7.967 0.12 0.12],kvas=[10.000000000 10.000000000 10.000000000],Taps=[1,1.000000000,1.000000000],XHL=1.877000000,XHT=1.877000000,XLT=1.252000000,%loadloss=1.800000000,%noloadloss=0.450000000
new transformer.272973 Phases=3,Windings=2,Buses=[BMT158942497.1.2.3 BBT2130052.1.2.3.0],Conns=[delta wye],kvs=[13.8 0.22],kvas=[150.000000000 150.000000000],Taps=[1,1.000000000],XHL=3.805000000,%loadloss=1.127000000,%noloadloss=0.280000000
new transformer.273015 Phases=3,Windings=2,Buses=[BMT158942496.1.2.3 BBT2130339.1.2.3.0],Conns=[delta wye],kvs=[13.8 0.22],kvas=[150.000000000 150.000000000],Taps=[1,1.000000000],XHL=3.805000000,%loadloss=1.127000000,%noloadloss=0.280000000
new transformer.410236 Phases=3,Windings=2,Buses=[BMT158942482.1.2.3 BBT3752309.1.2.3.0],Conns=[delta wye],kvs=[13.8 0.22],kvas=[150.000000000 150.000000000],Taps=[1,1.000000000],XHL=3.805000000,%loadloss=1.127000000,%noloadloss=0.280000000
new transformer.1264153 Phases=3,Windings=2,Buses=[BMT165600327.1.2.3 BBT67428902.1.2.3.0],Conns=[delta wye],kvs=[13.8 0.22],kvas=[150.000000000 150.000000000],Taps=[1,1.000000000],XHL=3.805000000,%loadloss=1.127000000,%noloadloss=0.280000000
new transformer.1413623 Phases=3,Windings=2,Buses=[BMT160562510.1.2.3 BBT153551433.1.2.3.0],Conns=[delta wye],kvs=[13.8 0.22],kvas=[750.000000000 750.000000000],Taps=[1,1.000000000],XHL=7.876000000,%loadloss=1.107000000,%noloadloss=0.226666000
new transformer.266771 Phases=3,Windings=2,Buses=[BMT158942478.1.2.3 BBT2093064.1.2.3.0],Conns=[delta wye],kvs=[13.8 0.22],kvas=[150.000000000 150.000000000],Taps=[1,1.000000000],XHL=3.805000000,%loadloss=1.127000000,%noloadloss=0.280000000
new transformer.271846 Phases=3,Windings=2,Buses=[BMT169632785.1.2.3 BBT2124298.1.2.3.0],Conns=[delta wye],kvs=[13.8 0.22],kvas=[45.000000000 45.000000000],Taps=[1,1.000000000],XHL=3.636000000,%loadloss=1.522000000,%noloadloss=0.377777000
new transformer.283270 Phases=3,Windings=2,Buses=[BMT149716308.1.2.3 BBT2200696.1.2.3.0],Conns=[delta wye],kvs=[13.8 0.22],kvas=[75.000000000 75.000000000],Taps=[1,1.000000000],XHL=3.721000000,%loadloss=1.340000000,%noloadloss=0.340000000
new transformer.372331 Phases=3,Windings=2,Buses=[BMT158942500.1.2.3 BBT3194213.1.2.3.0],Conns=[delta wye],kvs=[13.8 0.22],kvas=[500.000000000 500.000000000],Taps=[1,1.000000000],XHL=4.895000000,%loadloss=1.020000000,%noloadloss=0.260000000
new transformer.372758 Phases=3,Windings=2,Buses=[BMT164495943.1.2.3 BBT3202480.1.2.3.0],Conns=[delta wye],kvs=[13.8 0.22],kvas=[75.000000000 75.000000000],Taps=[1,1.000000000],XHL=3.721000000,%loadloss=1.340000000,%noloadloss=0.340000000
new transformer.383811 Phases=3,Windings=2,Buses=[BMT158942479.1.2.3 BBT3411143.1.2.3.0],Conns=[delta wye],kvs=[13.8 0.22],kvas=[75.000000000 75.000000000],Taps=[1,1.000000000],XHL=3.721000000,%loadloss=1.340000000,%noloadloss=0.340000000
new transformer.456415 Phases=3,Windings=2,Buses=[BMT161669209.1.2.3 BBT4706752.1.2.3.0],Conns=[delta wye],kvs=[13.8 0.22],kvas=[150.000000000 150.000000000],Taps=[1,1.000000000],XHL=3.805000000,%loadloss=1.127000000,%noloadloss=0.280000000
new transformer.461119 Phases=3,Windings=2,Buses=[BMT158942476.1.2.3 BBT4972304.1.2.3.0],Conns=[delta wye],kvs=[13.8 0.22],kvas=[150.000000000 150.000000000],Taps=[1,1.000000000],XHL=3.805000000,%loadloss=1.127000000,%noloadloss=0.280000000
new transformer.1421430 Phases=3,Windings=2,Buses=[BMT161669187.1.2.3 BBT155364617.1.2.3.0],Conns=[delta wye],kvs=[13.8 0.22],kvas=[500.000000000 500.000000000],Taps=[1,1.000000000],XHL=4.895000000,%loadloss=1.020000000,%noloadloss=0.260000000
new transformer.267107 Phases=3,Windings=2,Buses=[BMT158942488.1.2.3 BBT2095500.1.2.3.0],Conns=[delta wye],kvs=[13.8 0.22],kvas=[500.000000000 500.000000000],Taps=[1,1.000000000],XHL=4.895000000,%loadloss=1.020000000,%noloadloss=0.260000000
new transformer.273267 Phases=3,Windings=2,Buses=[BMT158942481.1.2.3 BBT2131907.1.2.3.0],Conns=[delta wye],kvs=[13.8 0.22],kvas=[150.000000000 150.000000000],Taps=[1,1.000000000],XHL=3.805000000,%loadloss=1.127000000,%noloadloss=0.280000000
new transformer.284201 Phases=3,Windings=2,Buses=[BMT164890473.1.2.3 BBT2206849.1.2.3.0],Conns=[delta wye],kvs=[13.8 0.22],kvas=[150.000000000 150.000000000],Taps=[1,1.000000000],XHL=3.805000000,%loadloss=1.127000000,%noloadloss=0.280000000
new transformer.359465 Phases=3,Windings=2,Buses=[BMT164495930.1.2.3 BBT2818509.1.2.3.0],Conns=[delta wye],kvs=[13.8 0.22],kvas=[500.000000000 500.000000000],Taps=[1,1.000000000],XHL=4.895000000,%loadloss=1.020000000,%noloadloss=0.260000000
new transformer.398042 Phases=3,Windings=2,Buses=[BMT166845117.1.2.3 BBT3587466.1.2.3.0],Conns=[delta wye],kvs=[13.8 0.22],kvas=[150.000000000 150.000000000],Taps=[1,1.000000000],XHL=3.805000000,%loadloss=1.127000000,%noloadloss=0.280000000
new transformer.66046 Phases=3,Windings=2,Buses=[BMT165451396.1.2.3 BBT679085.1.2.3.0],Conns=[delta wye],kvs=[13.8 0.22],kvas=[75.000000000 75.000000000],Taps=[1,1.000000000],XHL=3.721000000,%loadloss=1.340000000,%noloadloss=0.340000000
new transformer.1120583 Phases=3,Windings=2,Buses=[BMT164890471.1.2.3 BBT27266304.1.2.3.0],Conns=[delta wye],kvs=[13.8 0.22],kvas=[45.000000000 45.000000000],Taps=[1,1.000000000],XHL=3.636000000,%loadloss=1.522000000,%noloadloss=0.377777000
new transformer.1270943 Phases=3,Windings=2,Buses=[BMT162670273.1.2.3 BBT70611977.1.2.3.0],Conns=[delta wye],kvs=[13.8 0.22],kvas=[150.000000000 150.000000000],Taps=[1,1.000000000],XHL=3.805000000,%loadloss=1.127000000,%noloadloss=0.280000000
new transformer.1452047 Phases=3,Windings=2,Buses=[BMT162201821.1.2.3 BBT162201805.1.2.3.0],Conns=[delta wye],kvs=[13.8 0.22],kvas=[500.000000000 500.000000000],Taps=[1,1.000000000],XHL=4.895000000,%loadloss=1.020000000,%noloadloss=0.260000000
new transformer.271132 Phases=3,Windings=2,Buses=[BMT169632782.1.2.3 BBT2119853.1.2.3.0],Conns=[delta wye],kvs=[13.8 0.22],kvas=[75.000000000 75.000000000],Taps=[1,1.000000000],XHL=3.721000000,%loadloss=1.340000000,%noloadloss=0.340000000
new transformer.276739 Phases=3,Windings=2,Buses=[BMT169632784.1.2.3 BBT2152473.1.2.3.0],Conns=[delta wye],kvs=[13.8 0.22],kvas=[75.000000000 75.000000000],Taps=[1,1.000000000],XHL=3.721000000,%loadloss=1.340000000,%noloadloss=0.340000000
new transformer.282570 Phases=3,Windings=2,Buses=[BMT164890222.1.2.3 BBT2196279.1.2.3.0],Conns=[delta wye],kvs=[13.8 0.22],kvas=[30.000000000 30.000000000],Taps=[1,1.000000000],XHL=3.564000000,%loadloss=1.667000000,%noloadloss=0.433333000
new transformer.395298 Phases=3,Windings=2,Buses=[BMT158942446.1.2.3 BBT3549421.1.2.3.0],Conns=[delta wye],kvs=[13.8 0.22],kvas=[500.000000000 500.000000000],Taps=[1,1.000000000],XHL=4.895000000,%loadloss=1.020000000,%noloadloss=0.260000000
new transformer.454798 Phases=1,Windings=3,Buses=[BMT173206647.3 BBT4648442.1.0 BBT4648442.0.2],Conns=[wye wye wye],kvs=[7.967 0.12 0.12],kvas=[15.000000000 15.000000000 15.000000000],Taps=[1,1.000000000,1.000000000],XHL=2.123000000,XHT=2.123000000,XLT=1.415000000,%loadloss=1.600000000,%noloadloss=0.400000000
new transformer.66648 Phases=3,Windings=2,Buses=[BMT162611423.1.2.3 BBT684587.1.2.3.0],Conns=[delta wye],kvs=[13.8 0.22],kvas=[75.000000000 75.000000000],Taps=[1,1.000000000],XHL=3.721000000,%loadloss=1.340000000,%noloadloss=0.340000000
new transformer.1339137 Phases=3,Windings=2,Buses=[BMT165600325.1.2.3 BBT107556220.1.2.3.0],Conns=[delta wye],kvs=[13.8 0.22],kvas=[150.000000000 150.000000000],Taps=[1,1.000000000],XHL=3.805000000,%loadloss=1.127000000,%noloadloss=0.280000000
new transformer.1339382 Phases=3,Windings=2,Buses=[BMT169632783.1.2.3 BBT107644910.1.2.3.0],Conns=[delta wye],kvs=[13.8 0.22],kvas=[75.000000000 75.000000000],Taps=[1,1.000000000],XHL=3.721000000,%loadloss=1.340000000,%noloadloss=0.340000000
new transformer.1340719 Phases=3,Windings=2,Buses=[BMT165638113.1.2.3 BBT108573236.1.2.3.0],Conns=[delta wye],kvs=[13.8 0.22],kvas=[250.000000000 250.000000000],Taps=[1,1.000000000],XHL=4.881000000,%loadloss=0.990000000,%noloadloss=0.280000000
new transformer.1422502 Phases=3,Windings=2,Buses=[BMT167747849.1.2.3 BBT155605845.1.2.3.0],Conns=[delta wye],kvs=[13.8 0.22],kvas=[500.000000000 500.000000000],Taps=[1,1.000000000],XHL=4.895000000,%loadloss=1.020000000,%noloadloss=0.260000000
new transformer.1438820 Phases=3,Windings=2,Buses=[BMT158942486.1.2.3 BBT158919412.1.2.3.0],Conns=[delta wye],kvs=[13.8 0.22],kvas=[150.000000000 150.000000000],Taps=[1,1.000000000],XHL=3.805000000,%loadloss=1.127000000,%noloadloss=0.280000000
new transformer.271034 Phases=3,Windings=2,Buses=[BMT158942442.1.2.3 BBT2119489.1.2.3.0],Conns=[delta wye],kvs=[13.8 0.22],kvas=[150.000000000 150.000000000],Taps=[1,1.000000000],XHL=3.805000000,%loadloss=1.127000000,%noloadloss=0.280000000
new transformer.275822 Phases=3,Windings=2,Buses=[BMT158942494.1.2.3 BBT2147468.1.2.3.0],Conns=[delta wye],kvs=[13.8 0.22],kvas=[225.000000000 225.000000000],Taps=[1,1.000000000],XHL=4.864000000,%loadloss=1.060000000,%noloadloss=0.248888000
new transformer.1248179 Phases=3,Windings=2,Buses=[BMT150339213.1.2.3 BBT59523459.1.2.3.0],Conns=[delta wye],kvs=[13.8 0.22],kvas=[833.000000000 833.000000000],Taps=[1,1.000000000],XHL=4.886000000,%loadloss=1.060000000,%noloadloss=0.252100000
new transformer.1411342 Phases=3,Windings=2,Buses=[BMT154395117.1.2.3 BBT153129623.1.2.3.0],Conns=[delta wye],kvs=[13.8 0.22],kvas=[500.000000000 500.000000000],Taps=[1,1.000000000],XHL=4.895000000,%loadloss=1.020000000,%noloadloss=0.260000000
new transformer.1462854 Phases=3,Windings=2,Buses=[BMT166407284.1.2.3 BBT164890752.1.2.3.0],Conns=[delta wye],kvs=[13.8 0.22],kvas=[750.000000000 750.000000000],Taps=[1,1.000000000],XHL=7.876000000,%loadloss=1.107000000,%noloadloss=0.226666000
new transformer.1491702 Phases=3,Windings=2,Buses=[BMT171281815.1.2.3 BBT170274433.1.2.3.0],Conns=[delta wye],kvs=[13.8 0.22],kvas=[500.000000000 500.000000000],Taps=[1,1.000000000],XHL=4.895000000,%loadloss=1.020000000,%noloadloss=0.260000000
new transformer.269221 Phases=3,Windings=2,Buses=[BMT158942460.1.2.3 BBT2108401.1.2.3.0],Conns=[delta wye],kvs=[13.8 0.22],kvas=[15.000000000 15.000000000],Taps=[1,1.000000000],XHL=3.362000000,%loadloss=1.967000000,%noloadloss=0.500000000
new transformer.351023 Phases=3,Windings=2,Buses=[BMT157732582.1.2.3 BBT2685775.1.2.3.0],Conns=[delta wye],kvs=[13.8 0.22],kvas=[75.000000000 75.000000000],Taps=[1,1.000000000],XHL=3.721000000,%loadloss=1.340000000,%noloadloss=0.340000000
new transformer.401311 Phases=3,Windings=2,Buses=[BMT162201820.1.2.3 BBT3619596.1.2.3.0],Conns=[delta wye],kvs=[13.8 0.22],kvas=[500.000000000 500.000000000],Taps=[1,1.000000000],XHL=4.895000000,%loadloss=1.020000000,%noloadloss=0.260000000
new transformer.423270 Phases=3,Windings=2,Buses=[BMT165600331.1.2.3 BBT4128195.1.2.3.0],Conns=[delta wye],kvs=[13.8 0.22],kvas=[75.000000000 75.000000000],Taps=[1,1.000000000],XHL=3.721000000,%loadloss=1.340000000,%noloadloss=0.340000000
new transformer.435128 Phases=3,Windings=2,Buses=[BMT158942483.1.2.3 BBT4334807.1.2.3.0],Conns=[delta wye],kvs=[13.8 0.22],kvas=[225.000000000 225.000000000],Taps=[1,1.000000000],XHL=4.864000000,%loadloss=1.060000000,%noloadloss=0.248888000
new transformer.435205 Phases=3,Windings=2,Buses=[BMT158942495.1.2.3 BBT4342367.1.2.3.0],Conns=[delta wye],kvs=[13.8 0.22],kvas=[150.000000000 150.000000000],Taps=[1,1.000000000],XHL=3.805000000,%loadloss=1.127000000,%noloadloss=0.280000000
new transformer.1335364 Phases=3,Windings=2,Buses=[BMT162611422.1.2.3 BBT104999617.1.2.3.0],Conns=[delta wye],kvs=[13.8 0.22],kvas=[75.000000000 75.000000000],Taps=[1,1.000000000],XHL=3.721000000,%loadloss=1.340000000,%noloadloss=0.340000000
new transformer.1401679 Phases=3,Windings=2,Buses=[BMT162670269.1.2.3 BBT150874439.1.2.3.0],Conns=[delta wye],kvs=[13.8 0.22],kvas=[750.000000000 750.000000000],Taps=[1,1.000000000],XHL=7.876000000,%loadloss=1.107000000,%noloadloss=0.226666000
new transformer.1429295 Phases=3,Windings=2,Buses=[BMT165639227.1.2.3 BBT157057592.1.2.3.0],Conns=[delta wye],kvs=[13.8 0.22],kvas=[750.000000000 750.000000000],Taps=[1,1.000000000],XHL=7.876000000,%loadloss=1.107000000,%noloadloss=0.226666000
new transformer.286252 Phases=3,Windings=2,Buses=[BMT165600328.1.2.3 BBT2220380.1.2.3.0],Conns=[delta wye],kvs=[13.8 0.22],kvas=[150.000000000 150.000000000],Taps=[1,1.000000000],XHL=3.805000000,%loadloss=1.127000000,%noloadloss=0.280000000
new transformer.286399 Phases=3,Windings=2,Buses=[BMT158942475.1.2.3 BBT2221276.1.2.3.0],Conns=[delta wye],kvs=[13.8 0.22],kvas=[150.000000000 150.000000000],Taps=[1,1.000000000],XHL=3.805000000,%loadloss=1.127000000,%noloadloss=0.280000000
new transformer.291775 Phases=3,Windings=2,Buses=[BMT158942444.1.2.3 BBT2249941.1.2.3.0],Conns=[delta wye],kvs=[13.8 0.22],kvas=[75.000000000 75.000000000],Taps=[1,1.000000000],XHL=3.721000000,%loadloss=1.340000000,%noloadloss=0.340000000
new transformer.414695 Phases=3,Windings=2,Buses=[BMT165600324.1.2.3 BBT3978290.1.2.3.0],Conns=[delta wye],kvs=[13.8 0.22],kvas=[150.000000000 150.000000000],Taps=[1,1.000000000],XHL=3.805000000,%loadloss=1.127000000,%noloadloss=0.280000000
new transformer.442177 Phases=3,Windings=2,Buses=[BMT164495928.1.2.3 BBT4476655.1.2.3.0],Conns=[delta wye],kvs=[13.8 0.22],kvas=[500.000000000 500.000000000],Taps=[1,1.000000000],XHL=4.895000000,%loadloss=1.020000000,%noloadloss=0.260000000
new transformer.454329 Phases=3,Windings=2,Buses=[BMT158942432.1.2.3 BBT4639279.1.2.3.0],Conns=[delta wye],kvs=[13.8 0.22],kvas=[45.000000000 45.000000000],Taps=[1,1.000000000],XHL=3.636000000,%loadloss=1.522000000,%noloadloss=0.377777000
new transformer.460846 Phases=3,Windings=2,Buses=[BMT161669210.1.2.3 BBT4950751.1.2.3.0],Conns=[delta wye],kvs=[13.8 0.22],kvas=[100.000000000 100.000000000],Taps=[1,1.000000000],XHL=3.771000000,%loadloss=1.218000000,%noloadloss=0.335000000
new transformer.460853 Phases=3,Windings=2,Buses=[BMT173206644.1.2.3 BBT4950800.1.2.3.0],Conns=[delta wye],kvs=[13.8 0.22],kvas=[45.000000000 45.000000000],Taps=[1,1.000000000],XHL=3.636000000,%loadloss=1.522000000,%noloadloss=0.377777000
new transformer.66179 Phases=3,Windings=2,Buses=[BMT165597332.1.2.3 BBT679946.1.2.3.0],Conns=[delta wye],kvs=[13.8 0.22],kvas=[150.000000000 150.000000000],Taps=[1,1.000000000],XHL=3.805000000,%loadloss=1.127000000,%noloadloss=0.280000000
