new load.3009004778M1 bus1=BMT102183020.1.2.3.0,Phases=3,kv=13.800000000,kW=0.00152,pf=0.92,Vminpu=0.93,Vmaxpu=1.5,model=1,daily=MT1_1,status=variable
new load.3009016755M1 bus1=BMT102181697.1.2.3.0,Phases=3,kv=13.800000000,kW=16.6748,pf=0.92,Vminpu=0.93,Vmaxpu=1.5,model=1,daily=MT2_1,status=variable
new load.3009016800M1 bus1=BMT102183034.1.2.3.0,Phases=3,kv=13.800000000,kW=0.00152,pf=0.92,Vminpu=0.93,Vmaxpu=1.5,model=1,daily=MT1_1,status=variable
new load.3009017011M1 bus1=BMT102181683.1.2.3.0,Phases=3,kv=13.800000000,kW=61.61788,pf=0.92,Vminpu=0.93,Vmaxpu=1.5,model=1,daily=MT3_1,status=variable
new load.3009019247M1 bus1=BMT178118292.1.2.3.0,Phases=3,kv=13.800000000,kW=0.35478,pf=0.92,Vminpu=0.93,Vmaxpu=1.5,model=1,daily=MT2_1,status=variable
new load.3009020201M1 bus1=BMT102183496.1.2.3.0,Phases=3,kv=13.800000000,kW=237.17334,pf=0.92,Vminpu=0.93,Vmaxpu=1.5,model=1,daily=MT3_1,status=variable
new load.3009021613M1 bus1=BMT102181669.1.2.3.0,Phases=3,kv=13.800000000,kW=17.02958,pf=0.92,Vminpu=0.93,Vmaxpu=1.5,model=1,daily=MT2_1,status=variable
new load.3010001405M1 bus1=BMT152054210.1.2.3.0,Phases=3,kv=13.800000000,kW=0.00152,pf=0.92,Vminpu=0.93,Vmaxpu=1.5,model=1,daily=MT1_1,status=variable
new load.3010001406M1 bus1=BMT102181130.1.2.3.0,Phases=3,kv=13.800000000,kW=15.7287,pf=0.92,Vminpu=0.93,Vmaxpu=1.5,model=1,daily=MT2_1,status=variable
new load.3010644647M1 bus1=BMT102186653.1.2.3.0,Phases=3,kv=13.800000000,kW=20.28176,pf=0.92,Vminpu=0.93,Vmaxpu=1.5,model=1,daily=MT2_1,status=variable
new load.3010651185M1 bus1=BMT161117314.1.2.3.0,Phases=3,kv=13.800000000,kW=34.05916,pf=0.92,Vminpu=0.93,Vmaxpu=1.5,model=1,daily=MT2_1,status=variable
new load.3011743856M1 bus1=BMT162886036.1.0,Phases=1,kv=13.800000000,kW=11.80108,pf=0.92,Vminpu=0.93,Vmaxpu=1.5,model=1,daily=MT1_1,status=variable
new load.3011818535M1 bus1=BMT115339219.1.2.3.0,Phases=3,kv=13.800000000,kW=3.72522,pf=0.92,Vminpu=0.93,Vmaxpu=1.5,model=1,daily=MT2_1,status=variable
new load.3012314602M1 bus1=BMT151602803.1.2.3.0,Phases=3,kv=13.800000000,kW=17.16446,pf=0.92,Vminpu=0.93,Vmaxpu=1.5,model=1,daily=MT1_1,status=variable
new load.3012633007M1 bus1=BMT156130142.1.2.3.0,Phases=3,kv=13.800000000,kW=21.10958,pf=0.92,Vminpu=0.93,Vmaxpu=1.5,model=1,daily=MT2_1,status=variable
new load.3012642538M1 bus1=BMT153546449.1.2.3.0,Phases=3,kv=13.800000000,kW=9.19554,pf=0.92,Vminpu=0.93,Vmaxpu=1.5,model=1,daily=MT1_1,status=variable
new load.3012736174M1 bus1=BMT154613089.1.2.3.0,Phases=3,kv=13.800000000,kW=55.8783,pf=0.92,Vminpu=0.93,Vmaxpu=1.5,model=1,daily=MT2_1,status=variable
new load.3013532240M1 bus1=BMT170097642.1.2.3.0,Phases=3,kv=13.800000000,kW=5.38088,pf=0.92,Vminpu=0.93,Vmaxpu=1.5,model=1,daily=MT2_1,status=variable
new load.3014114684M1 bus1=BMT176336015.1.2.3.0,Phases=3,kv=13.800000000,kW=0.52934,pf=0.92,Vminpu=0.93,Vmaxpu=1.5,model=1,daily=MT1_1,status=variable
new load.3014336634M1 bus1=BMT178274779.1.2.3.0,Phases=3,kv=13.800000000,kW=0.52934,pf=0.92,Vminpu=0.93,Vmaxpu=1.5,model=1,daily=MT1_1,status=variable
