new line.CTR180783 bus1=BMT102180388.1.2.3,bus2=BMT102181935.1.2.3,Phases=3,LineCode=tieSwitch,Length=0.001,Units=km,switch=T !numEQ NUMEQ:150382  - Data de conexão anterior06/2011.
new line.CTR180804 bus1=BMT157023336.1.2.3,bus2=BMT162571295.1.2.3,Phases=3,LineCode=tieSwitch,Length=0.001,Units=km,switch=T !numEQ NUMEQ:139968  - Data de conexão anterior06/2011.
new line.CTR19986 bus1=BMT102182208.2,bus2=BMT160899669.2,Phases=1,LineCode=tieSwitch1,Length=0.001,Units=km,switch=T !numEQ NUMEQ:134180  - Data de conexão anterior06/2011.
new line.CTR200103 bus1=BMT102180129.1.2.3,bus2=BMT102186401.1.2.3,Phases=3,LineCode=tieSwitch,Length=0.001,Units=km,switch=T !numEQ NUMEQ:149543  - Data de conexão anterior06/2011.
new line.CTR200766 bus1=BMT121429298.1.2.3,bus2=BMT121429305.1.2.3,Phases=3,LineCode=tieSwitch,Length=0.001,Units=km,switch=T !numEQ NUMEQ:35310  - Data de conexão anterior06/2011.
new line.CTR200831 bus1=BMT102184980.3,bus2=BMT102185001.3,Phases=1,LineCode=tieSwitch1,Length=0.001,Units=km,switch=T !numEQ NUMEQ:148357  - Data de conexão anterior06/2011.
new line.CTR224960 bus1=BMT102180549.1.2.3,bus2=BMT102181690.1.2.3,Phases=3,LineCode=tieSwitch,Length=0.001,Units=km,switch=T !numEQ NUMEQ:112021  - Data de conexão anterior06/2011.
new line.CTR225674 bus1=BMT102177217.1.2.3,bus2=BMT178118291.1.2.3,Phases=3,LineCode=tieSwitch,Length=0.001,Units=km,switch=T !numEQ NUMEQ:131671  - Data de conexão anterior06/2011.
new line.CTR333565 bus1=BMT102181452.2,bus2=BMT158009904.2,Phases=1,LineCode=tieSwitch1,Length=0.001,Units=km,switch=T !numEQ NUMEQ:40985  - Data de conexão anterior06/2011.
new line.CTR333789 bus1=BMT102179842.1.2.3,bus2=BMT158766110.1.2.3,Phases=3,LineCode=tieSwitch,Length=0.001,Units=km,switch=T !numEQ NUMEQ:40587  - Data de conexão anterior06/2011.
new line.CTR333803 bus1=BMT158766113.1.2.3,bus2=BMT102179898.1.2.3,Phases=3,LineCode=tieSwitch,Length=0.001,Units=km,switch=T !numEQ NUMEQ:149791  - Data de conexão anterior06/2011.
new line.CTR333817 bus1=BMT102179954.1.2.3,bus2=BMT171000942.1.2.3,Phases=3,LineCode=tieSwitch,Length=0.001,Units=km,switch=T !numEQ NUMEQ:40059  - Data de conexão anterior06/2011.
new line.CTR333852 bus1=BMT162568529.1.2.3,bus2=BMT102180080.1.2.3,Phases=3,LineCode=tieSwitch,Length=0.001,Units=km,switch=T !numEQ NUMEQ:236129  - Data de conexão anterior06/2011.
new line.CTR333873 bus1=BMT102180241.1.2.3,bus2=BMT176334891.1.2.3,Phases=3,LineCode=tieSwitch,Length=0.001,Units=km,switch=T !numEQ NUMEQ:150373  - Data de conexão anterior06/2011.
new line.CTR333915 bus1=BMT153819792.1,bus2=BMT153820048.1,Phases=1,LineCode=tieSwitch1,Length=0.001,Units=km,switch=T !numEQ NUMEQ:150377  - Data de conexão anterior06/2011.
new line.CTR333929 bus1=BMT102184763.3,bus2=BMT179634222.3,Phases=1,LineCode=tieSwitch1,Length=0.001,Units=km,switch=T !numEQ NUMEQ:40196  - Data de conexão anterior06/2011.
new line.CTR333943 bus1=BMT102184889.3,bus2=BMT102184903.3,Phases=1,LineCode=tieSwitch1,Length=0.001,Units=km,switch=T !numEQ NUMEQ:40198  - Data de conexão anterior06/2011.
new line.CTR333971 bus1=BMT22456380.1.2.3,bus2=BMT172667274.1.2.3,Phases=3,LineCode=tieSwitch,Length=0.001,Units=km,switch=T !numEQ NUMEQ:40883  - Data de conexão anterior06/2011.
new line.CTR37339 bus1=BMT102182978.1.2.3,bus2=BMT102183027.1.2.3,Phases=3,LineCode=tieSwitch,Length=0.001,Units=km,switch=T !numEQ NUMEQ:41778  - Data de conexão anterior06/2011.
new line.CTR514949 bus1=BMT102182264.2,bus2=BMT160173181.2,Phases=1,LineCode=tieSwitch1,Length=0.001,Units=km,switch=T !numEQ NUMEQ:147862  - Data de conexão anterior06/2011.
new line.CTR514963 bus1=BMT102180864.1.2.3,bus2=BMT102181214.1.2.3,Phases=3,LineCode=tieSwitch,Length=0.001,Units=km,switch=T !numEQ NUMEQ:40121  - Data de conexão anterior06/2011.
new line.CTR515019 bus1=BMT102180815.2,bus2=BMT129279418.2,Phases=1,LineCode=tieSwitch1,Length=0.001,Units=km,switch=T !numEQ NUMEQ:40122  - Data de conexão anterior06/2011.
new line.CTR547737 bus1=BMT102177406.2,bus2=BMT179410860.2,Phases=1,LineCode=tieSwitch1,Length=0.001,Units=km,switch=T !numEQ NUMEQ:41168  - Data de conexão anterior06/2011.
new line.CTR547793 bus1=BMT102182026.1.2.3,bus2=BMT177062839.1.2.3,Phases=3,LineCode=tieSwitch,Length=0.001,Units=km,switch=T !numEQ NUMEQ:40206  - Data de conexão anterior06/2011.
new line.CTR547919 bus1=BMT102177231.2,bus2=BMT179410811.2,Phases=1,LineCode=tieSwitch1,Length=0.001,Units=km,switch=T !numEQ NUMEQ:235011  - Data de conexão anterior06/2011.
new line.CTR547947 bus1=BMT102177364.2,bus2=BMT179410839.2,Phases=1,LineCode=tieSwitch1,Length=0.001,Units=km,switch=T !numEQ NUMEQ:40185  - Data de conexão anterior06/2011.
new line.CTR622644 bus1=BMT102182348.2,bus2=BMT102182404.2,Phases=1,LineCode=tieSwitch1,Length=0.001,Units=km,switch=T !numEQ NUMEQ:230189  - Data de conexão anterior06/2011.
new line.CTR62294 bus1=BMT102182733.3,bus2=BMT160544413.3,Phases=1,LineCode=tieSwitch1,Length=0.001,Units=km,switch=T !numEQ NUMEQ:148655  - Data de conexão anterior06/2011.
new line.CTR625192 bus1=BMT102180108.1.2.3,bus2=BMT170089734.1.2.3,Phases=3,LineCode=tieSwitch,Length=0.001,Units=km,switch=T !numEQ NUMEQ:126712  - Data de conexão anterior06/2011.
new line.CTR641432 bus1=BMT102180808.2,bus2=BMT102181375.2,Phases=1,LineCode=tieSwitch1,Length=0.001,Units=km,switch=T !numEQ NUMEQ:40124  - Data de conexão anterior06/2011.
new line.CTR653290 bus1=BMT102177133.1.2.3,bus2=BMT102177728.1.2.3,Phases=3,LineCode=tieSwitch,Length=0.001,Units=km,switch=T !numEQ NUMEQ:40179  - Data de conexão anterior06/2011.
new line.CTR653318 bus1=BMT102177140.1.2.3,bus2=BMT179410796.1.2.3,Phases=3,LineCode=tieSwitch,Length=0.001,Units=km,switch=T !numEQ NUMEQ:40180  - Data de conexão anterior06/2011.
new line.CTR653374 bus1=BMT102177329.2,bus2=BMT179410825.2,Phases=1,LineCode=tieSwitch1,Length=0.001,Units=km,switch=T !numEQ NUMEQ:333630  - Data de conexão anterior06/2011.
new line.CTR653402 bus1=BMT102183692.1,bus2=BMT180128150.1,Phases=1,LineCode=tieSwitch1,Length=0.001,Units=km,switch=T !numEQ NUMEQ:40213  - Data de conexão anterior06/2011.
new line.CTR653430 bus1=BMT102183804.1,bus2=BMT161074924.1,Phases=1,LineCode=tieSwitch1,Length=0.001,Units=km,switch=T !numEQ NUMEQ:40214  - Data de conexão anterior06/2011.
new line.CTR653486 bus1=BMT173637083.2,bus2=BMT178335489.2,Phases=1,LineCode=tieSwitch1,Length=0.001,Units=km,switch=T !numEQ NUMEQ:355239  - Data de conexão anterior06/2011.
new line.CTR653514 bus1=BMT102180374.3,bus2=BMT176881523.3,Phases=1,LineCode=tieSwitch1,Length=0.001,Units=km,switch=T !numEQ NUMEQ:197051  - Data de conexão anterior06/2011.
new line.CTR653542 bus1=BMT102180465.2,bus2=BMT102181746.2,Phases=1,LineCode=tieSwitch1,Length=0.001,Units=km,switch=T !numEQ NUMEQ:43580  - Data de conexão anterior06/2011.
new line.CTR657868 bus1=BMT102182537.3,bus2=BMT102182775.3,Phases=1,LineCode=tieSwitch1,Length=0.001,Units=km,switch=T !numEQ NUMEQ:43548  - Data de conexão anterior06/2011.
new line.CTR848407 bus1=BMT149412199.3,bus2=BMT160617885.3,Phases=1,LineCode=tieSwitch1,Length=0.001,Units=km,switch=T !numEQ NUMEQ:374679  - Data de conexão anterior06/2011.
new line.CTR848906 bus1=BMT149570341.3,bus2=BMT162356666.3,Phases=1,LineCode=tieSwitch1,Length=0.001,Units=km,switch=T !numEQ NUMEQ:378077  - Data de conexão anterior06/2011.
new line.CTR897829 bus1=BMT165922214.3,bus2=BMT165923216.3,Phases=1,LineCode=tieSwitch1,Length=0.001,Units=km,switch=T !numEQ NUMEQ:267686  - Data de conexão anterior06/2011.
new line.CTR910067 bus1=BMT170097627.1.2.3,bus2=BMT170097641.1.2.3,Phases=3,LineCode=tieSwitch,Length=0.001,Units=km,switch=T !numEQ NUMEQ:272663  - Data de conexão anterior06/2011.
new line.CTR910327 bus1=BMT171258712.1.2.3,bus2=BMT171258713.1.2.3,Phases=3,LineCode=tieSwitch,Length=0.001,Units=km,switch=T !numEQ NUMEQ:242359  - Data de conexão anterior06/2011.
open line.CTR910327 term=1
new line.CTR928425 bus1=BMT174885529.1.2.3,bus2=BMT174885610.1.2.3,Phases=3,LineCode=tieSwitch,Length=0.001,Units=km,switch=T !numEQ NUMEQ:330335  - Data de conexão anterior06/2011.
new line.CTR928430 bus1=BMT174885774.1.2.3,bus2=BMT174889778.1.2.3,Phases=3,LineCode=tieSwitch,Length=0.001,Units=km,switch=T !numEQ NUMEQ:330334  - Data de conexão anterior06/2011.
new line.CTR928462 bus1=BMT174892469.1.2.3,bus2=BMT174892470.1.2.3,Phases=3,LineCode=tieSwitch,Length=0.001,Units=km,switch=T !numEQ NUMEQ:330336  - Data de conexão anterior06/2011.
new line.CTR159153 bus1=BMT138053869.3,bus2=BMT164465689.3,Phases=1,LineCode=tieSwitch1,Length=0.001,Units=km,switch=T !numEQ NUMEQ:288898  - Data de conexão anterior06/2011.
new line.CTR159615 bus1=BMT102182943.1.2.3,bus2=BMT173637068.1.2.3,Phases=3,LineCode=tieSwitch,Length=0.001,Units=km,switch=T !numEQ NUMEQ:40212  - Data de conexão anterior06/2011.
new line.CTR173930 bus1=BMT102182565.3,bus2=BMT102182663.3,Phases=1,LineCode=tieSwitch1,Length=0.001,Units=km,switch=T !numEQ NUMEQ:139002  - Data de conexão anterior06/2011.
new line.CTR175302 bus1=BMT102183181.2,bus2=BMT177291847.2,Phases=1,LineCode=tieSwitch1,Length=0.001,Units=km,switch=T !numEQ NUMEQ:149805  - Data de conexão anterior06/2011.
new line.CTR191297 bus1=BMT102183265.2,bus2=BMT175866273.2,Phases=1,LineCode=tieSwitch1,Length=0.001,Units=km,switch=T !numEQ NUMEQ:113130  - Data de conexão anterior06/2011.
new line.CTR212673 bus1=BMT121429200.1.2.3,bus2=BMT173878781.1.2.3,Phases=3,LineCode=tieSwitch,Length=0.001,Units=km,switch=T !numEQ NUMEQ:32663  - Data de conexão anterior06/2011.
new line.CTR212694 bus1=BMT173637077.1.2.3,bus2=BMT151982483.1.2.3,Phases=3,LineCode=tieSwitch,Length=0.001,Units=km,switch=T !numEQ NUMEQ:32666  - Data de conexão anterior06/2011.
new line.CTR284649 bus1=BMT102183881.1,bus2=BMT102183895.1,Phases=1,LineCode=tieSwitch1,Length=0.001,Units=km,switch=T !numEQ NUMEQ:108268  - Data de conexão anterior06/2011.
new line.CTR322155 bus1=BMT166007019.1,bus2=BMT174314546.1,Phases=1,LineCode=tieSwitch1,Length=0.001,Units=km,switch=T !numEQ NUMEQ:40215  - Data de conexão anterior06/2011.
new line.CTR358989 bus1=BMT102181004.1,bus2=BMT159236092.1,Phases=1,LineCode=tieSwitch1,Length=0.001,Units=km,switch=T !numEQ NUMEQ:149637  - Data de conexão anterior06/2011.
new line.CTR691237 bus1=BMT102185932.1,bus2=BMT157031343.1,Phases=1,LineCode=tieSwitch1,Length=0.001,Units=km,switch=T !numEQ NUMEQ:204713  - Data de conexão anterior06/2011.
new line.CTR757457 bus1=BMT102184042.1,bus2=BMT167347464.1,Phases=1,LineCode=tieSwitch1,Length=0.001,Units=km,switch=T !numEQ NUMEQ:286127  - Data de conexão anterior06/2011.
new line.CTR757464 bus1=BMT102184070.1,bus2=BMT167359364.1,Phases=1,LineCode=tieSwitch1,Length=0.001,Units=km,switch=T !numEQ NUMEQ:286128  - Data de conexão anterior06/2011.
new line.CTR757471 bus1=BMT102184077.1,bus2=BMT102184119.1,Phases=1,LineCode=tieSwitch1,Length=0.001,Units=km,switch=T !numEQ NUMEQ:286129  - Data de conexão anterior06/2011.
new line.CTR765983 bus1=BMT102183811.1,bus2=BMT102183937.1,Phases=1,LineCode=tieSwitch1,Length=0.001,Units=km,switch=T !numEQ NUMEQ:220665  - Data de conexão anterior06/2011.
new line.CTR765990 bus1=BMT102183790.1,bus2=BMT178941090.1,Phases=1,LineCode=tieSwitch1,Length=0.001,Units=km,switch=T !numEQ NUMEQ:220666  - Data de conexão anterior06/2011.
new line.CTR873719 bus1=BMT156799817.3,bus2=BMT156799836.3,Phases=1,LineCode=tieSwitch1,Length=0.001,Units=km,switch=T !numEQ NUMEQ:313792  - Data de conexão anterior06/2011.
new line.CTR874736 bus1=BMT157097153.1.2.3,bus2=BMT162567563.1.2.3,Phases=3,LineCode=tieSwitch,Length=0.001,Units=km,switch=T !numEQ NUMEQ:251798  - Data de conexão anterior06/2011.
new line.CTR905656 bus1=BMT168553097.1.2.3,bus2=BMT177243070.1.2.3,Phases=3,LineCode=tieSwitch,Length=0.001,Units=km,switch=T !numEQ NUMEQ:272653  - Data de conexão anterior06/2011.
new line.CTR905849 bus1=BMT168624488.1.2.3,bus2=BMT169252311.1.2.3,Phases=3,LineCode=tieSwitch,Length=0.001,Units=km,switch=T !numEQ NUMEQ:274430  - Data de conexão anterior06/2011.
new line.CTR938405 bus1=BMT176853451.1.2.3,bus2=BMT176855617.1.2.3,Phases=3,LineCode=tieSwitch,Length=0.001,Units=km,switch=T !numEQ NUMEQ:355225  - Data de conexão anterior06/2011.
new line.CTR95383 bus1=BMT102180269.1.2.3,bus2=BMT170228234.1.2.3,Phases=3,LineCode=tieSwitch,Length=0.001,Units=km,switch=T !numEQ NUMEQ:150374  - Data de conexão anterior06/2011.
new line.CTR953864 bus1=BMT179952424.1,bus2=BMT179952425.1,Phases=1,LineCode=tieSwitch1,Length=0.001,Units=km,switch=T !numEQ NUMEQ:391232  - Data de conexão anterior06/2011.
new line.CTR953913 bus1=BMT179960819.3,bus2=BMT179960835.3,Phases=1,LineCode=tieSwitch1,Length=0.001,Units=km,switch=T !numEQ NUMEQ:366553  - Data de conexão anterior06/2011.
new line.CTRR46125 bus1=BMT174665844.1,bus2=BMT176899633.1,Phases=1,LineCode=tieSwitch1,Length=0.001,Units=km,switch=T !numEQ NUMEQ:333928  - Data de conexão anterior06/2011.
new line.CTR151145 bus1=BMT156995083.1.2.3,bus2=BMT179352654.1.2.3,Phases=3,LineCode=tieSwitch,Length=0.001,Units=km,switch=T !numEQ NUMEQ:296297  - Data de conexão anterior06/2011.
new line.CTR151173 bus1=BMT102182131.1.2.3,bus2=BMT178741488.1.2.3,Phases=3,LineCode=tieSwitch,Length=0.001,Units=km,switch=T !numEQ NUMEQ:40216  - Data de conexão anterior06/2011.
new line.CTR151243 bus1=BMT156799313.1.2.3,bus2=BMT156799336.1.2.3,Phases=3,LineCode=tieSwitch,Length=0.001,Units=km,switch=T !numEQ NUMEQ:196411  - Data de conexão anterior06/2011.
new line.CTR151271 bus1=BMT102184735.1.2.3,bus2=BMT173465007.1.2.3,Phases=3,LineCode=tieSwitch,Length=0.001,Units=km,switch=T !numEQ NUMEQ:288897  - Data de conexão anterior06/2011.
new line.CTR184122 bus1=BMT102186037.1.2.3,bus2=BMT162568027.1.2.3,Phases=3,LineCode=tieSwitch,Length=0.001,Units=km,switch=T !numEQ NUMEQ:384285  - Data de conexão anterior06/2011.
new line.CTR202903 bus1=BMT102183629.2,bus2=BMT115612541.2,Phases=1,LineCode=tieSwitch1,Length=0.001,Units=km,switch=T !numEQ NUMEQ:134179  - Data de conexão anterior06/2011.
new line.CTR227718 bus1=BMT171258653.1.2.3,bus2=BMT2808170.1.2.3,Phases=3,LineCode=tieSwitch,Length=0.001,Units=km,switch=T !numEQ NUMEQ:40050  - Data de conexão anterior06/2011.
open line.CTR227718 term=1
new line.CTR227767 bus1=BMT165040479.1.2.3,bus2=BMT2807953.1.2.3,Phases=3,LineCode=tieSwitch,Length=0.001,Units=km,switch=T !numEQ NUMEQ:40588  - Data de conexão anterior06/2011.
open line.CTR227767 term=1
new line.CTR227865 bus1=BMT102183202.2,bus2=BMT166925590.2,Phases=1,LineCode=tieSwitch1,Length=0.001,Units=km,switch=T !numEQ NUMEQ:40209  - Data de conexão anterior06/2011.
new line.CTR227879 bus1=BMT102182950.1,bus2=BMT102182985.1,Phases=1,LineCode=tieSwitch1,Length=0.001,Units=km,switch=T !numEQ NUMEQ:40210  - Data de conexão anterior06/2011.
new line.CTR227893 bus1=BMT102180409.1,bus2=BMT102181886.1,Phases=1,LineCode=tieSwitch1,Length=0.001,Units=km,switch=T !numEQ NUMEQ:40202  - Data de conexão anterior06/2011.
new line.CTR227907 bus1=BMT102180479.1,bus2=BMT102181732.1,Phases=1,LineCode=tieSwitch1,Length=0.001,Units=km,switch=T !numEQ NUMEQ:40204  - Data de conexão anterior06/2011.
new line.CTR227921 bus1=BMT102184448.3,bus2=BMT102185876.3,Phases=1,LineCode=tieSwitch1,Length=0.001,Units=km,switch=T !numEQ NUMEQ:40191  - Data de conexão anterior06/2011.
new line.CTR227935 bus1=BMT102184518.3,bus2=BMT177042576.3,Phases=1,LineCode=tieSwitch1,Length=0.001,Units=km,switch=T !numEQ NUMEQ:40192  - Data de conexão anterior06/2011.
new line.CTR227949 bus1=BMT179960879.1.2.3,bus2=BMT179960895.1.2.3,Phases=3,LineCode=tieSwitch,Length=0.001,Units=km,switch=T !numEQ NUMEQ:366552  - Data de conexão anterior06/2011.
new line.CTR227956 bus1=BMT102184728.3,bus2=BMT102185092.3,Phases=1,LineCode=tieSwitch1,Length=0.001,Units=km,switch=T !numEQ NUMEQ:40194  - Data de conexão anterior06/2011.
new line.CTR227970 bus1=BMT102184882.3,bus2=BMT165922211.3,Phases=1,LineCode=tieSwitch1,Length=0.001,Units=km,switch=T !numEQ NUMEQ:40197  - Data de conexão anterior06/2011.
new line.CTR227984 bus1=BMT102185127.3,bus2=BMT102185197.3,Phases=1,LineCode=tieSwitch1,Length=0.001,Units=km,switch=T !numEQ NUMEQ:40219  - Data de conexão anterior06/2011.
new line.CTR228012 bus1=BMT102176496.1.2.3,bus2=BMT174081745.1.2.3,Phases=3,LineCode=tieSwitch,Length=0.001,Units=km,switch=T !numEQ NUMEQ:40580  - Data de conexão anterior06/2011.
new line.CTR228054 bus1=BMT102179919.1.2.3,bus2=BMT102179933.1.2.3,Phases=3,LineCode=tieSwitch,Length=0.001,Units=km,switch=T !numEQ NUMEQ:40058  - Data de conexão anterior06/2011.
new line.CTR228117 bus1=BMT162568522.1.2.3,bus2=BMT2808191.1.2.3,Phases=3,LineCode=tieSwitch,Length=0.001,Units=km,switch=T !numEQ NUMEQ:40060  - Data de conexão anterior06/2011.
open line.CTR228117 term=1
new line.CTR228131 bus1=BMT102180031.1.2.3,bus2=BMT102186492.1.2.3,Phases=3,LineCode=tieSwitch,Length=0.001,Units=km,switch=T !numEQ NUMEQ:40063  - Data de conexão anterior06/2011.
new line.CTR279637 bus1=BMT148112549.2,bus2=BMT158577312.2,Phases=1,LineCode=tieSwitch1,Length=0.001,Units=km,switch=T !numEQ NUMEQ:41989  - Data de conexão anterior06/2011.
new line.CTR34861 bus1=BMT102180668.1.2.3,bus2=BMT102181662.1.2.3,Phases=3,LineCode=tieSwitch,Length=0.001,Units=km,switch=T !numEQ NUMEQ:148815  - Data de conexão anterior06/2011.
new line.CTR39236 bus1=BMT102180087.1.2.3,bus2=BMT178711361.1.2.3,Phases=3,LineCode=tieSwitch,Length=0.001,Units=km,switch=T !numEQ NUMEQ:41800  - Data de conexão anterior06/2011.
new line.CTR45557 bus1=BMT102180360.1.2.3,bus2=BMT102184315.1.2.3,Phases=3,LineCode=tieSwitch,Length=0.001,Units=km,switch=T !numEQ NUMEQ:150379  - Data de conexão anterior06/2011.
new line.CTR45711 bus1=BMT102177000.1.2.3,bus2=BMT178849542.1.2.3,Phases=3,LineCode=tieSwitch,Length=0.001,Units=km,switch=T !numEQ NUMEQ:296287  - Data de conexão anterior06/2011.
new line.CTR534353 bus1=BMT102179870.2,bus2=BMT102186660.2,Phases=1,LineCode=tieSwitch1,Length=0.001,Units=km,switch=T !numEQ NUMEQ:147910  - Data de conexão anterior06/2011.
new line.CTR845706 bus1=BMT148616740.3,bus2=BMT148616793.3,Phases=1,LineCode=tieSwitch1,Length=0.001,Units=km,switch=T !numEQ NUMEQ:292638  - Data de conexão anterior06/2011.
new line.CTR893468 bus1=BMT164430007.3,bus2=BMT164430009.3,Phases=1,LineCode=tieSwitch1,Length=0.001,Units=km,switch=T !numEQ NUMEQ:402581  - Data de conexão anterior06/2011.
new line.CTR923623 bus1=BMT174170927.1.2.3,bus2=BMT174892465.1.2.3,Phases=3,LineCode=tieSwitch,Length=0.001,Units=km,switch=T !numEQ NUMEQ:323690  - Data de conexão anterior06/2011.
new line.CTR923624 bus1=BMT174170984.1.2.3,bus2=BMT174885768.1.2.3,Phases=3,LineCode=tieSwitch,Length=0.001,Units=km,switch=T !numEQ NUMEQ:323691  - Data de conexão anterior06/2011.
new line.CTR923629 bus1=BMT174171573.1.2.3,bus2=BMT174171574.1.2.3,Phases=3,LineCode=tieSwitch,Length=0.001,Units=km,switch=T !numEQ NUMEQ:323689  - Data de conexão anterior06/2011.
new line.CTR923936 bus1=BMT174211238.1.2.3,bus2=BMT174262390.1.2.3,Phases=3,LineCode=tieSwitch,Length=0.001,Units=km,switch=T !numEQ NUMEQ:385358  - Data de conexão anterior06/2011.
new line.CTR945536 bus1=BMT178274726.1.2.3,bus2=BMT178274778.1.2.3,Phases=3,LineCode=tieSwitch,Length=0.001,Units=km,switch=T !numEQ NUMEQ:353638  - Data de conexão anterior06/2011.
new line.CTRR35434 bus1=BMT157033204.1.2.3,bus2=BMT162568018.1.2.3,Phases=3,LineCode=tieSwitch,Length=0.001,Units=km,switch=T !numEQ NUMEQ:236128
new line.CTRR36010 bus1=BMT161120683.1.2.3,bus2=BMT161188971.1.2.3,Phases=3,LineCode=tieSwitch,Length=0.001,Units=km,switch=T !numEQ NUMEQ:236694
new line.CTRR49927 bus1=BMT176335426.1.2.3,bus2=BMT176336013.1.2.3,Phases=3,LineCode=tieSwitch,Length=0.001,Units=km,switch=T !numEQ NUMEQ:335218
new line.CTR177745 bus1=BMT102180136.1,bus2=BMT167930907.1,Phases=1,LineCode=tieSwitch1,Length=0.001,Units=km,switch=T !numEQ NUMEQ:148603  - Data de conexão anterior06/2011.
new line.CTR195357 bus1=BMT102181298.2,bus2=BMT102181340.2,Phases=1,LineCode=tieSwitch1,Length=0.001,Units=km,switch=T !numEQ NUMEQ:40123  - Data de conexão anterior06/2011.
new line.CTR264944 bus1=BMT165040478.1.2.3,bus2=BMT25990190.1.2.3,Phases=3,LineCode=tieSwitch,Length=0.001,Units=km,switch=T !numEQ NUMEQ:199745  - Data de conexão anterior06/2011.
open line.CTR264944 term=1
new line.CTR371785 bus1=BMT152054192.1.2.3,bus2=BMT152054209.1.2.3,Phases=3,LineCode=tieSwitch,Length=0.001,Units=km,switch=T !numEQ NUMEQ:149890  - Data de conexão anterior06/2011.
new line.CTR40923 bus1=BMT102184637.3,bus2=BMT102185393.3,Phases=1,LineCode=tieSwitch1,Length=0.001,Units=km,switch=T !numEQ NUMEQ:41889  - Data de conexão anterior06/2011.
new line.CTR45305 bus1=BMT102182551.3,bus2=BMT102182698.3,Phases=1,LineCode=tieSwitch1,Length=0.001,Units=km,switch=T !numEQ NUMEQ:40914  - Data de conexão anterior06/2011.
new line.CTR45333 bus1=BMT102183552.2,bus2=BMT102184203.2,Phases=1,LineCode=tieSwitch1,Length=0.001,Units=km,switch=T !numEQ NUMEQ:40208  - Data de conexão anterior06/2011.
new line.CTR45361 bus1=BMT102185316.3,bus2=BMT102185330.3,Phases=1,LineCode=tieSwitch1,Length=0.001,Units=km,switch=T !numEQ NUMEQ:41245  - Data de conexão anterior06/2011.
new line.CTR45389 bus1=BMT102185925.1,bus2=BMT179952617.1,Phases=1,LineCode=tieSwitch1,Length=0.001,Units=km,switch=T !numEQ NUMEQ:40189  - Data de conexão anterior06/2011.
new line.CTR45501 bus1=BMT102180297.1,bus2=BMT179952423.1,Phases=1,LineCode=tieSwitch1,Length=0.001,Units=km,switch=T !numEQ NUMEQ:150375  - Data de conexão anterior06/2011.
new line.CTR45529 bus1=BMT102180332.1.2.3,bus2=BMT177499089.1.2.3,Phases=3,LineCode=tieSwitch,Length=0.001,Units=km,switch=T !numEQ NUMEQ:197050  - Data de conexão anterior06/2011.
new line.CTR492633 bus1=BMT102180171.1.2.3,bus2=BMT162568107.1.2.3,Phases=3,LineCode=tieSwitch,Length=0.001,Units=km,switch=T !numEQ NUMEQ:194238  - Data de conexão anterior06/2011.
new line.CTR496490 bus1=BMT102176517.1.2.3,bus2=BMT164730495.1.2.3,Phases=3,LineCode=tieSwitch,Length=0.001,Units=km,switch=T !numEQ NUMEQ:402706  - Data de conexão anterior06/2011.
new line.CTR522019 bus1=BMT102186114.1,bus2=BMT176880493.1,Phases=1,LineCode=tieSwitch1,Length=0.001,Units=km,switch=T !numEQ NUMEQ:147816  - Data de conexão anterior06/2011.
new line.CTR524889 bus1=BMT153463075.1.2.3,bus2=BMT153463429.1.2.3,Phases=3,LineCode=tieSwitch,Length=0.001,Units=km,switch=T !numEQ NUMEQ:149440  - Data de conexão anterior06/2011.
new line.CTR524917 bus1=BMT102180500.2,bus2=BMT102181704.2,Phases=1,LineCode=tieSwitch1,Length=0.001,Units=km,switch=T !numEQ NUMEQ:149442  - Data de conexão anterior06/2011.
new line.CTR819862 bus1=BMT129976548.1.2.3,bus2=BMT179960853.1.2.3,Phases=3,LineCode=tieSwitch,Length=0.001,Units=km,switch=T !numEQ NUMEQ:302286  - Data de conexão anterior06/2011.
new line.CTR826015 bus1=BMT177499092.1.2.3,bus2=BMT133267766.1.2.3,Phases=3,LineCode=tieSwitch,Length=0.001,Units=km,switch=T !numEQ NUMEQ:312905  - Data de conexão anterior06/2011.
new line.CTR866184 bus1=BMT154613086.1.2.3,bus2=BMT154613088.1.2.3,Phases=3,LineCode=tieSwitch,Length=0.001,Units=km,switch=T !numEQ NUMEQ:239736  - Data de conexão anterior06/2011.
new line.CTR866596 bus1=BMT157030763.1.2.3,bus2=BMT162568170.1.2.3,Phases=3,LineCode=tieSwitch,Length=0.001,Units=km,switch=T !numEQ NUMEQ:384287  - Data de conexão anterior06/2011.
new line.CTR867271 bus1=BMT154872067.1.2.3,bus2=BMT155373679.1.2.3,Phases=3,LineCode=tieSwitch,Length=0.001,Units=km,switch=T !numEQ NUMEQ:177816  - Data de conexão anterior06/2011.
new line.CTR867283 bus1=BMT154875545.1,bus2=BMT154875547.1,Phases=1,LineCode=tieSwitch1,Length=0.001,Units=km,switch=T !numEQ NUMEQ:177818  - Data de conexão anterior06/2011.
new line.CTR895683 bus1=BMT165021215.1.2.3,bus2=BMT165040476.1.2.3,Phases=3,LineCode=tieSwitch,Length=0.001,Units=km,switch=T !numEQ NUMEQ:256844  - Data de conexão anterior06/2011.
new line.CTR896004 bus1=BMT166925521.2,bus2=BMT170652341.2,Phases=1,LineCode=tieSwitch1,Length=0.001,Units=km,switch=T !numEQ NUMEQ:270862  - Data de conexão anterior06/2011.
new line.CTR912652 bus1=BMT170998574.1.2.3,bus2=BMT170998575.1.2.3,Phases=3,LineCode=tieSwitch,Length=0.001,Units=km,switch=T !numEQ NUMEQ:279089  - Data de conexão anterior06/2011.
new line.CTR912664 bus1=BMT171000947.1.2.3,bus2=BMT171000948.1.2.3,Phases=3,LineCode=tieSwitch,Length=0.001,Units=km,switch=T !numEQ NUMEQ:232488  - Data de conexão anterior06/2011.
new line.CTRR43080 bus1=BMT172667273.1.2.3,bus2=BMT172667221.1.2.3,Phases=3,LineCode=tieSwitch,Length=0.001,Units=km,switch=T !numEQ NUMEQ:319815  - Data de conexão anterior06/2011.
open line.CTRR43080 term=1
new line.CTR147981 bus1=BMT154549313.2,bus2=BMT159976922.2,Phases=1,LineCode=tieSwitch1,Length=0.001,Units=km,switch=T !numEQ NUMEQ:226241  - Data de conexão anterior06/2011.
new line.CTR196750 bus1=BMT102185638.3,bus2=BMT102185855.3,Phases=1,LineCode=tieSwitch1,Length=0.001,Units=km,switch=T !numEQ NUMEQ:147857  - Data de conexão anterior06/2011.
new line.CTR196792 bus1=BMT102180353.3,bus2=BMT102184329.3,Phases=1,LineCode=tieSwitch1,Length=0.001,Units=km,switch=T !numEQ NUMEQ:150378  - Data de conexão anterior06/2011.
new line.CTR196834 bus1=BMT102182362.2,bus2=BMT139131575.2,Phases=1,LineCode=tieSwitch1,Length=0.001,Units=km,switch=T !numEQ NUMEQ:147861  - Data de conexão anterior06/2011.
new line.CTR198311 bus1=BMT102182586.3,bus2=BMT102182600.3,Phases=1,LineCode=tieSwitch1,Length=0.001,Units=km,switch=T !numEQ NUMEQ:147863  - Data de conexão anterior06/2011.
new line.CTR221194 bus1=BMT102182054.1.2.3,bus2=BMT173947698.1.2.3,Phases=3,LineCode=tieSwitch,Length=0.001,Units=km,switch=T !numEQ NUMEQ:150386  - Data de conexão anterior06/2011.
new line.CTR221320 bus1=BMT102181963.1.2.3,bus2=BMT176853438.1.2.3,Phases=3,LineCode=tieSwitch,Length=0.001,Units=km,switch=T !numEQ NUMEQ:150384  - Data de conexão anterior06/2011.
new line.CTR24690 bus1=BMT102185148.3,bus2=BMT102185169.3,Phases=1,LineCode=tieSwitch1,Length=0.001,Units=km,switch=T !numEQ NUMEQ:134182  - Data de conexão anterior06/2011.
new line.CTR273827 bus1=BMT102180703.2,bus2=BMT102181585.2,Phases=1,LineCode=tieSwitch1,Length=0.001,Units=km,switch=T !numEQ NUMEQ:40126  - Data de conexão anterior06/2011.
new line.CTR30227 bus1=BMT102179975.1.2.3,bus2=BMT102179982.1.2.3,Phases=3,LineCode=tieSwitch,Length=0.001,Units=km,switch=T !numEQ NUMEQ:105147  - Data de conexão anterior06/2011.
new line.CTR341874 bus1=BMT102184784.3,bus2=BMT165441370.3,Phases=1,LineCode=tieSwitch1,Length=0.001,Units=km,switch=T !numEQ NUMEQ:41228  - Data de conexão anterior06/2011.
new line.CTR342000 bus1=BMT102182971.1.2.3,bus2=BMT102183013.1.2.3,Phases=3,LineCode=tieSwitch,Length=0.001,Units=km,switch=T !numEQ NUMEQ:41779  - Data de conexão anterior06/2011.
new line.CTR532071 bus1=BMT161669204.1.2.3,bus2=BMT102176909.1.2.3,Phases=3,LineCode=tieSwitch,Length=0.001,Units=km,switch=T !numEQ NUMEQ:196931  - Data de conexão anterior06/2011.
open line.CTR532071 term=1
new line.CTR590892 bus1=BMT102180836.2,bus2=BMT102181242.2,Phases=1,LineCode=tieSwitch1,Length=0.001,Units=km,switch=T !numEQ NUMEQ:384062  - Data de conexão anterior06/2011.
new line.CTR591228 bus1=BMT177001171.2,bus2=BMT177645914.2,Phases=1,LineCode=tieSwitch1,Length=0.001,Units=km,switch=T !numEQ NUMEQ:299203  - Data de conexão anterior06/2011.
new line.CTR60194 bus1=BMT157031349.1,bus2=BMT102185988.1,Phases=1,LineCode=tieSwitch1,Length=0.001,Units=km,switch=T !numEQ NUMEQ:147660  - Data de conexão anterior06/2011.
open line.CTR60194 term=1
new line.CTR718215 bus1=BMT161118594.1.2.3,bus2=BMT161139925.1.2.3,Phases=3,LineCode=tieSwitch,Length=0.001,Units=km,switch=T !numEQ NUMEQ:212544  - Data de conexão anterior06/2011.
new line.CTR718236 bus1=BMT102186310.1.2.3,bus2=BMT161117313.1.2.3,Phases=3,LineCode=tieSwitch,Length=0.001,Units=km,switch=T !numEQ NUMEQ:212545  - Data de conexão anterior06/2011.
new line.CTR862529 bus1=BMT153463432.1.2.3,bus2=BMT153463301.1.2.3,Phases=3,LineCode=tieSwitch,Length=0.001,Units=km,switch=T !numEQ NUMEQ:232482  - Data de conexão anterior06/2011.
new line.CTR862801 bus1=BMT153546445.1.2.3,bus2=BMT153546448.1.2.3,Phases=3,LineCode=tieSwitch,Length=0.001,Units=km,switch=T !numEQ NUMEQ:126526  - Data de conexão anterior06/2011.
new line.CTR878993 bus1=BMT158577314.2,bus2=BMT170214070.2,Phases=1,LineCode=tieSwitch1,Length=0.001,Units=km,switch=T !numEQ NUMEQ:251718  - Data de conexão anterior06/2011.
new line.CTR905887 bus1=BMT168639789.1,bus2=BMT168639790.1,Phases=1,LineCode=tieSwitch1,Length=0.001,Units=km,switch=T !numEQ NUMEQ:268055  - Data de conexão anterior06/2011.
new line.CTR938577 bus1=BMT176899634.1,bus2=BMT179187798.1,Phases=1,LineCode=tieSwitch1,Length=0.001,Units=km,switch=T !numEQ NUMEQ:333632  - Data de conexão anterior06/2011.
new line.CTR939378 bus1=BMT177062840.1.2.3,bus2=BMT177062986.1.2.3,Phases=3,LineCode=tieSwitch,Length=0.001,Units=km,switch=T !numEQ NUMEQ:347002  - Data de conexão anterior06/2011.
new line.CTR940165 bus1=BMT177242742.1.2.3,bus2=BMT177244304.1.2.3,Phases=3,LineCode=tieSwitch,Length=0.001,Units=km,switch=T !numEQ NUMEQ:336123  - Data de conexão anterior06/2011.
new line.CTRR38517 bus1=BMT164730497.1.2.3,bus2=BMT164730498.1.2.3,Phases=3,LineCode=tieSwitch,Length=0.001,Units=km,switch=T !numEQ NUMEQ:196928
open line.CTRR38517 term=1
new line.CTRR51020 bus1=BMT177042579.3,bus2=BMT177042587.3,Phases=1,LineCode=tieSwitch1,Length=0.001,Units=km,switch=T !numEQ NUMEQ:343861
new line.CTRR51090 bus1=BMT102183447.1.2.3,bus2=BMT102183489.1.2.3,Phases=3,LineCode=tieSwitch,Length=0.001,Units=km,switch=T !numEQ NUMEQ:139964
new line.CTRR51091 bus1=BMT176855621.1.2.3,bus2=BMT176855769.1.2.3,Phases=3,LineCode=tieSwitch,Length=0.001,Units=km,switch=T !numEQ NUMEQ:150385
new line.CTR208125 bus1=BMT102179996.1.2.3,bus2=BMT3747283.1.2.3,Phases=3,LineCode=tieSwitch,Length=0.001,Units=km,switch=T !numEQ NUMEQ:40040  - Data de conexão anterior06/2011.
open line.CTR208125 term=1
new line.CTR238106 bus1=BMT102177336.2,bus2=BMT179410832.2,Phases=1,LineCode=tieSwitch1,Length=0.001,Units=km,switch=T !numEQ NUMEQ:106407  - Data de conexão anterior06/2011.