new load.BT_3001848597_M1 bus1=RML1000362382.2.0,Phases=1,kv=0.127,kW=0.38976,pf=0.92,Vminpu=0.92,Vmaxpu=1.5,model=1,daily=RES1_18,status=variable
new load.BT_3001848598_M1 bus1=RML1000362375.2.0,Phases=1,kv=0.127,kW=0.80502,pf=0.92,Vminpu=0.92,Vmaxpu=1.5,model=1,daily=COM1_21,status=variable
new load.BT_3001848600_M1 bus1=RML1000362361.1.2.3.0,Phases=3,kv=0.22,kW=0.00754,pf=0.92,Vminpu=0.92,Vmaxpu=1.5,model=1,daily=COM1_21,status=variable
new load.BT_3001848601_M1 bus1=RML1000362368.1.2.3.0,Phases=3,kv=0.22,kW=2.64232,pf=0.92,Vminpu=0.92,Vmaxpu=1.5,model=1,daily=COM1_21,status=variable
new load.BT_3001848602_M1 bus1=RML1000286971.1.2.3.0,Phases=3,kv=0.22,kW=1.02298,pf=0.92,Vminpu=0.92,Vmaxpu=1.5,model=1,daily=COM1_21,status=variable
new load.BT_3001848604_M1 bus1=RML1000362277.2.0,Phases=1,kv=0.12,kW=0.96872,pf=0.92,Vminpu=0.92,Vmaxpu=1.5,model=1,daily=RES1_18,status=variable
new load.BT_3001848605_M1 bus1=RML1003163040.1.0,Phases=1,kv=0.127,kW=0.0026,pf=0.92,Vminpu=0.92,Vmaxpu=1.5,model=1,daily=RES1_18,status=variable
new load.BT_3001848606_M1 bus1=RML1000362354.1.2.3.0,Phases=3,kv=0.22,kW=0.00754,pf=0.92,Vminpu=0.92,Vmaxpu=1.5,model=1,daily=COM1_21,status=variable
new load.BT_3001848607_M1 bus1=RML1000362270.1.0,Phases=1,kv=0.12,kW=0.30218,pf=0.92,Vminpu=0.92,Vmaxpu=1.5,model=1,daily=RES1_18,status=variable
new load.BT_3001848609_M1 bus1=RML1000362354.1.2.3.0,Phases=3,kv=0.22,kW=0.4218,pf=0.92,Vminpu=0.92,Vmaxpu=1.5,model=1,daily=RES1_18,status=variable
new load.BT_3001848610_M1 bus1=RML1000362340.1.2.0,Phases=2,kv=0.22,kW=1.01846,pf=0.92,Vminpu=0.92,Vmaxpu=1.5,model=1,daily=RES1_18,status=variable
new load.BT_3001848611_M1 bus1=RML1000362326.3.0,Phases=1,kv=0.127,kW=0.00042,pf=0.92,Vminpu=0.92,Vmaxpu=1.5,model=1,daily=RES1_18,status=variable
new load.BT_3001848612_M1 bus1=RML1003163047.1.2.3.0,Phases=3,kv=0.22,kW=0.13872,pf=0.92,Vminpu=0.92,Vmaxpu=1.5,model=1,daily=RES1_18,status=variable
new load.BT_3001848613_M1 bus1=RML1000362333.1.2.0,Phases=2,kv=0.22,kW=0.00104,pf=0.92,Vminpu=0.92,Vmaxpu=1.5,model=1,daily=COM1_21,status=variable
new load.BT_3001848614_M1 bus1=RML1000362410.3.0,Phases=1,kv=0.127,kW=0.0814,pf=0.92,Vminpu=0.92,Vmaxpu=1.5,model=1,daily=RES1_18,status=variable
new load.BT_3001848615_M1 bus1=RML1000362424.1.0,Phases=1,kv=0.127,kW=0.14738,pf=0.92,Vminpu=0.92,Vmaxpu=1.5,model=1,daily=RES1_18,status=variable
new load.BT_3001848616_M1 bus1=RML1000362417.3.0,Phases=1,kv=0.127,kW=0.6664,pf=0.92,Vminpu=0.92,Vmaxpu=1.5,model=1,daily=RES1_18,status=variable
new load.BT_3001848617_M1 bus1=RML1000362431.1.0,Phases=1,kv=0.127,kW=0.003,pf=0.92,Vminpu=0.92,Vmaxpu=1.5,model=1,daily=RES1_18,status=variable
new load.BT_3001848618_M1 bus1=RML1000362452.1.0,Phases=1,kv=0.127,kW=0.07834,pf=0.92,Vminpu=0.92,Vmaxpu=1.5,model=1,daily=RES1_18,status=variable
new load.BT_3001848620_M1 bus1=RML1000362445.1.0,Phases=1,kv=0.127,kW=0.003,pf=0.92,Vminpu=0.92,Vmaxpu=1.5,model=1,daily=RES1_18,status=variable
new load.BT_3001848623_M1 bus1=RML1003163054.1.2.3.0,Phases=3,kv=0.22,kW=0.00404,pf=0.92,Vminpu=0.92,Vmaxpu=1.5,model=1,daily=IND1_22,status=variable
new load.BT_3001848625_M1 bus1=RML1000361850.1.2.3.0,Phases=3,kv=0.22,kW=0.56492,pf=0.92,Vminpu=0.92,Vmaxpu=1.5,model=1,daily=IND1_22,status=variable
new load.BT_3001848626_M1 bus1=RML1000361857.1.2.3.0,Phases=3,kv=0.22,kW=54.21374,pf=0.92,Vminpu=0.92,Vmaxpu=1.5,model=1,daily=COM1_21,status=variable
new load.BT_3001848627_M1 bus1=RML1003163061.1.2.3.0,Phases=3,kv=0.22,kW=70.8359,pf=0.92,Vminpu=0.92,Vmaxpu=1.5,model=1,daily=COM1_21,status=variable
new load.BT_3001848628_M1 bus1=RML1000361710.1.2.3.0,Phases=3,kv=0.22,kW=5.43616,pf=0.92,Vminpu=0.92,Vmaxpu=1.5,model=1,daily=COM1_21,status=variable
new load.BT_3001848629_M1 bus1=RML1000361752.3.0,Phases=1,kv=0.127,kW=0.23606,pf=0.92,Vminpu=0.92,Vmaxpu=1.5,model=1,daily=RES1_18,status=variable
new load.BT_3001848630_M1 bus1=RML1010051988.3.0,Phases=1,kv=0.127,kW=0.32556,pf=0.92,Vminpu=0.92,Vmaxpu=1.5,model=1,daily=RES1_18,status=variable
new load.BT_3001848631_M1 bus1=RML1000361787.1.0,Phases=1,kv=0.127,kW=0.35306,pf=0.92,Vminpu=0.92,Vmaxpu=1.5,model=1,daily=RES1_18,status=variable
new load.BT_3002534776_M1 bus1=RML1002234527.2.0,Phases=1,kv=0.12,kW=0.26756,pf=0.92,Vminpu=0.92,Vmaxpu=1.5,model=1,daily=RES1_19,status=variable
new load.BT_3002534777_M1 bus1=RML1002234527.2.0,Phases=1,kv=0.12,kW=0.53514,pf=0.92,Vminpu=0.92,Vmaxpu=1.5,model=1,daily=RES1_19,status=variable
new load.BT_3002534778_M1 bus1=RML1010130396.1.0,Phases=1,kv=0.12,kW=0.71468,pf=0.92,Vminpu=0.92,Vmaxpu=1.5,model=1,daily=RES1_19,status=variable
new load.BT_3002534779_M1 bus1=RML1002234513.1.0,Phases=1,kv=0.12,kW=0.24294,pf=0.92,Vminpu=0.92,Vmaxpu=1.5,model=1,daily=RES1_19,status=variable
new load.BT_3002534780_M1 bus1=RML1002234569.2.0,Phases=1,kv=0.12,kW=0.19594,pf=0.92,Vminpu=0.92,Vmaxpu=1.5,model=1,daily=RES1_19,status=variable
new load.BT_3002534781_M1 bus1=RML1002234541.1.0,Phases=1,kv=0.12,kW=0.4905,pf=0.92,Vminpu=0.92,Vmaxpu=1.5,model=1,daily=RES1_19,status=variable
new load.BT_3002534782_M1 bus1=RML1002234583.2.0,Phases=1,kv=0.12,kW=0.35456,pf=0.92,Vminpu=0.92,Vmaxpu=1.5,model=1,daily=RES1_19,status=variable
new load.BT_3002534783_M1 bus1=RML1002234590.1.0,Phases=1,kv=0.12,kW=0.49092,pf=0.92,Vminpu=0.92,Vmaxpu=1.5,model=1,daily=RES1_19,status=variable
new load.BT_3002534793_M1 bus1=RML1002254050.2.0,Phases=1,kv=0.12,kW=0.47762,pf=0.92,Vminpu=0.92,Vmaxpu=1.5,model=1,daily=RES1_19,status=variable
new load.BT_3002535066_M1 bus1=RML1002235542.1.0,Phases=1,kv=0.127,kW=0.3228,pf=0.92,Vminpu=0.92,Vmaxpu=1.5,model=1,daily=RES1_19,status=variable
new load.BT_3002535067_M1 bus1=RML1002202264.1.2.0,Phases=2,kv=0.22,kW=0.51398,pf=0.92,Vminpu=0.92,Vmaxpu=1.5,model=1,daily=RES1_19,status=variable
new load.BT_3002535068_M1 bus1=RML1002202264.1.2.0,Phases=2,kv=0.22,kW=0.23936,pf=0.92,Vminpu=0.92,Vmaxpu=1.5,model=1,daily=RES1_19,status=variable
new load.BT_3002535069_M1 bus1=RML1002235528.1.2.0,Phases=2,kv=0.22,kW=0.28118,pf=0.92,Vminpu=0.92,Vmaxpu=1.5,model=1,daily=RES1_19,status=variable
new load.BT_3002535070_M1 bus1=RML1002235528.1.2.0,Phases=2,kv=0.22,kW=0.45884,pf=0.92,Vminpu=0.92,Vmaxpu=1.5,model=1,daily=RES1_19,status=variable
new load.BT_3002535073_M1 bus1=RML1006497604.1.2.0,Phases=2,kv=0.22,kW=0.29412,pf=0.92,Vminpu=0.92,Vmaxpu=1.5,model=1,daily=RES1_19,status=variable
new load.BT_3002535074_M1 bus1=RML1006497604.1.2.0,Phases=2,kv=0.22,kW=0.072,pf=0.92,Vminpu=0.92,Vmaxpu=1.5,model=1,daily=RES1_19,status=variable
new load.BT_3002535075_M1 bus1=RML1002235556.1.2.0,Phases=2,kv=0.22,kW=0.68322,pf=0.92,Vminpu=0.92,Vmaxpu=1.5,model=1,daily=RES1_19,status=variable
new load.BT_3002535076_M1 bus1=RML1002235521.1.0,Phases=1,kv=0.127,kW=0.51936,pf=0.92,Vminpu=0.92,Vmaxpu=1.5,model=1,daily=RES1_19,status=variable
new load.BT_3002535077_M1 bus1=RML1002235500.1.2.0,Phases=2,kv=0.22,kW=0.92234,pf=0.92,Vminpu=0.92,Vmaxpu=1.5,model=1,daily=RES1_19,status=variable
new load.BT_3002535078_M1 bus1=RML1002235514.1.2.0,Phases=2,kv=0.22,kW=0.65408,pf=0.92,Vminpu=0.92,Vmaxpu=1.5,model=1,daily=RES1_19,status=variable
new load.BT_3002535079_M1 bus1=RML1002235535.2.3.0,Phases=2,kv=0.22,kW=0.75606,pf=0.92,Vminpu=0.92,Vmaxpu=1.5,model=1,daily=RES1_19,status=variable
new load.BT_3002535089_M1 bus1=RML1002239756.2.0,Phases=1,kv=0.127,kW=0.10258,pf=0.92,Vminpu=0.92,Vmaxpu=1.5,model=1,daily=RES1_19,status=variable
new load.BT_3002535090_M1 bus1=RML1002239791.3.0,Phases=1,kv=0.127,kW=0.61426,pf=0.92,Vminpu=0.92,Vmaxpu=1.5,model=1,daily=RES1_19,status=variable
new load.BT_3002535092_M1 bus1=RML1002239749.2.0,Phases=1,kv=0.127,kW=0.00298,pf=0.92,Vminpu=0.92,Vmaxpu=1.5,model=1,daily=RES1_19,status=variable
new load.BT_3002535094_M1 bus1=RML1002239777.3.1.0,Phases=2,kv=0.22,kW=0.86146,pf=0.92,Vminpu=0.92,Vmaxpu=1.5,model=1,daily=RES1_19,status=variable
new load.BT_3002535320_M1 bus1=RML1002254274.2.0,Phases=1,kv=0.127,kW=0.53554,pf=0.92,Vminpu=0.92,Vmaxpu=1.5,model=1,daily=RES1_19,status=variable
new load.BT_3002535321_M1 bus1=RML1002254253.2.0,Phases=1,kv=0.127,kW=0.1622,pf=0.92,Vminpu=0.92,Vmaxpu=1.5,model=1,daily=RES1_19,status=variable
new load.BT_3002535322_M1 bus1=RML1002254281.1.2.0,Phases=2,kv=0.22,kW=0.45488,pf=0.92,Vminpu=0.92,Vmaxpu=1.5,model=1,daily=RES1_19,status=variable
new load.BT_3002535323_M1 bus1=RML1002254134.1.0,Phases=1,kv=0.127,kW=0.00298,pf=0.92,Vminpu=0.92,Vmaxpu=1.5,model=1,daily=RES1_19,status=variable
new load.BT_3002535324_M1 bus1=RML1002254127.2.0,Phases=1,kv=0.127,kW=0.35038,pf=0.92,Vminpu=0.92,Vmaxpu=1.5,model=1,daily=RES1_19,status=variable
new load.BT_3002535325_M1 bus1=RML1002254246.1.0,Phases=1,kv=0.127,kW=0.09356,pf=0.92,Vminpu=0.92,Vmaxpu=1.5,model=1,daily=RES1_19,status=variable
new load.BT_3002535326_M1 bus1=RML1002254113.3.0,Phases=1,kv=0.127,kW=1.11254,pf=0.92,Vminpu=0.92,Vmaxpu=1.5,model=1,daily=RES1_19,status=variable
new load.BT_3002535327_M1 bus1=RML1010494072.1.0,Phases=1,kv=0.12,kW=0.17708,pf=0.92,Vminpu=0.92,Vmaxpu=1.5,model=1,daily=RES1_19,status=variable
new load.BT_3002535346_M1 bus1=RML1002254652.2.0,Phases=1,kv=0.12,kW=0.77416,pf=0.92,Vminpu=0.92,Vmaxpu=1.5,model=1,daily=RES1_19,status=variable
new load.BT_3002535347_M1 bus1=RML1002254680.1.0,Phases=1,kv=0.12,kW=0.0866,pf=0.92,Vminpu=0.92,Vmaxpu=1.5,model=1,daily=RES1_19,status=variable
new load.BT_3002535348_M1 bus1=RML1002254701.2.0,Phases=1,kv=0.12,kW=0.25574,pf=0.92,Vminpu=0.92,Vmaxpu=1.5,model=1,daily=RES1_19,status=variable
new load.BT_3002535349_M1 bus1=RML1002254708.2.0,Phases=1,kv=0.12,kW=0.34754,pf=0.92,Vminpu=0.92,Vmaxpu=1.5,model=1,daily=RES1_19,status=variable
new load.BT_3002535350_M1 bus1=RML1002228388.1.2.3.0,Phases=3,kv=0.22,kW=0.00534,pf=0.92,Vminpu=0.92,Vmaxpu=1.5,model=1,daily=IND1_23,status=variable
new load.BT_3002535358_M1 bus1=RML1002254169.3.0,Phases=1,kv=0.127,kW=0.27458,pf=0.92,Vminpu=0.92,Vmaxpu=1.5,model=1,daily=RES1_19,status=variable
new load.BT_3002535360_M1 bus1=RML1002232308.1.2.0,Phases=2,kv=0.22,kW=0.3916,pf=0.92,Vminpu=0.92,Vmaxpu=1.5,model=1,daily=COM1_21,status=variable
new load.BT_3002535362_M1 bus1=RML1002246385.1.0,Phases=1,kv=0.12,kW=0.31116,pf=0.92,Vminpu=0.92,Vmaxpu=1.5,model=1,daily=RES1_19,status=variable
new load.BT_3002535363_M1 bus1=RML1002246378.1.2.0,Phases=2,kv=0.24,kW=0.30424,pf=0.92,Vminpu=0.92,Vmaxpu=1.5,model=1,daily=COM1_21,status=variable
new load.BT_3002535364_M1 bus1=RML1002246392.1.2.0,Phases=2,kv=0.24,kW=0.00298,pf=0.92,Vminpu=0.92,Vmaxpu=1.5,model=1,daily=RES1_19,status=variable
new load.BT_3002535365_M1 bus1=RML1002248499.1.2.0,Phases=2,kv=0.24,kW=0.45844,pf=0.92,Vminpu=0.92,Vmaxpu=1.5,model=1,daily=COM1_21,status=variable
new load.BT_3002535366_M1 bus1=RML1002248506.1.2.0,Phases=2,kv=0.24,kW=0.00298,pf=0.92,Vminpu=0.92,Vmaxpu=1.5,model=1,daily=RES1_19,status=variable
new load.BT_3002535367_M1 bus1=RML1002246665.1.2.0,Phases=2,kv=0.24,kW=0.39588,pf=0.92,Vminpu=0.92,Vmaxpu=1.5,model=1,daily=RES1_19,status=variable
new load.BT_3002535369_M1 bus1=RML1002200395.1.2.0,Phases=2,kv=0.24,kW=0.20314,pf=0.92,Vminpu=0.92,Vmaxpu=1.5,model=1,daily=COM1_21,status=variable
new load.BT_3002535370_M1 bus1=RML1002248520.2.0,Phases=1,kv=0.12,kW=0.36294,pf=0.92,Vminpu=0.92,Vmaxpu=1.5,model=1,daily=RES1_19,status=variable
new load.BT_3002535413_M1 bus1=RML1002254757.1.2.0,Phases=2,kv=0.24,kW=0.44718,pf=0.92,Vminpu=0.92,Vmaxpu=1.5,model=1,daily=COM1_21,status=variable
new load.BT_3002535414_M1 bus1=RML1002242423.1.2.0,Phases=2,kv=0.24,kW=0.00716,pf=0.92,Vminpu=0.92,Vmaxpu=1.5,model=1,daily=RUR1_24,status=variable
new load.BT_3002535415_M1 bus1=RML1002255163.1.2.0,Phases=2,kv=0.24,kW=21.14364,pf=0.92,Vminpu=0.92,Vmaxpu=1.5,model=1,daily=RUR1_24,status=variable
new load.BT_3002535416_M1 bus1=RML1002253350.1.2.0,Phases=2,kv=0.24,kW=0.00716,pf=0.92,Vminpu=0.92,Vmaxpu=1.5,model=1,daily=RUR1_24,status=variable
new load.BT_3002535417_M1 bus1=RML1002255688.1.2.0,Phases=2,kv=0.24,kW=1.51012,pf=0.92,Vminpu=0.92,Vmaxpu=1.5,model=1,daily=COM1_21,status=variable
new load.BT_3002535418_M1 bus1=RML1011155147.1.2.0,Phases=2,kv=0.24,kW=3.09652,pf=0.92,Vminpu=0.92,Vmaxpu=1.5,model=1,daily=COM1_21,status=variable
new load.BT_3002535419_M1 bus1=RML1002234205.1.2.0,Phases=2,kv=0.24,kW=0.0557,pf=0.92,Vminpu=0.92,Vmaxpu=1.5,model=1,daily=COM1_21,status=variable
new load.BT_3002535421_M1 bus1=RML1002237131.1.2.0,Phases=2,kv=0.24,kW=0.53304,pf=0.92,Vminpu=0.92,Vmaxpu=1.5,model=1,daily=RUR1_24,status=variable
new load.BT_3001081816_M1 bus1=RML1002243928.1.2.3.0,Phases=3,kv=0.22,kW=1.08668,pf=0.92,Vminpu=0.92,Vmaxpu=1.5,model=1,daily=COM1_19,status=variable
new load.BT_3001081818_M1 bus1=RML1002243914.1.2.3.0,Phases=3,kv=0.22,kW=0.23736,pf=0.92,Vminpu=0.92,Vmaxpu=1.5,model=1,daily=COM1_19,status=variable
new load.BT_3001081819_M1 bus1=RML1002243907.1.2.3.0,Phases=3,kv=0.22,kW=0.01086,pf=0.92,Vminpu=0.92,Vmaxpu=1.5,model=1,daily=RES1_14,status=variable
new load.BT_3001081821_M1 bus1=RML1002243949.1.2.3.0,Phases=3,kv=0.22,kW=1.16558,pf=0.92,Vminpu=0.92,Vmaxpu=1.5,model=1,daily=COM1_19,status=variable
new load.BT_3001081822_M1 bus1=RML1002243984.1.2.3.0,Phases=3,kv=0.22,kW=0.01086,pf=0.92,Vminpu=0.92,Vmaxpu=1.5,model=1,daily=RES1_14,status=variable
new load.BT_3001081823_M1 bus1=RML1002243977.2.0,Phases=1,kv=0.127,kW=1.10494,pf=0.92,Vminpu=0.92,Vmaxpu=1.5,model=1,daily=RES1_14,status=variable
new load.BT_3001081824_M1 bus1=RML1002243921.1.2.3.0,Phases=3,kv=0.22,kW=0.01086,pf=0.92,Vminpu=0.92,Vmaxpu=1.5,model=1,daily=RES1_14,status=variable
new load.BT_3001081825_M1 bus1=RML1002243956.1.2.3.0,Phases=3,kv=0.22,kW=0.00372,pf=0.92,Vminpu=0.92,Vmaxpu=1.5,model=1,daily=COM1_19,status=variable
new load.BT_3001081826_M1 bus1=RML1002243963.1.2.3.0,Phases=3,kv=0.22,kW=0.00372,pf=0.92,Vminpu=0.92,Vmaxpu=1.5,model=1,daily=COM1_19,status=variable
new load.BT_3001081828_M1 bus1=RML1002243991.1.2.0,Phases=2,kv=0.22,kW=0.01086,pf=0.92,Vminpu=0.92,Vmaxpu=1.5,model=1,daily=RES1_14,status=variable
new load.BT_3001082679_M1 bus1=RML1010740155.2.0,Phases=1,kv=0.127,kW=1.3198,pf=0.92,Vminpu=0.92,Vmaxpu=1.5,model=1,daily=RES1_14,status=variable
new load.BT_3001082817_M1 bus1=RML1002243060.1.2.0,Phases=2,kv=0.24,kW=2.18898,pf=0.92,Vminpu=0.92,Vmaxpu=1.5,model=1,daily=RES1_14,status=variable
new load.BT_3004399880_M1 bus1=RML1002204343.3.0,Phases=1,kv=0.127,kW=3.94612,pf=0.92,Vminpu=0.92,Vmaxpu=1.5,model=1,daily=RES1_15,status=variable
new load.BT_3004399881_M1 bus1=RML1002239735.3.1.0,Phases=2,kv=0.22,kW=2.7697,pf=0.92,Vminpu=0.92,Vmaxpu=1.5,model=1,daily=RES1_15,status=variable
new load.BT_3004399882_M1 bus1=RML1002204469.3.0,Phases=1,kv=0.127,kW=2.73554,pf=0.92,Vminpu=0.92,Vmaxpu=1.5,model=1,daily=RES1_15,status=variable
new load.BT_3004409846_M1 bus1=RML1002234534.1.0,Phases=1,kv=0.12,kW=1.42488,pf=0.92,Vminpu=0.92,Vmaxpu=1.5,model=1,daily=RES1_16,status=variable
new load.BT_3004409848_M1 bus1=RML1002228395.1.2.3.0,Phases=3,kv=0.22,kW=1.11808,pf=0.92,Vminpu=0.92,Vmaxpu=1.5,model=1,daily=COM1_20,status=variable
new load.BT_3004409849_M1 bus1=RML1002228416.1.2.3.0,Phases=3,kv=0.22,kW=19.04196,pf=0.92,Vminpu=0.92,Vmaxpu=1.5,model=1,daily=RES1_16,status=variable
new load.BT_3004414502_M1 bus1=RML1002227982.1.0,Phases=1,kv=0.12,kW=1.75502,pf=0.92,Vminpu=0.92,Vmaxpu=1.5,model=1,daily=RES1_16,status=variable
new load.BT_3004416755_M1 bus1=RML1002234940.1.2.3.0,Phases=3,kv=0.22,kW=0.01056,pf=0.92,Vminpu=0.92,Vmaxpu=1.5,model=1,daily=RES1_16,status=variable
new load.BT_3004418995_M1 bus1=RML1002202593.1.0,Phases=1,kv=0.127,kW=0.61264,pf=0.92,Vminpu=0.92,Vmaxpu=1.5,model=1,daily=RES1_16,status=variable
new load.BT_3004418998_M1 bus1=RML1002204364.2.0,Phases=1,kv=0.127,kW=0.36304,pf=0.92,Vminpu=0.92,Vmaxpu=1.5,model=1,daily=RES1_16,status=variable
new load.BT_3004418999_M1 bus1=RML1002201956.1.0,Phases=1,kv=0.127,kW=0.84972,pf=0.92,Vminpu=0.92,Vmaxpu=1.5,model=1,daily=RES1_16,status=variable
new load.BT_3004419000_M1 bus1=RML1002203286.3.0,Phases=1,kv=0.127,kW=1.36224,pf=0.92,Vminpu=0.92,Vmaxpu=1.5,model=1,daily=RES1_16,status=variable
new load.BT_3004419001_M1 bus1=RML1002202474.1.0,Phases=1,kv=0.127,kW=0.58408,pf=0.92,Vminpu=0.92,Vmaxpu=1.5,model=1,daily=RES1_16,status=variable
new load.BT_3004419002_M1 bus1=RML1002202502.1.0,Phases=1,kv=0.127,kW=2.10252,pf=0.92,Vminpu=0.92,Vmaxpu=1.5,model=1,daily=RES1_16,status=variable
new load.BT_3004419003_M1 bus1=RML1002248345.1.2.0,Phases=2,kv=0.24,kW=0.00484,pf=0.92,Vminpu=0.92,Vmaxpu=1.5,model=1,daily=COM1_20,status=variable
new load.BT_3004419004_M1 bus1=RML1002200794.1.2.0,Phases=2,kv=0.24,kW=0.63798,pf=0.92,Vminpu=0.92,Vmaxpu=1.5,model=1,daily=COM1_20,status=variable
new load.BT_3001848632_M1 bus1=RML1000361787.1.0,Phases=1,kv=0.12,kW=0.21144,pf=0.92,Vminpu=0.92,Vmaxpu=1.5,model=1,daily=RES1_18,status=variable
new load.BT_3001848633_M1 bus1=RML1000361766.2.0,Phases=1,kv=0.127,kW=0.003,pf=0.92,Vminpu=0.92,Vmaxpu=1.5,model=1,daily=RES1_18,status=variable
new load.BT_3001848634_M1 bus1=RML1000361759.3.0,Phases=1,kv=0.127,kW=0.20268,pf=0.92,Vminpu=0.92,Vmaxpu=1.5,model=1,daily=RES1_18,status=variable
new load.BT_3001848636_M1 bus1=RML1000361724.2.3.0,Phases=2,kv=0.22,kW=1.65998,pf=0.92,Vminpu=0.92,Vmaxpu=1.5,model=1,daily=RES1_18,status=variable
new load.BT_3001848637_M1 bus1=RML1003163068.1.2.3.0,Phases=3,kv=0.22,kW=1.12976,pf=0.92,Vminpu=0.92,Vmaxpu=1.5,model=1,daily=COM1_21,status=variable
new load.BT_3001848638_M1 bus1=RML1000361745.3.1.0,Phases=2,kv=0.22,kW=16.61026,pf=0.92,Vminpu=0.92,Vmaxpu=1.5,model=1,daily=COM1_21,status=variable
new load.BT_3001848640_M1 bus1=RML1000361731.1.2.3.0,Phases=3,kv=0.22,kW=2.16084,pf=0.92,Vminpu=0.92,Vmaxpu=1.5,model=1,daily=COM1_21,status=variable
new load.BT_3002173154_M1 bus1=RML1002421112.1.2.0,Phases=2,kv=0.24,kW=1.97144,pf=0.92,Vminpu=0.92,Vmaxpu=1.5,model=1,daily=RES1_4,status=variable
new load.BT_3002173155_M1 bus1=RML1002420531.1.2.3.0,Phases=3,kv=0.24,kW=11.59158,pf=0.92,Vminpu=0.92,Vmaxpu=1.5,model=1,daily=COM1_7,status=variable
new load.BT_3002173156_M1 bus1=RML1002420573.1.2.0,Phases=2,kv=0.24,kW=0.00718,pf=0.92,Vminpu=0.92,Vmaxpu=1.5,model=1,daily=COM1_7,status=variable
new load.BT_3002173157_M1 bus1=RML1002420608.1.2.0,Phases=2,kv=0.24,kW=1.42556,pf=0.92,Vminpu=0.92,Vmaxpu=1.5,model=1,daily=RUR1_10,status=variable
new load.BT_3002173158_M1 bus1=RML1002420622.1.2.0,Phases=2,kv=0.24,kW=1.5144,pf=0.92,Vminpu=0.92,Vmaxpu=1.5,model=1,daily=COM1_7,status=variable
new load.BT_3002173159_M1 bus1=RML1002420762.1.2.0,Phases=2,kv=0.24,kW=0.63568,pf=0.92,Vminpu=0.92,Vmaxpu=1.5,model=1,daily=COM1_7,status=variable
new load.BT_3003338961_M1 bus1=RML1002203006.3.1.0,Phases=2,kv=0.22,kW=1.18836,pf=0.92,Vminpu=0.92,Vmaxpu=1.5,model=1,daily=RES1_1,status=variable
new load.BT_3003347109_M1 bus1=RML1002254729.1.0,Phases=1,kv=0.12,kW=0.88398,pf=0.92,Vminpu=0.92,Vmaxpu=1.5,model=1,daily=RES1_1,status=variable
new load.BT_3003363205_M1 bus1=RML1000361717.1.2.3.0,Phases=3,kv=0.22,kW=0.86356,pf=0.92,Vminpu=0.92,Vmaxpu=1.5,model=1,daily=COM1_4,status=variable
new load.BT_3003363206_M1 bus1=RML1000361717.1.2.3.0,Phases=3,kv=0.22,kW=0.16866,pf=0.92,Vminpu=0.92,Vmaxpu=1.5,model=1,daily=COM1_4,status=variable
new load.BT_3003367365_M1 bus1=RML1002232301.1.2.3.0,Phases=3,kv=0.22,kW=0.97594,pf=0.92,Vminpu=0.92,Vmaxpu=1.5,model=1,daily=COM1_4,status=variable
new load.BT_3003367367_M1 bus1=RML1002234562.2.0,Phases=1,kv=0.12,kW=1.3079,pf=0.92,Vminpu=0.92,Vmaxpu=1.5,model=1,daily=RES1_1,status=variable
new load.BT_3003367369_M1 bus1=RML1002235472.2.3.0,Phases=2,kv=0.22,kW=0.9272,pf=0.92,Vminpu=0.92,Vmaxpu=1.5,model=1,daily=RES1_1,status=variable
new load.BT_3003367370_M1 bus1=RML1002238979.1.0,Phases=1,kv=0.127,kW=1.79876,pf=0.92,Vminpu=0.92,Vmaxpu=1.5,model=1,daily=RES1_1,status=variable
new load.BT_3003367371_M1 bus1=RML1002238937.3.1.0,Phases=2,kv=0.22,kW=1.62698,pf=0.92,Vminpu=0.92,Vmaxpu=1.5,model=1,daily=RES1_1,status=variable
new load.BT_3003370455_M1 bus1=RML1002235115.2.0,Phases=1,kv=0.127,kW=2.2603,pf=0.92,Vminpu=0.92,Vmaxpu=1.5,model=1,daily=RES1_1,status=variable
new load.BT_3003370456_M1 bus1=RML1002232973.1.2.0,Phases=2,kv=0.22,kW=1.10196,pf=0.92,Vminpu=0.92,Vmaxpu=1.5,model=1,daily=RES1_1,status=variable
new load.BT_3003370460_M1 bus1=RML1002240022.1.0,Phases=1,kv=0.12,kW=0.91772,pf=0.92,Vminpu=0.92,Vmaxpu=1.5,model=1,daily=RES1_1,status=variable
new load.BT_3003370461_M1 bus1=RML1002240029.2.0,Phases=1,kv=0.12,kW=0.60072,pf=0.92,Vminpu=0.92,Vmaxpu=1.5,model=1,daily=RES1_1,status=variable
new load.BT_3003370462_M1 bus1=RML1002235073.2.0,Phases=1,kv=0.127,kW=0.57352,pf=0.92,Vminpu=0.92,Vmaxpu=1.5,model=1,daily=RES1_1,status=variable
new load.BT_3003370463_M1 bus1=RML1002230187.2.0,Phases=1,kv=0.127,kW=0.85354,pf=0.92,Vminpu=0.92,Vmaxpu=1.5,model=1,daily=RES1_1,status=variable
new load.BT_3003370464_M1 bus1=RML1002229830.3.0,Phases=1,kv=0.127,kW=1.29242,pf=0.92,Vminpu=0.92,Vmaxpu=1.5,model=1,daily=RES1_1,status=variable
new load.BT_3003370465_M1 bus1=RML1002228024.1.0,Phases=1,kv=0.12,kW=0.6106,pf=0.92,Vminpu=0.92,Vmaxpu=1.5,model=1,daily=RES1_1,status=variable
new load.BT_3003370467_M1 bus1=RML1002201781.1.0,Phases=1,kv=0.127,kW=1.0877,pf=0.92,Vminpu=0.92,Vmaxpu=1.5,model=1,daily=RES1_1,status=variable
new load.BT_3003370468_M1 bus1=RML1002201746.2.0,Phases=1,kv=0.127,kW=2.23524,pf=0.92,Vminpu=0.92,Vmaxpu=1.5,model=1,daily=RES1_1,status=variable
new load.BT_3003370469_M1 bus1=RML1002201641.3.1.0,Phases=2,kv=0.22,kW=2.47918,pf=0.92,Vminpu=0.92,Vmaxpu=1.5,model=1,daily=RES1_1,status=variable
new load.BT_3003370470_M1 bus1=RML1002201655.1.0,Phases=1,kv=0.127,kW=2.64798,pf=0.92,Vminpu=0.92,Vmaxpu=1.5,model=1,daily=RES1_1,status=variable
new load.BT_3003370471_M1 bus1=RML1002201648.3.0,Phases=1,kv=0.127,kW=2.0867,pf=0.92,Vminpu=0.92,Vmaxpu=1.5,model=1,daily=RES1_1,status=variable
new load.BT_3003370472_M1 bus1=RML1002201669.2.0,Phases=1,kv=0.127,kW=0.89358,pf=0.92,Vminpu=0.92,Vmaxpu=1.5,model=1,daily=RES1_1,status=variable
new load.BT_3003370473_M1 bus1=RML1002201725.2.0,Phases=1,kv=0.127,kW=3.10188,pf=0.92,Vminpu=0.92,Vmaxpu=1.5,model=1,daily=RES1_1,status=variable
new load.BT_3003370474_M1 bus1=RML1002201690.1.0,Phases=1,kv=0.127,kW=1.34906,pf=0.92,Vminpu=0.92,Vmaxpu=1.5,model=1,daily=RES1_1,status=variable
new load.BT_3003370475_M1 bus1=RML1007134653.3.0,Phases=1,kv=0.127,kW=1.02998,pf=0.92,Vminpu=0.92,Vmaxpu=1.5,model=1,daily=RES1_1,status=variable
new load.BT_3003370476_M1 bus1=RML1002201739.2.0,Phases=1,kv=0.127,kW=1.74314,pf=0.92,Vminpu=0.92,Vmaxpu=1.5,model=1,daily=RES1_1,status=variable
new load.BT_3003370477_M1 bus1=RML1002202845.2.0,Phases=1,kv=0.127,kW=1.1148,pf=0.92,Vminpu=0.92,Vmaxpu=1.5,model=1,daily=RES1_1,status=variable
new load.BT_3003370478_M1 bus1=RML1002202817.1.0,Phases=1,kv=0.127,kW=1.99782,pf=0.92,Vminpu=0.92,Vmaxpu=1.5,model=1,daily=RES1_1,status=variable
new load.BT_3003370479_M1 bus1=RML1002202824.2.0,Phases=1,kv=0.127,kW=1.54972,pf=0.92,Vminpu=0.92,Vmaxpu=1.5,model=1,daily=RES1_1,status=variable
new load.BT_3003370480_M1 bus1=RML1002202838.1.0,Phases=1,kv=0.127,kW=1.21514,pf=0.92,Vminpu=0.92,Vmaxpu=1.5,model=1,daily=RES1_1,status=variable
new load.BT_3003370481_M1 bus1=RML1002202866.1.0,Phases=1,kv=0.127,kW=0.68114,pf=0.92,Vminpu=0.92,Vmaxpu=1.5,model=1,daily=RES1_1,status=variable
new load.BT_3003370482_M1 bus1=RML1002233820.3.0,Phases=1,kv=0.127,kW=1.2667,pf=0.92,Vminpu=0.92,Vmaxpu=1.5,model=1,daily=RES1_1,status=variable
new load.BT_3003370489_M1 bus1=RML1002204504.1.2.0,Phases=2,kv=0.24,kW=0.15918,pf=0.92,Vminpu=0.92,Vmaxpu=1.5,model=1,daily=COM1_4,status=variable
new load.BT_3003370490_M1 bus1=RML1006383868.1.2.0,Phases=2,kv=0.24,kW=0.54146,pf=0.92,Vminpu=0.92,Vmaxpu=1.5,model=1,daily=COM1_4,status=variable
new load.BT_3003371288_M1 bus1=RML1003291980.2.0,Phases=1,kv=0.12,kW=1.18796,pf=0.92,Vminpu=0.92,Vmaxpu=1.5,model=1,daily=COM1_4,status=variable
new load.BT_3003371289_M1 bus1=RML1003291966.2.0,Phases=1,kv=0.12,kW=0.50102,pf=0.92,Vminpu=0.92,Vmaxpu=1.5,model=1,daily=COM1_4,status=variable
new load.BT_3003384109_M1 bus1=RML1002238944.2.0,Phases=1,kv=0.127,kW=0.60784,pf=0.92,Vminpu=0.92,Vmaxpu=1.5,model=1,daily=RES1_2,status=variable
new load.BT_3003384110_M1 bus1=RML1002238902.1.0,Phases=1,kv=0.127,kW=1.68078,pf=0.92,Vminpu=0.92,Vmaxpu=1.5,model=1,daily=RES1_2,status=variable
new load.BT_3003384111_M1 bus1=RML1002238909.1.2.3.0,Phases=3,kv=0.22,kW=1.43804,pf=0.92,Vminpu=0.92,Vmaxpu=1.5,model=1,daily=RES1_2,status=variable
new load.BT_3003384112_M1 bus1=RML1006835515.3.1.0,Phases=2,kv=0.22,kW=1.30334,pf=0.92,Vminpu=0.92,Vmaxpu=1.5,model=1,daily=RES1_2,status=variable
new load.BT_3003384113_M1 bus1=RML1002254568.2.0,Phases=1,kv=0.12,kW=0.76484,pf=0.92,Vminpu=0.92,Vmaxpu=1.5,model=1,daily=RES1_2,status=variable
new load.BT_3003386948_M1 bus1=RML1002235136.2.0,Phases=1,kv=0.127,kW=1.74902,pf=0.92,Vminpu=0.92,Vmaxpu=1.5,model=1,daily=RES1_2,status=variable
new load.BT_3003386950_M1 bus1=RML1002233134.1.2.0,Phases=2,kv=0.24,kW=2.00126,pf=0.92,Vminpu=0.92,Vmaxpu=1.5,model=1,daily=RES1_2,status=variable
new load.BT_3000066470_M1 bus1=RML1003815251.1.2.0,Phases=2,kv=0.24,kW=3.99454,pf=0.92,Vminpu=0.92,Vmaxpu=1.5,model=1,daily=RES1_2,status=variable
new load.BT_3004754229_M1 bus1=RML1002232280.3.0,Phases=1,kv=0.127,kW=2.45804,pf=0.92,Vminpu=0.92,Vmaxpu=1.5,model=1,daily=RES1_3,status=variable
new load.BT_3004754477_M1 bus1=RML1002248331.1.2.0,Phases=2,kv=0.24,kW=4.98852,pf=0.92,Vminpu=0.92,Vmaxpu=1.5,model=1,daily=RUR1_11,status=variable
new load.BT_3004755109_M1 bus1=RML1002228402.1.2.3.0,Phases=3,kv=0.22,kW=2.21214,pf=0.92,Vminpu=0.92,Vmaxpu=1.5,model=1,daily=IND1_10,status=variable
new load.BT_3004756715_M1 bus1=RML1002247974.1.2.0,Phases=2,kv=0.24,kW=2.5827,pf=0.92,Vminpu=0.92,Vmaxpu=1.5,model=1,daily=RES1_3,status=variable
new load.BT_3004759020_M1 bus1=RML1002201711.3.1.0,Phases=2,kv=0.22,kW=7.5484,pf=0.92,Vminpu=0.92,Vmaxpu=1.5,model=1,daily=RES1_3,status=variable
new load.BT_3004760327_M1 bus1=RML1007504897.1.2.0,Phases=2,kv=0.24,kW=4.14858,pf=0.92,Vminpu=0.92,Vmaxpu=1.5,model=1,daily=COM1_6,status=variable
new load.BT_3004765659_M1 bus1=RML1002254204.1.0,Phases=1,kv=0.127,kW=0.56568,pf=0.92,Vminpu=0.92,Vmaxpu=1.5,model=1,daily=RES1_3,status=variable
new load.BT_3004774680_M1 bus1=RML1002227961.1.0,Phases=1,kv=0.12,kW=0.01164,pf=0.92,Vminpu=0.92,Vmaxpu=1.5,model=1,daily=RES1_3,status=variable
new load.BT_3004780707_M1 bus1=RML1002229739.3.0,Phases=1,kv=0.127,kW=1.2253,pf=0.92,Vminpu=0.92,Vmaxpu=1.5,model=1,daily=RES1_3,status=variable
new load.BT_3004780998_M1 bus1=RML1002204301.1.2.3.0,Phases=3,kv=0.22,kW=1.29016,pf=0.92,Vminpu=0.92,Vmaxpu=1.5,model=1,daily=RES1_3,status=variable
new load.BT_3004780999_M1 bus1=RML1002201753.1.0,Phases=1,kv=0.127,kW=1.41758,pf=0.92,Vminpu=0.92,Vmaxpu=1.5,model=1,daily=RES1_3,status=variable
new load.BT_3004781000_M1 bus1=RML1002202726.1.2.0,Phases=2,kv=0.24,kW=0.54726,pf=0.92,Vminpu=0.92,Vmaxpu=1.5,model=1,daily=COM1_7,status=variable
new load.BT_3004781001_M1 bus1=RML1007497631.1.2.0,Phases=2,kv=0.24,kW=0.00682,pf=0.92,Vminpu=0.92,Vmaxpu=1.5,model=1,daily=RUR1_11,status=variable
new load.BT_3004782112_M1 bus1=RML1007033097.1.2.0,Phases=2,kv=0.24,kW=0.56844,pf=0.92,Vminpu=0.92,Vmaxpu=1.5,model=1,daily=COM1_7,status=variable
new load.BT_3004783362_M1 bus1=RML1002420524.1.2.0,Phases=2,kv=0.24,kW=2.5221,pf=0.92,Vminpu=0.92,Vmaxpu=1.5,model=1,daily=COM1_7,status=variable
new load.BT_3004791675_M1 bus1=RML1002202467.1.0,Phases=1,kv=0.127,kW=1.53366,pf=0.92,Vminpu=0.92,Vmaxpu=1.5,model=1,daily=RES1_4,status=variable
new load.BT_3004791676_M1 bus1=RML1002204308.2.0,Phases=1,kv=0.127,kW=3.26078,pf=0.92,Vminpu=0.92,Vmaxpu=1.5,model=1,daily=RES1_4,status=variable
new load.BT_3004791677_M1 bus1=RML1002248422.1.2.0,Phases=2,kv=0.24,kW=6.41278,pf=0.92,Vminpu=0.92,Vmaxpu=1.5,model=1,daily=RUR1_11,status=variable
new load.BT_3004791678_M1 bus1=RML1002248429.1.2.0,Phases=2,kv=0.24,kW=0.02666,pf=0.92,Vminpu=0.92,Vmaxpu=1.5,model=1,daily=RUR1_11,status=variable
new load.BT_3004792237_M1 bus1=RML1002232343.1.0,Phases=1,kv=0.127,kW=1.02846,pf=0.92,Vminpu=0.92,Vmaxpu=1.5,model=1,daily=RES1_4,status=variable
new load.BT_3004792238_M1 bus1=RML1002234604.1.0,Phases=1,kv=0.127,kW=3.3637,pf=0.92,Vminpu=0.92,Vmaxpu=1.5,model=1,daily=RES1_4,status=variable
new load.BT_3004792721_M1 bus1=RML1002248009.1.2.0,Phases=2,kv=0.24,kW=0.67392,pf=0.92,Vminpu=0.92,Vmaxpu=1.5,model=1,daily=COM1_8,status=variable
new load.BT_3004792722_M1 bus1=RML1002248016.1.2.0,Phases=2,kv=0.24,kW=2.77166,pf=0.92,Vminpu=0.92,Vmaxpu=1.5,model=1,daily=RUR1_11,status=variable
new load.BT_3004792723_M1 bus1=RML1002248023.1.2.0,Phases=2,kv=0.24,kW=2.53894,pf=0.92,Vminpu=0.92,Vmaxpu=1.5,model=1,daily=RES1_4,status=variable
new load.BT_3004792724_M1 bus1=RML1002237131.1.2.0,Phases=2,kv=0.24,kW=1.8603,pf=0.92,Vminpu=0.92,Vmaxpu=1.5,model=1,daily=RUR1_11,status=variable
new load.BT_3004793924_M1 bus1=RML1002248380.2.0,Phases=1,kv=0.12,kW=0.95326,pf=0.92,Vminpu=0.92,Vmaxpu=1.5,model=1,daily=RES1_4,status=variable
new load.BT_3004793925_M1 bus1=RML1002248387.1.2.0,Phases=2,kv=0.24,kW=1.4139,pf=0.92,Vminpu=0.92,Vmaxpu=1.5,model=1,daily=RES1_4,status=variable
new load.BT_3004419005_M1 bus1=RML1002200955.1.2.0,Phases=2,kv=0.24,kW=0.00938,pf=0.92,Vminpu=0.92,Vmaxpu=1.5,model=1,daily=RUR1_17,status=variable
new load.BT_3004419006_M1 bus1=RML1007021043.1.2.0,Phases=2,kv=0.24,kW=0.68966,pf=0.92,Vminpu=0.92,Vmaxpu=1.5,model=1,daily=COM1_20,status=variable
new load.BT_3004419007_M1 bus1=RML1002200983.1.2.0,Phases=2,kv=0.24,kW=2.3754,pf=0.92,Vminpu=0.92,Vmaxpu=1.5,model=1,daily=RUR1_17,status=variable
new load.BT_3004429996_M1 bus1=RML1002254057.2.0,Phases=1,kv=0.127,kW=1.19884,pf=0.92,Vminpu=0.92,Vmaxpu=1.5,model=1,daily=RES1_16,status=variable
new load.BT_3004434376_M1 bus1=RML1006384946.1.2.0,Phases=2,kv=0.24,kW=0.00938,pf=0.92,Vminpu=0.92,Vmaxpu=1.5,model=1,daily=RUR1_17,status=variable
new load.BT_3004435383_M1 bus1=RML1002240057.1.0,Phases=1,kv=0.12,kW=0.54074,pf=0.92,Vminpu=0.92,Vmaxpu=1.5,model=1,daily=RES1_17,status=variable