new line.SMT_10074884 bus1=BMT6120025B.1.2.3,bus2=BMT176890133.1.2.3,Phases=3,Linecode=CABA08_3_3_3,Length=0.009004000,Units=km
new line.SMT_10078097 bus1=BMT162571287.1.2.3,bus2=BMT162571288.1.2.3,Phases=3,Linecode=CAB103_3_3_3,Length=0.087878000,Units=km
new line.SMT_10418017 bus1=BMT102181186.2,bus2=BMT3478462B.2,Phases=1,Linecode=CAB103_3_1_1,Length=0.080653000,Units=km
new line.SMT_10418031 bus1=BMT3478462B.2,bus2=BMT102181193.2,Phases=1,Linecode=CAB103_3_1_1,Length=0.081866000,Units=km
new line.SMT_10418052 bus1=BMT102181193.2,bus2=BMT6675867B.2,Phases=1,Linecode=CAB202_3_1_1,Length=0.112630000,Units=km
new line.SMT_10418059 bus1=BMT6675867B.2,bus2=BMT102181200.2,Phases=1,Linecode=CAB202_3_1_1,Length=0.143179000,Units=km
new line.SMT_11140375 bus1=BMT3883636B.1,bus2=BMT102186373.1,Phases=1,Linecode=CAB202_3_1_1,Length=0.058690000,Units=km
new line.SMT_11140382 bus1=BMT102186373.1,bus2=BMT3883643B.1,Phases=1,Linecode=CAB202_3_1_1,Length=0.046082000,Units=km
new line.SMT_11142342 bus1=BMT102186387.1,bus2=BMT7364912B.1,Phases=1,Linecode=CAB103_3_1_1,Length=0.070885000,Units=km
new line.SMT_11142349 bus1=BMT7364912B.1,bus2=BMT7364926B.1,Phases=1,Linecode=CAB103_3_1_1,Length=0.061683000,Units=km
new line.SMT_11142356 bus1=BMT7364926B.1,bus2=BMT7364933B.1,Phases=1,Linecode=CAB103_3_1_1,Length=0.077417000,Units=km
new line.SMT_11142363 bus1=BMT7364933B.1,bus2=BMT7364940B.1,Phases=1,Linecode=CAB103_3_1_1,Length=0.077417000,Units=km
new line.SMT_11142370 bus1=BMT7364940B.1,bus2=BMT7364947B.1,Phases=1,Linecode=CAB103_3_1_1,Length=0.078060000,Units=km
new line.SMT_11142377 bus1=BMT7364947B.1,bus2=BMT7364954B.1,Phases=1,Linecode=CAB103_3_1_1,Length=0.068567000,Units=km
new line.SMT_11142384 bus1=BMT7364954B.1,bus2=BMT7364961B.1,Phases=1,Linecode=CAB103_3_1_1,Length=0.080035000,Units=km
new line.SMT_11142391 bus1=BMT7364961B.1,bus2=BMT102186394.1,Phases=1,Linecode=CAB103_3_1_1,Length=0.077054000,Units=km
new line.SMT_11321367 bus1=BMT161074935.1,bus2=BMT102184042.1,Phases=1,Linecode=CAB202_3_1_1,Length=0.893444000,Units=km
new line.SMT_11321402 bus1=BMT167347464.1,bus2=BMT7526003B.1,Phases=1,Linecode=CAB202_3_1_1,Length=0.092229000,Units=km
new line.SMT_11321409 bus1=BMT7526003B.1,bus2=BMT7526010B.1,Phases=1,Linecode=CAB202_3_1_1,Length=0.097545000,Units=km
new line.SMT_11321416 bus1=BMT7526010B.1,bus2=BMT7526017B.1,Phases=1,Linecode=CAB202_3_1_1,Length=0.289494000,Units=km
new line.SMT_11321535 bus1=BMT7526017B.1,bus2=BMT7526066B.1,Phases=1,Linecode=CAB202_3_1_1,Length=0.155983000,Units=km
new line.SMT_11321556 bus1=BMT7526066B.1,bus2=BMT7526073B.1,Phases=1,Linecode=CAB202_3_1_1,Length=0.249526000,Units=km
new line.SMT_11321563 bus1=BMT7526073B.1,bus2=BMT7526080B.1,Phases=1,Linecode=CAB202_3_1_1,Length=0.133330000,Units=km
new line.SMT_11321598 bus1=BMT7526080B.1,bus2=BMT102184070.1,Phases=1,Linecode=CAB202_3_1_1,Length=0.192489000,Units=km
new line.SMT_11321626 bus1=BMT102184070.1,bus2=BMT7526136B.1,Phases=1,Linecode=CAB202_3_1_1,Length=0.106547000,Units=km
new line.SMT_11321661 bus1=BMT7526136B.1,bus2=BMT102184077.1,Phases=1,Linecode=CAB202_3_1_1,Length=0.121650000,Units=km
new line.SMT_11321675 bus1=BMT102184077.1,bus2=BMT7526150B.1,Phases=1,Linecode=CAB202_3_1_1,Length=0.097236000,Units=km
new line.SMT_11321682 bus1=BMT7526150B.1,bus2=BMT7526157B.1,Phases=1,Linecode=CAB202_3_1_1,Length=0.115251000,Units=km
new line.SMT_11321689 bus1=BMT7526157B.1,bus2=BMT167347465.1,Phases=1,Linecode=CAB202_3_1_1,Length=0.192111000,Units=km
new line.SMT_11321724 bus1=BMT167347465.1,bus2=BMT7526178B.1,Phases=1,Linecode=CAB202_3_1_1,Length=0.094236000,Units=km
new line.SMT_11321738 bus1=BMT7526178B.1,bus2=BMT7526185B.1,Phases=1,Linecode=CAB202_3_1_1,Length=0.112842000,Units=km
new line.SMT_11321745 bus1=BMT7526185B.1,bus2=BMT7526192B.1,Phases=1,Linecode=CAB202_3_1_1,Length=0.128129000,Units=km
new line.SMT_11321780 bus1=BMT7526192B.1,bus2=BMT7526199B.1,Phases=1,Linecode=CAB202_3_1_1,Length=0.109972000,Units=km
new line.SMT_11321787 bus1=BMT7526199B.1,bus2=BMT167347466.1,Phases=1,Linecode=CAB202_3_1_1,Length=0.120152000,Units=km
new line.SMT_11321794 bus1=BMT167347466.1,bus2=BMT7526213B.1,Phases=1,Linecode=CAB202_3_1_1,Length=0.274095000,Units=km
new line.SMT_11321829 bus1=BMT7526213B.1,bus2=BMT167347467.1,Phases=1,Linecode=CAB202_3_1_1,Length=0.122134000,Units=km
new line.SMT_11322102 bus1=BMT167359364.1,bus2=BMT167359365.1,Phases=1,Linecode=CAB202_3_1_1,Length=0.076559000,Units=km
new line.SMT_11322109 bus1=BMT167359365.1,bus2=BMT7526668B.1,Phases=1,Linecode=CAB202_3_1_1,Length=0.054251000,Units=km
new line.SMT_11322123 bus1=BMT7526668B.1,bus2=BMT7526682B.1,Phases=1,Linecode=CAB202_3_1_1,Length=0.060834000,Units=km
new line.SMT_11322158 bus1=BMT7526682B.1,bus2=BMT167359366.1,Phases=1,Linecode=CAB202_3_1_1,Length=0.238383000,Units=km
new line.SMT_11322256 bus1=BMT167359366.1,bus2=BMT167359367.1,Phases=1,Linecode=CAB202_3_1_1,Length=0.123082000,Units=km
new line.SMT_11322270 bus1=BMT167359367.1,bus2=BMT7526717B.1,Phases=1,Linecode=CAB202_3_1_1,Length=0.201230000,Units=km
new line.SMT_11322277 bus1=BMT7526717B.1,bus2=BMT167359369.1,Phases=1,Linecode=CAB202_3_1_1,Length=0.105987000,Units=km
new line.SMT_11322396 bus1=BMT102184119.1,bus2=BMT7527025B.1,Phases=1,Linecode=CAB202_3_1_1,Length=0.115926000,Units=km
new line.SMT_10156245 bus1=BMT102186646.1.2.3,bus2=BMT102186653.1.2.3,Phases=3,Linecode=CAB902_4_3_3,Length=0.010821000,Units=km
new line.SMT_103347 bus1=BMT168639790.1,bus2=BMT207773B.1,Phases=1,Linecode=CAB102_3_1_1,Length=0.040376000,Units=km
new line.SMT_103354 bus1=BMT207773B.1,bus2=BMT5102943B.1,Phases=1,Linecode=CAB102_3_1_1,Length=0.038225000,Units=km
new line.SMT_103361 bus1=BMT168639791.1,bus2=BMT2247475B.1,Phases=1,Linecode=CAB202_3_1_1,Length=0.168137000,Units=km
new line.SMT_103368 bus1=BMT207787B.1.2.3,bus2=BMT207794B.1.2.3,Phases=3,Linecode=CAB102_3_3_3,Length=0.043295000,Units=km
new line.SMT_103375 bus1=BMT207794B.1.2.3,bus2=BMT207801B.1.2.3,Phases=3,Linecode=CAB102_3_3_3,Length=0.051108000,Units=km
new line.SMT_103382 bus1=BMT207801B.1.2.3,bus2=BMT173878788.1.2.3,Phases=3,Linecode=CAB102_3_3_3,Length=0.031777000,Units=km
new line.SMT_103389 bus1=BMT173878788.1.2.3,bus2=BMT207815B.1.2.3,Phases=3,Linecode=CAB102_3_3_3,Length=0.040327000,Units=km
new line.SMT_103396 bus1=BMT173878788.1.2.3,bus2=BMT173878790.1.2.3,Phases=3,Linecode=CAB103_3_3_3,Length=0.054104000,Units=km
new line.SMT_103403 bus1=BMT207815B.1.2.3,bus2=BMT173878789.1.2.3,Phases=3,Linecode=CAB102_3_3_3,Length=0.049110000,Units=km
new line.SMT_103410 bus1=BMT173878790.1.2.3,bus2=BMT207829B.1.2.3,Phases=3,Linecode=CAB102_3_3_3,Length=0.035482000,Units=km
new line.SMT_103417 bus1=BMT207829B.1.2.3,bus2=BMT121429298.1.2.3,Phases=3,Linecode=CAB102_3_3_3,Length=0.037817000,Units=km
new line.SMT_103424 bus1=BMT121429305.1.2.3,bus2=BMT2848201B.1.2.3,Phases=3,Linecode=CAB102_3_3_3,Length=0.031157000,Units=km
new line.SMT_103431 bus1=BMT207843B.1.2.3,bus2=BMT2848208B.1.2.3,Phases=3,Linecode=CAB102_3_3_3,Length=0.035013000,Units=km
new line.SMT_10463986 bus1=BMT102182915.1,bus2=BMT6725420B.1,Phases=1,Linecode=CAB202_3_1_1,Length=0.112971000,Units=km
new line.SMT_10463993 bus1=BMT6725420B.1,bus2=BMT102182929.1,Phases=1,Linecode=CAB202_3_1_1,Length=0.084150000,Units=km
new line.SMT_10466534 bus1=BMT102181627.2,bus2=BMT102181641.2,Phases=1,Linecode=CAB202_3_1_1,Length=0.097673000,Units=km
new line.SMT_10646392 bus1=BMT6907973B.1.2.3,bus2=BMT102180136.1.2.3,Phases=3,Linecode=CABA08_3_3_3,Length=0.104431000,Units=km
new line.SMT_10646399 bus1=BMT167930907.1,bus2=BMT167930908.1,Phases=1,Linecode=CAB204_3_1_1,Length=0.117383000,Units=km
new line.SMT_10646672 bus1=BMT3519132B.1.2.3,bus2=BMT6908512B.1.2.3,Phases=3,Linecode=CAB208_3_3_3,Length=0.134007000,Units=km
new line.SMT_10646679 bus1=BMT6908512B.1.2.3,bus2=BMT170089741.1.2.3,Phases=3,Linecode=CAB208_3_3_3,Length=0.132957000,Units=km
new line.SMT_10647617 bus1=BMT3594942B.1.2.3,bus2=BMT3594956B.1.2.3,Phases=3,Linecode=CAB204_3_3_3,Length=0.129143000,Units=km
new line.SMT_10647624 bus1=BMT3594956B.1.2.3,bus2=BMT6909345B.1.2.3,Phases=3,Linecode=CAB204_3_3_3,Length=0.106982000,Units=km
new line.SMT_10647631 bus1=BMT6909345B.1.2.3,bus2=BMT162571286.1.2.3,Phases=3,Linecode=CAB204_3_3_3,Length=0.104747000,Units=km
new line.SMT_10647638 bus1=BMT162571286.1.2.3,bus2=BMT6909331B.1.2.3,Phases=3,Linecode=CAB204_3_3_3,Length=0.142757000,Units=km
new line.SMT_10647645 bus1=BMT6909331B.1.2.3,bus2=BMT6909303B.1.2.3,Phases=3,Linecode=CAB204_3_3_3,Length=0.077855000,Units=km
new line.SMT_10647652 bus1=BMT6909303B.1.2.3,bus2=BMT6909289B.1.2.3,Phases=3,Linecode=CAB204_3_3_3,Length=0.112112000,Units=km
new line.SMT_10647659 bus1=BMT6909289B.1.2.3,bus2=BMT6909282B.1.2.3,Phases=3,Linecode=CAB204_3_3_3,Length=0.111180000,Units=km
new line.SMT_10647680 bus1=BMT6909282B.1.2.3,bus2=BMT3595243B.1.2.3,Phases=3,Linecode=CAB204_3_3_3,Length=0.259510000,Units=km
new line.SMT_11717364 bus1=BMT156130248.1.2.3,bus2=BMT7902162B.1.2.3,Phases=3,Linecode=CAB103_3_3_3,Length=0.075028000,Units=km
new line.SMT_11717392 bus1=BMT7902162B.1.2.3,bus2=BMT7902232B.1.2.3,Phases=3,Linecode=CAB103_3_3_3,Length=0.064406000,Units=km
new line.SMT_11717406 bus1=BMT7902232B.1.2.3,bus2=BMT7902239B.1.2.3,Phases=3,Linecode=CAB103_3_3_3,Length=0.064522000,Units=km
new line.SMT_11717434 bus1=BMT170998592.1.2.3,bus2=BMT170998593.1.2.3,Phases=3,Linecode=CAB103_3_3_3,Length=0.034422000,Units=km
new line.SMT_11717455 bus1=BMT115328558.1.2.3,bus2=BMT7902239B.1.2.3,Phases=3,Linecode=CAB103_3_3_3,Length=0.073465000,Units=km
new line.SMT_11717476 bus1=BMT115328558.1.2.3,bus2=BMT115331974.1.2.3,Phases=3,Linecode=CAB103_3_3_3,Length=0.071728000,Units=km
new line.SMT_11717490 bus1=BMT170880514.1.2.3,bus2=BMT7902351B.1.2.3,Phases=3,Linecode=CAB103_3_3_3,Length=0.071595000,Units=km
new line.SMT_11717511 bus1=BMT7902351B.1.2.3,bus2=BMT170880515.1.2.3,Phases=3,Linecode=CAB103_3_3_3,Length=0.081523000,Units=km
new line.SMT_11717546 bus1=BMT170880515.1.2.3,bus2=BMT7902386B.1.2.3,Phases=3,Linecode=CAB202_3_3_3,Length=0.107952000,Units=km
new line.SMT_11717560 bus1=BMT7902386B.1.2.3,bus2=BMT7902407B.1.2.3,Phases=3,Linecode=CAB202_3_3_3,Length=0.134876000,Units=km
new line.SMT_11717574 bus1=BMT7902407B.1.2.3,bus2=BMT7902421B.1.2.3,Phases=3,Linecode=CAB202_3_3_3,Length=0.126811000,Units=km
new line.SMT_11717595 bus1=BMT7902428B.1.2.3,bus2=BMT7902435B.1.2.3,Phases=3,Linecode=CAB202_3_3_3,Length=0.109082000,Units=km
new line.SMT_11717602 bus1=BMT7902435B.1.2.3,bus2=BMT7902442B.1.2.3,Phases=3,Linecode=CAB202_3_3_3,Length=0.131064000,Units=km
new line.SMT_11717616 bus1=BMT7902442B.1.2.3,bus2=BMT115339142.1.2.3,Phases=3,Linecode=CAB202_3_3_3,Length=0.138272000,Units=km
new line.SMT_11717630 bus1=BMT115339212.1.2.3,bus2=BMT115339219.1.2.3,Phases=3,Linecode=CAB103_3_3_3,Length=0.020008000,Units=km
new line.SMT_103277 bus1=BMT207619B.1,bus2=BMT173878787.1,Phases=1,Linecode=CAB103_3_1_1,Length=0.033314000,Units=km
new line.SMT_103284 bus1=BMT207626B.1,bus2=BMT207619B.1,Phases=1,Linecode=CAB103_3_1_1,Length=0.031903000,Units=km
new line.SMT_103312 bus1=BMT173878784.1.2.3,bus2=BMT207787B.1.2.3,Phases=3,Linecode=CAB102_3_3_3,Length=0.036249000,Units=km
new line.SMT_103326 bus1=BMT173878785.1.2.3,bus2=BMT207752B.1.2.3,Phases=3,Linecode=CABA06_3_3_3,Length=0.041125000,Units=km
new line.SMT_103333 bus1=BMT207752B.1.2.3,bus2=BMT173878786.1.2.3,Phases=3,Linecode=CABA06_3_3_3,Length=0.046115000,Units=km
new line.SMT_103340 bus1=BMT173878786.1,bus2=BMT168639789.1,Phases=1,Linecode=CAB102_3_1_1,Length=0.035397000,Units=km
new line.SMT_11739407 bus1=BMT3437239B.1.2.3,bus2=BMT116737224.1.2.3,Phases=3,Linecode=CAB203_3_3_3,Length=0.098510000,Units=km
new line.SMT_11739414 bus1=BMT3437232B.1.2.3,bus2=BMT116737224.1.2.3,Phases=3,Linecode=CAB203_3_3_3,Length=0.083266000,Units=km
new line.SMT_11739442 bus1=BMT152054527.1.2.3,bus2=BMT7918192B.1.2.3,Phases=3,Linecode=CAB103_3_3_3,Length=0.078884000,Units=km
new line.SMT_11739540 bus1=BMT7918192B.1.2.3,bus2=BMT7917975B.1.2.3,Phases=3,Linecode=CAB103_3_3_3,Length=0.068910000,Units=km
new line.SMT_11739554 bus1=BMT7917975B.1.2.3,bus2=BMT7917968B.1.2.3,Phases=3,Linecode=CAB103_3_3_3,Length=0.070638000,Units=km
new line.SMT_11739596 bus1=BMT7917968B.1.2.3,bus2=BMT7917891B.1.2.3,Phases=3,Linecode=CAB103_3_3_3,Length=0.068684000,Units=km
new line.SMT_11739603 bus1=BMT7917891B.1.2.3,bus2=BMT7917877B.1.2.3,Phases=3,Linecode=CAB103_3_3_3,Length=0.057511000,Units=km
new line.SMT_11739638 bus1=BMT7917877B.1.2.3,bus2=BMT7917912B.1.2.3,Phases=3,Linecode=CAB103_3_3_3,Length=0.068626000,Units=km
new line.SMT_11739652 bus1=BMT7917912B.1.2.3,bus2=BMT7917919B.1.2.3,Phases=3,Linecode=CAB103_3_3_3,Length=0.058005000,Units=km
new line.SMT_11739694 bus1=BMT7917919B.1.2.3,bus2=BMT7917926B.1.2.3,Phases=3,Linecode=CAB103_3_3_3,Length=0.060488000,Units=km
new line.SMT_11739722 bus1=BMT7917926B.1.2.3,bus2=BMT7917933B.1.2.3,Phases=3,Linecode=CAB103_3_3_3,Length=0.068290000,Units=km
new line.SMT_11739729 bus1=BMT7917933B.1.2.3,bus2=BMT7917940B.1.2.3,Phases=3,Linecode=CAB103_3_3_3,Length=0.063836000,Units=km
new line.SMT_11739736 bus1=BMT7917940B.1.2.3,bus2=BMT7917947B.1.2.3,Phases=3,Linecode=CAB103_3_3_3,Length=0.077926000,Units=km
new line.SMT_11739743 bus1=BMT7917947B.1.2.3,bus2=BMT7917954B.1.2.3,Phases=3,Linecode=CAB103_3_3_3,Length=0.070517000,Units=km
new line.SMT_11739785 bus1=BMT7917954B.1.2.3,bus2=BMT7917870B.1.2.3,Phases=3,Linecode=CAB103_3_3_3,Length=0.073526000,Units=km
new line.SMT_11739792 bus1=BMT7917870B.1.2.3,bus2=BMT7918311B.1.2.3,Phases=3,Linecode=CAB103_3_3_3,Length=0.074493000,Units=km
new line.SMT_11739876 bus1=BMT7918311B.1.2.3,bus2=BMT7918325B.1.2.3,Phases=3,Linecode=CAB103_3_3_3,Length=0.069402000,Units=km
new line.SMT_11739897 bus1=BMT7918325B.1.2.3,bus2=BMT7918339B.1.2.3,Phases=3,Linecode=CAB103_3_3_3,Length=0.072062000,Units=km
new line.SMT_11739904 bus1=BMT7918339B.1.2.3,bus2=BMT7918367B.1.2.3,Phases=3,Linecode=CAB103_3_3_3,Length=0.070631000,Units=km
new line.SMT_11740037 bus1=BMT7918367B.1.2.3,bus2=BMT7918388B.1.2.3,Phases=3,Linecode=CAB103_3_3_3,Length=0.084233000,Units=km
new line.SMT_11740044 bus1=BMT7918388B.1.2.3,bus2=BMT7918486B.1.2.3,Phases=3,Linecode=CAB103_3_3_3,Length=0.070254000,Units=km
new line.SMT_11740065 bus1=BMT7918486B.1.2.3,bus2=BMT7918500B.1.2.3,Phases=3,Linecode=CAB103_3_3_3,Length=0.071539000,Units=km
new line.SMT_11740072 bus1=BMT7918500B.1.2.3,bus2=BMT7918514B.1.2.3,Phases=3,Linecode=CAB103_3_3_3,Length=0.069315000,Units=km
new line.SMT_11740079 bus1=BMT7918514B.1.2.3,bus2=BMT7918521B.1.2.3,Phases=3,Linecode=CAB103_3_3_3,Length=0.070254000,Units=km
new line.SMT_11740135 bus1=BMT7918521B.1.2.3,bus2=BMT7918577B.1.2.3,Phases=3,Linecode=CAB103_3_3_3,Length=0.063348000,Units=km
new line.SMT_11740156 bus1=BMT7918577B.1.2.3,bus2=BMT7918584B.1.2.3,Phases=3,Linecode=CAB103_3_3_3,Length=0.064281000,Units=km
new line.SMT_11740163 bus1=BMT7918584B.1.2.3,bus2=BMT152054528.1.2.3,Phases=3,Linecode=CAB103_3_3_3,Length=0.061121000,Units=km
new line.SMT_11740170 bus1=BMT152054528.1.2.3,bus2=BMT152054529.1.2.3,Phases=3,Linecode=CAB103_3_3_3,Length=0.061227000,Units=km
new line.SMT_11740191 bus1=BMT152054528.1.2.3,bus2=BMT7918619B.1.2.3,Phases=3,Linecode=CAB103_3_3_3,Length=0.052574000,Units=km
new line.SMT_11740198 bus1=BMT7918619B.1.2.3,bus2=BMT7918626B.1.2.3,Phases=3,Linecode=CAB103_3_3_3,Length=0.053508000,Units=km
new line.SMT_11740205 bus1=BMT7918626B.1.2.3,bus2=BMT7918633B.1.2.3,Phases=3,Linecode=CAB103_3_3_3,Length=0.055734000,Units=km
new line.SMT_11740212 bus1=BMT7918633B.1.2.3,bus2=BMT7918640B.1.2.3,Phases=3,Linecode=CAB103_3_3_3,Length=0.055734000,Units=km
new line.SMT_11740219 bus1=BMT7918640B.1.2.3,bus2=BMT7918647B.1.2.3,Phases=3,Linecode=CAB103_3_3_3,Length=0.055734000,Units=km
new line.SMT_11740254 bus1=BMT7918647B.1.2.3,bus2=BMT7918654B.1.2.3,Phases=3,Linecode=CAB103_3_3_3,Length=0.057606000,Units=km
new line.SMT_11740261 bus1=BMT7918654B.1.2.3,bus2=BMT7918661B.1.2.3,Phases=3,Linecode=CAB103_3_3_3,Length=0.067442000,Units=km
new line.SMT_11740275 bus1=BMT7918661B.1.2.3,bus2=BMT152054530.1.2.3,Phases=3,Linecode=CAB103_3_3_3,Length=0.072477000,Units=km
new line.SMT_11740373 bus1=BMT170998583.2,bus2=BMT116772196.2,Phases=1,Linecode=CAB103_3_1_1,Length=0.025010000,Units=km
new line.SMT_11740387 bus1=BMT148341936.2,bus2=BMT7918766B.2,Phases=1,Linecode=CAB103_3_1_1,Length=0.052365000,Units=km
new line.SMT_11740394 bus1=BMT7918766B.2,bus2=BMT7918780B.2,Phases=1,Linecode=CAB103_3_1_1,Length=0.051019000,Units=km
new line.SMT_11740401 bus1=BMT7918780B.2,bus2=BMT7918787B.2,Phases=1,Linecode=CAB103_3_1_1,Length=0.076055000,Units=km
new line.SMT_11740422 bus1=BMT7918787B.2,bus2=BMT148341937.2,Phases=1,Linecode=CAB103_3_1_1,Length=0.060022000,Units=km
new line.SMT_11740429 bus1=BMT148341937.2,bus2=BMT148341938.2,Phases=1,Linecode=CAB103_3_1_1,Length=0.018035000,Units=km
new line.SMT_11740436 bus1=BMT148341937.2,bus2=BMT7918815B.2,Phases=1,Linecode=CAB103_3_1_1,Length=0.090278000,Units=km
new line.SMT_11740443 bus1=BMT7918815B.2,bus2=BMT7918822B.2,Phases=1,Linecode=CAB103_3_1_1,Length=0.073791000,Units=km
new line.SMT_11740464 bus1=BMT7918822B.2,bus2=BMT7918808B.2,Phases=1,Linecode=CAB103_3_1_1,Length=0.062665000,Units=km
new line.SMT_11740471 bus1=BMT7918808B.2,bus2=BMT7918829B.2,Phases=1,Linecode=CAB103_3_1_1,Length=0.060487000,Units=km
new line.SMT_11740597 bus1=BMT7918829B.2,bus2=BMT148341939.2,Phases=1,Linecode=CAB103_3_1_1,Length=0.046633000,Units=km
new line.SMT_11925726 bus1=BMT133267766.1.2.3,bus2=BMT161078103.1.2.3,Phases=3,Linecode=CAB203_3_3_3,Length=0.027213000,Units=km
new line.SMT_12109964 bus1=BMT173637076.1.2.3,bus2=BMT173637079.1.2.3,Phases=3,Linecode=CAB202_3_3_3,Length=0.141226000,Units=km
new line.SMT_12109966 bus1=BMT173637079.1.2.3,bus2=BMT173637080.1.2.3,Phases=3,Linecode=CAB202_3_3_3,Length=0.008250000,Units=km
new line.SMT_12109970 bus1=BMT173637079.1.2.3,bus2=BMT148112549.1.2.3,Phases=3,Linecode=CAB202_3_3_3,Length=0.075314000,Units=km
new line.SMT_12109984 bus1=BMT173637070.1.2.3,bus2=BMT173637073.1.2.3,Phases=3,Linecode=CAB202_3_3_3,Length=0.058203000,Units=km
new line.SMT_12109985 bus1=BMT173637079.1.2.3,bus2=BMT173637081.1.2.3,Phases=3,Linecode=CAB202_3_3_3,Length=0.118724000,Units=km
new line.SMT_12146999 bus1=BMT160617885.3,bus2=BMT160617886.3,Phases=1,Linecode=CAB202_3_1_1,Length=0.216560000,Units=km
new line.SMT_12147000 bus1=BMT160617886.3,bus2=BMT160617887.3,Phases=1,Linecode=CAB202_3_1_1,Length=0.043846000,Units=km
new line.SMT_12147014 bus1=BMT160617886.3,bus2=BMT8742964B.3,Phases=1,Linecode=CAB202_3_1_1,Length=0.119312000,Units=km
new line.SMT_12147018 bus1=BMT8742964B.3,bus2=BMT160617888.3,Phases=1,Linecode=CAB202_3_1_1,Length=0.125297000,Units=km
new line.SMT_12181997 bus1=BMT159976930.2,bus2=BMT159976932.2,Phases=1,Linecode=CAB103_3_1_1,Length=0.025972000,Units=km
new line.SMT_12261561 bus1=BMT3911769B.1.2.3,bus2=BMT8863987B.1.2.3,Phases=3,Linecode=CAB202_3_3_3,Length=0.073137000,Units=km
new line.SMT_12261562 bus1=BMT153546445.1.2.3,bus2=BMT8864004B.1.2.3,Phases=3,Linecode=CAB202_3_3_3,Length=0.017036000,Units=km
new line.SMT_12261563 bus1=BMT174171143.1.2.3,bus2=BMT8864004B.1.2.3,Phases=3,Linecode=CAB202_3_3_3,Length=0.328670000,Units=km
new line.SMT_12261565 bus1=BMT174171146.1.2.3,bus2=BMT174171147.1.2.3,Phases=3,Linecode=CAB202_3_3_3,Length=0.097545000,Units=km
new line.SMT_12261566 bus1=BMT153546445.1.2.3,bus2=BMT174171146.1.2.3,Phases=3,Linecode=CAB202_3_3_3,Length=0.139267000,Units=km
new line.SMT_12261567 bus1=BMT174171146.1.2.3,bus2=BMT8864006B.1.2.3,Phases=3,Linecode=CAB202_3_3_3,Length=0.115290000,Units=km
new line.SMT_12261568 bus1=BMT8864006B.1.2.3,bus2=BMT8864007B.1.2.3,Phases=3,Linecode=CAB202_3_3_3,Length=0.130911000,Units=km
new line.SMT_12261569 bus1=BMT8864007B.1.2.3,bus2=BMT153463075.1.2.3,Phases=3,Linecode=CAB202_3_3_3,Length=0.188157000,Units=km
new line.SMT_12261571 bus1=BMT153463301.1.2.3,bus2=BMT8864010B.1.2.3,Phases=3,Linecode=CAB202_3_3_3,Length=0.135109000,Units=km
new line.SMT_12261572 bus1=BMT8864010B.1.2.3,bus2=BMT8864011B.1.2.3,Phases=3,Linecode=CAB202_3_3_3,Length=0.135582000,Units=km
new line.SMT_12261573 bus1=BMT8864011B.1.2.3,bus2=BMT8864012B.1.2.3,Phases=3,Linecode=CAB202_3_3_3,Length=0.147201000,Units=km
new line.SMT_12261574 bus1=BMT8864012B.1.2.3,bus2=BMT8864013B.1.2.3,Phases=3,Linecode=CAB202_3_3_3,Length=0.139995000,Units=km
new line.SMT_12261575 bus1=BMT8864013B.1.2.3,bus2=BMT170998572.1.2.3,Phases=3,Linecode=CAB202_3_3_3,Length=0.133503000,Units=km
new line.SMT_12261576 bus1=BMT170998572.1,bus2=BMT170998573.1,Phases=1,Linecode=CAB103_3_1_1,Length=0.032570000,Units=km
new line.SMT_12261577 bus1=BMT170998572.1.2.3,bus2=BMT170998574.1.2.3,Phases=3,Linecode=CAB202_3_3_3,Length=0.062313000,Units=km
new line.SMT_12261578 bus1=BMT170998575.1.2.3,bus2=BMT170998576.1.2.3,Phases=3,Linecode=CAB202_3_3_3,Length=0.307725000,Units=km
new line.SMT_12261624 bus1=BMT153463429.1.2.3,bus2=BMT153463430.1.2.3,Phases=3,Linecode=CAB609_3_3_3,Length=0.008250000,Units=km
new line.SMT_12261626 bus1=BMT153463432.1.2.3,bus2=BMT153463431.1.2.3,Phases=3,Linecode=CAB609_3_3_3,Length=0.007283000,Units=km
new line.SMT_12261627 bus1=BMT153463430.1.2.3,bus2=BMT153463431.1.2.3,Phases=3,Linecode=CAB609_3_3_3,Length=0.044738000,Units=km
new line.SMT_12261704 bus1=BMT170998579.1.2.3,bus2=BMT8864040B.1.2.3,Phases=3,Linecode=CAB103_3_3_3,Length=0.071223000,Units=km
new line.SMT_12261705 bus1=BMT8864040B.1.2.3,bus2=BMT8864041B.1.2.3,Phases=3,Linecode=CAB103_3_3_3,Length=0.081523000,Units=km
new line.SMT_12261706 bus1=BMT8864041B.1.2.3,bus2=BMT8864042B.1.2.3,Phases=3,Linecode=CAB103_3_3_3,Length=0.078419000,Units=km
new line.SMT_12261707 bus1=BMT8864042B.1.2.3,bus2=BMT8864043B.1.2.3,Phases=3,Linecode=CAB103_3_3_3,Length=0.080161000,Units=km
new line.SMT_102948 bus1=BMT173878782.1.2.3,bus2=BMT206926B.1.2.3,Phases=3,Linecode=CAB102_3_3_3,Length=0.031253000,Units=km
new line.SMT_102955 bus1=BMT206926B.1.2.3,bus2=BMT206933B.1.2.3,Phases=3,Linecode=CAB102_3_3_3,Length=0.043433000,Units=km
new line.SMT_102962 bus1=BMT206933B.1.2.3,bus2=BMT173878783.1.2.3,Phases=3,Linecode=CAB102_3_3_3,Length=0.060131000,Units=km
new line.SMT_102969 bus1=BMT173878783.1.2.3,bus2=BMT173878784.1.2.3,Phases=3,Linecode=CABA06_3_3_3,Length=0.036892000,Units=km
new line.SMT_10613562 bus1=BMT177042596.3,bus2=BMT177042598.3,Phases=1,Linecode=CAB202_3_1_1,Length=0.076034000,Units=km
new line.SMT_10613569 bus1=BMT177042598.3,bus2=BMT102185638.3,Phases=1,Linecode=CAB202_3_1_1,Length=0.073763000,Units=km
new line.SMT_10776053 bus1=BMT162571285.1.2.3,bus2=BMT161118594.1.2.3,Phases=3,Linecode=CAB204_3_3_3,Length=0.102920000,Units=km
new line.SMT_10776060 bus1=BMT161118594.1.2.3,bus2=BMT162571287.1.2.3,Phases=3,Linecode=CAB204_3_3_3,Length=0.032662000,Units=km
new line.SMT_10776186 bus1=BMT7035366B.1.2.3,bus2=BMT102186310.1.2.3,Phases=3,Linecode=CABA06_3_3_3,Length=0.073033000,Units=km
new line.SMT_10776193 bus1=BMT161117313.1.2.3,bus2=BMT161117314.1.2.3,Phases=3,Linecode=CAB902_4_3_3,Length=0.026843000,Units=km
new line.SMT_11421061 bus1=BMT102186240.1.2.3,bus2=BMT102186247.1.2.3,Phases=3,Linecode=CAB203_3_3_3,Length=0.012005000,Units=km
new line.SMT_12154102 bus1=BMT3582139B.1.2.3,bus2=BMT8749775B.1.2.3,Phases=3,Linecode=CABA06_3_3_3,Length=0.044660000,Units=km
new line.SMT_12154103 bus1=BMT8749775B.1.2.3,bus2=BMT176334896.1.2.3,Phases=3,Linecode=CABA06_3_3_3,Length=0.044660000,Units=km
new line.SMT_12154125 bus1=BMT176334899.1.2.3,bus2=BMT8749790B.1.2.3,Phases=3,Linecode=CABA06_3_3_3,Length=0.047017000,Units=km
new line.SMT_12154126 bus1=BMT3582293B.1.2.3,bus2=BMT8749790B.1.2.3,Phases=3,Linecode=CABA06_3_3_3,Length=0.048018000,Units=km
new line.SMT_12188175 bus1=BMT160173184.2,bus2=BMT160173185.2,Phases=1,Linecode=CAB103_3_1_1,Length=0.014872000,Units=km
new line.SMT_12188176 bus1=BMT160173185.2,bus2=BMT8788416B.2,Phases=1,Linecode=CAB202_3_1_1,Length=0.129856000,Units=km
new line.SMT_12188178 bus1=BMT8788416B.2,bus2=BMT160173186.2,Phases=1,Linecode=CAB202_3_1_1,Length=0.129740000,Units=km
new line.SMT_12219666 bus1=BMT152054533.1.2.3,bus2=BMT8820398B.1.2.3,Phases=3,Linecode=CAB103_3_3_3,Length=0.073953000,Units=km
new line.SMT_12219671 bus1=BMT8820398B.1.2.3,bus2=BMT152054534.1.2.3,Phases=3,Linecode=CAB103_3_3_3,Length=0.071371000,Units=km
new line.SMT_12219767 bus1=BMT152054614.1.2.3,bus2=BMT152054615.1.2.3,Phases=3,Linecode=CAB609_5_3_3,Length=0.004002000,Units=km
new line.SMT_12219768 bus1=BMT152054615.1.2.3,bus2=BMT152054616.1.2.3,Phases=3,Linecode=CAB609_5_3_3,Length=0.089123000,Units=km
new line.SMT_12219769 bus1=BMT152054616.1.2.3,bus2=BMT152054445.1.2.3,Phases=3,Linecode=CAB609_5_3_3,Length=0.004002000,Units=km
new line.SMT_12219770 bus1=BMT152054446.1.2.3,bus2=BMT8820456B.1.2.3,Phases=3,Linecode=CAB202_3_3_3,Length=0.150068000,Units=km
new line.SMT_12219771 bus1=BMT8820456B.1.2.3,bus2=BMT8820458B.1.2.3,Phases=3,Linecode=CAB202_3_3_3,Length=0.183067000,Units=km
new line.SMT_12219772 bus1=BMT8820458B.1.2.3,bus2=BMT8820460B.1.2.3,Phases=3,Linecode=CAB202_3_3_3,Length=0.116043000,Units=km
new line.SMT_12219773 bus1=BMT8820460B.1.2.3,bus2=BMT8820462B.1.2.3,Phases=3,Linecode=CAB202_3_3_3,Length=0.120248000,Units=km
new line.SMT_12219774 bus1=BMT8820462B.1.2.3,bus2=BMT152054192.1.2.3,Phases=3,Linecode=CAB202_3_3_3,Length=0.119149000,Units=km
new line.SMT_12219775 bus1=BMT152054209.1.2.3,bus2=BMT152054210.1.2.3,Phases=3,Linecode=CAB103_3_3_3,Length=0.045061000,Units=km
new line.SMT_12256226 bus1=BMT102180836.1.2.3,bus2=BMT174082103.1.2.3,Phases=3,Linecode=CAB203_3_3_3,Length=0.087314000,Units=km
new line.SMT_12256227 bus1=BMT165474769.1.2.3,bus2=BMT174082103.1.2.3,Phases=3,Linecode=CAB203_3_3_3,Length=0.028171000,Units=km
new line.SMT_12256231 bus1=BMT174082103.3,bus2=BMT174082108.3,Phases=1,Linecode=CAB203_3_1_1,Length=0.059158000,Units=km
new line.SMT_12256567 bus1=BMT158577313.2,bus2=BMT8858157B.2,Phases=1,Linecode=CAB202_3_1_1,Length=0.049273000,Units=km
new line.SMT_12256568 bus1=BMT8858157B.2,bus2=BMT158577315.2,Phases=1,Linecode=CAB202_3_1_1,Length=0.052489000,Units=km
new line.SMT_12259003 bus1=BMT176853447.1.2.3,bus2=BMT176853449.1.2.3,Phases=3,Linecode=CAB103_3_3_3,Length=0.075101000,Units=km
new line.SMT_12259734 bus1=BMT3887633B.1.2.3,bus2=BMT176853443.1.2.3,Phases=3,Linecode=CAB202_3_3_3,Length=0.168315000,Units=km
new line.SMT_12259735 bus1=BMT176853443.1.2.3,bus2=BMT176853445.1.2.3,Phases=3,Linecode=CAB103_3_3_3,Length=0.039410000,Units=km
new line.SMT_12293752 bus1=BMT171259804.1.2.3,bus2=BMT154613086.1.2.3,Phases=3,Linecode=CABA08_3_3_3,Length=0.034898000,Units=km
new line.SMT_12293753 bus1=BMT154613088.1.2.3,bus2=BMT154613089.1.2.3,Phases=3,Linecode=CAB902_4_3_3,Length=0.009059000,Units=km
new line.SMT_12336680 bus1=BMT162568026.1.2.3,bus2=BMT8938876B.1.2.3,Phases=3,Linecode=CABA06_3_3_3,Length=0.064785000,Units=km
new line.SMT_12336709 bus1=BMT162567564.1.2.3,bus2=BMT157049322.1.2.3,Phases=3,Linecode=CABA06_3_3_3,Length=0.054938000,Units=km
new line.SMT_12336721 bus1=BMT8938903B.1.2.3,bus2=BMT162567433.1.2.3,Phases=3,Linecode=CABA06_3_3_3,Length=0.047017000,Units=km
new line.SMT_12336797 bus1=BMT157051695.1.2.3,bus2=BMT178274729.1.2.3,Phases=3,Linecode=CABA06_3_3_3,Length=0.030425000,Units=km
new line.SMT_11720066 bus1=BMT161546969.2,bus2=BMT7903870B.2,Phases=1,Linecode=CAB202_3_1_1,Length=0.077862000,Units=km
new line.SMT_11720073 bus1=BMT7903870B.2,bus2=BMT7903877B.2,Phases=1,Linecode=CAB202_3_1_1,Length=0.079105000,Units=km
new line.SMT_11720087 bus1=BMT7903877B.2,bus2=BMT7903884B.2,Phases=1,Linecode=CAB202_3_1_1,Length=0.106341000,Units=km
new line.SMT_11720108 bus1=BMT7903884B.2,bus2=BMT7903891B.2,Phases=1,Linecode=CAB202_3_1_1,Length=0.109017000,Units=km
new line.SMT_11720227 bus1=BMT7903891B.2,bus2=BMT7903898B.2,Phases=1,Linecode=CAB202_3_1_1,Length=0.118741000,Units=km
new line.SMT_11720234 bus1=BMT7903898B.2,bus2=BMT7903905B.2,Phases=1,Linecode=CAB202_3_1_1,Length=0.115463000,Units=km
new line.SMT_11720241 bus1=BMT7903905B.2,bus2=BMT7903912B.2,Phases=1,Linecode=CAB202_3_1_1,Length=0.124505000,Units=km
new line.SMT_11720248 bus1=BMT7903912B.2,bus2=BMT161546970.2,Phases=1,Linecode=CAB202_3_1_1,Length=0.132623000,Units=km
new line.SMT_12093313 bus1=BMT160899670.2,bus2=BMT8212969B.2,Phases=1,Linecode=CAB103_3_1_1,Length=0.053779000,Units=km
new line.SMT_12093327 bus1=BMT8212969B.2,bus2=BMT160899671.2,Phases=1,Linecode=CAB103_3_1_1,Length=0.056661000,Units=km
new line.SMT_12093334 bus1=BMT160899671.2,bus2=BMT160899672.2,Phases=1,Linecode=CAB103_3_1_1,Length=0.061424000,Units=km
new line.SMT_12093355 bus1=BMT160899671.2,bus2=BMT8212983B.2,Phases=1,Linecode=CABA06_3_1_1,Length=0.059056000,Units=km
new line.SMT_12093376 bus1=BMT8212983B.2,bus2=BMT8212990B.2,Phases=1,Linecode=CABA06_3_1_1,Length=0.058056000,Units=km
new line.SMT_12093383 bus1=BMT8212990B.2,bus2=BMT160899673.2,Phases=1,Linecode=CABA06_3_1_1,Length=0.057030000,Units=km
new line.SMT_12217913 bus1=BMT173637074.1.2.3,bus2=BMT173637077.1.2.3,Phases=3,Linecode=CAB202_3_3_3,Length=0.141548000,Units=km
new line.SMT_12217920 bus1=BMT174211238.1.2.3,bus2=BMT174211237.1.2.3,Phases=3,Linecode=CAB202_3_3_3,Length=0.030622000,Units=km
new line.SMT_12217921 bus1=BMT151982483.1.2.3,bus2=BMT174211237.1.2.3,Phases=3,Linecode=CAB202_3_3_3,Length=0.086247000,Units=km
new line.SMT_12290589 bus1=BMT148112549.1.2.3,bus2=BMT173637084.1.2.3,Phases=3,Linecode=CAB202_3_3_3,Length=0.284487000,Units=km
new line.SMT_12290590 bus1=BMT173637084.1.2.3,bus2=BMT8892529B.1.2.3,Phases=3,Linecode=CAB202_3_3_3,Length=0.050238000,Units=km
new line.SMT_12290593 bus1=BMT173637084.3,bus2=BMT173637086.3,Phases=1,Linecode=CAB202_3_1_1,Length=0.101827000,Units=km
new line.SMT_12291661 bus1=BMT170998586.1.2.3,bus2=BMT154549313.1.2.3,Phases=3,Linecode=CAB203_3_3_3,Length=0.062649000,Units=km
new line.SMT_12291662 bus1=BMT154549313.1.2.3,bus2=BMT102180703.1.2.3,Phases=3,Linecode=CAB203_3_3_3,Length=0.065461000,Units=km