! manter este comentario para compatibilidade do C#
new circuit.alimPEB06 bus1=BMT102176489,basekv=13.800000000,pu=1.040000000,r1=0,x1=0.0001

