new transformer.TRF_1056190 Phases=3,Windings=2,Buses=[BMT171858061.1.2.3 BBT9312760.1.2.3.0],Conns=[delta wye],kvs=[13.800000000 0.22],kvas=[45.000000000 45.000000000],Taps=[1,1.000000000],XHL=3.640000000,%loadloss=1.670000000,%noloadloss=0.433000000
new transformer.TRF_1155226A Phases=1,Windings=3,Buses=[BMT177042594.3 BBT35759614.1.0 BBT35759614.0.2],Conns=[wye wye wye],kvs=[7.967 0.12 0.12],kvas=[5.000000000 5.000000000 5.000000000],Taps=[1,1.000000000,1.000000000],XHL=1.360000000,XHT=1.360000000,XLT=1.088000000,%loadloss=2.100000000,%noloadloss=0.700000000
new transformer.TRF_1279315A Phases=1,Windings=3,Buses=[BMT102183944.1 BBT92349504.1.0 BBT92349504.0.2],Conns=[wye wye wye],kvs=[7.967 0.12 0.12],kvas=[5.000000000 5.000000000 5.000000000],Taps=[1,1.000000000,1.000000000],XHL=1.360000000,XHT=1.360000000,XLT=1.088000000,%loadloss=2.100000000,%noloadloss=0.700000000
new transformer.TRF_1279322A Phases=1,Windings=3,Buses=[BMT180128157.1 BBT92350610.1.0 BBT92350610.0.2],Conns=[wye wye wye],kvs=[7.967 0.12 0.12],kvas=[5.000000000 5.000000000 5.000000000],Taps=[1,1.000000000,1.000000000],XHL=1.360000000,XHT=1.360000000,XLT=1.088000000,%loadloss=2.100000000,%noloadloss=0.700000000
new transformer.TRF_1279336A Phases=1,Windings=3,Buses=[BMT178941095.1 BBT92352038.1.0 BBT92352038.0.2],Conns=[wye wye wye],kvs=[7.967 0.12 0.12],kvas=[5.000000000 5.000000000 5.000000000],Taps=[1,1.000000000,1.000000000],XHL=1.360000000,XHT=1.360000000,XLT=1.088000000,%loadloss=2.100000000,%noloadloss=0.700000000
new transformer.TRF_1279343A Phases=1,Windings=3,Buses=[BMT178941094.1 BBT92352108.1.0 BBT92352108.0.2],Conns=[wye wye wye],kvs=[7.967 0.12 0.12],kvas=[5.000000000 5.000000000 5.000000000],Taps=[1,1.000000000,1.000000000],XHL=1.360000000,XHT=1.360000000,XLT=1.088000000,%loadloss=2.100000000,%noloadloss=0.700000000
new transformer.TRF_132560A Phases=1,Windings=3,Buses=[BMT179960865.3 BBT1182385.1.0 BBT1182385.0.2],Conns=[wye wye wye],kvs=[7.967 0.12 0.12],kvas=[35.000000000 35.000000000 35.000000000],Taps=[1,1.000000000,1.000000000],XHL=2.060000000,XHT=2.060000000,XLT=1.648000000,%loadloss=1.410000000,%noloadloss=0.385000000
new transformer.TRF_132567A Phases=1,Windings=3,Buses=[BMT102185897.3 BBT1182399.1.0 BBT1182399.0.2],Conns=[wye wye wye],kvs=[7.967 0.12 0.12],kvas=[15.000000000 15.000000000 15.000000000],Taps=[1,1.000000000,1.000000000],XHL=1.770000000,XHT=1.770000000,XLT=1.416000000,%loadloss=1.770000000,%noloadloss=0.433000000
new transformer.TRF_132574A Phases=1,Windings=3,Buses=[BMT167257224.3 BBT1182413.1.0 BBT1182413.0.2],Conns=[wye wye wye],kvs=[7.967 0.12 0.12],kvas=[15.000000000 15.000000000 15.000000000],Taps=[1,1.000000000,1.000000000],XHL=1.770000000,XHT=1.770000000,XLT=1.416000000,%loadloss=1.770000000,%noloadloss=0.433000000
new transformer.TRF_132581A Phases=1,Windings=3,Buses=[BMT179960864.3 BBT1182427.1.0 BBT1182427.0.2],Conns=[wye wye wye],kvs=[7.967 0.12 0.12],kvas=[15.000000000 15.000000000 15.000000000],Taps=[1,1.000000000,1.000000000],XHL=1.770000000,XHT=1.770000000,XLT=1.416000000,%loadloss=1.770000000,%noloadloss=0.433000000
new transformer.TRF_132588A Phases=1,Windings=3,Buses=[BMT179960862.3 BBT1182441.1.0 BBT1182441.0.2],Conns=[wye wye wye],kvs=[7.967 0.12 0.12],kvas=[10.000000000 10.000000000 10.000000000],Taps=[1,1.000000000,1.000000000],XHL=1.560000000,XHT=1.560000000,XLT=1.248000000,%loadloss=1.950000000,%noloadloss=0.500000000
new transformer.TRF_132595A Phases=1,Windings=3,Buses=[BMT179960872.3 BBT1182455.1.0 BBT1182455.0.2],Conns=[wye wye wye],kvs=[7.967 0.12 0.12],kvas=[5.000000000 5.000000000 5.000000000],Taps=[1,1.000000000,1.000000000],XHL=1.360000000,XHT=1.360000000,XLT=1.088000000,%loadloss=2.100000000,%noloadloss=0.700000000
new transformer.TRF_132609A Phases=1,Windings=3,Buses=[BMT179952618.1 BBT1182483.1.0 BBT1182483.0.2],Conns=[wye wye wye],kvs=[7.967 0.12 0.12],kvas=[15.000000000 15.000000000 15.000000000],Taps=[1,1.000000000,1.000000000],XHL=1.770000000,XHT=1.770000000,XLT=1.416000000,%loadloss=1.770000000,%noloadloss=0.433000000
new transformer.TRF_132616A Phases=1,Windings=3,Buses=[BMT176334897.3 BBT1182497.1.0 BBT1182497.0.2],Conns=[wye wye wye],kvs=[7.967 0.12 0.12],kvas=[15.000000000 15.000000000 15.000000000],Taps=[1,1.000000000,1.000000000],XHL=1.770000000,XHT=1.770000000,XLT=1.416000000,%loadloss=1.770000000,%noloadloss=0.433000000
new transformer.TRF_132623A Phases=1,Windings=3,Buses=[BMT176334901.3 BBT1182511.1.0 BBT1182511.0.2],Conns=[wye wye wye],kvs=[7.967 0.12 0.12],kvas=[10.000000000 10.000000000 10.000000000],Taps=[1,1.000000000,1.000000000],XHL=1.560000000,XHT=1.560000000,XLT=1.248000000,%loadloss=1.950000000,%noloadloss=0.500000000
new transformer.TRF_132630A Phases=1,Windings=3,Buses=[BMT174167147.2 BBT1182525.1.0 BBT1182525.0.2],Conns=[wye wye wye],kvs=[7.967 0.12 0.12],kvas=[5.000000000 5.000000000 5.000000000],Taps=[1,1.000000000,1.000000000],XHL=1.360000000,XHT=1.360000000,XLT=1.088000000,%loadloss=2.100000000,%noloadloss=0.700000000
new transformer.TRF_132644A Phases=1,Windings=3,Buses=[BMT102185162.3 BBT1182553.1.0 BBT1182553.0.2],Conns=[wye wye wye],kvs=[7.967 0.12 0.12],kvas=[35.000000000 35.000000000 35.000000000],Taps=[1,1.000000000,1.000000000],XHL=2.060000000,XHT=2.060000000,XLT=1.648000000,%loadloss=1.410000000,%noloadloss=0.385000000
new transformer.TRF_132651A Phases=1,Windings=3,Buses=[BMT177243077.3 BBT1182567.1.0 BBT1182567.0.2],Conns=[wye wye wye],kvs=[7.967 0.12 0.12],kvas=[15.000000000 15.000000000 15.000000000],Taps=[1,1.000000000,1.000000000],XHL=1.770000000,XHT=1.770000000,XLT=1.416000000,%loadloss=1.770000000,%noloadloss=0.433000000
new transformer.TRF_132658A Phases=1,Windings=3,Buses=[BMT177042593.3 BBT1182581.1.0 BBT1182581.0.2],Conns=[wye wye wye],kvs=[7.967 0.12 0.12],kvas=[35.000000000 35.000000000 35.000000000],Taps=[1,1.000000000,1.000000000],XHL=2.060000000,XHT=2.060000000,XLT=1.648000000,%loadloss=1.410000000,%noloadloss=0.385000000
new transformer.TRF_132665A Phases=1,Windings=3,Buses=[BMT177243072.3 BBT1182595.1.0 BBT1182595.0.2],Conns=[wye wye wye],kvs=[7.967 0.12 0.12],kvas=[15.000000000 15.000000000 15.000000000],Taps=[1,1.000000000,1.000000000],XHL=1.770000000,XHT=1.770000000,XLT=1.416000000,%loadloss=1.770000000,%noloadloss=0.433000000
new transformer.TRF_132679A Phases=1,Windings=3,Buses=[BMT174167148.1 BBT1182623.1.0 BBT1182623.0.2],Conns=[wye wye wye],kvs=[7.967 0.12 0.12],kvas=[25.000000000 25.000000000 25.000000000],Taps=[1,1.000000000,1.000000000],XHL=1.950000000,XHT=1.950000000,XLT=1.560000000,%loadloss=1.560000000,%noloadloss=0.360000000
new transformer.TRF_132693A Phases=1,Windings=3,Buses=[BMT176881529.3 BBT1182651.1.0 BBT1182651.0.2],Conns=[wye wye wye],kvs=[7.967 0.12 0.12],kvas=[10.000000000 10.000000000 10.000000000],Taps=[1,1.000000000,1.000000000],XHL=1.560000000,XHT=1.560000000,XLT=1.248000000,%loadloss=1.950000000,%noloadloss=0.500000000
new transformer.TRF_132700A Phases=1,Windings=3,Buses=[BMT174167143.3 BBT1182665.1.0 BBT1182665.0.2],Conns=[wye wye wye],kvs=[7.967 0.12 0.12],kvas=[15.000000000 15.000000000 15.000000000],Taps=[1,1.000000000,1.000000000],XHL=1.770000000,XHT=1.770000000,XLT=1.416000000,%loadloss=1.770000000,%noloadloss=0.433000000
new transformer.TRF_132714A Phases=1,Windings=3,Buses=[BMT174167141.1 BBT1182693.1.0 BBT1182693.0.2],Conns=[wye wye wye],kvs=[7.967 0.12 0.12],kvas=[25.000000000 25.000000000 25.000000000],Taps=[1,1.000000000,1.000000000],XHL=1.950000000,XHT=1.950000000,XLT=1.560000000,%loadloss=1.560000000,%noloadloss=0.360000000
new transformer.TRF_1119099 Phases=3,Windings=2,Buses=[BMT176334909.1.2.3 BBT27049122.1.2.3.0],Conns=[delta wye],kvs=[13.800000000 0.22],kvas=[30.000000000 30.000000000],Taps=[1,1.000000000],XHL=3.560000000,%loadloss=1.820000000,%noloadloss=0.500000000
new transformer.TRF_1283795A Phases=1,Windings=3,Buses=[BMT102186394.1 BBT76082253.1.0 BBT76082253.0.2],Conns=[wye wye wye],kvs=[7.967 0.12 0.12],kvas=[5.000000000 5.000000000 5.000000000],Taps=[1,1.000000000,1.000000000],XHL=1.360000000,XHT=1.360000000,XLT=1.088000000,%loadloss=2.100000000,%noloadloss=0.700000000
new transformer.TRF_1308414A Phases=1,Windings=3,Buses=[BMT167347467.1 BBT87024730.1.0 BBT87024730.0.2],Conns=[wye wye wye],kvs=[7.967 0.12 0.12],kvas=[5.000000000 5.000000000 5.000000000],Taps=[1,1.000000000,1.000000000],XHL=1.360000000,XHT=1.360000000,XLT=1.088000000,%loadloss=2.100000000,%noloadloss=0.700000000
new transformer.TRF_1308421A Phases=1,Windings=3,Buses=[BMT167359365.1 BBT87030813.1.0 BBT87030813.0.2],Conns=[wye wye wye],kvs=[7.967 0.12 0.12],kvas=[5.000000000 5.000000000 5.000000000],Taps=[1,1.000000000,1.000000000],XHL=1.360000000,XHT=1.360000000,XLT=1.088000000,%loadloss=2.100000000,%noloadloss=0.700000000
new transformer.TRF_1308435A Phases=1,Windings=3,Buses=[BMT167359369.1 BBT87040564.1.0 BBT87040564.0.2],Conns=[wye wye wye],kvs=[7.967 0.12 0.12],kvas=[5.000000000 5.000000000 5.000000000],Taps=[1,1.000000000,1.000000000],XHL=1.360000000,XHT=1.360000000,XLT=1.088000000,%loadloss=2.100000000,%noloadloss=0.700000000
new transformer.TRF_1308442A Phases=1,Windings=3,Buses=[BMT102184126.1 BBT87049188.1.0 BBT87049188.0.2],Conns=[wye wye wye],kvs=[7.967 0.12 0.12],kvas=[5.000000000 5.000000000 5.000000000],Taps=[1,1.000000000,1.000000000],XHL=1.360000000,XHT=1.360000000,XLT=1.088000000,%loadloss=2.100000000,%noloadloss=0.700000000
new transformer.TRF_1308449A Phases=1,Windings=3,Buses=[BMT167347472.1 BBT87051505.1.0 BBT87051505.0.2],Conns=[wye wye wye],kvs=[7.967 0.12 0.12],kvas=[15.000000000 15.000000000 15.000000000],Taps=[1,1.000000000,1.000000000],XHL=1.770000000,XHT=1.770000000,XLT=1.416000000,%loadloss=1.770000000,%noloadloss=0.433000000
new transformer.TRF_1308456A Phases=1,Windings=3,Buses=[BMT167347468.1 BBT87052387.1.0 BBT87052387.0.2],Conns=[wye wye wye],kvs=[7.967 0.12 0.12],kvas=[5.000000000 5.000000000 5.000000000],Taps=[1,1.000000000,1.000000000],XHL=1.360000000,XHT=1.360000000,XLT=1.088000000,%loadloss=2.100000000,%noloadloss=0.700000000
new transformer.TRF_133197A Phases=1,Windings=3,Buses=[BMT162568108.2 BBT1184464.1.0 BBT1184464.0.2],Conns=[wye wye wye],kvs=[7.967 0.12 0.12],kvas=[10.000000000 10.000000000 10.000000000],Taps=[1,1.000000000,1.000000000],XHL=1.560000000,XHT=1.560000000,XLT=1.248000000,%loadloss=1.950000000,%noloadloss=0.500000000
new transformer.TRF_133204A Phases=1,Windings=3,Buses=[BMT164430011.3 BBT1184478.1.0 BBT1184478.0.2],Conns=[wye wye wye],kvs=[7.967 0.12 0.12],kvas=[10.000000000 10.000000000 10.000000000],Taps=[1,1.000000000,1.000000000],XHL=1.560000000,XHT=1.560000000,XLT=1.248000000,%loadloss=1.950000000,%noloadloss=0.500000000
new transformer.TRF_133218A Phases=1,Windings=3,Buses=[BMT164465691.3 BBT1184506.1.0 BBT1184506.0.2],Conns=[wye wye wye],kvs=[7.967 0.12 0.12],kvas=[10.000000000 10.000000000 10.000000000],Taps=[1,1.000000000,1.000000000],XHL=1.560000000,XHT=1.560000000,XLT=1.248000000,%loadloss=1.950000000,%noloadloss=0.500000000
new transformer.TRF_133225 Phases=3,Windings=2,Buses=[BMT179410810.1.2.3 BBT1184520.1.2.3.0],Conns=[delta wye],kvs=[13.800000000 0.22],kvas=[45.000000000 45.000000000],Taps=[1,1.000000000],XHL=3.640000000,%loadloss=1.670000000,%noloadloss=0.433000000
new transformer.TRF_133232A Phases=1,Windings=3,Buses=[BMT179410829.2 BBT1184534.1.0 BBT1184534.0.2],Conns=[wye wye wye],kvs=[7.967 0.12 0.12],kvas=[25.000000000 25.000000000 25.000000000],Taps=[1,1.000000000,1.000000000],XHL=1.950000000,XHT=1.950000000,XLT=1.560000000,%loadloss=1.560000000,%noloadloss=0.360000000
new transformer.TRF_133253A Phases=1,Windings=3,Buses=[BMT173465016.3 BBT1184576.1.0 BBT1184576.0.2],Conns=[wye wye wye],kvs=[7.967 0.12 0.12],kvas=[15.000000000 15.000000000 15.000000000],Taps=[1,1.000000000,1.000000000],XHL=1.770000000,XHT=1.770000000,XLT=1.416000000,%loadloss=1.770000000,%noloadloss=0.433000000
new transformer.TRF_133260A Phases=1,Windings=3,Buses=[BMT173465013.3 BBT1184590.1.0 BBT1184590.0.2],Conns=[wye wye wye],kvs=[7.967 0.12 0.12],kvas=[15.000000000 15.000000000 15.000000000],Taps=[1,1.000000000,1.000000000],XHL=1.770000000,XHT=1.770000000,XLT=1.416000000,%loadloss=1.770000000,%noloadloss=0.433000000
new transformer.TRF_133274A Phases=1,Windings=3,Buses=[BMT179410815.2 BBT1184681.1.0 BBT1184681.0.2],Conns=[wye wye wye],kvs=[7.967 0.12 0.12],kvas=[35.000000000 35.000000000 35.000000000],Taps=[1,1.000000000,1.000000000],XHL=2.060000000,XHT=2.060000000,XLT=1.648000000,%loadloss=1.410000000,%noloadloss=0.385000000
new transformer.TRF_133281 Phases=3,Windings=2,Buses=[BMT179410801.1.2.3 BBT1184695.1.2.3.0],Conns=[delta wye],kvs=[13.800000000 0.22],kvas=[45.000000000 45.000000000],Taps=[1,1.000000000],XHL=3.640000000,%loadloss=1.670000000,%noloadloss=0.433000000
new transformer.TRF_133288A Phases=1,Windings=3,Buses=[BMT173465015.3 BBT1184709.1.0 BBT1184709.0.2],Conns=[wye wye wye],kvs=[7.967 0.12 0.12],kvas=[15.000000000 15.000000000 15.000000000],Taps=[1,1.000000000,1.000000000],XHL=1.770000000,XHT=1.770000000,XLT=1.416000000,%loadloss=1.770000000,%noloadloss=0.433000000
new transformer.TRF_133295A Phases=1,Windings=3,Buses=[BMT179410820.2 BBT1184723.1.0 BBT1184723.0.2],Conns=[wye wye wye],kvs=[7.967 0.12 0.12],kvas=[35.000000000 35.000000000 35.000000000],Taps=[1,1.000000000,1.000000000],XHL=2.060000000,XHT=2.060000000,XLT=1.648000000,%loadloss=1.410000000,%noloadloss=0.385000000
new transformer.TRF_133302A Phases=1,Windings=3,Buses=[BMT102185323.3 BBT1184737.1.0 BBT1184737.0.2],Conns=[wye wye wye],kvs=[7.967 0.12 0.12],kvas=[15.000000000 15.000000000 15.000000000],Taps=[1,1.000000000,1.000000000],XHL=1.770000000,XHT=1.770000000,XLT=1.416000000,%loadloss=1.770000000,%noloadloss=0.433000000
new transformer.TRF_133309A Phases=1,Windings=3,Buses=[BMT179960880.3 BBT1184751.1.0 BBT1184751.0.2],Conns=[wye wye wye],kvs=[7.967 0.12 0.12],kvas=[15.000000000 15.000000000 15.000000000],Taps=[1,1.000000000,1.000000000],XHL=1.770000000,XHT=1.770000000,XLT=1.416000000,%loadloss=1.770000000,%noloadloss=0.433000000
new transformer.TRF_133330 Phases=3,Windings=2,Buses=[BMT171748072.1.2.3 BBT1184793.1.2.3.0],Conns=[delta wye],kvs=[13.800000000 0.22],kvas=[30.000000000 30.000000000],Taps=[1,1.000000000],XHL=3.560000000,%loadloss=1.820000000,%noloadloss=0.500000000
new transformer.TRF_133337A Phases=1,Windings=3,Buses=[BMT102185379.3 BBT1184849.1.0 BBT1184849.0.2],Conns=[wye wye wye],kvs=[7.967 0.12 0.12],kvas=[10.000000000 10.000000000 10.000000000],Taps=[1,1.000000000,1.000000000],XHL=1.560000000,XHT=1.560000000,XLT=1.248000000,%loadloss=1.950000000,%noloadloss=0.500000000
new transformer.TRF_1063078 Phases=3,Windings=2,Buses=[BMT162571288.1.2.3 BBT12428320.1.2.3.0],Conns=[delta wye],kvs=[13.800000000 0.22],kvas=[45.000000000 45.000000000],Taps=[1,1.000000000],XHL=3.640000000,%loadloss=1.670000000,%noloadloss=0.433000000
new transformer.TRF_1152895A Phases=1,Windings=3,Buses=[BMT154875551.1 BBT34606056.1.0 BBT34606056.0.2],Conns=[wye wye wye],kvs=[7.967 0.12 0.12],kvas=[5.000000000 5.000000000 5.000000000],Taps=[1,1.000000000,1.000000000],XHL=1.360000000,XHT=1.360000000,XLT=1.088000000,%loadloss=2.100000000,%noloadloss=0.700000000
new transformer.TRF_1201629A Phases=1,Windings=3,Buses=[BMT177042598.3 BBT42385044.1.0 BBT42385044.0.2],Conns=[wye wye wye],kvs=[7.967 0.12 0.12],kvas=[35.000000000 35.000000000 35.000000000],Taps=[1,1.000000000,1.000000000],XHL=2.060000000,XHT=2.060000000,XLT=1.648000000,%loadloss=1.410000000,%noloadloss=0.385000000
new transformer.TRF_1252652A Phases=1,Windings=3,Buses=[BMT179960854.1 BBT61222009.1.0 BBT61222009.0.2],Conns=[wye wye wye],kvs=[7.967 0.12 0.12],kvas=[5.000000000 5.000000000 5.000000000],Taps=[1,1.000000000,1.000000000],XHL=1.360000000,XHT=1.360000000,XLT=1.088000000,%loadloss=2.100000000,%noloadloss=0.700000000
new transformer.TRF_1300434A Phases=1,Windings=3,Buses=[BMT162886035.1 BBT84552225.1.0 BBT84552225.0.2],Conns=[wye wye wye],kvs=[7.967 0.12 0.12],kvas=[5.000000000 5.000000000 5.000000000],Taps=[1,1.000000000,1.000000000],XHL=1.360000000,XHT=1.360000000,XLT=1.088000000,%loadloss=2.100000000,%noloadloss=0.700000000
new transformer.TRF_132875A Phases=1,Windings=3,Buses=[BMT176899635.1 BBT1183015.1.0 BBT1183015.0.2],Conns=[wye wye wye],kvs=[7.967 0.12 0.12],kvas=[15.000000000 15.000000000 15.000000000],Taps=[1,1.000000000,1.000000000],XHL=1.770000000,XHT=1.770000000,XLT=1.416000000,%loadloss=1.770000000,%noloadloss=0.433000000
new transformer.TRF_132882A Phases=1,Windings=3,Buses=[BMT102184343.3 BBT1183029.1.0 BBT1183029.0.2],Conns=[wye wye wye],kvs=[7.967 0.12 0.12],kvas=[35.000000000 35.000000000 35.000000000],Taps=[1,1.000000000,1.000000000],XHL=2.060000000,XHT=2.060000000,XLT=1.648000000,%loadloss=1.410000000,%noloadloss=0.385000000
new transformer.TRF_132889A Phases=1,Windings=3,Buses=[BMT176881534.3 BBT1183043.1.0 BBT1183043.0.2],Conns=[wye wye wye],kvs=[7.967 0.12 0.12],kvas=[5.000000000 5.000000000 5.000000000],Taps=[1,1.000000000,1.000000000],XHL=1.360000000,XHT=1.360000000,XLT=1.088000000,%loadloss=2.100000000,%noloadloss=0.700000000
new transformer.TRF_132903A Phases=1,Windings=3,Buses=[BMT161074932.1 BBT1183071.1.0 BBT1183071.0.2],Conns=[wye wye wye],kvs=[7.967 0.12 0.12],kvas=[35.000000000 35.000000000 35.000000000],Taps=[1,1.000000000,1.000000000],XHL=2.060000000,XHT=2.060000000,XLT=1.648000000,%loadloss=1.410000000,%noloadloss=0.385000000
new transformer.TRF_132910A Phases=1,Windings=3,Buses=[BMT161074926.1 BBT1183085.1.0 BBT1183085.0.2],Conns=[wye wye wye],kvs=[7.967 0.12 0.12],kvas=[5.000000000 5.000000000 5.000000000],Taps=[1,1.000000000,1.000000000],XHL=1.360000000,XHT=1.360000000,XLT=1.088000000,%loadloss=2.100000000,%noloadloss=0.700000000
new transformer.TRF_132917A Phases=1,Windings=3,Buses=[BMT102181921.1 BBT1183099.1.0 BBT1183099.0.2],Conns=[wye wye wye],kvs=[7.967 0.12 0.12],kvas=[5.000000000 5.000000000 5.000000000],Taps=[1,1.000000000,1.000000000],XHL=1.360000000,XHT=1.360000000,XLT=1.088000000,%loadloss=2.100000000,%noloadloss=0.700000000
new transformer.TRF_132924A Phases=1,Windings=3,Buses=[BMT160617887.3 BBT1183113.1.0 BBT1183113.0.2],Conns=[wye wye wye],kvs=[7.967 0.12 0.12],kvas=[15.000000000 15.000000000 15.000000000],Taps=[1,1.000000000,1.000000000],XHL=1.770000000,XHT=1.770000000,XLT=1.416000000,%loadloss=1.770000000,%noloadloss=0.433000000
new transformer.TRF_132952 Phases=3,Windings=2,Buses=[BMT102184322.1.2.3 BBT1183169.1.2.3.0],Conns=[delta wye],kvs=[13.800000000 0.22],kvas=[45.000000000 45.000000000],Taps=[1,1.000000000],XHL=3.640000000,%loadloss=1.670000000,%noloadloss=0.433000000
new transformer.TRF_132966A Phases=1,Windings=3,Buses=[BMT176881533.3 BBT1183197.1.0 BBT1183197.0.2],Conns=[wye wye wye],kvs=[7.967 0.12 0.12],kvas=[15.000000000 15.000000000 15.000000000],Taps=[1,1.000000000,1.000000000],XHL=1.770000000,XHT=1.770000000,XLT=1.416000000,%loadloss=1.770000000,%noloadloss=0.433000000
new transformer.TRF_132973 Phases=3,Windings=2,Buses=[BMT156799339.1.2.3 BBT1183211.1.2.3.0],Conns=[delta wye],kvs=[13.800000000 0.22],kvas=[45.000000000 45.000000000],Taps=[1,1.000000000],XHL=3.640000000,%loadloss=1.670000000,%noloadloss=0.433000000
new transformer.TRF_132994A Phases=1,Windings=3,Buses=[BMT161074928.1 BBT1183253.1.0 BBT1183253.0.2],Conns=[wye wye wye],kvs=[7.967 0.12 0.12],kvas=[15.000000000 15.000000000 15.000000000],Taps=[1,1.000000000,1.000000000],XHL=1.770000000,XHT=1.770000000,XLT=1.416000000,%loadloss=1.770000000,%noloadloss=0.433000000
new transformer.TRF_133008A Phases=1,Windings=3,Buses=[BMT153820051.1 BBT1183281.1.0 BBT1183281.0.2],Conns=[wye wye wye],kvs=[7.967 0.12 0.12],kvas=[15.000000000 15.000000000 15.000000000],Taps=[1,1.000000000,1.000000000],XHL=1.770000000,XHT=1.770000000,XLT=1.416000000,%loadloss=1.770000000,%noloadloss=0.433000000
new transformer.TRF_133015A Phases=1,Windings=3,Buses=[BMT161074931.1 BBT1183295.1.0 BBT1183295.0.2],Conns=[wye wye wye],kvs=[7.967 0.12 0.12],kvas=[10.000000000 10.000000000 10.000000000],Taps=[1,1.000000000,1.000000000],XHL=1.560000000,XHT=1.560000000,XLT=1.248000000,%loadloss=1.950000000,%noloadloss=0.500000000
new transformer.TRF_133022A Phases=1,Windings=3,Buses=[BMT153820050.1 BBT1183309.1.0 BBT1183309.0.2],Conns=[wye wye wye],kvs=[7.967 0.12 0.12],kvas=[35.000000000 35.000000000 35.000000000],Taps=[1,1.000000000,1.000000000],XHL=2.060000000,XHT=2.060000000,XLT=1.648000000,%loadloss=1.410000000,%noloadloss=0.385000000
new transformer.TRF_133029A Phases=1,Windings=3,Buses=[BMT180128156.1 BBT1183323.1.0 BBT1183323.0.2],Conns=[wye wye wye],kvs=[7.967 0.12 0.12],kvas=[35.000000000 35.000000000 35.000000000],Taps=[1,1.000000000,1.000000000],XHL=2.060000000,XHT=2.060000000,XLT=1.648000000,%loadloss=1.410000000,%noloadloss=0.385000000
new transformer.TRF_133064 Phases=3,Windings=2,Buses=[BMT179410800.1.2.3 BBT1183393.1.2.3.0],Conns=[delta wye],kvs=[13.800000000 0.22],kvas=[45.000000000 45.000000000],Taps=[1,1.000000000],XHL=3.640000000,%loadloss=1.670000000,%noloadloss=0.433000000
new transformer.TRF_133078 Phases=3,Windings=2,Buses=[BMT179410798.1.2.3 BBT1183470.1.2.3.0],Conns=[delta wye],kvs=[13.800000000 0.22],kvas=[30.000000000 30.000000000],Taps=[1,1.000000000],XHL=3.560000000,%loadloss=1.820000000,%noloadloss=0.500000000
new transformer.TRF_133092 Phases=3,Windings=2,Buses=[BMT162568528.1.2.3 BBT1183498.1.2.3.0],Conns=[delta wye],kvs=[13.800000000 0.22],kvas=[150.000000000 150.000000000],Taps=[1,1.000000000],XHL=3.810000000,%loadloss=1.230000000,%noloadloss=0.323000000
new transformer.TRF_133120 Phases=3,Windings=2,Buses=[BMT171748075.1.2.3 BBT1183813.1.2.3.0],Conns=[delta wye],kvs=[13.800000000 0.22],kvas=[45.000000000 45.000000000],Taps=[1,1.000000000],XHL=3.640000000,%loadloss=1.670000000,%noloadloss=0.433000000
new transformer.TRF_1067082A Phases=1,Windings=3,Buses=[BMT176334899.3 BBT14215630.1.0 BBT14215630.0.2],Conns=[wye wye wye],kvs=[7.967 0.12 0.12],kvas=[15.000000000 15.000000000 15.000000000],Taps=[1,1.000000000,1.000000000],XHL=1.770000000,XHT=1.770000000,XLT=1.416000000,%loadloss=1.770000000,%noloadloss=0.433000000
new transformer.TRF_1098789A Phases=1,Windings=3,Buses=[BMT167359370.1 BBT141073776.1.0 BBT141073776.0.2],Conns=[wye wye wye],kvs=[7.967 0.12 0.12],kvas=[5.000000000 5.000000000 5.000000000],Taps=[1,1.000000000,1.000000000],XHL=1.360000000,XHT=1.360000000,XLT=1.088000000,%loadloss=2.100000000,%noloadloss=0.700000000
new transformer.TRF_1159762A Phases=1,Windings=3,Buses=[BMT102181200.2 BBT34720779.1.0 BBT34720779.0.2],Conns=[wye wye wye],kvs=[7.967 0.12 0.12],kvas=[5.000000000 5.000000000 5.000000000],Taps=[1,1.000000000,1.000000000],XHL=1.360000000,XHT=1.360000000,XLT=1.088000000,%loadloss=2.100000000,%noloadloss=0.700000000
new transformer.TRF_133519 Phases=3,Windings=2,Buses=[BMT171748071.1.2.3 BBT1185766.1.2.3.0],Conns=[delta wye],kvs=[13.800000000 0.22],kvas=[30.000000000 30.000000000],Taps=[1,1.000000000],XHL=3.560000000,%loadloss=1.820000000,%noloadloss=0.500000000
new transformer.TRF_133526 Phases=3,Windings=2,Buses=[BMT102177742.1.2.3 BBT1185857.1.2.3.0],Conns=[delta wye],kvs=[13.800000000 0.22],kvas=[30.000000000 30.000000000],Taps=[1,1.000000000],XHL=3.560000000,%loadloss=1.820000000,%noloadloss=0.500000000
new transformer.TRF_133533A Phases=1,Windings=3,Buses=[BMT157576658.3 BBT1185871.1.0 BBT1185871.0.2],Conns=[wye wye wye],kvs=[7.967 0.12 0.12],kvas=[15.000000000 15.000000000 15.000000000],Taps=[1,1.000000000,1.000000000],XHL=1.770000000,XHT=1.770000000,XLT=1.416000000,%loadloss=1.770000000,%noloadloss=0.433000000
new transformer.TRF_133540A Phases=1,Windings=3,Buses=[BMT177042597.3 BBT1185885.1.0 BBT1185885.0.2],Conns=[wye wye wye],kvs=[7.967 0.12 0.12],kvas=[35.000000000 35.000000000 35.000000000],Taps=[1,1.000000000,1.000000000],XHL=2.060000000,XHT=2.060000000,XLT=1.648000000,%loadloss=1.410000000,%noloadloss=0.385000000
new transformer.TRF_133554A Phases=1,Windings=3,Buses=[BMT102185267.3 BBT1185913.1.0 BBT1185913.0.2],Conns=[wye wye wye],kvs=[7.967 0.12 0.12],kvas=[15.000000000 15.000000000 15.000000000],Taps=[1,1.000000000,1.000000000],XHL=1.770000000,XHT=1.770000000,XLT=1.416000000,%loadloss=1.770000000,%noloadloss=0.433000000
new transformer.TRF_133561 Phases=3,Windings=2,Buses=[BMT162571293.1.2.3 BBT1185927.1.2.3.0],Conns=[delta wye],kvs=[13.800000000 0.22],kvas=[15.000000000 15.000000000],Taps=[1,1.000000000],XHL=3.360000000,%loadloss=2.170000000,%noloadloss=0.566000000
new transformer.TRF_133568A Phases=1,Windings=3,Buses=[BMT162568172.1 BBT1185934.1.0 BBT1185934.0.2],Conns=[wye wye wye],kvs=[7.967 0.12 0.12],kvas=[10.000000000 10.000000000 10.000000000],Taps=[1,1.000000000,1.000000000],XHL=1.560000000,XHT=1.560000000,XLT=1.248000000,%loadloss=1.950000000,%noloadloss=0.500000000
new transformer.TRF_133582 Phases=3,Windings=2,Buses=[BMT170228238.1.2.3 BBT1185962.1.2.3.0],Conns=[delta wye],kvs=[13.800000000 0.22],kvas=[75.000000000 75.000000000],Taps=[1,1.000000000],XHL=3.720000000,%loadloss=1.470000000,%noloadloss=0.393000000
new transformer.TRF_133589A Phases=1,Windings=3,Buses=[BMT176271142.3 BBT1185976.1.0 BBT1185976.0.2],Conns=[wye wye wye],kvs=[7.967 0.12 0.12],kvas=[15.000000000 15.000000000 15.000000000],Taps=[1,1.000000000,1.000000000],XHL=1.770000000,XHT=1.770000000,XLT=1.416000000,%loadloss=1.770000000,%noloadloss=0.433000000
new transformer.TRF_133603A Phases=1,Windings=3,Buses=[BMT102185120.3 BBT1186004.1.0 BBT1186004.0.2],Conns=[wye wye wye],kvs=[7.967 0.12 0.12],kvas=[15.000000000 15.000000000 15.000000000],Taps=[1,1.000000000,1.000000000],XHL=1.770000000,XHT=1.770000000,XLT=1.416000000,%loadloss=1.770000000,%noloadloss=0.433000000
new transformer.TRF_133617A Phases=1,Windings=3,Buses=[BMT179960892.3 BBT1186032.1.0 BBT1186032.0.2],Conns=[wye wye wye],kvs=[7.967 0.12 0.12],kvas=[10.000000000 10.000000000 10.000000000],Taps=[1,1.000000000,1.000000000],XHL=1.560000000,XHT=1.560000000,XLT=1.248000000,%loadloss=1.950000000,%noloadloss=0.500000000
new transformer.TRF_133624A Phases=1,Windings=3,Buses=[BMT177042600.3 BBT1186046.1.0 BBT1186046.0.2],Conns=[wye wye wye],kvs=[7.967 0.12 0.12],kvas=[15.000000000 15.000000000 15.000000000],Taps=[1,1.000000000,1.000000000],XHL=1.770000000,XHT=1.770000000,XLT=1.416000000,%loadloss=1.770000000,%noloadloss=0.433000000
new transformer.TRF_133631A Phases=1,Windings=3,Buses=[BMT157031348.1 BBT1186060.1.0 BBT1186060.0.2],Conns=[wye wye wye],kvs=[7.967 0.12 0.12],kvas=[10.000000000 10.000000000 10.000000000],Taps=[1,1.000000000,1.000000000],XHL=1.560000000,XHT=1.560000000,XLT=1.248000000,%loadloss=1.950000000,%noloadloss=0.500000000
new transformer.TRF_133638A Phases=1,Windings=3,Buses=[BMT157031347.1 BBT1186074.1.0 BBT1186074.0.2],Conns=[wye wye wye],kvs=[7.967 0.12 0.12],kvas=[15.000000000 15.000000000 15.000000000],Taps=[1,1.000000000,1.000000000],XHL=1.770000000,XHT=1.770000000,XLT=1.416000000,%loadloss=1.770000000,%noloadloss=0.433000000
new transformer.TRF_133645 Phases=3,Windings=2,Buses=[BMT176271141.1.2.3 BBT1186088.1.2.3.0],Conns=[delta wye],kvs=[13.800000000 0.22],kvas=[75.000000000 75.000000000],Taps=[1,1.000000000],XHL=3.720000000,%loadloss=1.470000000,%noloadloss=0.393000000
new transformer.TRF_133652A Phases=1,Windings=3,Buses=[BMT102185225.3 BBT1186102.1.0 BBT1186102.0.2],Conns=[wye wye wye],kvs=[7.967 0.12 0.12],kvas=[5.000000000 5.000000000 5.000000000],Taps=[1,1.000000000,1.000000000],XHL=1.360000000,XHT=1.360000000,XLT=1.088000000,%loadloss=2.100000000,%noloadloss=0.700000000
new transformer.TRF_133659A Phases=1,Windings=3,Buses=[BMT177244868.3 BBT1186116.1.0 BBT1186116.0.2],Conns=[wye wye wye],kvs=[7.967 0.12 0.12],kvas=[10.000000000 10.000000000 10.000000000],Taps=[1,1.000000000,1.000000000],XHL=1.560000000,XHT=1.560000000,XLT=1.248000000,%loadloss=1.950000000,%noloadloss=0.500000000
new transformer.TRF_133666A Phases=1,Windings=3,Buses=[BMT102185358.3 BBT1186130.1.0 BBT1186130.0.2],Conns=[wye wye wye],kvs=[7.967 0.12 0.12],kvas=[15.000000000 15.000000000 15.000000000],Taps=[1,1.000000000,1.000000000],XHL=1.770000000,XHT=1.770000000,XLT=1.416000000,%loadloss=1.770000000,%noloadloss=0.433000000
new transformer.TRF_133673A Phases=1,Windings=3,Buses=[BMT176271140.3 BBT1186144.1.0 BBT1186144.0.2],Conns=[wye wye wye],kvs=[7.967 0.12 0.12],kvas=[15.000000000 15.000000000 15.000000000],Taps=[1,1.000000000,1.000000000],XHL=1.770000000,XHT=1.770000000,XLT=1.416000000,%loadloss=1.770000000,%noloadloss=0.433000000
new transformer.TRF_133680A Phases=1,Windings=3,Buses=[BMT102185862.3 BBT1186158.1.0 BBT1186158.0.2],Conns=[wye wye wye],kvs=[7.967 0.12 0.12],kvas=[15.000000000 15.000000000 15.000000000],Taps=[1,1.000000000,1.000000000],XHL=1.770000000,XHT=1.770000000,XLT=1.416000000,%loadloss=1.770000000,%noloadloss=0.433000000
new transformer.TRF_133715A Phases=1,Windings=3,Buses=[BMT177042599.3 BBT1186228.1.0 BBT1186228.0.2],Conns=[wye wye wye],kvs=[7.967 0.12 0.12],kvas=[15.000000000 15.000000000 15.000000000],Taps=[1,1.000000000,1.000000000],XHL=1.770000000,XHT=1.770000000,XLT=1.416000000,%loadloss=1.770000000,%noloadloss=0.433000000
new transformer.TRF_133344A Phases=1,Windings=3,Buses=[BMT102177770.2 BBT1184863.1.0 BBT1184863.0.2],Conns=[wye wye wye],kvs=[7.967 0.12 0.12],kvas=[10.000000000 10.000000000 10.000000000],Taps=[1,1.000000000,1.000000000],XHL=1.560000000,XHT=1.560000000,XLT=1.248000000,%loadloss=1.950000000,%noloadloss=0.500000000
new transformer.TRF_133358A Phases=1,Windings=3,Buses=[BMT102185141.3 BBT1184891.1.0 BBT1184891.0.2],Conns=[wye wye wye],kvs=[7.967 0.12 0.12],kvas=[35.000000000 35.000000000 35.000000000],Taps=[1,1.000000000,1.000000000],XHL=2.060000000,XHT=2.060000000,XLT=1.648000000,%loadloss=1.410000000,%noloadloss=0.385000000
new transformer.TRF_133365A Phases=1,Windings=3,Buses=[BMT180128161.1 BBT1184905.1.0 BBT1184905.0.2],Conns=[wye wye wye],kvs=[7.967 0.12 0.12],kvas=[10.000000000 10.000000000 10.000000000],Taps=[1,1.000000000,1.000000000],XHL=1.560000000,XHT=1.560000000,XLT=1.248000000,%loadloss=1.950000000,%noloadloss=0.500000000