new line.RBT_10077848 bus1=BBT1214655.1.0,bus2=RML1010077848.1.0,Phases=1,Linecode=CABBTG02_4_1_1,Length=0.029000000,Units=km
new line.RBT_10077851 bus1=BBT1210504.1.2.3.0,bus2=RML1010077851.1.2.3.0,Phases=3,Linecode=CABBTG06_4_3_3,Length=0.017000000,Units=km
new line.RBT_10077857 bus1=BBT1212849.1.2.0,bus2=RML1010077857.1.2.0,Phases=2,Linecode=CABBTG05_4_2_2,Length=0.029000000,Units=km
new line.RBT_10077860 bus1=BBT1211288.1.0,bus2=RML1010077860.1.0,Phases=1,Linecode=CABBTG02_4_1_1,Length=0.029000000,Units=km
new line.RBT_10077865 bus1=BBT1185080.1.2.3.0,bus2=RML1010077865.1.2.3.0,Phases=3,Linecode=CABBTG06_4_3_3,Length=0.029000000,Units=km
new line.RBT_10078941 bus1=BBT177048670.1.0,bus2=RML1010078941.1.0,Phases=1,Linecode=CABBTG02_4_1_1,Length=0.017000000,Units=km
new line.RBT_10079101 bus1=BBT177048670.2.0,bus2=RML1010079101.2.0,Phases=1,Linecode=CABBTG02_4_1_1,Length=0.017000000,Units=km
new line.RBT_10107406 bus1=BBT4887604.1.0,bus2=RML1010107406.1.0,Phases=1,Linecode=CABBTG02_4_1_1,Length=0.029000000,Units=km
new line.RBT_10107828 bus1=BBT1214529.2.0,bus2=RML1010107828.2.0,Phases=1,Linecode=CABBTG02_4_1_1,Length=0.029000000,Units=km
new line.RBT_10130396 bus1=BBT1211974.1.0,bus2=RML1010130396.1.0,Phases=1,Linecode=CABBTG02_4_1_1,Length=0.029000000,Units=km
new line.RBT_10131222 bus1=BBT1312298.1.2.0,bus2=RML1010131222.1.2.0,Phases=2,Linecode=CABBT807_4_2_2,Length=0.020000000,Units=km
new line.RBT_10162250 bus1=BBT1185626.3.1.0,bus2=RML1010162250.3.1.0,Phases=2,Linecode=CABBTG04_4_2_2,Length=0.029000000,Units=km
new line.RBT_10163069 bus1=BBT5140962.3.0,bus2=RML1010163069.3.0,Phases=1,Linecode=CABBTG02_4_1_1,Length=0.018000000,Units=km
new line.RBT_10163074 bus1=BBT149723665.1.0,bus2=RML1010163074.1.0,Phases=1,Linecode=CABBTG02_4_1_1,Length=0.014000000,Units=km
new line.RBT_10163188 bus1=BBT1184016.1.0,bus2=RML1010163188.1.0,Phases=1,Linecode=CABBTG02_4_1_1,Length=0.022000000,Units=km
new line.RBT_10163214 bus1=BBT1212282.3.0,bus2=RML1010163214.3.0,Phases=1,Linecode=CABBTG02_4_1_1,Length=0.019000000,Units=km
new line.RBT_10163219 bus1=BBT149798653.1.0,bus2=RML1010163219.1.0,Phases=1,Linecode=CABBTG02_4_1_1,Length=0.017000000,Units=km
new line.RBT_10164427 bus1=BBT1220171.1.0,bus2=RML1010164427.1.0,Phases=1,Linecode=CABBTG01_4_1_1,Length=0.029000000,Units=km
new line.RBT_10192914 bus1=BBT4629934.2.0,bus2=RML1010192914.2.0,Phases=1,Linecode=CABBTG02_4_1_1,Length=0.029000000,Units=km
new line.RBT_10192917 bus1=BBT4629934.1.0,bus2=RML1010192917.1.0,Phases=1,Linecode=CABBTG02_4_1_1,Length=0.029000000,Units=km
new line.RBT_10192924 bus1=BBT1209881.1.2.0,bus2=RML1010192924.1.2.0,Phases=2,Linecode=CABBTG13_4_2_2,Length=0.029000000,Units=km
new line.RBT_10192998 bus1=BBT1209041.1.2.0,bus2=RML1010192998.1.2.0,Phases=2,Linecode=CABBTG05_4_2_2,Length=0.029000000,Units=km
new line.RBT_10195253 bus1=BBT1183953.1.2.0,bus2=RML1010195253.1.2.0,Phases=2,Linecode=CABBTG05_4_2_2,Length=0.029000000,Units=km
new line.RBT_10222018 bus1=BBT245657.1.2.0,bus2=RML1010222018.1.2.0,Phases=2,Linecode=CABBTG05_4_2_2,Length=0.029000000,Units=km
new line.RBT_10223825 bus1=BBT1185682.3.0,bus2=RML1010223825.3.0,Phases=1,Linecode=CABBTG02_4_1_1,Length=0.029000000,Units=km
new line.RBT_10223974 bus1=BBT1184373.1.2.0,bus2=RML1010223974.1.2.0,Phases=2,Linecode=CABBTG05_4_2_2,Length=0.029000000,Units=km
new line.RBT_10224259 bus1=BBT5140969.2.0,bus2=RML1010224259.2.0,Phases=1,Linecode=CABBTG01_4_1_1,Length=0.029000000,Units=km
new line.RBT_10253983 bus1=BBT111993506.2.0,bus2=RML1010253983.2.0,Phases=1,Linecode=CABBTG02_4_1_1,Length=0.017000000,Units=km
new line.RBT_10254538 bus1=BBT111993506.1.0,bus2=RML1010254538.1.0,Phases=1,Linecode=CABBTG02_4_1_1,Length=0.017000000,Units=km
new line.RBT_10281302 bus1=BBT112281458.1.2.3.0,bus2=RML1010281302.1.2.3.0,Phases=3,Linecode=CABBTG08_4_3_3,Length=0.017000000,Units=km
new line.RBT_10282754 bus1=BBT1312088.1.2.0,bus2=RML1010282754.1.2.0,Phases=2,Linecode=CABBT807_4_2_2,Length=0.017000000,Units=km
new line.RBT_10370187 bus1=BBT12132493.1.0,bus2=RML1010370187.1.0,Phases=1,Linecode=CABBTG02_4_1_1,Length=0.029000000,Units=km
new line.RBT_10372524 bus1=BBT152986554.2.0,bus2=RML1010372524.2.0,Phases=1,Linecode=CABBTG02_4_1_1,Length=0.029000000,Units=km
new line.RBT_10372537 bus1=BBT152987375.1.2.0,bus2=RML1010372537.1.2.0,Phases=2,Linecode=CABBTG05_4_2_2,Length=0.029000000,Units=km
new line.RBT_10372544 bus1=BBT152986554.1.2.0,bus2=RML1010372544.1.2.0,Phases=2,Linecode=CABBTG05_4_2_2,Length=0.029000000,Units=km
new line.RBT_10373349 bus1=BBT152987376.3.0,bus2=RML1010373349.3.0,Phases=1,Linecode=CABBTG02_4_1_1,Length=0.029000000,Units=km
new line.RBT_10399900 bus1=BBT153366272.1.2.3.0,bus2=RML1010399900.1.2.3.0,Phases=3,Linecode=CABBTG06_4_3_3,Length=0.017000000,Units=km
new line.RBT_10013102 bus1=BBT4436167.1.0,bus2=RML1010013102.1.0,Phases=1,Linecode=CABBTG01_4_1_1,Length=0.029000000,Units=km
new line.RBT_10065908 bus1=BBT1214081.2.3.0,bus2=RML1010065908.2.3.0,Phases=2,Linecode=CABBTG05_4_2_2,Length=0.029000000,Units=km
new line.RBT_10136046 bus1=BBT1184205.2.0,bus2=RML1010136046.2.0,Phases=1,Linecode=CABBTG02_4_1_1,Length=0.029000000,Units=km
new line.RBT_10138555 bus1=BBT177048816.2.0,bus2=RML1010138555.2.0,Phases=1,Linecode=CABBTG02_4_1_1,Length=0.017000000,Units=km
new line.RBT_10138702 bus1=BBT4436223.2.0,bus2=RML1010138702.2.0,Phases=1,Linecode=CABBTG02_4_1_1,Length=0.017000000,Units=km
new line.RBT_10198601 bus1=BBT4436055.1.2.0,bus2=RML1010198601.1.2.0,Phases=2,Linecode=CABBTG05_4_2_2,Length=0.029000000,Units=km
new line.RBT_10198778 bus1=BBT1185045.1.2.0,bus2=RML1010198778.1.2.0,Phases=2,Linecode=CABBTG13_4_2_2,Length=0.029000000,Units=km
new line.RBT_10225360 bus1=BBT1211323.1.2.0,bus2=RML1010225360.1.2.0,Phases=2,Linecode=CABBTG04_4_2_2,Length=0.029000000,Units=km
new line.RBT_10225916 bus1=BBT5140962.3.0,bus2=RML1010225916.3.0,Phases=1,Linecode=CABBTG02_4_1_1,Length=0.029000000,Units=km
new line.RBT_10284771 bus1=BBT1209888.2.0,bus2=RML1010284771.2.0,Phases=1,Linecode=CABBTG02_4_1_1,Length=0.029000000,Units=km
new line.RBT_10285848 bus1=BBT1211204.2.0,bus2=RML1010285848.2.0,Phases=1,Linecode=CABBTG02_4_1_1,Length=0.029000000,Units=km
new line.RBT_10286366 bus1=BBT1185101.3.0,bus2=RML1010286366.3.0,Phases=1,Linecode=CABBTG02_4_1_1,Length=0.029000000,Units=km
new line.RBT_10316253 bus1=BBT1211344.1.2.3.0,bus2=RML1010316253.1.2.3.0,Phases=3,Linecode=CABBTG06_4_3_3,Length=0.029000000,Units=km
new line.RBT_10344313 bus1=BBT1184219.1.2.0,bus2=RML1010344313.1.2.0,Phases=2,Linecode=CABBTG05_4_2_2,Length=0.029000000,Units=km
new line.RBT_10345245 bus1=BBT4346084.1.2.0,bus2=RML1010345245.1.2.0,Phases=2,Linecode=CABBTG05_4_2_2,Length=0.029000000,Units=km
new line.RBT_10345265 bus1=BBT12132493.1.2.0,bus2=RML1010345265.1.2.0,Phases=2,Linecode=CABBTG05_4_2_2,Length=0.029000000,Units=km
new line.RBT_10345267 bus1=BBT95330132.2.0,bus2=RML1010345267.2.0,Phases=1,Linecode=CABBTG02_4_1_1,Length=0.029000000,Units=km
new line.RBT_10345276 bus1=BBT95330132.1.2.0,bus2=RML1010345276.1.2.0,Phases=2,Linecode=CABBTG05_4_2_2,Length=0.029000000,Units=km
new line.RBT_10345288 bus1=BBT1185815.3.0,bus2=RML1010345288.3.0,Phases=1,Linecode=CABBTG02_4_1_1,Length=0.029000000,Units=km
new line.RBT_10345350 bus1=BBT1184982.1.2.0,bus2=RML1010345350.1.2.0,Phases=2,Linecode=CABBTG05_4_2_2,Length=0.017000000,Units=km
new line.RBT_10345377 bus1=BBT12132486.2.0,bus2=RML1010345377.2.0,Phases=1,Linecode=CABBTG02_4_1_1,Length=0.029000000,Units=km
new line.RBT_10345379 bus1=BBT3513707.1.2.0,bus2=RML1010345379.1.2.0,Phases=2,Linecode=CABBTG05_4_2_2,Length=0.017000000,Units=km
new line.RBT_10345530 bus1=BBT149086644.1.2.3.0,bus2=RML1010345530.1.2.3.0,Phases=3,Linecode=CABBTG06_4_3_3,Length=0.017000000,Units=km
new line.RBT_10345923 bus1=BBT12132493.2.0,bus2=RML1010345923.2.0,Phases=1,Linecode=CABBTG02_4_1_1,Length=0.029000000,Units=km
new line.RBT_10374085 bus1=BBT152986554.1.2.0,bus2=RML1010374085.1.2.0,Phases=2,Linecode=CABBTG05_4_2_2,Length=0.029000000,Units=km
new line.RBT_10433702 bus1=BBT15277537.1.0,bus2=RML1010433702.1.0,Phases=1,Linecode=CABBTG02_4_1_1,Length=0.029000000,Units=km
new line.RBT_10434134 bus1=BBT152986476.3.0,bus2=RML1010434134.3.0,Phases=1,Linecode=CABBTG02_4_1_1,Length=0.029000000,Units=km
new line.RBT_10434760 bus1=BBT152987376.1.2.0,bus2=RML1010434760.1.2.0,Phases=2,Linecode=CABBT811_4_2_2,Length=0.029000000,Units=km
new line.RBT_10434993 bus1=BBT127598921.1.2.0,bus2=RML1010434993.1.2.0,Phases=2,Linecode=CABBTG05_4_2_2,Length=0.029000000,Units=km
new line.RBT_10435451 bus1=BBT152986543.1.0,bus2=RML1010435451.1.0,Phases=1,Linecode=CABBTG02_4_1_1,Length=0.029000000,Units=km
new line.RBT_10460862 bus1=BBT177048670.2.0,bus2=RML1010460862.2.0,Phases=1,Linecode=CABBTG02_4_1_1,Length=0.017000000,Units=km
new line.RBT_10489138 bus1=BBT136470476.1.0,bus2=RML1010489138.1.0,Phases=1,Linecode=CABBTG02_4_1_1,Length=0.017000000,Units=km
new line.RBT_10490641 bus1=BBT154868476.1.0,bus2=RML1010490641.1.0,Phases=1,Linecode=CABBTG02_4_1_1,Length=0.029000000,Units=km
new line.RBT_10553812 bus1=BBT4436293.1.2.0,bus2=RML1010553812.1.2.0,Phases=2,Linecode=CABBTG05_4_2_2,Length=0.017000000,Units=km
new line.RBT_10553820 bus1=BBT15277537.1.2.0,bus2=RML1010553820.1.2.0,Phases=2,Linecode=CABBTG05_4_2_2,Length=0.029000000,Units=km
new line.RBT_10553830 bus1=BBT15277537.1.2.0,bus2=RML1010553830.1.2.0,Phases=2,Linecode=CABBTG05_4_2_2,Length=0.013000000,Units=km
new line.RBT_10553836 bus1=BBT4015985.2.0,bus2=RML1010553836.2.0,Phases=1,Linecode=CABBTG02_4_1_1,Length=0.020000000,Units=km
new line.RBT_10030574 bus1=BBT34606063.1.0,bus2=RML1010030574.1.0,Phases=1,Linecode=CABBTG02_4_1_1,Length=0.017000000,Units=km
new line.RBT_10031176 bus1=BBT1312312.1.0,bus2=RML1010031176.1.0,Phases=1,Linecode=CABBTG02_4_1_1,Length=0.017000000,Units=km
new line.RBT_10031883 bus1=BBT1182742.1.0,bus2=RML1010031883.1.0,Phases=1,Linecode=CABBTG02_4_1_1,Length=0.017000000,Units=km
new line.RBT_10060019 bus1=BBT92352122.1.2.0,bus2=RML1010060019.1.2.0,Phases=2,Linecode=CABBTG04_4_2_2,Length=0.017000000,Units=km
new line.RBT_10060022 bus1=BBT92352045.1.0,bus2=RML1010060022.1.0,Phases=1,Linecode=CABBTG01_4_1_1,Length=0.017000000,Units=km
new line.RBT_10060024 bus1=BBT92349511.1.2.0,bus2=RML1010060024.1.2.0,Phases=2,Linecode=CABBTG04_4_2_2,Length=0.017000000,Units=km
new line.RBT_10060033 bus1=BBT92350624.1.2.0,bus2=RML1010060033.1.2.0,Phases=2,Linecode=CABBTG04_4_2_2,Length=0.017000000,Units=km
new line.RBT_10060065 bus1=BBT246441.1.2.0,bus2=RML1010060065.1.2.0,Phases=2,Linecode=CABBTG05_4_2_2,Length=0.029000000,Units=km
new line.RBT_10091274 bus1=BBT4436153.2.0,bus2=RML1010091274.2.0,Phases=1,Linecode=CABBTG02_4_1_1,Length=0.007000000,Units=km
new line.RBT_10091278 bus1=BBT4436279.1.2.0,bus2=RML1010091278.1.2.0,Phases=2,Linecode=CABBTG05_4_2_2,Length=0.018000000,Units=km
new line.RBT_10091280 bus1=BBT76103162.2.0,bus2=RML1010091280.2.0,Phases=1,Linecode=CABBTG02_4_1_1,Length=0.020000000,Units=km
new line.RBT_10180102 bus1=BBT4209983.1.2.0,bus2=RML1010180102.1.2.0,Phases=2,Linecode=CABBTG05_4_2_2,Length=0.017000000,Units=km
new line.RBT_10205565 bus1=BBT5019155.1.0,bus2=RML1010205565.1.0,Phases=1,Linecode=CABBTG02_4_1_1,Length=0.017000000,Units=km
new line.RBT_10262373 bus1=BBT4436006.1.0,bus2=RML1010262373.1.0,Phases=1,Linecode=CABBTG02_4_1_1,Length=0.017000000,Units=km
new line.RBT_10262374 bus1=BBT94492666.1.0,bus2=RML1010262374.1.0,Phases=1,Linecode=CABBTG02_4_1_1,Length=0.029000000,Units=km
new line.RBT_10293765 bus1=BBT94492666.1.0,bus2=RML1010293765.1.0,Phases=1,Linecode=CABBTG02_4_1_1,Length=0.029000000,Units=km
new line.RBT_10322362 bus1=BBT1209888.2.0,bus2=RML1010322362.2.0,Phases=1,Linecode=CABBTG02_4_1_1,Length=0.029000000,Units=km
new line.RBT_10322738 bus1=BBT1185192.1.2.3.0,bus2=RML1010322738.1.2.3.0,Phases=3,Linecode=CABBTG06_4_3_3,Length=0.029000000,Units=km
new line.RBT_10324879 bus1=BBT4660692.1.0,bus2=RML1010324879.1.0,Phases=1,Linecode=CABBTG02_4_1_1,Length=0.029000000,Units=km
new line.RBT_10378979 bus1=BBT138055605.1.2.0,bus2=RML1010378979.1.2.0,Phases=2,Linecode=CABBTG05_4_2_2,Length=0.017000000,Units=km
new line.RBT_10379199 bus1=BBT12132493.1.0,bus2=RML1010379199.1.0,Phases=1,Linecode=CABBTG02_4_1_1,Length=0.029000000,Units=km
new line.RBT_10379398 bus1=BBT4660706.1.2.0,bus2=RML1010379398.1.2.0,Phases=2,Linecode=CABBTG05_4_2_2,Length=0.029000000,Units=km
new line.RBT_10379399 bus1=BBT152986543.3.1.0,bus2=RML1010379399.3.1.0,Phases=2,Linecode=CABBTG05_4_2_2,Length=0.029000000,Units=km
new line.RBT_10379432 bus1=BBT152986554.2.3.0,bus2=RML1010379432.2.3.0,Phases=2,Linecode=CABBTG05_4_2_2,Length=0.029000000,Units=km
new line.RBT_10379470 bus1=BBT152986554.1.0,bus2=RML1010379470.1.0,Phases=1,Linecode=CABBTG02_4_1_1,Length=0.029000000,Units=km
new line.RBT_10379598 bus1=BBT119158398.1.2.0,bus2=RML1010379598.1.2.0,Phases=2,Linecode=CABBTG05_4_2_2,Length=0.029000000,Units=km
new line.RBT_10379766 bus1=BBT152986554.1.0,bus2=RML1010379766.1.0,Phases=1,Linecode=CABBTG02_4_1_1,Length=0.029000000,Units=km
new line.RBT_10438689 bus1=BBT82075149.1.2.0,bus2=RML1010438689.1.2.0,Phases=2,Linecode=CABBTG05_4_2_2,Length=0.017000000,Units=km
new line.RBT_10439112 bus1=BBT1213871.1.2.0,bus2=RML1010439112.1.2.0,Phases=2,Linecode=CABBTG05_4_2_2,Length=0.017000000,Units=km
new line.RBT_10439419 bus1=BBT4629934.2.0,bus2=RML1010439419.2.0,Phases=1,Linecode=CABBTG02_4_1_1,Length=0.029000000,Units=km
new line.RBT_10439469 bus1=BBT1211295.1.2.0,bus2=RML1010439469.1.2.0,Phases=2,Linecode=CABBTG05_4_2_2,Length=0.029000000,Units=km
new line.RBT_10558827 bus1=BBT1211260.1.2.0,bus2=RML1010558827.1.2.0,Phases=2,Linecode=CABBTG05_4_2_2,Length=0.006000000,Units=km
new line.RBT_10588921 bus1=BBT153546255.1.2.3.0,bus2=RML1010588921.1.2.3.0,Phases=3,Linecode=CABBTG07_4_3_3,Length=0.010000000,Units=km
new line.RBT_10588926 bus1=BBT127598921.2.0,bus2=RML1010588926.2.0,Phases=1,Linecode=CABBTG02_4_1_1,Length=0.029000000,Units=km
new line.RBT_10588964 bus1=BBT157069459.1.2.0,bus2=RML1010588964.1.2.0,Phases=2,Linecode=CABBTG05_4_2_2,Length=0.017000000,Units=km
new line.RBT_10589235 bus1=BBT1185031.2.0,bus2=RML1010589235.2.0,Phases=1,Linecode=CABBTG02_4_1_1,Length=0.023000000,Units=km
new line.RBT_10589241 bus1=BBT1211295.1.2.0,bus2=RML1010589241.1.2.0,Phases=2,Linecode=CABBTG05_4_2_2,Length=0.023000000,Units=km
new line.RBT_10041259 bus1=BBT4436041.1.0,bus2=RML1010041259.1.0,Phases=1,Linecode=CABBTG02_4_1_1,Length=0.029000000,Units=km
new line.RBT_10042050 bus1=BBT115339233.1.2.3.0,bus2=RML1010042050.1.2.3.0,Phases=3,Linecode=CABBTG09_4_3_3,Length=0.017000000,Units=km
new line.RBT_10042064 bus1=BBT4436041.1.0,bus2=RML1010042064.1.0,Phases=1,Linecode=CABBTG02_4_1_1,Length=0.029000000,Units=km
new line.RBT_10069896 bus1=BBT149041295.1.2.0,bus2=RML1010069896.1.2.0,Phases=2,Linecode=CABBTG05_4_2_2,Length=0.017000000,Units=km
new line.RBT_10071714 bus1=BBT1220374.1.0,bus2=RML1010071714.1.0,Phases=1,Linecode=CABBTG02_4_1_1,Length=0.029000000,Units=km
new line.RBT_10071884 bus1=BBT1211960.1.0,bus2=RML1010071884.1.0,Phases=1,Linecode=CABBTG01_4_1_1,Length=0.029000000,Units=km
new line.RBT_10099299 bus1=BBT149412595.1.2.0,bus2=RML1010099299.1.2.0,Phases=2,Linecode=CABBT808_4_2_2,Length=0.025000000,Units=km
new line.RBT_10125461 bus1=BBT1209307.3.0,bus2=RML1010125461.3.0,Phases=1,Linecode=CABBTG02_4_1_1,Length=0.020000000,Units=km
new line.RBT_10126381 bus1=BBT1185654.2.0,bus2=RML1010126381.2.0,Phases=1,Linecode=CABBTG02_4_1_1,Length=0.026000000,Units=km
new line.RBT_10126828 bus1=BBT1220269.1.0,bus2=RML1010126828.1.0,Phases=1,Linecode=CABBTG02_4_1_1,Length=0.029000000,Units=km
new line.RBT_10247475 bus1=BBT4436055.1.0,bus2=RML1010247475.1.0,Phases=1,Linecode=CABBTG02_4_1_1,Length=0.029000000,Units=km
new line.RBT_10247476 bus1=BBT31934835.1.0,bus2=RML1010247476.1.0,Phases=1,Linecode=CABBTG02_4_1_1,Length=0.017000000,Units=km
new line.RBT_10248141 bus1=BBT1212786.2.0,bus2=RML1010248141.2.0,Phases=1,Linecode=CABBTG02_4_1_1,Length=0.029000000,Units=km
new line.RBT_10248400 bus1=BBT4436041.1.2.0,bus2=RML1010248400.1.2.0,Phases=2,Linecode=CABBTG05_4_2_2,Length=0.029000000,Units=km
new line.RBT_10248453 bus1=BBT1184814.1.0,bus2=RML1010248453.1.0,Phases=1,Linecode=CABBTG02_4_1_1,Length=0.029000000,Units=km
new line.RBT_10249502 bus1=BBT1209293.1.2.3.0,bus2=RML1010249502.1.2.3.0,Phases=3,Linecode=CABBTG10_4_3_3,Length=0.029000000,Units=km
new line.RBT_10249503 bus1=BBT1209300.2.0,bus2=RML1010249503.2.0,Phases=1,Linecode=CABBTG02_4_1_1,Length=0.029000000,Units=km
new line.RBT_10250494 bus1=BBT4436293.1.2.0,bus2=RML1010250494.1.2.0,Phases=2,Linecode=CABBTG13_4_2_2,Length=0.017000000,Units=km
new line.RBT_10250937 bus1=BBT1184359.1.0,bus2=RML1010250937.1.0,Phases=1,Linecode=CABBTG02_4_1_1,Length=0.029000000,Units=km
new line.RBT_10250938 bus1=BBT1184373.1.0,bus2=RML1010250938.1.0,Phases=1,Linecode=CABBTG02_4_1_1,Length=0.029000000,Units=km
new line.RBT_10367882 bus1=BBT119161289.1.2.0,bus2=RML1010367882.1.2.0,Phases=2,Linecode=CABBTG05_4_2_2,Length=0.029000000,Units=km
new line.RBT_10367991 bus1=BBT1185801.1.0,bus2=RML1010367991.1.0,Phases=1,Linecode=CABBTG02_4_1_1,Length=0.029000000,Units=km
new line.RBT_10426466 bus1=BBT1211666.3.0,bus2=RML1010426466.3.0,Phases=1,Linecode=CABBTG02_4_1_1,Length=0.029000000,Units=km
new line.RBT_10426467 bus1=BBT177048792.1.2.0,bus2=RML1010426467.1.2.0,Phases=2,Linecode=CABBTG05_4_2_2,Length=0.017000000,Units=km
new line.RBT_10428428 bus1=BBT149723665.2.0,bus2=RML1010428428.2.0,Phases=1,Linecode=CABBT816_4_1_1,Length=0.029000000,Units=km
new line.RBT_10428494 bus1=BBT4436069.1.0,bus2=RML1010428494.1.0,Phases=1,Linecode=CABBTG02_4_1_1,Length=0.029000000,Units=km
new line.RBT_10428528 bus1=BBT95330132.1.0,bus2=RML1010428528.1.0,Phases=1,Linecode=CABBTG02_4_1_1,Length=0.029000000,Units=km
new line.RBT_10478331 bus1=BBT1183477.2.3.0,bus2=RML1010478331.2.3.0,Phases=2,Linecode=CABBTG05_4_2_2,Length=0.028000000,Units=km
new line.RBT_10478337 bus1=BBT1210959.1.2.0,bus2=RML1010478337.1.2.0,Phases=2,Linecode=CABBTG05_4_2_2,Length=0.028000000,Units=km
new line.RBT_10508420 bus1=BBT1184807.1.0,bus2=RML1010508420.1.0,Phases=1,Linecode=CABBTG02_4_1_1,Length=0.016000000,Units=km
new line.RBT_10510055 bus1=BBT3522807.1.2.3.0,bus2=RML1010510055.1.2.3.0,Phases=3,Linecode=CABBTG06_4_3_3,Length=0.019000000,Units=km
new line.RBT_10510307 bus1=BBT4136378.1.2.0,bus2=RML1010510307.1.2.0,Phases=2,Linecode=CABBTG05_4_2_2,Length=0.029000000,Units=km
new line.RBT_10568900 bus1=BBT1185773.3.0,bus2=RML1010568900.3.0,Phases=1,Linecode=CABBTG02_4_1_1,Length=0.018000000,Units=km
new line.RBT_10569558 bus1=BBT157053136.1.2.3.0,bus2=RML1010569558.1.2.3.0,Phases=3,Linecode=CABBTG06_4_3_3,Length=0.030000000,Units=km
new line.RBT_10569559 bus1=BBT157052311.1.2.0,bus2=RML1010569559.1.2.0,Phases=2,Linecode=CABBTG05_4_2_2,Length=0.029000000,Units=km
new line.RBT_10600433 bus1=BBT157069739.1.2.0,bus2=RML1010600433.1.2.0,Phases=2,Linecode=CABBTG05_4_2_2,Length=0.023000000,Units=km
new line.RBT_10601193 bus1=BBT156130081.1.2.3.0,bus2=RML1010601193.1.2.3.0,Phases=3,Linecode=CABBTG09_4_3_3,Length=0.017000000,Units=km
new line.RBT_10048301 bus1=BBT246420.1.0,bus2=RML1010048301.1.0,Phases=1,Linecode=CABBTG02_4_1_1,Length=0.029000000,Units=km
new line.RBT_10050602 bus1=BBT245657.3.0,bus2=RML1010050602.3.0,Phases=1,Linecode=CABBTG01_4_1_1,Length=0.029000000,Units=km
new line.RBT_10133308 bus1=BBT1220458.1.0,bus2=RML1010133308.1.0,Phases=1,Linecode=CABBTG02_4_1_1,Length=0.029000000,Units=km
new line.RBT_10181393 bus1=BBT112281458.1.2.3.0,bus2=RML1010181393.1.2.3.0,Phases=3,Linecode=CABBTG06_4_3_3,Length=0.017000000,Units=km
new line.RBT_10182130 bus1=BBT118471593.1.2.0,bus2=RML1010182130.1.2.0,Phases=2,Linecode=CABBTG05_4_2_2,Length=0.017000000,Units=km
new line.RBT_10182134 bus1=BBT118471593.1.2.0,bus2=RML1010182134.1.2.0,Phases=2,Linecode=CABBTG05_4_2_2,Length=0.017000000,Units=km
new line.RBT_10182159 bus1=BBT118471593.1.2.0,bus2=RML1010182159.1.2.0,Phases=2,Linecode=CABBTG05_4_2_2,Length=0.017000000,Units=km
new line.RBT_10182712 bus1=BBT5051383.1.2.0,bus2=RML1010182712.1.2.0,Phases=2,Linecode=CABBTG05_4_2_2,Length=0.017000000,Units=km
new line.RBT_10243912 bus1=BBT1220269.1.0,bus2=RML1010243912.1.0,Phases=1,Linecode=CABBTG01_4_1_1,Length=0.029000000,Units=km
new line.RBT_10243979 bus1=BBT177048790.1.0,bus2=RML1010243979.1.0,Phases=1,Linecode=CABBTG02_4_1_1,Length=0.017000000,Units=km
new line.RBT_10244000 bus1=BBT4436139.2.0,bus2=RML1010244000.2.0,Phases=1,Linecode=CABBTG02_4_1_1,Length=0.029000000,Units=km
new line.RBT_10244008 bus1=BBT1211218.2.3.0,bus2=RML1010244008.2.3.0,Phases=2,Linecode=CABBTG05_4_2_2,Length=0.029000000,Units=km
new line.RBT_10244034 bus1=BBT4545192.1.2.0,bus2=RML1010244034.1.2.0,Phases=2,Linecode=CABBTG05_4_2_2,Length=0.017000000,Units=km
new line.RBT_10244070 bus1=BBT1211372.2.0,bus2=RML1010244070.2.0,Phases=1,Linecode=CABBTG02_4_1_1,Length=0.029000000,Units=km
new line.RBT_10244129 bus1=BBT1185682.1.2.0,bus2=RML1010244129.1.2.0,Phases=2,Linecode=CABBTG05_4_2_2,Length=0.029000000,Units=km
new line.RBT_10244695 bus1=BBT2995882.2.0,bus2=RML1010244695.2.0,Phases=1,Linecode=CABBTG02_4_1_1,Length=0.017000000,Units=km
new line.RBT_10245631 bus1=BBT4436293.1.2.0,bus2=RML1010245631.1.2.0,Phases=2,Linecode=CABBTG05_4_2_2,Length=0.017000000,Units=km
new line.RBT_10246828 bus1=BBT1183911.1.0,bus2=RML1010246828.1.0,Phases=1,Linecode=CABBTG02_4_1_1,Length=0.029000000,Units=km
new line.RBT_10246986 bus1=BBT4329991.1.0,bus2=RML1010246986.1.0,Phases=1,Linecode=CABBTG02_4_1_1,Length=0.029000000,Units=km
new line.RBT_10246990 bus1=BBT4329991.2.0,bus2=RML1010246990.2.0,Phases=1,Linecode=CABBTG02_4_1_1,Length=0.029000000,Units=km
new line.RBT_10247012 bus1=BBT94492666.2.0,bus2=RML1010247012.2.0,Phases=1,Linecode=CABBTG02_4_1_1,Length=0.029000000,Units=km
new line.RBT_10247073 bus1=BBT1214648.2.0,bus2=RML1010247073.2.0,Phases=1,Linecode=CABBTG02_4_1_1,Length=0.029000000,Units=km
new line.RBT_10270696 bus1=BBT1209993.1.2.0,bus2=RML1010270696.1.2.0,Phases=2,Linecode=CABBTG05_4_2_2,Length=0.029000000,Units=km
new line.RBT_10333978 bus1=BBT1220458.1.2.0,bus2=RML1010333978.1.2.0,Phases=2,Linecode=CABBTG05_4_2_2,Length=0.029000000,Units=km
new line.RBT_10334058 bus1=BBT1220185.1.2.0,bus2=RML1010334058.1.2.0,Phases=2,Linecode=CABBTG05_4_2_2,Length=0.029000000,Units=km
new line.RBT_10365460 bus1=BBT1212296.2.0,bus2=RML1010365460.2.0,Phases=1,Linecode=CABBTG02_4_1_1,Length=0.029000000,Units=km
new line.RBT_10395216 bus1=BBT1211344.2.0,bus2=RML1010395216.2.0,Phases=1,Linecode=CABBTG02_4_1_1,Length=0.029000000,Units=km
new line.RBT_10395219 bus1=BBT1214655.1.0,bus2=RML1010395219.1.0,Phases=1,Linecode=CABBTG02_4_1_1,Length=0.029000000,Units=km
new line.RBT_10424289 bus1=BBT152987376.3.1.0,bus2=RML1010424289.3.1.0,Phases=2,Linecode=CABBTG05_4_2_2,Length=0.029000000,Units=km
new line.RBT_10424349 bus1=BBT152986554.3.0,bus2=RML1010424349.3.0,Phases=1,Linecode=CABBTG02_4_1_1,Length=0.029000000,Units=km
new line.RBT_10424387 bus1=BBT95330132.2.3.0,bus2=RML1010424387.2.3.0,Phases=2,Linecode=CABBTG05_4_2_2,Length=0.029000000,Units=km
new line.RBT_10451991 bus1=BBT1184261.2.0,bus2=RML1010451991.2.0,Phases=1,Linecode=CABBTG02_4_1_1,Length=0.029000000,Units=km
new line.RBT_10520080 bus1=BBT1220388.1.0,bus2=RML1010520080.1.0,Phases=1,Linecode=CABBTG02_4_1_1,Length=0.029000000,Units=km
new line.RBT_10581025 bus1=BBT1312172.1.2.0,bus2=RML1010581025.1.2.0,Phases=2,Linecode=CABBTG05_4_2_2,Length=0.025000000,Units=km
new line.RBT_10613574 bus1=BBT1311150.1.2.3.0,bus2=RML1010613574.1.2.3.0,Phases=3,Linecode=CABBT815_4_3_3,Length=0.017000000,Units=km
new line.RBT_10614608 bus1=BBT1214578.1.2.0,bus2=RML1010614608.1.2.0,Phases=2,Linecode=CABBTG05_4_2_2,Length=0.017000000,Units=km
new line.RBT_10642404 bus1=BBT1185808.1.0,bus2=RML1010642404.1.0,Phases=1,Linecode=CABBTG02_4_1_1,Length=0.017000000,Units=km
new line.RBT_10113870 bus1=BBT1184261.1.0,bus2=RML1010113870.1.0,Phases=1,Linecode=CABBTG02_4_1_1,Length=0.029000000,Units=km
new line.RBT_10143565 bus1=BBT94492666.3.0,bus2=RML1010143565.3.0,Phases=1,Linecode=CABBTG02_4_1_1,Length=0.029000000,Units=km
new line.RBT_10143568 bus1=BBT94492666.3.0,bus2=RML1010143568.3.0,Phases=1,Linecode=CABBTG02_4_1_1,Length=0.029000000,Units=km
new line.RBT_10143573 bus1=BBT4329914.3.0,bus2=RML1010143573.3.0,Phases=1,Linecode=CABBTG02_4_1_1,Length=0.029000000,Units=km
new line.RBT_10143577 bus1=BBT1183960.3.0,bus2=RML1010143577.3.0,Phases=1,Linecode=CABBTG02_4_1_1,Length=0.029000000,Units=km
new line.RBT_10143605 bus1=BBT1183953.3.0,bus2=RML1010143605.3.0,Phases=1,Linecode=CABBTG02_4_1_1,Length=0.029000000,Units=km
new line.RBT_10143607 bus1=BBT1184268.2.0,bus2=RML1010143607.2.0,Phases=1,Linecode=CABBTG01_4_1_1,Length=0.029000000,Units=km
new line.RBT_10143610 bus1=BBT1184807.3.0,bus2=RML1010143610.3.0,Phases=1,Linecode=CABBTG02_4_1_1,Length=0.029000000,Units=km
new line.RBT_10143631 bus1=BBT1183862.3.0,bus2=RML1010143631.3.0,Phases=1,Linecode=CABBTG02_4_1_1,Length=0.029000000,Units=km
new line.RBT_10143634 bus1=BBT1312116.1.2.0,bus2=RML1010143634.1.2.0,Phases=2,Linecode=CABBTG05_4_2_2,Length=0.017000000,Units=km
new line.RBT_10173549 bus1=BBT246602.3.0,bus2=RML1010173549.3.0,Phases=1,Linecode=CABBTG02_4_1_1,Length=0.029000000,Units=km
new line.RBT_10174159 bus1=BBT265649.1.2.3.0,bus2=RML1010174159.1.2.3.0,Phases=3,Linecode=CABBTG06_4_3_3,Length=0.017000000,Units=km
new line.RBT_10174688 bus1=BBT3460192.1.2.0,bus2=RML1010174688.1.2.0,Phases=2,Linecode=CABBTG05_4_2_2,Length=0.017000000,Units=km
new line.RBT_10176151 bus1=BBT4144680.1.2.0,bus2=RML1010176151.1.2.0,Phases=2,Linecode=CABBTG05_4_2_2,Length=0.017000000,Units=km
new line.RBT_10238192 bus1=BBT82075149.1.2.0,bus2=RML1010238192.1.2.0,Phases=2,Linecode=CABBTG13_4_2_2,Length=0.017000000,Units=km
new line.RBT_10238201 bus1=BBT139137364.2.0,bus2=RML1010238201.2.0,Phases=1,Linecode=CABBTG02_4_1_1,Length=0.010000000,Units=km
new line.RBT_10238206 bus1=BBT82075149.1.2.0,bus2=RML1010238206.1.2.0,Phases=2,Linecode=CABBTG05_4_2_2,Length=0.017000000,Units=km
new line.RBT_10238215 bus1=BBT138055605.2.0,bus2=RML1010238215.2.0,Phases=1,Linecode=CABBTG02_4_1_1,Length=0.017000000,Units=km
new line.RBT_10239370 bus1=BBT1185682.2.0,bus2=RML1010239370.2.0,Phases=1,Linecode=CABBTG02_4_1_1,Length=0.029000000,Units=km
new line.RBT_10239375 bus1=BBT4436237.2.0,bus2=RML1010239375.2.0,Phases=1,Linecode=CABBTG02_4_1_1,Length=0.017000000,Units=km
new line.RBT_10239410 bus1=BBT1185836.2.3.0,bus2=RML1010239410.2.3.0,Phases=2,Linecode=CABBTG05_4_2_2,Length=0.029000000,Units=km
new line.RBT_10239412 bus1=BBT1214116.1.2.3.0,bus2=RML1010239412.1.2.3.0,Phases=3,Linecode=CABBTG06_4_3_3,Length=0.029000000,Units=km
new line.RBT_10239434 bus1=BBT1185101.3.0,bus2=RML1010239434.3.0,Phases=1,Linecode=CABBTG02_4_1_1,Length=0.029000000,Units=km
new line.RBT_10325920 bus1=BBT1185052.1.0,bus2=RML1010325920.1.0,Phases=1,Linecode=CABBTG02_4_1_1,Length=0.015000000,Units=km
new line.RBT_10326060 bus1=BBT12132493.1.2.0,bus2=RML1010326060.1.2.0,Phases=2,Linecode=CABBTG05_4_2_2,Length=0.029000000,Units=km
new line.RBT_10328757 bus1=BBT1185052.3.0,bus2=RML1010328757.3.0,Phases=1,Linecode=CABBTG02_4_1_1,Length=0.029000000,Units=km
new line.RBT_10385397 bus1=BBT61222016.1.2.0,bus2=RML1010385397.1.2.0,Phases=2,Linecode=CABBTG05_4_2_2,Length=0.017000000,Units=km
new line.RBT_10386802 bus1=BBT1185696.1.0,bus2=RML1010386802.1.0,Phases=1,Linecode=CABBTG02_4_1_1,Length=0.029000000,Units=km
new line.RBT_10386843 bus1=BBT127598921.1.2.0,bus2=RML1010386843.1.2.0,Phases=2,Linecode=CABBTG05_4_2_2,Length=0.029000000,Units=km
new line.RBT_10414845 bus1=BBT2189977.2.0,bus2=RML1010414845.2.0,Phases=1,Linecode=CABBTG02_4_1_1,Length=0.017000000,Units=km
new line.RBT_10474360 bus1=BBT4436041.2.0,bus2=RML1010474360.2.0,Phases=1,Linecode=CABBTG02_4_1_1,Length=0.018000000,Units=km
new line.RBT_10628372 bus1=BBT15277537.1.0,bus2=RML1010628372.1.0,Phases=1,Linecode=CABBTG02_4_1_1,Length=0.029000000,Units=km
new line.RBT_10661029 bus1=BBT159826219.1.2.3.0,bus2=RML1010661029.1.2.3.0,Phases=3,Linecode=CABBTG09_4_3_3,Length=0.010000000,Units=km
new line.RBT_10661030 bus1=BBT157050842.1.2.0,bus2=RML1010661030.1.2.0,Phases=2,Linecode=CABBTG05_4_2_2,Length=0.017000000,Units=km
new line.RBT_10661033 bus1=BBT154868303.1.0,bus2=RML1010661033.1.0,Phases=1,Linecode=CABBTG02_4_1_1,Length=0.010000000,Units=km
new line.RBT_10661041 bus1=BBT1183519.1.0,bus2=RML1010661041.1.0,Phases=1,Linecode=CABBTG02_4_1_1,Length=0.010000000,Units=km
new line.RBT_10661060 bus1=BBT1212254.1.2.3.0,bus2=RML1010661060.1.2.3.0,Phases=3,Linecode=CABBTG06_4_3_3,Length=0.012000000,Units=km
new line.RBT_10035096 bus1=BBT265649.1.2.0,bus2=RML1010035096.1.2.0,Phases=2,Linecode=CABBTG05_4_2_2,Length=0.017000000,Units=km
new line.RBT_10097913 bus1=BBT1184807.1.0,bus2=RML1010097913.1.0,Phases=1,Linecode=CABBTG02_4_1_1,Length=0.029000000,Units=km
new line.RBT_10098009 bus1=BBT4436265.1.2.0,bus2=RML1010098009.1.2.0,Phases=2,Linecode=CABBTG05_4_2_2,Length=0.017000000,Units=km
new line.RBT_10124076 bus1=BBT1185066.2.0,bus2=RML1010124076.2.0,Phases=1,Linecode=CABBTG02_4_1_1,Length=0.017000000,Units=km
new line.RBT_10301453 bus1=BBT1185892.1.2.0,bus2=RML1010301453.1.2.0,Phases=2,Linecode=CABBTG05_4_2_2,Length=0.017000000,Units=km
new line.RBT_10331060 bus1=BBT95330132.1.2.3.0,bus2=RML1010331060.1.2.3.0,Phases=3,Linecode=CABBTG06_4_3_3,Length=0.029000000,Units=km
new line.RBT_10331062 bus1=BBT1209314.3.0,bus2=RML1010331062.3.0,Phases=1,Linecode=CABBTG02_4_1_1,Length=0.029000000,Units=km
new line.RBT_10331063 bus1=BBT1209307.1.2.3.0,bus2=RML1010331063.1.2.3.0,Phases=3,Linecode=CABBTG06_4_3_3,Length=0.029000000,Units=km
new line.RBT_10360931 bus1=BBT152400179.1.2.0,bus2=RML1010360931.1.2.0,Phases=2,Linecode=CABBT801_4_2_2,Length=0.017000000,Units=km
new line.RBT_10448898 bus1=BBT161127293.2.3.0,bus2=RML1010448898.2.3.0,Phases=2,Linecode=CABBTG05_4_2_2,Length=0.017000000,Units=km