new line.SBT_11436846 bus1=BBT3424548.1.2.0,bus2=BBT3424555.1.2.0,Phases=2,Linecode=BT510_BT510_7_2_1_2,Length=0.000501000,Units=km
new line.SBT_11440108 bus1=BBT3425745.1.2.0,bus2=BBT3425752.1.2.0,Phases=2,Linecode=BT307_BT307_7_2_1_2,Length=0.000501000,Units=km
new line.SBT_11909738 bus1=BBT3592926.1.2.3.0,bus2=BBT3592933.1.2.3.0,Phases=3,Linecode=BT314_BT314_7_3_1_3,Length=0.000501000,Units=km
new line.SBT_11911614 bus1=BBT3593479.1.2.0,bus2=BBT3593486.1.2.0,Phases=2,Linecode=BT307_BT307_7_2_1_2,Length=0.000501000,Units=km
new line.SBT_12035206 bus1=BBT3637530.1.2.0,bus2=BBT3637537.1.2.0,Phases=2,Linecode=BT307_BT307_7_2_1_2,Length=0.000501000,Units=km
new line.SBT_12203738 bus1=BBT3698822.1.2.0,bus2=BBT3698829.1.2.0,Phases=2,Linecode=BT317_BT317_7_2_1_2,Length=0.000501000,Units=km
new line.SBT_12653782 bus1=BBT3997029.1.2.0,bus2=BBT4547222.1.2.0,Phases=2,Linecode=BT814_BT814_4_2_3_2,Length=0.032997000,Units=km
new line.SBT_13027953 bus1=BBT4072825.1.2.0,bus2=BBT4072832.1.2.0,Phases=2,Linecode=BT107_BT107_7_2_1_2,Length=0.089054000,Units=km
new line.SBT_13028002 bus1=BBT4072832.1.2.0,bus2=BBT4072839.1.2.0,Phases=2,Linecode=BT107_BT107_7_2_1_2,Length=0.094374000,Units=km
new line.SBT_13031299 bus1=BBT4073462.1.2.0,bus2=BBT4073469.1.2.0,Phases=2,Linecode=BT107_BT107_7_2_1_2,Length=0.070025000,Units=km
new line.SBT_13334217 bus1=BBT4171616.1.2.0,bus2=BBT4171623.1.2.0,Phases=2,Linecode=BT519_BT519_7_2_1_2,Length=0.000501000,Units=km
new line.SBT_13334378 bus1=BBT4171868.1.2.0,bus2=BBT4171882.1.2.0,Phases=2,Linecode=BT808_BT808_4_2_3_2,Length=0.059461000,Units=km
new line.SBT_13334413 bus1=BBT4171847.1.2.0,bus2=BBT4171854.1.2.0,Phases=2,Linecode=BT808_BT808_4_2_3_2,Length=0.060056000,Units=km
new line.SBT_13334434 bus1=BBT4171854.1.2.0,bus2=BBT4171861.1.2.0,Phases=2,Linecode=BT808_BT808_4_2_3_2,Length=0.059191000,Units=km
new line.SBT_13334518 bus1=BBT4171882.1.2.0,bus2=BBT4171889.1.2.0,Phases=2,Linecode=BT808_BT808_4_2_3_2,Length=0.059436000,Units=km
new line.SBT_13334532 bus1=BBT4171889.1.2.0,bus2=BBT4171896.1.2.0,Phases=2,Linecode=BT808_BT808_4_2_3_2,Length=0.070062000,Units=km
new line.SBT_13334553 bus1=BBT4171896.1.2.0,bus2=BBT4221442.1.2.0,Phases=2,Linecode=BT808_BT808_4_2_3_2,Length=0.027867000,Units=km
new line.SBT_13334742 bus1=BBT4172036.1.2.0,bus2=BBT4172057.1.2.0,Phases=2,Linecode=BT808_BT808_4_2_3_2,Length=0.059056000,Units=km
new line.SBT_13337395 bus1=BBT4173240.1.2.0,bus2=BBT4173247.1.2.0,Phases=2,Linecode=BT519_BT519_7_2_1_2,Length=0.000501000,Units=km
new line.SBT_13337871 bus1=BBT4173415.1.2.0,bus2=BBT4173422.1.2.0,Phases=2,Linecode=BT808_BT808_4_2_3_2,Length=0.059486000,Units=km
new line.SBT_13337906 bus1=BBT4173422.1.2.0,bus2=BBT4173429.1.2.0,Phases=2,Linecode=BT808_BT808_4_2_3_2,Length=0.059486000,Units=km
new line.SBT_13339649 bus1=BBT4174080.1.2.0,bus2=BBT4174087.1.2.0,Phases=2,Linecode=BT519_BT519_7_2_1_2,Length=0.000501000,Units=km
new line.SBT_13339656 bus1=BBT4174087.1.2.0,bus2=BBT4174416.1.2.0,Phases=2,Linecode=BT808_BT808_4_2_3_2,Length=0.040015000,Units=km
new line.SBT_13340664 bus1=BBT4174416.1.2.0,bus2=BBT4174423.1.2.0,Phases=2,Linecode=BT808_BT808_4_2_3_2,Length=0.060023000,Units=km
new line.SBT_13481490 bus1=BBT4251493.1.2.3.0,bus2=BBT4251500.1.2.3.0,Phases=3,Linecode=BT514_BT514_7_3_1_3,Length=0.000501000,Units=km
new line.SBT_13743948 bus1=BBT4430133.1.2.3.0,bus2=BBT4430140.1.2.3.0,Phases=3,Linecode=BT518_BT518_7_3_1_3,Length=0.000501000,Units=km
new line.SBT_13743990 bus1=BBT4430147.1.2.3.0,bus2=BBT4430154.1.2.3.0,Phases=3,Linecode=BT518_BT518_7_3_1_3,Length=0.000501000,Units=km
new line.SBT_13750227 bus1=BBT4435985.1.2.0,bus2=BBT5185594.1.2.0,Phases=2,Linecode=BT808_BT808_4_2_3_2,Length=0.051681000,Units=km
new line.SBT_13750234 bus1=BBT4435985.1.2.0,bus2=BBT4436111.1.2.0,Phases=2,Linecode=BT808_BT808_4_2_3_2,Length=0.057996000,Units=km
new line.SBT_13750248 bus1=BBT4436027.1.2.0,bus2=BBT4436034.1.2.0,Phases=2,Linecode=BT807_BT807_4_2_3_2,Length=0.060825000,Units=km
new line.SBT_13750262 bus1=BBT4436020.1.2.0,bus2=BBT4436027.1.2.0,Phases=2,Linecode=BT807_BT807_4_2_3_2,Length=0.060825000,Units=km
new line.SBT_13750269 bus1=BBT4436013.1.2.0,bus2=BBT4436020.1.2.0,Phases=2,Linecode=BT518_BT518_7_2_1_2,Length=0.000501000,Units=km
new line.SBT_13750276 bus1=BBT4436020.1.2.0,bus2=BBT4436076.1.2.0,Phases=2,Linecode=BT807_BT807_4_2_3_2,Length=0.060022000,Units=km
new line.SBT_13750290 bus1=BBT4436076.1.2.0,bus2=BBT4436083.1.2.0,Phases=2,Linecode=BT807_BT807_4_2_3_2,Length=0.060825000,Units=km
new line.SBT_13750304 bus1=BBT4436090.1.2.0,bus2=BBT136469356.1.2.0,Phases=2,Linecode=BT803_BT803_4_2_4_2,Length=0.060022000,Units=km
new line.SBT_13750318 bus1=BBT4436097.1.2.0,bus2=BBT4436090.1.2.0,Phases=2,Linecode=BT803_BT803_4_2_4_2,Length=0.059427000,Units=km
new line.SBT_13750325 bus1=BBT4436097.1.2.0,bus2=BBT4436104.1.2.0,Phases=2,Linecode=BT803_BT803_4_2_4_2,Length=0.060238000,Units=km
new line.SBT_13750346 bus1=BBT4436062.1.2.0,bus2=BBT4436069.1.2.0,Phases=2,Linecode=BT808_BT808_4_2_3_2,Length=0.053732000,Units=km
new line.SBT_13750360 bus1=BBT4436055.1.2.0,bus2=BBT4436062.1.2.0,Phases=2,Linecode=BT808_BT808_4_2_3_2,Length=0.060238000,Units=km
new line.SBT_13750374 bus1=BBT4436048.1.2.0,bus2=BBT4436055.1.2.0,Phases=2,Linecode=BT808_BT808_4_2_3_2,Length=0.060022000,Units=km
new line.SBT_13750381 bus1=BBT4436041.1.2.0,bus2=BBT4436048.1.2.0,Phases=2,Linecode=BT808_BT808_4_2_3_2,Length=0.050822000,Units=km
new line.SBT_13750395 bus1=BBT4436034.1.2.0,bus2=BBT4436041.1.2.0,Phases=2,Linecode=BT807_BT807_4_2_3_2,Length=0.060825000,Units=km
new line.SBT_13750493 bus1=BBT4435992.1.2.0,bus2=BBT5019148.1.2.0,Phases=2,Linecode=BT808_BT808_4_2_3_2,Length=0.038654000,Units=km
new line.SBT_13750500 bus1=BBT4435992.1.2.0,bus2=BBT4435999.1.2.0,Phases=2,Linecode=BT808_BT808_4_2_3_2,Length=0.050980000,Units=km
new line.SBT_13750514 bus1=BBT5019148.1.2.0,bus2=BBT5019155.1.2.0,Phases=2,Linecode=BT808_BT808_4_2_3_2,Length=0.055922000,Units=km
new line.SBT_13750542 bus1=BBT4435999.1.2.0,bus2=BBT4436006.1.2.0,Phases=2,Linecode=BT808_BT808_4_2_3_2,Length=0.052906000,Units=km
new line.SBT_13750556 bus1=BBT4435978.1.2.0,bus2=BBT4435985.1.2.0,Phases=2,Linecode=BT808_BT808_4_2_3_2,Length=0.038654000,Units=km
new line.SBT_13750570 bus1=BBT4435971.1.2.0,bus2=BBT4435992.1.2.0,Phases=2,Linecode=BT808_BT808_4_2_3_2,Length=0.050655000,Units=km
new line.SBT_13750577 bus1=BBT4435971.1.2.0,bus2=BBT4435978.1.2.0,Phases=2,Linecode=BT808_BT808_4_2_3_2,Length=0.053955000,Units=km
new line.SBT_13750584 bus1=BBT4435964.1.2.0,bus2=BBT4435971.1.2.0,Phases=2,Linecode=BT518_BT518_7_2_1_2,Length=0.000501000,Units=km
new line.SBT_13750598 bus1=BBT5185594.1.2.0,bus2=BBT5185601.1.2.0,Phases=2,Linecode=BT808_BT808_4_2_3_2,Length=0.055806000,Units=km
new line.SBT_13750710 bus1=BBT5163355.1.2.0,bus2=BBT5163362.1.2.0,Phases=2,Linecode=BT808_BT808_4_2_3_2,Length=0.046342000,Units=km
new line.SBT_13750717 bus1=BBT5163355.1.2.0,bus2=BBT5163369.1.2.0,Phases=2,Linecode=BT808_BT808_4_2_3_2,Length=0.047819000,Units=km
new line.SBT_13750724 bus1=BBT5163348.1.2.0,bus2=BBT5163355.1.2.0,Phases=2,Linecode=BT505_BT505_7_2_1_2,Length=0.000501000,Units=km
new line.SBT_13750752 bus1=BBT4436209.1.2.0,bus2=BBT4436216.1.2.0,Phases=2,Linecode=BT808_BT808_4_2_3_2,Length=0.053779000,Units=km
new line.SBT_13750766 bus1=BBT4436202.1.2.0,bus2=BBT4436209.1.2.0,Phases=2,Linecode=BT808_BT808_4_2_3_2,Length=0.059157000,Units=km
new line.SBT_13750780 bus1=BBT4436195.1.2.0,bus2=BBT4436202.1.2.0,Phases=2,Linecode=BT808_BT808_4_2_3_2,Length=0.056907000,Units=km
new line.SBT_13750794 bus1=BBT4436188.1.2.0,bus2=BBT4436195.1.2.0,Phases=2,Linecode=BT808_BT808_4_2_3_2,Length=0.060230000,Units=km
new line.SBT_10875061 bus1=BBT3224355.1.2.0,bus2=BBT3224362.1.2.0,Phases=2,Linecode=BT808_BT808_4_2_3_2,Length=0.053171000,Units=km
new line.SBT_11646594 bus1=BBT3501177.1.2.0,bus2=BBT3501184.1.2.0,Phases=2,Linecode=BT307_BT307_7_2_1_2,Length=0.000501000,Units=km
new line.SBT_12586015 bus1=BBT3983974.1.2.0,bus2=BBT3983981.1.2.0,Phases=2,Linecode=BT513_BT513_7_2_1_2,Length=0.000501000,Units=km
new line.SBT_12594639 bus1=BBT4221596.1.2.0,bus2=BBT4221603.1.2.0,Phases=2,Linecode=BT811_BT811_4_2_3_2,Length=0.058332000,Units=km
new line.SBT_13254928 bus1=BBT4136364.1.2.3.0,bus2=BBT4136371.1.2.3.0,Phases=3,Linecode=BT808_BT808_4_3_3_3,Length=0.043948000,Units=km
new line.SBT_13254942 bus1=BBT4136371.1.2.3.0,bus2=BBT4136378.1.2.3.0,Phases=3,Linecode=BT808_BT808_4_3_3_3,Length=0.044704000,Units=km
new line.SBT_13257567 bus1=BBT4137456.1.2.3.0,bus2=BBT4137463.1.2.3.0,Phases=3,Linecode=BT509_BT509_7_3_1_3,Length=0.000501000,Units=km
new line.SBT_13433001 bus1=BBT4221442.1.2.0,bus2=BBT4221449.1.2.0,Phases=2,Linecode=BT808_BT808_4_2_3_2,Length=0.041992000,Units=km
new line.SBT_13663196 bus1=BBT4343963.1.2.3.0,bus2=BBT4343970.1.2.3.0,Phases=3,Linecode=BT810_BT810_4_3_4_3,Length=0.034898000,Units=km
new line.SBT_13663210 bus1=BBT4343970.1.2.3.0,bus2=BBT4343977.1.2.3.0,Phases=3,Linecode=BT810_BT810_4_3_4_3,Length=0.024606000,Units=km
new line.SBT_13665107 bus1=BBT4345993.1.2.3.0,bus2=BBT4569860.1.2.3.0,Phases=3,Linecode=BT810_BT810_4_3_4_3,Length=0.038224000,Units=km
new line.SBT_13665114 bus1=BBT4346007.1.2.3.0,bus2=BBT4346014.1.2.3.0,Phases=3,Linecode=BT810_BT810_4_3_4_3,Length=0.040819000,Units=km
new line.SBT_13665135 bus1=BBT4346014.1.2.3.0,bus2=BBT4346021.1.2.3.0,Phases=3,Linecode=BT810_BT810_4_3_4_3,Length=0.038911000,Units=km
new line.SBT_13665352 bus1=BBT4346084.1.2.3.0,bus2=BBT4346091.1.2.3.0,Phases=3,Linecode=BT810_BT810_4_3_4_3,Length=0.040326000,Units=km
new line.SBT_13823692 bus1=BBT4517248.1.2.0,bus2=BBT4517255.1.2.0,Phases=2,Linecode=BT518_BT518_7_2_1_2,Length=0.000501000,Units=km
new line.SBT_13823818 bus1=BBT4517577.1.2.0,bus2=BBT4517584.1.2.0,Phases=2,Linecode=BT307_BT307_7_2_1_2,Length=0.000501000,Units=km
new line.SBT_13997523 bus1=BBT4746470.1.2.0,bus2=BBT4746477.1.2.0,Phases=2,Linecode=BT807_BT807_4_2_3_2,Length=0.032815000,Units=km
new line.SBT_14153735 bus1=BBT5038797.1.2.0,bus2=BBT5038804.1.2.0,Phases=2,Linecode=BT808_BT808_4_2_3_2,Length=0.036249000,Units=km
new line.SBT_14153756 bus1=BBT5038804.1.2.0,bus2=BBT5038811.1.2.0,Phases=2,Linecode=BT808_BT808_4_2_3_2,Length=0.035368000,Units=km
new line.SBT_14153770 bus1=BBT5038811.1.2.0,bus2=BBT5038818.1.2.0,Phases=2,Linecode=BT808_BT808_4_2_3_2,Length=0.038093000,Units=km
new line.SBT_14158901 bus1=BBT5051376.1.2.0,bus2=BBT5051383.1.2.0,Phases=2,Linecode=BT508_BT508_7_2_1_2,Length=0.000501000,Units=km
new line.SBT_17598267 bus1=BBT76082253.1.2.0,bus2=BBT76082260.1.2.0,Phases=2,Linecode=BT518_BT518_7_2_1_2,Length=0.000501000,Units=km
new line.SBT_17618455 bus1=BBT4436279.1.2.0,bus2=BBT76103162.1.2.0,Phases=2,Linecode=BT808_BT808_4_2_3_2,Length=0.061022000,Units=km
new line.SBT_17803794 bus1=BBT87024730.1.2.0,bus2=BBT87024737.1.2.0,Phases=2,Linecode=BT505_BT505_7_2_1_2,Length=0.000501000,Units=km
new line.SBT_17803948 bus1=BBT87030813.1.2.0,bus2=BBT87030820.1.2.0,Phases=2,Linecode=BT521_BT521_7_2_1_2,Length=0.000501000,Units=km
new line.SBT_17803955 bus1=BBT87030820.2.0,bus2=BBT87031429.2.0,Phases=1,Linecode=BT816_BT816_4_1_2_1,Length=0.054251000,Units=km
new line.SBT_17803962 bus1=BBT87030820.1.0,bus2=BBT87031450.1.0,Phases=1,Linecode=BT816_BT816_4_1_2_1,Length=0.076559000,Units=km
new line.SBT_17804172 bus1=BBT87040564.1.2.0,bus2=BBT87040571.1.2.0,Phases=2,Linecode=BT518_BT518_7_2_1_2,Length=0.000501000,Units=km
new line.SBT_17804242 bus1=BBT87049188.1.2.0,bus2=BBT87049195.1.2.0,Phases=2,Linecode=BT505_BT505_7_2_1_2,Length=0.000501000,Units=km
new line.SBT_17804340 bus1=BBT87051505.1.2.0,bus2=BBT87051512.1.2.0,Phases=2,Linecode=BT518_BT518_7_2_1_2,Length=0.000501000,Units=km
new line.SBT_17804354 bus1=BBT87052387.1.2.0,bus2=BBT87052394.1.2.0,Phases=2,Linecode=BT518_BT518_7_2_1_2,Length=0.000501000,Units=km
new line.SBT_18307514 bus1=BBT118471586.1.2.0,bus2=BBT118471593.1.2.0,Phases=2,Linecode=BT517_BT517_7_2_1_2,Length=0.000501000,Units=km
new line.SBT_18317916 bus1=BBT1185787.1.2.3.0,bus2=BBT119155066.1.2.3.0,Phases=3,Linecode=BT803_BT803_4_3_4_3,Length=0.018981000,Units=km
new line.SBT_18317930 bus1=BBT119155066.1.2.3.0,bus2=BBT119155164.1.2.3.0,Phases=3,Linecode=BT803_BT803_4_3_4_3,Length=0.002237000,Units=km
new line.SBT_18317937 bus1=BBT119155164.1.2.3.0,bus2=BBT119155171.1.2.3.0,Phases=3,Linecode=BT803_BT803_4_3_4_3,Length=0.021940000,Units=km
new line.SBT_18317958 bus1=BBT119155066.1.2.3.0,bus2=BBT119155577.1.2.3.0,Phases=3,Linecode=BT803_BT803_4_3_4_3,Length=0.051913000,Units=km
new line.SBT_18317972 bus1=BBT1183883.1.2.3.0,bus2=BBT119156613.1.2.3.0,Phases=3,Linecode=BT803_BT803_4_3_4_3,Length=0.044794000,Units=km
new line.SBT_18318007 bus1=BBT1183883.1.2.3.0,bus2=BBT119158013.1.2.3.0,Phases=3,Linecode=BT803_BT803_4_3_4_3,Length=0.035860000,Units=km
new line.SBT_18318014 bus1=BBT119158013.1.2.3.0,bus2=BBT119158111.1.2.3.0,Phases=3,Linecode=BT803_BT803_4_3_4_3,Length=0.027213000,Units=km
new line.SBT_18318021 bus1=BBT119158013.1.2.3.0,bus2=BBT119158132.1.2.3.0,Phases=3,Linecode=BT803_BT803_4_3_4_3,Length=0.034451000,Units=km
new line.SBT_18318049 bus1=BBT119158132.1.2.3.0,bus2=BBT119158398.1.2.3.0,Phases=3,Linecode=BT803_BT803_4_3_4_3,Length=0.025505000,Units=km
new line.SBT_18318056 bus1=BBT4436783.1.2.3.0,bus2=BBT119158433.1.2.3.0,Phases=3,Linecode=BT803_BT803_4_3_4_3,Length=0.016162000,Units=km
new line.SBT_18318063 bus1=BBT119158433.1.2.3.0,bus2=BBT119158468.1.2.3.0,Phases=3,Linecode=BT803_BT803_4_3_4_3,Length=0.028188000,Units=km
new line.SBT_18318091 bus1=BBT119158433.1.2.3.0,bus2=BBT119159931.1.2.3.0,Phases=3,Linecode=BT803_BT803_4_3_4_3,Length=0.046342000,Units=km
new line.SBT_18318112 bus1=BBT1185703.1.2.3.0,bus2=BBT119161289.1.2.3.0,Phases=3,Linecode=BT810_BT810_4_3_4_3,Length=0.017895000,Units=km
new line.SBT_18318133 bus1=BBT119161289.1.2.3.0,bus2=BBT119162535.1.2.3.0,Phases=3,Linecode=BT807_BT807_4_3_3_3,Length=0.031156000,Units=km
new line.SBT_18318147 bus1=BBT119162535.1.2.3.0,bus2=BBT119162661.1.2.3.0,Phases=3,Linecode=BT807_BT807_4_3_3_3,Length=0.036892000,Units=km
new line.SBT_18318161 bus1=BBT119162661.1.2.3.0,bus2=BBT119163200.1.2.3.0,Phases=3,Linecode=BT807_BT807_4_3_3_3,Length=0.013459000,Units=km
new line.SBT_18318175 bus1=BBT119163200.1.2.3.0,bus2=BBT119163249.1.2.3.0,Phases=3,Linecode=BT807_BT807_4_3_3_3,Length=0.014428000,Units=km
new line.SBT_18319309 bus1=BBT176520451.1.2.3.0,bus2=BBT119243987.1.2.3.0,Phases=3,Linecode=BT803_BT803_4_3_4_3,Length=0.037135000,Units=km
new line.SBT_18319316 bus1=BBT119243987.1.2.3.0,bus2=BBT119243994.1.2.3.0,Phases=3,Linecode=BT803_BT803_4_3_4_3,Length=0.038093000,Units=km
new line.SBT_18319337 bus1=BBT1210903.1.2.3.0,bus2=BBT119245219.1.2.3.0,Phases=3,Linecode=BT803_BT803_4_3_4_3,Length=0.028646000,Units=km
new line.SBT_18319351 bus1=BBT1209286.1.2.3.0,bus2=BBT119247060.1.2.3.0,Phases=3,Linecode=BT803_BT803_4_3_4_3,Length=0.026880000,Units=km
new line.SBT_18319358 bus1=BBT119247060.1.2.3.0,bus2=BBT119247165.1.2.3.0,Phases=3,Linecode=BT803_BT803_4_3_4_3,Length=0.037604000,Units=km
new line.SBT_18319372 bus1=BBT119247165.1.2.3.0,bus2=BBT119247452.1.2.3.0,Phases=3,Linecode=BT803_BT803_4_3_4_3,Length=0.036729000,Units=km
new line.SBT_18319393 bus1=BBT119247060.1.2.3.0,bus2=BBT119247977.1.2.3.0,Phases=3,Linecode=BT803_BT803_4_3_4_3,Length=0.043432000,Units=km
new line.SBT_10940266 bus1=BBT3249023.1.2.0,bus2=BBT3249030.1.2.0,Phases=2,Linecode=BT304_BT304_7_2_1_2,Length=0.000501000,Units=km
new line.SBT_11253985 bus1=BBT3369038.1.2.0,bus2=BBT3369045.1.2.0,Phases=2,Linecode=BT510_BT510_7_2_1_2,Length=0.000501000,Units=km
new line.SBT_11428950 bus1=BBT4364634.1.2.0,bus2=BBT176853586.1.2.0,Phases=2,Linecode=BT808_BT808_4_2_3_2,Length=0.042958000,Units=km
new line.SBT_11428971 bus1=BBT4364620.1.2.0,bus2=BBT4364627.1.2.0,Phases=2,Linecode=BT808_BT808_4_2_3_2,Length=0.036139000,Units=km
new line.SBT_11428992 bus1=BBT4364641.1.2.0,bus2=BBT4364648.1.2.0,Phases=2,Linecode=BT808_BT808_4_2_3_2,Length=0.041247000,Units=km
new line.SBT_11429041 bus1=BBT4364683.1.2.0,bus2=BBT4364690.1.2.0,Phases=2,Linecode=BT808_BT808_4_2_3_2,Length=0.041789000,Units=km
new line.SBT_11429083 bus1=BBT4364697.1.2.0,bus2=BBT4364704.1.2.0,Phases=2,Linecode=BT808_BT808_4_2_3_2,Length=0.044062000,Units=km
new line.SBT_11430924 bus1=BBT3422651.1.2.3.0,bus2=BBT3422658.1.2.3.0,Phases=3,Linecode=BT309_BT309_7_3_1_3,Length=0.000501000,Units=km
new line.SBT_11585687 bus1=BBT3477286.1.2.0,bus2=BBT3477293.1.2.0,Phases=2,Linecode=BT519_BT519_7_2_1_2,Length=0.000501000,Units=km
new line.SBT_11585694 bus1=BBT3477293.1.2.0,bus2=BBT3477300.1.2.0,Phases=2,Linecode=BT808_BT808_4_2_3_2,Length=0.050655000,Units=km
new line.SBT_11587045 bus1=BBT3477797.1.2.0,bus2=BBT3477804.1.2.0,Phases=2,Linecode=BT307_BT307_7_2_1_2,Length=0.000501000,Units=km
new line.SBT_11587052 bus1=BBT3477804.1.2.0,bus2=BBT3477811.1.2.0,Phases=2,Linecode=BT808_BT808_4_2_3_2,Length=0.059838000,Units=km
new line.SBT_11587073 bus1=BBT3477811.1.2.0,bus2=BBT3477818.1.2.0,Phases=2,Linecode=BT808_BT808_4_2_3_2,Length=0.062457000,Units=km
new line.SBT_11587087 bus1=BBT3477818.1.2.0,bus2=BBT3477825.1.2.0,Phases=2,Linecode=BT808_BT808_4_2_3_2,Length=0.058331000,Units=km
new line.SBT_11728718 bus1=BBT3530934.1.2.0,bus2=BBT3531060.1.2.0,Phases=2,Linecode=BT807_BT807_4_2_3_2,Length=0.055492000,Units=km
new line.SBT_11728725 bus1=BBT3530927.1.2.0,bus2=BBT3530934.1.2.0,Phases=2,Linecode=BT518_BT518_7_2_1_2,Length=0.000501000,Units=km
new line.SBT_11728732 bus1=BBT3530934.1.2.0,bus2=BBT3530969.1.2.0,Phases=2,Linecode=BT807_BT807_4_2_3_2,Length=0.033314000,Units=km
new line.SBT_11728984 bus1=BBT3530969.1.2.0,bus2=BBT3530976.1.2.0,Phases=2,Linecode=BT807_BT807_4_2_3_2,Length=0.034726000,Units=km
new line.SBT_11728991 bus1=BBT3530969.1.2.0,bus2=BBT3530983.1.2.0,Phases=2,Linecode=BT807_BT807_4_2_3_2,Length=0.024217000,Units=km
new line.SBT_11729012 bus1=BBT3530976.1.2.0,bus2=BBT4137869.1.2.0,Phases=2,Linecode=BT808_BT808_4_2_3_2,Length=0.032570000,Units=km
new line.SBT_11730622 bus1=BBT3531466.1.2.0,bus2=BBT3531473.1.2.0,Phases=2,Linecode=BT106_BT106_7_2_1_2,Length=0.041992000,Units=km
new line.SBT_11730643 bus1=BBT3531445.1.2.0,bus2=BBT3531466.1.2.0,Phases=2,Linecode=BT106_BT106_7_2_1_2,Length=0.040040000,Units=km
new line.SBT_11730650 bus1=BBT3531445.1.2.0,bus2=BBT3531459.1.2.0,Phases=2,Linecode=BT106_BT106_7_2_1_2,Length=0.061031000,Units=km
new line.SBT_11730699 bus1=BBT3531480.1.2.0,bus2=BBT3531487.1.2.0,Phases=2,Linecode=BT811_BT811_4_2_3_2,Length=0.058844000,Units=km
new line.SBT_11730706 bus1=BBT3531480.1.2.0,bus2=BBT3531494.1.2.0,Phases=2,Linecode=BT811_BT811_4_2_3_2,Length=0.042736000,Units=km
new line.SBT_11730804 bus1=BBT3531494.1.2.0,bus2=BBT3531501.1.2.0,Phases=2,Linecode=BT106_BT106_7_2_1_2,Length=0.044401000,Units=km
new line.SBT_11994193 bus1=BBT3622473.1.2.0,bus2=BBT3622480.1.2.0,Phases=2,Linecode=BT521_BT521_7_2_1_2,Length=0.000501000,Units=km
new line.SBT_12821348 bus1=BBT4540019.1.2.0,bus2=BBT4540026.1.2.0,Phases=2,Linecode=BT808_BT808_4_2_3_2,Length=0.035622000,Units=km
new line.SBT_13642462 bus1=BBT4329907.1.2.3.0,bus2=BBT168625442.1.2.3.0,Phases=3,Linecode=BT803_BT803_4_3_4_3,Length=0.046975000,Units=km
new line.SBT_13642490 bus1=BBT4329914.1.2.3.0,bus2=BBT4329907.1.2.3.0,Phases=3,Linecode=BT803_BT803_4_3_4_3,Length=0.040721000,Units=km
new line.SBT_13642602 bus1=BBT4329921.1.2.3.0,bus2=BBT4329914.1.2.3.0,Phases=3,Linecode=BT803_BT803_4_3_4_3,Length=0.040721000,Units=km
new line.SBT_13642644 bus1=BBT4329928.1.2.3.0,bus2=BBT4329921.1.2.3.0,Phases=3,Linecode=BT803_BT803_4_3_4_3,Length=0.034451000,Units=km
new line.SBT_13642658 bus1=BBT4329928.1.2.3.0,bus2=BBT4329935.1.2.3.0,Phases=3,Linecode=BT803_BT803_4_3_4_3,Length=0.045667000,Units=km
new line.SBT_13642679 bus1=BBT4329935.1.2.3.0,bus2=BBT4329942.1.2.3.0,Phases=3,Linecode=BT803_BT803_4_3_4_3,Length=0.024707000,Units=km
new line.SBT_13642735 bus1=BBT4329991.1.2.3.0,bus2=BBT168625566.1.2.3.0,Phases=3,Linecode=BT803_BT803_4_3_4_3,Length=0.024175000,Units=km
new line.SBT_13792479 bus1=BBT4493245.1.2.0,bus2=BBT4493252.1.2.0,Phases=2,Linecode=BT518_BT518_7_2_1_2,Length=0.000501000,Units=km
new line.SBT_13965995 bus1=BBT4660685.1.2.3.0,bus2=BBT4660692.1.2.3.0,Phases=3,Linecode=BT810_BT810_4_3_4_3,Length=0.036414000,Units=km
new line.SBT_13966002 bus1=BBT4660692.1.2.3.0,bus2=BBT4660699.1.2.3.0,Phases=3,Linecode=BT810_BT810_4_3_4_3,Length=0.035013000,Units=km
new line.SBT_13966023 bus1=BBT4660706.1.2.3.0,bus2=BBT4660713.1.2.3.0,Phases=3,Linecode=BT810_BT810_4_3_4_3,Length=0.033133000,Units=km
new line.SBT_14261752 bus1=BBT5303110.1.2.0,bus2=BBT5303117.1.2.0,Phases=2,Linecode=BT517_BT517_7_2_1_2,Length=0.000501000,Units=km
new line.SBT_16677130 bus1=BBT34606056.1.2.0,bus2=BBT34606063.1.2.0,Phases=2,Linecode=BT518_BT518_7_2_1_2,Length=0.000501000,Units=km
new line.SBT_17564863 bus1=BBT92349504.1.2.0,bus2=BBT92349511.1.2.0,Phases=2,Linecode=BT316_BT316_7_2_1_2,Length=0.000501000,Units=km
new line.SBT_17564877 bus1=BBT92350610.1.2.0,bus2=BBT92350617.1.2.0,Phases=2,Linecode=BT521_BT521_7_2_1_2,Length=0.000501000,Units=km
new line.SBT_17564884 bus1=BBT92350617.1.2.0,bus2=BBT92350624.1.2.0,Phases=2,Linecode=BT814_BT814_4_2_3_2,Length=0.046191000,Units=km
new line.SBT_17564954 bus1=BBT92352038.1.2.0,bus2=BBT92352045.1.2.0,Phases=2,Linecode=BT304_BT304_7_2_1_2,Length=0.000501000,Units=km
new line.SBT_17564968 bus1=BBT92352108.1.2.0,bus2=BBT92352115.1.2.0,Phases=2,Linecode=BT521_BT521_7_2_1_2,Length=0.000501000,Units=km
new line.SBT_17564982 bus1=BBT92352115.1.2.0,bus2=BBT92352122.1.2.0,Phases=2,Linecode=BT814_BT814_4_2_3_2,Length=0.038641000,Units=km
new line.SBT_17744980 bus1=BBT9312767.1.2.0,bus2=BBT82075086.1.2.0,Phases=2,Linecode=BT807_BT807_4_2_3_2,Length=0.044961000,Units=km
new line.SBT_17744987 bus1=BBT82075086.1.2.0,bus2=BBT82075093.1.2.0,Phases=2,Linecode=BT807_BT807_4_2_3_2,Length=0.045294000,Units=km
new line.SBT_17744994 bus1=BBT82075093.1.2.0,bus2=BBT82075142.1.2.0,Phases=2,Linecode=BT808_BT808_4_2_3_2,Length=0.043925000,Units=km
new line.SBT_17745001 bus1=BBT82075142.1.2.0,bus2=BBT82075149.1.2.0,Phases=2,Linecode=BT808_BT808_4_2_3_2,Length=0.044794000,Units=km
new line.SBT_17947280 bus1=BBT94492666.1.2.3.0,bus2=BBT168625558.1.2.3.0,Phases=3,Linecode=BT803_BT803_4_3_4_3,Length=0.027323000,Units=km
new line.SBT_17947287 bus1=BBT4329991.1.2.3.0,bus2=BBT168625401.1.2.3.0,Phases=3,Linecode=BT803_BT803_4_3_4_3,Length=0.024707000,Units=km
new line.SBT_17947294 bus1=BBT94492666.1.2.3.0,bus2=BBT94492295.1.2.3.0,Phases=3,Linecode=BT803_BT803_4_3_4_3,Length=0.022369000,Units=km
new line.SBT_18660832 bus1=BBT139137357.1.2.0,bus2=BBT139137364.1.2.0,Phases=2,Linecode=BT518_BT518_7_2_1_2,Length=0.000501000,Units=km
new line.SBT_18718626 bus1=BBT23330414.1.2.0,bus2=BBT149086206.1.2.0,Phases=2,Linecode=BT808_BT808_4_2_3_2,Length=0.021386000,Units=km
new line.SBT_18718640 bus1=BBT149086643.1.2.3.0,bus2=BBT149086644.1.2.3.0,Phases=3,Linecode=BT518_BT518_7_3_1_3,Length=0.000501000,Units=km
new line.SBT_10288594 bus1=BBT2995882.1.2.3.0,bus2=BBT2995889.1.2.3.0,Phases=3,Linecode=BT807_BT807_4_3_3_3,Length=0.031792000,Units=km
new line.SBT_10291828 bus1=BBT2997079.1.2.3.0,bus2=BBT2997086.1.2.3.0,Phases=3,Linecode=BT803_BT803_4_3_4_3,Length=0.025089000,Units=km
new line.SBT_10291849 bus1=BBT2997086.1.2.3.0,bus2=BBT2997093.1.2.3.0,Phases=3,Linecode=BT803_BT803_4_3_4_3,Length=0.025089000,Units=km
new line.SBT_10291877 bus1=BBT2997093.1.2.3.0,bus2=BBT2997107.1.2.3.0,Phases=3,Linecode=BT803_BT803_4_3_4_3,Length=0.030882000,Units=km
new line.SBT_10291912 bus1=BBT2997107.1.2.3.0,bus2=BBT2997121.1.2.3.0,Phases=3,Linecode=BT803_BT803_4_3_4_3,Length=0.034027000,Units=km
new line.SBT_10291933 bus1=BBT2997121.1.2.3.0,bus2=BBT2997128.1.2.3.0,Phases=3,Linecode=BT803_BT803_4_3_4_3,Length=0.031792000,Units=km
new line.SBT_10291961 bus1=BBT2997128.1.2.3.0,bus2=BBT2997135.1.2.3.0,Phases=3,Linecode=BT803_BT803_4_3_4_3,Length=0.029743000,Units=km
new line.SBT_10293676 bus1=BBT2997758.1.2.3.0,bus2=BBT2997765.1.2.3.0,Phases=3,Linecode=BT803_BT803_4_3_4_3,Length=0.041161000,Units=km
new line.SBT_10293683 bus1=BBT2997758.1.2.3.0,bus2=BBT2997772.1.2.3.0,Phases=3,Linecode=BT803_BT803_4_3_4_3,Length=0.036688000,Units=km
new line.SBT_10293725 bus1=BBT2997772.1.2.3.0,bus2=BBT2997800.1.2.3.0,Phases=3,Linecode=BT803_BT803_4_3_4_3,Length=0.027741000,Units=km
new line.SBT_10293760 bus1=BBT2997821.1.2.3.0,bus2=BBT2997828.1.2.3.0,Phases=3,Linecode=BT803_BT803_4_3_4_3,Length=0.027305000,Units=km
new line.SBT_11389239 bus1=BBT3409974.1.2.0,bus2=BBT3409981.1.2.0,Phases=2,Linecode=BT505_BT505_7_2_1_2,Length=0.000501000,Units=km
new line.SBT_11680124 bus1=BBT3513035.1.2.0,bus2=BBT3513042.1.2.0,Phases=2,Linecode=BT304_BT304_7_2_1_2,Length=0.000501000,Units=km
new line.SBT_11680131 bus1=BBT3513042.1.2.0,bus2=BBT3513049.1.2.0,Phases=2,Linecode=BT810_BT810_4_2_4_2,Length=0.039940000,Units=km
new line.SBT_11680138 bus1=BBT3513042.1.2.0,bus2=BBT3513063.1.2.0,Phases=2,Linecode=BT810_BT810_4_2_4_2,Length=0.040463000,Units=km
new line.SBT_11680208 bus1=BBT3513049.1.2.0,bus2=BBT3513056.1.2.0,Phases=2,Linecode=BT810_BT810_4_2_4_2,Length=0.047028000,Units=km
new line.SBT_11680376 bus1=BBT3513063.1.2.0,bus2=BBT3513070.1.2.0,Phases=2,Linecode=BT810_BT810_4_2_4_2,Length=0.041789000,Units=km
new line.SBT_11681426 bus1=BBT3513294.1.2.0,bus2=BBT3513301.1.2.0,Phases=2,Linecode=BT316_BT316_7_2_1_2,Length=0.000501000,Units=km
new line.SBT_11683330 bus1=BBT3513595.1.2.0,bus2=BBT3513602.1.2.0,Phases=2,Linecode=BT316_BT316_7_2_1_2,Length=0.000501000,Units=km
new line.SBT_11683953 bus1=BBT3513700.1.2.0,bus2=BBT3513707.1.2.0,Phases=2,Linecode=BT810_BT810_4_2_4_2,Length=0.050348000,Units=km
new line.SBT_11820838 bus1=BBT3560348.1.2.0,bus2=BBT3560355.1.2.0,Phases=2,Linecode=BT808_BT808_4_2_3_2,Length=0.042736000,Units=km
new line.SBT_11820859 bus1=BBT3560355.1.2.0,bus2=BBT3560362.1.2.0,Phases=2,Linecode=BT808_BT808_4_2_3_2,Length=0.042736000,Units=km
new line.SBT_11820866 bus1=BBT3560355.1.2.0,bus2=BBT4182788.1.2.0,Phases=2,Linecode=BT808_BT808_4_2_3_2,Length=0.064522000,Units=km
new line.SBT_11821062 bus1=BBT3560495.1.2.0,bus2=BBT3560502.1.2.0,Phases=2,Linecode=BT316_BT316_7_2_1_2,Length=0.000501000,Units=km
new line.SBT_11825283 bus1=BBT3561972.1.2.0,bus2=BBT3561979.1.2.0,Phases=2,Linecode=BT517_BT517_7_2_1_2,Length=0.000501000,Units=km
new line.SBT_11977561 bus1=BBT3616355.1.2.3.0,bus2=BBT3616362.1.2.3.0,Phases=3,Linecode=BT313_BT313_7_3_1_3,Length=0.000501000,Units=km
new line.SBT_12283482 bus1=BBT4527706.1.2.3.0,bus2=BBT4899105.1.2.3.0,Phases=3,Linecode=BT810_BT810_4_3_4_3,Length=0.045326000,Units=km
new line.SBT_12707829 bus1=BBT4008446.2.0,bus2=BBT4008453.2.0,Phases=1,Linecode=BT107_BT107_7_1_1_1,Length=0.085179000,Units=km
new line.SBT_12707962 bus1=BBT4008460.1.2.0,bus2=BBT4008467.1.2.0,Phases=2,Linecode=BT107_BT107_7_2_1_2,Length=0.085618000,Units=km
new line.SBT_13047420 bus1=BBT4075569.1.2.0,bus2=BBT4075576.1.2.0,Phases=2,Linecode=BT108_BT108_7_2_1_2,Length=0.085178000,Units=km
new line.SBT_13718013 bus1=BBT4400362.1.2.0,bus2=BBT4400369.1.2.0,Phases=2,Linecode=BT808_BT808_4_2_3_2,Length=0.026637000,Units=km
new line.SBT_1401119IP bus1=BBT5654109.1.2.0,bus2=BBT5001401119.1.2.0,Phases=2,Linecode=IP_2,Length=0.002840000,Units=km
new line.SBT_14025306 bus1=BBT4744153.1.2.0,bus2=BBT4707193.1.2.0,Phases=2,Linecode=BT801_BT801_4_2_3_2,Length=0.025009000,Units=km
new line.SBT_14025313 bus1=BBT4744153.1.2.0,bus2=BBT4746470.1.2.0,Phases=2,Linecode=BT807_BT807_4_2_3_2,Length=0.046256000,Units=km
new line.SBT_14025327 bus1=BBT4744160.1.2.0,bus2=BBT4744167.1.2.0,Phases=2,Linecode=BT808_BT808_4_2_3_2,Length=0.030898000,Units=km
new line.SBT_14204989 bus1=BBT5140962.1.2.3.0,bus2=BBT5140955.1.2.3.0,Phases=3,Linecode=BT803_BT803_4_3_4_3,Length=0.044311000,Units=km
new line.SBT_14205017 bus1=BBT5140969.1.2.3.0,bus2=BBT5140962.1.2.3.0,Phases=3,Linecode=BT803_BT803_4_3_4_3,Length=0.036688000,Units=km
new line.SBT_14205031 bus1=BBT5140969.1.2.3.0,bus2=BBT5140976.1.2.3.0,Phases=3,Linecode=BT803_BT803_4_3_4_3,Length=0.036249000,Units=km
new line.SBT_16978977 bus1=BBT42325502.1.2.3.0,bus2=BBT42325509.1.2.3.0,Phases=3,Linecode=BT518_BT518_7_3_1_3,Length=0.000501000,Units=km
new line.SBT_16980874 bus1=BBT42385044.1.2.0,bus2=BBT42385051.1.2.0,Phases=2,Linecode=BT513_BT513_7_2_1_2,Length=0.000501000,Units=km
new line.SBT_17186037 bus1=BBT52335341.1.2.3.0,bus2=BBT52335348.1.2.3.0,Phases=3,Linecode=BT514_BT514_7_3_1_3,Length=0.000501000,Units=km
new line.SBT_17955029 bus1=BBT94887410.1.2.0,bus2=BBT94887417.1.2.0,Phases=2,Linecode=BT513_BT513_7_2_1_2,Length=0.000501000,Units=km
new line.SBT_17965368 bus1=BBT84246087.1.2.3.0,bus2=BBT95330132.1.2.3.0,Phases=3,Linecode=BT810_BT810_4_3_4_3,Length=0.039372000,Units=km
new line.SBT_183665 bus1=BBT190525.1.2.3.0,bus2=BBT190532.1.2.3.0,Phases=3,Linecode=BT508_BT508_7_3_1_3,Length=0.000501000,Units=km
new line.SBT_18550890 bus1=BBT134710893.1.2.0,bus2=BBT134710900.1.2.0,Phases=2,Linecode=BT519_BT519_7_2_1_2,Length=0.000501000,Units=km
new line.SBT_18550897 bus1=BBT134710900.1.2.0,bus2=BBT134710949.1.2.0,Phases=2,Linecode=BT808_BT808_4_2_3_2,Length=0.035184000,Units=km
new line.SBT_18692768 bus1=BBT148341281.1.2.0,bus2=BBT148341282.1.2.0,Phases=2,Linecode=BT517_BT517_7_2_1_2,Length=0.000501000,Units=km
new line.SBT_18741194 bus1=BBT1185185.1.2.3.0,bus2=BBT149723665.1.2.3.0,Phases=3,Linecode=BT803_BT803_4_3_4_3,Length=0.038485000,Units=km
new line.SBT_18744450 bus1=BBT136470476.1.2.0,bus2=BBT149798653.1.2.0,Phases=2,Linecode=BT807_BT807_4_2_3_2,Length=0.050018000,Units=km
new line.SBT_18782015 bus1=BBT150931664.1.2.0,bus2=BBT150931665.1.2.0,Phases=2,Linecode=BT304_BT304_7_2_1_2,Length=0.000501000,Units=km
new line.SBT_18864349 bus1=BBT153366271.1.2.3.0,bus2=BBT153366272.1.2.3.0,Phases=3,Linecode=BT513_BT513_7_3_1_3,Length=0.000501000,Units=km
new line.SBT_18865190 bus1=BBT153391238.1.2.3.0,bus2=BBT153391239.1.2.3.0,Phases=3,Linecode=BT518_BT518_7_3_1_3,Length=0.000501000,Units=km