new line.1175474 bus1=BBT1270800.1.2.3.0,bus2=BBT1270793.1.2.3.0,Phases=3,Linecode=BT108_BT107_7_3_1,Length=0.038226000,Units=km
new line.1175481 bus1=BBT1270702.1.2.3.0,bus2=BBT1270800.1.2.3.0,Phases=3,Linecode=BT309_BT309_7_3_1,Length=0.000501000,Units=km
new line.1175488 bus1=BBT1270800.1.2.3.0,bus2=BBT1270814.1.2.3.0,Phases=3,Linecode=BT108_BT107_7_3_1,Length=0.032262000,Units=km
new line.1175495 bus1=BBT1270800.1.2.3.0,bus2=BBT2234742.1.2.3.0,Phases=3,Linecode=BT513_BT513_5_3_1,Length=0.004002000,Units=km
new line.1175502 bus1=BBT1270807.1.2.3.0,bus2=BBT1270842.1.2.3.0,Phases=3,Linecode=BT107_BT106_7_3_1,Length=0.032262000,Units=km
new line.1175509 bus1=BBT1270814.1.2.3.0,bus2=BBT1270821.1.2.3.0,Phases=3,Linecode=BT108_BT107_7_3_1,Length=0.030162000,Units=km
new line.1175516 bus1=BBT1270821.1.2.3.0,bus2=BBT1270828.1.2.3.0,Phases=3,Linecode=BT108_BT107_7_3_1,Length=0.037352000,Units=km
new line.1175523 bus1=BBT1270828.1.2.3.0,bus2=BBT1270835.1.2.3.0,Phases=3,Linecode=BT107_BT106_7_3_1,Length=0.010821000,Units=km
new line.1175530 bus1=BBT1270835.1.2.3.0,bus2=BBT1270849.1.2.3.0,Phases=3,Linecode=BT107_BT106_7_3_1,Length=0.023205000,Units=km
new line.1175537 bus1=BBT1270842.1.2.3.0,bus2=BBT1270870.1.2.3.0,Phases=3,Linecode=BT107_BT106_7_3_1,Length=0.038226000,Units=km
new line.1175544 bus1=BBT1270849.1.2.3.0,bus2=BBT1270884.1.2.3.0,Phases=3,Linecode=BT107_BT106_7_3_1,Length=0.030162000,Units=km
new line.1175551 bus1=BBT1270863.1.2.3.0,bus2=BBT2234910.1.2.3.0,Phases=3,Linecode=BT107_BT106_7_3_1,Length=0.036015000,Units=km
new line.1175558 bus1=BBT1270870.1.2.3.0,bus2=BBT1270877.1.2.3.0,Phases=3,Linecode=BT107_BT106_7_3_1,Length=0.025090000,Units=km
new line.1175565 bus1=BBT1270870.1.2.3.0,bus2=BBT1270898.1.2.3.0,Phases=3,Linecode=BT107_BT106_7_3_1,Length=0.038095000,Units=km
new line.1175579 bus1=BBT1270877.1.2.3.0,bus2=BBT1270856.1.2.3.0,Phases=3,Linecode=BT107_BT106_7_3_1,Length=0.027011000,Units=km
new line.1175586 bus1=BBT1270884.1.2.3.0,bus2=BBT1270863.1.2.3.0,Phases=3,Linecode=BT107_BT106_7_3_1,Length=0.035029000,Units=km
new line.1175593 bus1=BBT1270884.1.2.3.0,bus2=BBT1270891.1.2.3.0,Phases=3,Linecode=BT107_BT106_7_3_1,Length=0.039475000,Units=km
new line.1175600 bus1=BBT1270891.1.2.3.0,bus2=BBT1270905.1.2.3.0,Phases=3,Linecode=BT107_BT106_7_3_1,Length=0.029440000,Units=km
new line.1175691 bus1=BBT1271003.1.2.3.0,bus2=BBT1271010.1.2.3.0,Phases=3,Linecode=BT307_BT307_7_3_1,Length=0.000501000,Units=km
new line.1175698 bus1=BBT1271031.1.2.3.0,bus2=BBT1271024.1.2.3.0,Phases=3,Linecode=BT107_BT106_7_3_1,Length=0.031919000,Units=km
new line.1175705 bus1=BBT1271045.1.2.3.0,bus2=BBT1271031.1.2.3.0,Phases=3,Linecode=BT107_BT106_7_3_1,Length=0.032770000,Units=km
new line.1175712 bus1=BBT1271052.1.2.3.0,bus2=BBT1271038.1.2.3.0,Phases=3,Linecode=BT107_BT106_7_3_1,Length=0.032262000,Units=km
new line.1175719 bus1=BBT1271052.1.2.3.0,bus2=BBT1271045.1.2.3.0,Phases=3,Linecode=BT108_BT107_7_3_1,Length=0.013422000,Units=km
new line.1175726 bus1=BBT1271052.1.2.3.0,bus2=BBT1271059.1.2.3.0,Phases=3,Linecode=BT107_BT106_7_3_1,Length=0.005002000,Units=km
new line.1175733 bus1=BBT1271059.1.2.3.0,bus2=BBT1271066.1.2.3.0,Phases=3,Linecode=BT107_BT106_7_3_1,Length=0.024709000,Units=km
new line.1175740 bus1=BBT1271066.1.2.3.0,bus2=BBT1271080.1.2.3.0,Phases=3,Linecode=BT107_BT106_7_3_1,Length=0.028314000,Units=km
new line.1175747 bus1=BBT1271073.1.2.3.0,bus2=BBT1271052.1.2.3.0,Phases=3,Linecode=BT108_BT107_7_3_1,Length=0.025010000,Units=km
new line.1175754 bus1=BBT1271087.1.2.3.0,bus2=BBT1271073.1.2.3.0,Phases=3,Linecode=BT108_BT107_7_3_1,Length=0.032770000,Units=km
new line.1175761 bus1=BBT1271017.1.2.3.0,bus2=BBT1271087.1.2.3.0,Phases=3,Linecode=BT309_BT309_7_3_1,Length=0.000501000,Units=km
new line.1175768 bus1=BBT1271087.1.2.3.0,bus2=BBT1271101.1.2.3.0,Phases=3,Linecode=BT108_BT107_7_3_1,Length=0.029694000,Units=km
new line.1175775 bus1=BBT1271101.1.2.3.0,bus2=BBT2244234.1.2.3.0,Phases=3,Linecode=BT108_BT107_7_3_1,Length=0.014219000,Units=km
new line.1175782 bus1=BBT1271108.1.2.3.0,bus2=BBT1271094.1.2.3.0,Phases=3,Linecode=BT107_BT106_7_3_1,Length=0.029845000,Units=km
new line.1175789 bus1=BBT1271115.1.2.3.0,bus2=BBT1271108.1.2.3.0,Phases=3,Linecode=BT107_BT106_7_3_1,Length=0.029845000,Units=km
new line.1175796 bus1=BBT1271129.1.2.3.0,bus2=BBT1271136.1.2.3.0,Phases=3,Linecode=BT107_BT106_7_3_1,Length=0.045910000,Units=km
new line.1175803 bus1=BBT1271143.1.2.3.0,bus2=BBT1271157.1.2.3.0,Phases=3,Linecode=BT107_BT106_7_3_1,Length=0.028856000,Units=km
new line.1175810 bus1=BBT1271150.1.2.3.0,bus2=BBT1271171.1.2.3.0,Phases=3,Linecode=BT107_BT106_7_3_1,Length=0.026088000,Units=km
new line.1175817 bus1=BBT1271157.1.2.3.0,bus2=BBT1271164.1.2.3.0,Phases=3,Linecode=BT107_BT106_7_3_1,Length=0.028856000,Units=km
new line.1175824 bus1=BBT1271171.1.2.3.0,bus2=BBT1271178.1.2.3.0,Phases=3,Linecode=BT107_BT106_7_3_1,Length=0.029081000,Units=km
new line.1175831 bus1=BBT1271185.1.2.3.0,bus2=BBT1271192.1.2.3.0,Phases=3,Linecode=BT514_BT514_7_3_1,Length=0.000501000,Units=km
new line.1175838 bus1=BBT1271248.1.2.3.0,bus2=BBT1271234.1.2.3.0,Phases=3,Linecode=BT107_BT106_7_3_1,Length=0.034380000,Units=km
new line.1175845 bus1=BBT1271255.1.2.3.0,bus2=BBT1271248.1.2.3.0,Phases=3,Linecode=BT107_BT106_7_3_1,Length=0.033255000,Units=km
new line.1175852 bus1=BBT1271269.1.2.3.0,bus2=BBT1271255.1.2.3.0,Phases=3,Linecode=BT107_BT106_7_3_1,Length=0.037672000,Units=km
new line.1175859 bus1=BBT1271283.1.2.3.0,bus2=BBT1271269.1.2.3.0,Phases=3,Linecode=BT108_BT107_7_3_1,Length=0.025972000,Units=km
new line.1175866 bus1=BBT1271283.1.2.3.0,bus2=BBT1271290.1.2.3.0,Phases=3,Linecode=BT107_BT106_7_3_1,Length=0.006711000,Units=km
new line.1175873 bus1=BBT1271290.1.2.3.0,bus2=BBT1271325.1.2.3.0,Phases=3,Linecode=BT107_BT106_7_3_1,Length=0.022571000,Units=km
new line.1175880 bus1=BBT1271297.1.2.3.0,bus2=BBT1271283.1.2.3.0,Phases=3,Linecode=BT108_BT107_7_3_1,Length=0.034496000,Units=km
new line.1175887 bus1=BBT1271199.1.2.3.0,bus2=BBT1271297.1.2.3.0,Phases=3,Linecode=BT509_BT509_7_3_1,Length=0.000501000,Units=km
new line.1175894 bus1=BBT1271297.1.2.3.0,bus2=BBT1271318.1.2.3.0,Phases=3,Linecode=BT108_BT107_7_3_1,Length=0.046344000,Units=km
new line.1175901 bus1=BBT1271297.1.2.3.0,bus2=BBT2234721.1.2.3.0,Phases=3,Linecode=BT513_BT513_5_3_1,Length=0.005102000,Units=km
new line.1175908 bus1=BBT1271318.1.2.3.0,bus2=BBT1271332.1.2.3.0,Phases=3,Linecode=BT107_BT106_7_3_1,Length=0.042738000,Units=km
new line.1175915 bus1=BBT1271332.1.2.3.0,bus2=BBT1271339.1.2.3.0,Phases=3,Linecode=BT107_BT106_7_3_1,Length=0.037379000,Units=km
new line.1175922 bus1=BBT1271339.1.2.3.0,bus2=BBT1271346.1.2.3.0,Phases=3,Linecode=BT107_BT106_7_3_1,Length=0.035750000,Units=km
new line.1175929 bus1=BBT1271360.1.2.3.0,bus2=BBT1271367.1.2.3.0,Phases=3,Linecode=BT803_BT803_4_3_4,Length=0.023205000,Units=km
new line.1175936 bus1=BBT1271367.1.2.3.0,bus2=BBT1271388.1.2.3.0,Phases=3,Linecode=BT803_BT803_4_3_4,Length=0.032402000,Units=km
new line.1175943 bus1=BBT1271381.1.2.3.0,bus2=BBT1271374.1.2.3.0,Phases=3,Linecode=BT803_BT803_4_3_4,Length=0.006406000,Units=km
new line.1175950 bus1=BBT1271395.1.2.3.0,bus2=BBT1271381.1.2.3.0,Phases=3,Linecode=BT803_BT803_4_3_4,Length=0.036512000,Units=km
new line.1175957 bus1=BBT1271402.1.2.3.0,bus2=BBT1271395.1.2.3.0,Phases=3,Linecode=BT803_BT803_4_3_4,Length=0.027471000,Units=km
new line.1175964 bus1=BBT1271353.1.2.3.0,bus2=BBT1271402.1.2.3.0,Phases=3,Linecode=BT513_BT513_7_3_1,Length=0.000501000,Units=km
new line.10011672 bus1=BBT145391558.1.2.3.0,bus2=BBT145391565.1.2.3.0,Phases=3,Linecode=BT518_BT518_7_3_1,Length=0.000501000,Units=km
new line.10011686 bus1=BBT145391565.1.2.3.0,bus2=BBT145392111.1.2.3.0,Phases=3,Linecode=BT803_BT803_4_3_4,Length=0.038226000,Units=km
new line.10011693 bus1=BBT145392111.1.2.3.0,bus2=BBT145392118.1.2.3.0,Phases=3,Linecode=BT803_BT803_4_3_4,Length=0.038134000,Units=km
new line.10011700 bus1=BBT145392118.1.2.3.0,bus2=BBT145392153.1.2.3.0,Phases=3,Linecode=BT803_BT803_4_3_4,Length=0.040129000,Units=km
new line.10011707 bus1=BBT145392153.1.2.3.0,bus2=BBT145392209.1.2.3.0,Phases=3,Linecode=BT803_BT803_4_3_4,Length=0.040216000,Units=km
new line.10011714 bus1=BBT145392209.1.2.3.0,bus2=BBT145392216.1.2.3.0,Phases=3,Linecode=BT803_BT803_4_3_4,Length=0.039221000,Units=km
new line.10011721 bus1=BBT145392216.1.2.3.0,bus2=BBT145392223.1.2.3.0,Phases=3,Linecode=BT803_BT803_4_3_4,Length=0.039221000,Units=km
new line.10011749 bus1=BBT145391565.1.2.3.0,bus2=BBT1279487.1.2.3.0,Phases=3,Linecode=BT803_BT803_4_3_4,Length=0.017095000,Units=km
new line.10011756 bus1=BBT1279487.1.2.3.0,bus2=BBT145392790.1.2.3.0,Phases=3,Linecode=BT803_BT803_4_3_4,Length=0.034540000,Units=km
new line.10011770 bus1=BBT5354957.1.2.3.0,bus2=BBT145392979.1.2.3.0,Phases=3,Linecode=BT803_BT803_4_3_4,Length=0.038343000,Units=km
new line.10011777 bus1=BBT145392979.1.2.3.0,bus2=BBT145393525.1.2.3.0,Phases=3,Linecode=BT803_BT803_4_3_4,Length=0.029423000,Units=km
new line.10011784 bus1=BBT145393693.1.2.3.0,bus2=BBT156995327.1.2.3.0,Phases=3,Linecode=BT803_BT803_4_3_4,Length=0.039828000,Units=km
new line.10011798 bus1=BBT145393840.1.2.3.0,bus2=BBT145393693.1.2.3.0,Phases=3,Linecode=BT803_BT803_4_3_4,Length=0.035708000,Units=km
new line.10011812 bus1=BBT145393931.1.2.3.0,bus2=BBT145393840.1.2.3.0,Phases=3,Linecode=BT803_BT803_4_3_4,Length=0.038849000,Units=km
new line.1178085 bus1=BBT1273663.1.2.3.0,bus2=BBT1273656.1.2.3.0,Phases=3,Linecode=BT108_BT107_7_3_1,Length=0.030245000,Units=km
new line.1178092 bus1=BBT1273670.1.2.3.0,bus2=BBT1273691.1.2.3.0,Phases=3,Linecode=BT108_BT107_7_3_1,Length=0.034146000,Units=km
new line.1178099 bus1=BBT1273677.1.2.3.0,bus2=BBT1273663.1.2.3.0,Phases=3,Linecode=BT108_BT107_7_3_1,Length=0.032770000,Units=km
new line.1178106 bus1=BBT1273642.1.2.3.0,bus2=BBT1273677.1.2.3.0,Phases=3,Linecode=BT521_BT521_7_3_1,Length=0.000501000,Units=km
new line.1178113 bus1=BBT1273677.1.2.3.0,bus2=BBT1273684.1.2.3.0,Phases=3,Linecode=BT108_BT107_7_3_1,Length=0.033300000,Units=km
new line.1178120 bus1=BBT1273684.1.2.3.0,bus2=BBT1273698.1.2.3.0,Phases=3,Linecode=BT108_BT107_7_3_1,Length=0.029167000,Units=km
new line.1178127 bus1=BBT1273691.1.2.0,bus2=BBT1273712.1.2.0,Phases=2,Linecode=BT106_BT106_7_2_1,Length=0.038304000,Units=km
new line.1178134 bus1=BBT1273691.1.2.3.0,bus2=BBT1273719.1.2.3.0,Phases=3,Linecode=BT108_BT107_7_3_1,Length=0.030029000,Units=km
new line.1178141 bus1=BBT1273698.1.2.3.0,bus2=BBT1273705.1.2.3.0,Phases=3,Linecode=BT108_BT107_7_3_1,Length=0.029694000,Units=km
new line.1178148 bus1=BBT1273698.1.2.3.0,bus2=BBT1273740.1.2.3.0,Phases=3,Linecode=BT107_BT106_7_3_1,Length=0.036250000,Units=km
new line.1178155 bus1=BBT1273705.1.2.3.0,bus2=BBT1273733.1.2.3.0,Phases=3,Linecode=BT108_BT107_7_3_1,Length=0.026937000,Units=km
new line.1178162 bus1=BBT1273719.1.2.3.0,bus2=BBT1273747.1.2.3.0,Phases=3,Linecode=BT108_BT107_7_3_1,Length=0.035525000,Units=km
new line.1178176 bus1=BBT1273733.1.3.0,bus2=BBT1273726.1.3.0,Phases=2,Linecode=BT106_BT107_7_2_1,Length=0.006328000,Units=km
new line.1178183 bus1=BBT1273740.1.2.3.0,bus2=BBT1273754.1.2.3.0,Phases=3,Linecode=BT107_BT106_7_3_1,Length=0.037752000,Units=km
new line.1178190 bus1=BBT1274391.1.2.3.0,bus2=BBT2249694.1.2.3.0,Phases=3,Linecode=BT107_BT106_7_3_1,Length=0.013006000,Units=km
new line.1178197 bus1=BBT1273754.1.2.3.0,bus2=BBT1273761.1.2.3.0,Phases=3,Linecode=BT107_BT106_7_3_1,Length=0.038603000,Units=km
new line.1178204 bus1=BBT1273782.1.2.3.0,bus2=BBT1273775.1.2.3.0,Phases=3,Linecode=BT809_BT809_4_3_4,Length=0.038965000,Units=km
new line.1178211 bus1=BBT1273789.1.2.3.0,bus2=BBT1273782.1.2.3.0,Phases=3,Linecode=BT803_BT803_4_3_4,Length=0.035398000,Units=km
new line.1178218 bus1=BBT1273803.1.2.3.0,bus2=BBT1273789.1.2.3.0,Phases=3,Linecode=BT803_BT803_4_3_4,Length=0.036893000,Units=km
new line.1178225 bus1=BBT1273803.1.2.0,bus2=BBT1273796.1.2.0,Phases=2,Linecode=BT801_BT801_4_2_3,Length=0.009004000,Units=km
new line.1178232 bus1=BBT1273810.1.2.3.0,bus2=BBT1273803.1.2.3.0,Phases=3,Linecode=BT803_BT803_4_3_4,Length=0.034424000,Units=km
new line.1178239 bus1=BBT1273817.1.2.3.0,bus2=BBT1273810.1.2.3.0,Phases=3,Linecode=BT803_BT803_4_3_4,Length=0.017007000,Units=km
new line.1178246 bus1=BBT1273831.1.2.3.0,bus2=BBT1273824.1.2.3.0,Phases=3,Linecode=BT107_BT106_7_3_1,Length=0.043192000,Units=km
new line.1178253 bus1=BBT1273838.1.2.3.0,bus2=BBT1273831.1.2.3.0,Phases=3,Linecode=BT107_BT106_7_3_1,Length=0.048290000,Units=km
new line.1178260 bus1=BBT1273845.1.2.3.0,bus2=BBT1273817.1.2.3.0,Phases=3,Linecode=BT803_BT803_4_3_4,Length=0.033748000,Units=km
new line.1178267 bus1=BBT1273852.1.2.3.0,bus2=BBT1273838.1.2.3.0,Phases=3,Linecode=BT107_BT106_7_3_1,Length=0.039310000,Units=km
new line.1178274 bus1=BBT1273859.1.2.3.0,bus2=BBT1273845.1.2.3.0,Phases=3,Linecode=BT108_BT107_7_3_1,Length=0.005002000,Units=km
new line.1178281 bus1=BBT1273859.1.2.3.0,bus2=BBT1273852.1.2.3.0,Phases=3,Linecode=BT108_BT107_7_3_1,Length=0.011185000,Units=km
new line.1178288 bus1=BBT1273859.1.2.3.0,bus2=BBT1273866.1.2.3.0,Phases=3,Linecode=BT108_BT107_7_3_1,Length=0.033748000,Units=km
new line.1178295 bus1=BBT1273866.1.2.3.0,bus2=BBT1273873.1.2.3.0,Phases=3,Linecode=BT108_BT107_7_3_1,Length=0.033970000,Units=km
new line.1178302 bus1=BBT1273887.1.2.3.0,bus2=BBT1273859.1.2.3.0,Phases=3,Linecode=BT108_BT107_7_3_1,Length=0.030426000,Units=km
new line.1178309 bus1=BBT1273768.1.2.3.0,bus2=BBT1273887.1.2.3.0,Phases=3,Linecode=BT513_BT513_7_3_1,Length=0.000501000,Units=km
new line.1178316 bus1=BBT1273887.1.2.3.0,bus2=BBT1273915.1.2.3.0,Phases=3,Linecode=BT108_BT107_7_3_1,Length=0.045141000,Units=km
new line.1178323 bus1=BBT1273894.1.2.3.0,bus2=BBT1273880.1.2.3.0,Phases=3,Linecode=BT107_BT106_7_3_1,Length=0.036070000,Units=km
new line.1178330 bus1=BBT1273901.1.2.3.0,bus2=BBT1273894.1.2.3.0,Phases=3,Linecode=BT107_BT106_7_3_1,Length=0.030541000,Units=km
new line.1178344 bus1=BBT1273908.1.2.3.0,bus2=BBT1273901.1.2.3.0,Phases=3,Linecode=BT107_BT106_7_3_1,Length=0.023864000,Units=km
new line.1178351 bus1=BBT1273915.1.2.3.0,bus2=BBT1273936.1.2.3.0,Phases=3,Linecode=BT108_BT107_7_3_1,Length=0.026260000,Units=km
new line.1178358 bus1=BBT1273922.1.2.3.0,bus2=BBT1273908.1.2.3.0,Phases=3,Linecode=BT107_BT106_7_3_1,Length=0.025565000,Units=km
new line.1178365 bus1=BBT1273929.1.2.3.0,bus2=BBT1273922.1.2.3.0,Phases=3,Linecode=BT107_BT106_7_3_1,Length=0.028314000,Units=km
new line.1178372 bus1=BBT1273936.1.2.3.0,bus2=BBT1266719.1.2.3.0,Phases=3,Linecode=BT107_BT106_7_3_1,Length=0.024709000,Units=km
new line.1178379 bus1=BBT1273936.1.2.3.0,bus2=BBT1273929.1.2.3.0,Phases=3,Linecode=BT107_BT106_7_3_1,Length=0.009438000,Units=km
new line.1178386 bus1=BBT1273936.1.2.3.0,bus2=BBT1273943.1.2.3.0,Phases=3,Linecode=BT108_BT107_7_3_1,Length=0.011050000,Units=km
new line.1178722 bus1=BBT1274272.1.2.3.0,bus2=BBT1274265.1.2.3.0,Phases=3,Linecode=BT803_BT803_4_3_4,Length=0.036070000,Units=km
new line.1170938 bus1=BBT1266236.1.2.3.0,bus2=BBT1266229.1.2.3.0,Phases=3,Linecode=BT107_BT106_7_3_1,Length=0.030096000,Units=km
new line.1170945 bus1=BBT1266250.1.2.3.0,bus2=BBT1266236.1.2.3.0,Phases=3,Linecode=BT107_BT106_7_3_1,Length=0.028172000,Units=km
new line.1170952 bus1=BBT1266257.1.2.3.0,bus2=BBT1266243.1.2.3.0,Phases=3,Linecode=BT107_BT106_7_3_1,Length=0.035186000,Units=km
new line.1170959 bus1=BBT1266264.1.2.3.0,bus2=BBT1266348.1.2.3.0,Phases=3,Linecode=BT107_BT106_7_3_1,Length=0.026937000,Units=km
new line.1170966 bus1=BBT1266271.1.2.3.0,bus2=BBT1266341.1.2.3.0,Phases=3,Linecode=BT108_BT108_7_3_1,Length=0.029745000,Units=km
new line.1170973 bus1=BBT1266278.1.2.3.0,bus2=BBT1266271.1.2.3.0,Phases=3,Linecode=BT108_BT108_7_3_1,Length=0.034219000,Units=km
new line.1170980 bus1=BBT1266222.1.2.3.0,bus2=BBT1266278.1.2.3.0,Phases=3,Linecode=BT308_BT308_7_3_1,Length=0.000501000,Units=km
new line.1170987 bus1=BBT1266278.1.2.3.0,bus2=BBT1266285.1.2.3.0,Phases=3,Linecode=BT108_BT108_7_3_1,Length=0.032999000,Units=km
new line.1170994 bus1=BBT1266285.1.2.3.0,bus2=BBT1266334.1.2.3.0,Phases=3,Linecode=BT108_BT108_7_3_1,Length=0.027670000,Units=km
new line.1171001 bus1=BBT1266299.1.2.3.0,bus2=BBT1266292.1.2.3.0,Phases=3,Linecode=BT107_BT106_7_3_1,Length=0.034219000,Units=km
new line.1171008 bus1=BBT1266306.1.2.3.0,bus2=BBT1266320.1.2.3.0,Phases=3,Linecode=BT107_BT107_7_3_1,Length=0.036416000,Units=km
new line.1171015 bus1=BBT1266313.1.2.3.0,bus2=BBT1266327.1.2.3.0,Phases=3,Linecode=BT107_BT106_7_3_1,Length=0.028172000,Units=km
new line.1171022 bus1=BBT1266334.1.2.3.0,bus2=BBT1266299.1.2.3.0,Phases=3,Linecode=BT107_BT106_7_3_1,Length=0.007074000,Units=km
new line.1171029 bus1=BBT1266334.1.2.3.0,bus2=BBT1266306.1.2.3.0,Phases=3,Linecode=BT107_BT106_7_3_1,Length=0.005834000,Units=km
new line.1171036 bus1=BBT1266334.1.2.3.0,bus2=BBT1266313.1.2.3.0,Phases=3,Linecode=BT107_BT106_7_3_1,Length=0.020889000,Units=km
new line.1171043 bus1=BBT1266341.1.2.3.0,bus2=BBT1266250.1.2.3.0,Phases=3,Linecode=BT108_BT108_7_3_1,Length=0.006086000,Units=km
new line.1171050 bus1=BBT1266341.1.2.3.0,bus2=BBT1266257.1.2.3.0,Phases=3,Linecode=BT107_BT106_7_3_1,Length=0.007619000,Units=km
new line.1171057 bus1=BBT1266341.1.2.3.0,bus2=BBT1266264.1.2.3.0,Phases=3,Linecode=BT107_BT106_7_3_1,Length=0.017472000,Units=km
new line.1171449 bus1=BBT1266719.1.2.3.0,bus2=BBT1266726.1.2.3.0,Phases=3,Linecode=BT107_BT106_7_3_1,Length=0.039131000,Units=km
new line.1171456 bus1=BBT1266726.1.2.3.0,bus2=BBT2250681.1.2.3.0,Phases=3,Linecode=BT107_BT106_7_3_1,Length=0.032770000,Units=km
new line.1171463 bus1=BBT1266747.1.2.3.0,bus2=BBT1266733.1.2.3.0,Phases=3,Linecode=BT107_BT106_7_3_1,Length=0.024526000,Units=km
new line.1171470 bus1=BBT1266747.1.2.3.0,bus2=BBT1266740.1.2.3.0,Phases=3,Linecode=BT107_BT106_7_3_1,Length=0.033135000,Units=km
new line.1171477 bus1=BBT1266747.1.2.3.0,bus2=BBT1266768.1.2.3.0,Phases=3,Linecode=BT107_BT106_7_3_1,Length=0.013347000,Units=km
new line.1171484 bus1=BBT1266761.1.2.3.0,bus2=BBT1266747.1.2.3.0,Phases=3,Linecode=BT107_BT106_7_3_1,Length=0.010821000,Units=km
new line.1171491 bus1=BBT1266768.1.2.3.0,bus2=BBT1266789.1.2.3.0,Phases=3,Linecode=BT107_BT106_7_3_1,Length=0.025721000,Units=km
new line.1171498 bus1=BBT1266775.1.2.3.0,bus2=BBT1266761.1.2.3.0,Phases=3,Linecode=BT107_BT106_7_3_1,Length=0.024709000,Units=km
new line.1171505 bus1=BBT1266782.1.2.3.0,bus2=BBT1266775.1.2.3.0,Phases=3,Linecode=BT107_BT106_7_3_1,Length=0.035525000,Units=km
new line.1171512 bus1=BBT1266796.1.2.3.0,bus2=BBT1266754.1.2.3.0,Phases=3,Linecode=BT107_BT106_7_3_1,Length=0.033748000,Units=km
new line.1171519 bus1=BBT1266803.1.2.3.0,bus2=BBT1266782.1.2.3.0,Phases=3,Linecode=BT108_BT107_7_3_1,Length=0.035525000,Units=km
new line.1171526 bus1=BBT1266810.1.2.3.0,bus2=BBT1266796.1.2.3.0,Phases=3,Linecode=BT107_BT106_7_3_1,Length=0.028648000,Units=km
new line.1171533 bus1=BBT1266810.1.2.3.0,bus2=BBT1266803.1.2.3.0,Phases=3,Linecode=BT108_BT107_7_3_1,Length=0.021964000,Units=km
new line.1171540 bus1=BBT1266810.1.2.3.0,bus2=BBT1266824.1.2.3.0,Phases=3,Linecode=BT107_BT106_7_3_1,Length=0.009060000,Units=km
new line.1171547 bus1=BBT1266817.1.2.3.0,bus2=BBT1266810.1.2.3.0,Phases=3,Linecode=BT108_BT107_7_3_1,Length=0.010821000,Units=km
new line.1171554 bus1=BBT1266712.1.2.3.0,bus2=BBT1266817.1.2.3.0,Phases=3,Linecode=BT513_BT513_7_3_1,Length=0.000501000,Units=km
new line.1171561 bus1=BBT1266817.1.2.3.0,bus2=BBT1266831.1.2.3.0,Phases=3,Linecode=BT108_BT107_7_3_1,Length=0.029167000,Units=km
new line.1171568 bus1=BBT1266824.1.2.3.0,bus2=BBT1266838.1.2.3.0,Phases=3,Linecode=BT107_BT106_7_3_1,Length=0.031588000,Units=km
new line.1171575 bus1=BBT1266831.1.2.3.0,bus2=BBT1266845.1.2.3.0,Phases=3,Linecode=BT108_BT107_7_3_1,Length=0.044120000,Units=km
new line.1171582 bus1=BBT1266845.1.2.3.0,bus2=BBT1266852.1.2.3.0,Phases=3,Linecode=BT810_BT810_4_3_4,Length=0.041357000,Units=km
new line.1171589 bus1=BBT1266852.1.2.3.0,bus2=BBT1266859.1.2.3.0,Phases=3,Linecode=BT810_BT810_4_3_4,Length=0.029694000,Units=km
new line.1171603 bus1=BBT1266887.1.2.3.0,bus2=BBT1266873.1.2.3.0,Phases=3,Linecode=BT803_BT803_4_3_4,Length=0.036907000,Units=km
new line.1171610 bus1=BBT1266894.1.2.3.0,bus2=BBT1266880.1.2.3.0,Phases=3,Linecode=BT803_BT803_4_3_4,Length=0.036070000,Units=km
new line.1171617 bus1=BBT1266901.1.2.3.0,bus2=BBT1266887.1.2.3.0,Phases=3,Linecode=BT803_BT803_4_3_4,Length=0.031077000,Units=km
new line.1171624 bus1=BBT157863601.1.2.3.0,bus2=BBT1266894.1.2.3.0,Phases=3,Linecode=BT803_BT803_4_3_4,Length=0.013044000,Units=km
new line.1171631 bus1=BBT1266915.1.2.3.0,bus2=BBT1266901.1.2.3.0,Phases=3,Linecode=BT803_BT803_4_3_4,Length=0.009224000,Units=km
new line.1171638 bus1=BBT1266915.1.2.3.0,bus2=BBT1266908.1.2.3.0,Phases=3,Linecode=BT803_BT803_4_3_4,Length=0.008066000,Units=km
new line.1171645 bus1=BBT1266915.1.2.3.0,bus2=BBT1266922.1.2.3.0,Phases=3,Linecode=BT803_BT803_4_3_4,Length=0.026088000,Units=km
new line.1171652 bus1=BBT1266922.1.2.3.0,bus2=BBT1266936.1.2.3.0,Phases=3,Linecode=BT803_BT803_4_3_4,Length=0.036907000,Units=km
new line.1171659 bus1=BBT1266929.1.2.3.0,bus2=BBT1266915.1.2.3.0,Phases=3,Linecode=BT803_BT803_4_3_4,Length=0.032663000,Units=km
new line.1171666 bus1=BBT1266936.1.2.3.0,bus2=BBT1266950.1.2.3.0,Phases=3,Linecode=BT803_BT803_4_3_4,Length=0.034146000,Units=km
new line.1171673 bus1=BBT1266957.1.2.3.0,bus2=BBT1266929.1.2.3.0,Phases=3,Linecode=BT803_BT803_4_3_4,Length=0.033852000,Units=km
new line.1171680 bus1=BBT1266866.1.2.3.0,bus2=BBT1266957.1.2.3.0,Phases=3,Linecode=BT307_BT307_7_3_1,Length=0.000501000,Units=km
new line.1171687 bus1=BBT1266957.1.2.3.0,bus2=BBT1266978.1.2.3.0,Phases=3,Linecode=BT803_BT803_4_3_4,Length=0.036374000,Units=km
new line.1171694 bus1=BBT1266964.1.2.3.0,bus2=BBT1266943.1.2.3.0,Phases=3,Linecode=BT803_BT803_4_3_4,Length=0.036635000,Units=km
new line.1171701 bus1=BBT1266971.1.2.3.0,bus2=BBT1266964.1.2.3.0,Phases=3,Linecode=BT803_BT803_4_3_4,Length=0.032770000,Units=km
new line.1171708 bus1=BBT1266978.1.2.3.0,bus2=BBT1266985.1.2.3.0,Phases=3,Linecode=BT803_BT803_4_3_4,Length=0.024423000,Units=km
new line.1171715 bus1=BBT1266985.1.2.3.0,bus2=BBT1266971.1.2.3.0,Phases=3,Linecode=BT803_BT803_4_3_4,Length=0.037218000,Units=km
new line.1171722 bus1=BBT1266985.1.2.3.0,bus2=BBT1266992.1.2.3.0,Phases=3,Linecode=BT803_BT803_4_3_4,Length=0.031318000,Units=km
new line.1171729 bus1=BBT1266985.1.2.3.0,bus2=BBT1266999.1.2.3.0,Phases=3,Linecode=BT803_BT803_4_3_4,Length=0.024607000,Units=km
new line.1178729 bus1=BBT153264878.1.2.3.0,bus2=BBT1274272.1.2.3.0,Phases=3,Linecode=BT805_BT805_4_3_4,Length=0.026431000,Units=km
new line.1178736 bus1=BBT1274293.1.2.0,bus2=BBT1274286.1.2.0,Phases=2,Linecode=BT106_BT106_7_2_1,Length=0.034380000,Units=km
new line.1178743 bus1=BBT1274300.1.2.0,bus2=BBT1274293.1.2.0,Phases=2,Linecode=BT106_BT106_7_2_1,Length=0.032262000,Units=km
new line.1178750 bus1=BBT1274307.1.2.3.0,bus2=BBT1274279.1.2.3.0,Phases=3,Linecode=BT805_BT805_4_3_4,Length=0.036374000,Units=km
new line.1178757 bus1=BBT1274307.1.2.3.0,bus2=BBT1274314.1.2.3.0,Phases=3,Linecode=BT107_BT106_7_3_1,Length=0.022857000,Units=km
new line.1178764 bus1=BBT1274314.1.2.3.0,bus2=BBT1274342.1.2.3.0,Phases=3,Linecode=BT107_BT106_7_3_1,Length=0.039067000,Units=km
new line.1178771 bus1=BBT1274321.1.2.0,bus2=BBT1274300.1.2.0,Phases=2,Linecode=BT106_BT106_7_2_1,Length=0.037752000,Units=km
new line.1178778 bus1=BBT171350597.1.2.3.0,bus2=BBT171350942.1.2.3.0,Phases=3,Linecode=BT803_BT803_4_3_4,Length=0.017007000,Units=km
new line.1178785 bus1=BBT1274328.1.2.3.0,bus2=BBT1274321.1.2.3.0,Phases=3,Linecode=BT107_BT106_7_3_1,Length=0.028243000,Units=km
new line.1178792 bus1=BBT1274335.1.2.3.0,bus2=BBT1274307.1.2.3.0,Phases=3,Linecode=BT805_BT805_4_3_4,Length=0.042207000,Units=km
new line.1178799 bus1=BBT1274258.1.2.3.0,bus2=BBT1274335.1.2.3.0,Phases=3,Linecode=BT513_BT513_7_3_1,Length=0.000501000,Units=km
new line.1178806 bus1=BBT1274335.1.2.3.0,bus2=BBT153264374.1.2.3.0,Phases=3,Linecode=BT805_BT805_4_3_4,Length=0.025070000,Units=km
new line.1178813 bus1=BBT1274342.1.2.3.0,bus2=BBT1274363.1.2.3.0,Phases=3,Linecode=BT107_BT106_7_3_1,Length=0.039067000,Units=km
new line.1178820 bus1=BBT1274349.1.2.3.0,bus2=BBT1274328.1.2.3.0,Phases=3,Linecode=BT107_BT106_7_3_1,Length=0.035356000,Units=km
new line.1178827 bus1=BBT1274356.1.2.3.0,bus2=BBT1274349.1.2.3.0,Phases=3,Linecode=BT107_BT106_7_3_1,Length=0.045637000,Units=km
new line.1178834 bus1=BBT1274356.1.2.3.0,bus2=BBT1274370.1.2.3.0,Phases=3,Linecode=BT107_BT106_7_3_1,Length=0.031919000,Units=km
new line.1178841 bus1=BBT1274356.1.2.3.0,bus2=BBT1274377.1.2.3.0,Phases=3,Linecode=BT805_BT805_4_3_4,Length=0.023864000,Units=km
new line.1178848 bus1=BBT1274363.1.2.3.0,bus2=BBT1274391.1.2.3.0,Phases=3,Linecode=BT107_BT106_7_3_1,Length=0.035186000,Units=km
new line.1178855 bus1=BBT1274370.1.2.3.0,bus2=BBT1274384.1.2.3.0,Phases=3,Linecode=BT107_BT106_7_3_1,Length=0.031398000,Units=km
new line.1178869 bus1=BBT1274384.1.2.3.0,bus2=BBT1274398.1.2.3.0,Phases=3,Linecode=BT107_BT106_7_3_1,Length=0.031077000,Units=km
new line.1178876 bus1=BBT1274405.1.2.3.0,bus2=BBT1274412.1.2.3.0,Phases=3,Linecode=BT803_BT803_4_3_4,Length=0.041357000,Units=km
new line.1178883 bus1=BBT1274412.1.2.3.0,bus2=BBT171350584.1.2.3.0,Phases=3,Linecode=BT803_BT803_4_3_4,Length=0.005834000,Units=km
new line.1178890 bus1=BBT1274426.1.2.3.0,bus2=BBT1274566.1.2.3.0,Phases=3,Linecode=BT803_BT803_4_3_4,Length=0.017472000,Units=km
new line.1178897 bus1=BBT1274426.1.2.3.0,bus2=BBT1274573.1.2.3.0,Phases=3,Linecode=BT810_BT810_4_3_4,Length=0.033315000,Units=km
new line.1178904 bus1=BBT1274440.1.2.3.0,bus2=BBT1274447.1.2.3.0,Phases=3,Linecode=BT803_BT803_4_3_4,Length=0.005102000,Units=km
new line.1178911 bus1=BBT1274447.1.2.3.0,bus2=BBT1274433.1.2.3.0,Phases=3,Linecode=BT803_BT803_4_3_4,Length=0.009060000,Units=km
new line.1178918 bus1=BBT1274447.1.2.3.0,bus2=BBT1274426.1.2.3.0,Phases=3,Linecode=BT803_BT803_4_3_4,Length=0.040278000,Units=km
new line.1178925 bus1=BBT1274447.1.2.3.0,bus2=BBT1274475.1.2.3.0,Phases=3,Linecode=BT803_BT803_4_3_4,Length=0.021596000,Units=km
new line.1178932 bus1=BBT1274454.1.2.3.0,bus2=BBT1274440.1.2.3.0,Phases=3,Linecode=BT803_BT803_4_3_4,Length=0.034943000,Units=km
new line.1178939 bus1=BBT1274419.1.2.3.0,bus2=BBT1274454.1.2.3.0,Phases=3,Linecode=BT521_BT521_7_3_1,Length=0.000501000,Units=km
new line.1178946 bus1=BBT1274454.1.2.3.0,bus2=BBT1274468.1.2.3.0,Phases=3,Linecode=BT803_BT803_4_3_4,Length=0.041248000,Units=km
new line.1178953 bus1=BBT1274468.1.2.3.0,bus2=BBT1274482.1.2.3.0,Phases=3,Linecode=BT803_BT803_4_3_4,Length=0.032770000,Units=km
new line.1178960 bus1=BBT1274475.1.2.3.0,bus2=BBT1274503.1.2.3.0,Phases=3,Linecode=BT803_BT803_4_3_4,Length=0.017728000,Units=km
new line.1178967 bus1=BBT1274482.1.2.3.0,bus2=BBT1274510.1.2.3.0,Phases=3,Linecode=BT803_BT803_4_3_4,Length=0.015531000,Units=km
new line.1178974 bus1=BBT1274489.1.2.3.0,bus2=BBT1274461.1.2.3.0,Phases=3,Linecode=BT803_BT803_4_3_4,Length=0.040041000,Units=km
new line.1178981 bus1=BBT1274496.1.2.3.0,bus2=BBT1274489.1.2.3.0,Phases=3,Linecode=BT803_BT803_4_3_4,Length=0.050469000,Units=km
new line.1178988 bus1=BBT1274503.1.2.3.0,bus2=BBT1274531.1.2.3.0,Phases=3,Linecode=BT803_BT803_4_3_4,Length=0.036154000,Units=km
new line.1178995 bus1=BBT1274510.1.2.3.0,bus2=BBT1274496.1.2.3.0,Phases=3,Linecode=BT803_BT803_4_3_4,Length=0.007619000,Units=km
new line.1179002 bus1=BBT1274510.1.2.3.0,bus2=BBT1274517.1.2.3.0,Phases=3,Linecode=BT803_BT803_4_3_4,Length=0.022571000,Units=km
new line.1179009 bus1=BBT1274510.1.2.3.0,bus2=BBT1274524.1.2.3.0,Phases=3,Linecode=BT803_BT803_4_3_4,Length=0.021222000,Units=km
new line.1179016 bus1=BBT1274524.1.2.3.0,bus2=BBT1274538.1.2.3.0,Phases=3,Linecode=BT803_BT803_4_3_4,Length=0.031588000,Units=km
new line.1179023 bus1=BBT1274531.1.2.3.0,bus2=BBT1274545.1.2.3.0,Phases=3,Linecode=BT803_BT803_4_3_4,Length=0.041248000,Units=km
new line.1179030 bus1=BBT1274538.1.2.3.0,bus2=BBT1274552.1.2.3.0,Phases=3,Linecode=BT803_BT803_4_3_4,Length=0.023547000,Units=km
new line.1179037 bus1=BBT1274552.1.2.3.0,bus2=BBT1274559.1.2.3.0,Phases=3,Linecode=BT803_BT803_4_3_4,Length=0.028455000,Units=km
new line.1179044 bus1=BBT1274601.1.2.3.0,bus2=BBT1274587.1.2.3.0,Phases=3,Linecode=BT107_BT106_7_3_1,Length=0.030029000,Units=km
new line.1179051 bus1=BBT1274608.1.2.3.0,bus2=BBT1274601.1.2.3.0,Phases=3,Linecode=BT107_BT106_7_3_1,Length=0.031919000,Units=km
new line.1179058 bus1=BBT1274615.1.2.3.0,bus2=BBT1274594.1.2.3.0,Phases=3,Linecode=BT107_BT106_7_3_1,Length=0.034727000,Units=km
new line.1179065 bus1=BBT1274615.1.2.3.0,bus2=BBT1274636.1.2.3.0,Phases=3,Linecode=BT107_BT106_7_3_1,Length=0.031061000,Units=km
new line.1179072 bus1=BBT1274615.1.2.3.0,bus2=BBT1274608.1.2.3.0,Phases=3,Linecode=BT107_BT106_7_3_1,Length=0.035862000,Units=km
new line.1179079 bus1=BBT1274622.1.2.3.0,bus2=BBT1274615.1.2.3.0,Phases=3,Linecode=BT108_BT107_7_3_1,Length=0.021941000,Units=km
new line.1179086 bus1=BBT1274629.1.2.3.0,bus2=BBT1274622.1.2.3.0,Phases=3,Linecode=BT108_BT107_7_3_1,Length=0.037752000,Units=km
new line.1179093 bus1=BBT1274580.1.2.3.0,bus2=BBT1274629.1.2.3.0,Phases=3,Linecode=BT521_BT521_7_3_1,Length=0.000501000,Units=km
new line.1179100 bus1=BBT1274629.1.2.3.0,bus2=BBT1274650.1.2.3.0,Phases=3,Linecode=BT108_BT107_7_3_1,Length=0.035862000,Units=km
new line.1179107 bus1=BBT1274650.1.2.3.0,bus2=BBT1274657.1.2.3.0,Phases=3,Linecode=BT108_BT107_7_3_1,Length=0.035000000,Units=km
new line.1179114 bus1=BBT1274657.1.2.3.0,bus2=BBT1274643.1.2.3.0,Phases=3,Linecode=BT107_BT106_7_3_1,Length=0.029845000,Units=km
new line.1179121 bus1=BBT1274657.1.2.3.0,bus2=BBT1274664.1.2.3.0,Phases=3,Linecode=BT108_BT107_7_3_1,Length=0.037231000,Units=km
new line.1179128 bus1=BBT1274685.1.2.0,bus2=BBT1274678.1.2.0,Phases=2,Linecode=BT107_BT106_7_2_1,Length=0.032293000,Units=km
new line.1179135 bus1=BBT1274692.1.2.3.0,bus2=BBT1274685.1.2.3.0,Phases=3,Linecode=BT107_BT106_7_3_1,Length=0.038616000,Units=km
new line.1175971 bus1=BBT1271402.1.2.3.0,bus2=BBT1271416.1.2.3.0,Phases=3,Linecode=BT803_BT803_4_3_4,Length=0.037499000,Units=km