new load.3000408796M1 bus1=RML1051787484.1.2.3.0,Phases=3,kv=0.22,kW=1.71164,pf=0.92,Vminpu=0.92,Vmaxpu=1.5,model=8,zipv=[0.5,0,0.5,1,0,0,0],daily=COM3_9,status=variable
new load.3000408797M1 bus1=RML1051787491.3.0,Phases=1,kv=0.127,kW=1.37764,pf=0.92,Vminpu=0.92,Vmaxpu=1.5,model=8,zipv=[0.5,0,0.5,1,0,0,0],daily=RES1_5,status=variable
new load.3000408798M1 bus1=RML1051787498.3.0,Phases=1,kv=0.127,kW=0.09618,pf=0.92,Vminpu=0.92,Vmaxpu=1.5,model=8,zipv=[0.5,0,0.5,1,0,0,0],daily=COM1_11,status=variable
new load.3000408799M1 bus1=RML1051787505.2.3.0,Phases=2,kv=0.22,kW=1.15096,pf=0.92,Vminpu=0.92,Vmaxpu=1.5,model=8,zipv=[0.5,0,0.5,1,0,0,0],daily=RES2_6,status=variable
new load.3000408803M1 bus1=RML1051787547.2.3.0,Phases=2,kv=0.22,kW=0.60676,pf=0.92,Vminpu=0.92,Vmaxpu=1.5,model=8,zipv=[0.5,0,0.5,1,0,0,0],daily=RES2_6,status=variable
new load.3000408804M1 bus1=RML1051787554.1.3.0,Phases=2,kv=0.22,kW=0.2342,pf=0.92,Vminpu=0.92,Vmaxpu=1.5,model=8,zipv=[0.5,0,0.5,1,0,0,0],daily=COM1_11,status=variable
new load.3000408805M1 bus1=RML1051790690.1.2.3.0,Phases=3,kv=0.22,kW=1.1044,pf=0.92,Vminpu=0.92,Vmaxpu=1.5,model=8,zipv=[0.5,0,0.5,1,0,0,0],daily=COM2_10,status=variable
new load.3000408808M1 bus1=RML1051790732.3.0,Phases=1,kv=0.127,kW=0.5878,pf=0.92,Vminpu=0.92,Vmaxpu=1.5,model=8,zipv=[0.5,0,0.5,1,0,0,0],daily=RES1_5,status=variable
new load.3000408809M1 bus1=RML1051790753.2.0,Phases=1,kv=0.127,kW=0.64428,pf=0.92,Vminpu=0.92,Vmaxpu=1.5,model=8,zipv=[0.5,0,0.5,1,0,0,0],daily=RES2_6,status=variable
new load.3000408810M1 bus1=RML1060964486.1.2.3.0,Phases=3,kv=0.22,kW=1.63222,pf=0.92,Vminpu=0.92,Vmaxpu=1.5,model=8,zipv=[0.5,0,0.5,1,0,0,0],daily=RES6_10,status=variable
new load.3000408811M1 bus1=RML1051790802.1.2.0,Phases=2,kv=0.22,kW=0.33874,pf=0.92,Vminpu=0.92,Vmaxpu=1.5,model=8,zipv=[0.5,0,0.5,1,0,0,0],daily=COM1_11,status=variable
new load.3000408812M1 bus1=RML1051790809.1.2.0,Phases=2,kv=0.22,kW=0.06274,pf=0.92,Vminpu=0.92,Vmaxpu=1.5,model=8,zipv=[0.5,0,0.5,1,0,0,0],daily=COM1_11,status=variable
new load.3000408813M1 bus1=RML1051790886.1.0,Phases=1,kv=0.127,kW=0.28438,pf=0.92,Vminpu=0.92,Vmaxpu=1.5,model=8,zipv=[0.5,0,0.5,1,0,0,0],daily=COM1_11,status=variable
new load.3000408817M1 bus1=RML1051815554.2.3.0,Phases=2,kv=0.22,kW=1.1301,pf=0.92,Vminpu=0.92,Vmaxpu=1.5,model=8,zipv=[0.5,0,0.5,1,0,0,0],daily=RES3_7,status=variable
new load.3000408818M1 bus1=RML1051815547.3.0,Phases=1,kv=0.127,kW=0.35966,pf=0.92,Vminpu=0.92,Vmaxpu=1.5,model=8,zipv=[0.5,0,0.5,1,0,0,0],daily=COM1_11,status=variable
new load.3000408819M1 bus1=RML1051815547.3.0,Phases=1,kv=0.127,kW=0.38056,pf=0.92,Vminpu=0.92,Vmaxpu=1.5,model=8,zipv=[0.5,0,0.5,1,0,0,0],daily=COM1_11,status=variable
new load.3000408821M1 bus1=RML1051790928.1.2.3.0,Phases=3,kv=0.22,kW=3.3444,pf=0.92,Vminpu=0.92,Vmaxpu=1.5,model=8,zipv=[0.5,0,0.5,1,0,0,0],daily=COM3_9,status=variable
new load.3000408822M1 bus1=RML1051790900.2.0,Phases=1,kv=0.127,kW=0.74436,pf=0.92,Vminpu=0.92,Vmaxpu=1.5,model=8,zipv=[0.5,0,0.5,1,0,0,0],daily=RES2_6,status=variable
new load.3000408824M1 bus1=RML1051790746.1.2.0,Phases=2,kv=0.22,kW=0.59992,pf=0.92,Vminpu=0.92,Vmaxpu=1.5,model=8,zipv=[0.5,0,0.5,1,0,0,0],daily=RES3_7,status=variable
new load.3000408825M1 bus1=RML1051790746.1.2.0,Phases=2,kv=0.22,kW=0.35966,pf=0.92,Vminpu=0.92,Vmaxpu=1.5,model=8,zipv=[0.5,0,0.5,1,0,0,0],daily=COM1_11,status=variable
new load.3000408826M1 bus1=RML1051790746.1.2.0,Phases=2,kv=0.22,kW=1.75792,pf=0.92,Vminpu=0.92,Vmaxpu=1.5,model=8,zipv=[0.5,0,0.5,1,0,0,0],daily=RES3_7,status=variable
new load.3000408827M1 bus1=RML1051790879.1.2.3.0,Phases=3,kv=0.22,kW=2.49096,pf=0.92,Vminpu=0.92,Vmaxpu=1.5,model=8,zipv=[0.5,0,0.5,1,0,0,0],daily=COM3_9,status=variable
new load.3000408828M1 bus1=RML1051994040.1.0,Phases=1,kv=0.127,kW=0.11022,pf=0.92,Vminpu=0.92,Vmaxpu=1.5,model=8,zipv=[0.5,0,0.5,1,0,0,0],daily=RES1_5,status=variable
new load.3000408829M1 bus1=RML1051994047.2.3.0,Phases=2,kv=0.22,kW=0.51432,pf=0.92,Vminpu=0.92,Vmaxpu=1.5,model=8,zipv=[0.5,0,0.5,1,0,0,0],daily=RES1_5,status=variable
new load.3000408830M1 bus1=RML1053151091.1.2.3.0,Phases=3,kv=0.22,kW=0.70058,pf=0.92,Vminpu=0.92,Vmaxpu=1.5,model=8,zipv=[0.5,0,0.5,1,0,0,0],daily=RES2_6,status=variable
new load.3000408831M1 bus1=RML1051994033.1.2.0,Phases=2,kv=0.22,kW=1.72562,pf=0.92,Vminpu=0.92,Vmaxpu=1.5,model=8,zipv=[0.5,0,0.5,1,0,0,0],daily=RES5_8,status=variable
new load.3000408832M1 bus1=RML1051790872.1.2.3.0,Phases=3,kv=0.22,kW=0.5353,pf=0.92,Vminpu=0.92,Vmaxpu=1.5,model=8,zipv=[0.5,0,0.5,1,0,0,0],daily=COM1_11,status=variable
new load.3000408837M1 bus1=RML1051790788.1.2.3.0,Phases=3,kv=0.22,kW=1.3329,pf=0.92,Vminpu=0.92,Vmaxpu=1.5,model=8,zipv=[0.5,0,0.5,1,0,0,0],daily=COM2_10,status=variable
new load.3000408839M1 bus1=RML1051790739.1.2.0,Phases=2,kv=0.22,kW=0.91952,pf=0.92,Vminpu=0.92,Vmaxpu=1.5,model=8,zipv=[0.5,0,0.5,1,0,0,0],daily=RES2_6,status=variable
new load.3000408840M1 bus1=RML1051790704.1.2.0,Phases=2,kv=0.22,kW=1.27972,pf=0.92,Vminpu=0.92,Vmaxpu=1.5,model=8,zipv=[0.5,0,0.5,1,0,0,0],daily=COM1_11,status=variable
new load.3000408841M1 bus1=RML1051790711.2.0,Phases=1,kv=0.127,kW=0.43076,pf=0.92,Vminpu=0.92,Vmaxpu=1.5,model=8,zipv=[0.5,0,0.5,1,0,0,0],daily=COM1_11,status=variable
new load.3000408842M1 bus1=RML1051790718.1.2.3.0,Phases=3,kv=0.22,kW=0.61894,pf=0.92,Vminpu=0.92,Vmaxpu=1.5,model=8,zipv=[0.5,0,0.5,1,0,0,0],daily=COM1_11,status=variable
new load.3000408843M1 bus1=RML1051790725.1.2.3.0,Phases=3,kv=0.22,kW=0.80822,pf=0.92,Vminpu=0.92,Vmaxpu=1.5,model=8,zipv=[0.5,0,0.5,1,0,0,0],daily=RES1_5,status=variable
new load.3000408844M1 bus1=RML1051993823.1.0,Phases=1,kv=0.127,kW=0.74436,pf=0.92,Vminpu=0.92,Vmaxpu=1.5,model=8,zipv=[0.5,0,0.5,1,0,0,0],daily=RES2_6,status=variable
new load.3000408845M1 bus1=RML1051993830.2.0,Phases=1,kv=0.127,kW=1.1301,pf=0.92,Vminpu=0.92,Vmaxpu=1.5,model=8,zipv=[0.5,0,0.5,1,0,0,0],daily=RES3_7,status=variable
new load.3000408846M1 bus1=RML1051993844.1.0,Phases=1,kv=0.127,kW=0.55046,pf=0.92,Vminpu=0.92,Vmaxpu=1.5,model=8,zipv=[0.5,0,0.5,1,0,0,0],daily=RES2_6,status=variable
new load.3000408847M1 bus1=RML1051993886.2.0,Phases=1,kv=0.127,kW=1.37764,pf=0.92,Vminpu=0.92,Vmaxpu=1.5,model=8,zipv=[0.5,0,0.5,1,0,0,0],daily=RES1_5,status=variable
new load.3000408848M1 bus1=RML1051993879.1.0,Phases=1,kv=0.127,kW=0.86948,pf=0.92,Vminpu=0.92,Vmaxpu=1.5,model=8,zipv=[0.5,0,0.5,1,0,0,0],daily=RES2_6,status=variable
new load.3000408849M1 bus1=RML1051993872.2.0,Phases=1,kv=0.127,kW=1.2417,pf=0.92,Vminpu=0.92,Vmaxpu=1.5,model=8,zipv=[0.5,0,0.5,1,0,0,0],daily=RES3_7,status=variable
new load.3000408850M1 bus1=RML1051993900.2.0,Phases=1,kv=0.127,kW=0.88824,pf=0.92,Vminpu=0.92,Vmaxpu=1.5,model=8,zipv=[0.5,0,0.5,1,0,0,0],daily=RES2_6,status=variable
new load.3000408851M1 bus1=RML1051993907.1.0,Phases=1,kv=0.127,kW=0.81318,pf=0.92,Vminpu=0.92,Vmaxpu=1.5,model=8,zipv=[0.5,0,0.5,1,0,0,0],daily=RES2_6,status=variable
new load.3000408852M1 bus1=RML1051993935.1.2.3.0,Phases=3,kv=0.22,kW=2.70964,pf=0.92,Vminpu=0.92,Vmaxpu=1.5,model=8,zipv=[0.5,0,0.5,1,0,0,0],daily=RES4_9,status=variable
new load.3000408853M1 bus1=RML1051994054.1.2.0,Phases=2,kv=0.22,kW=1.5641,pf=0.92,Vminpu=0.92,Vmaxpu=1.5,model=8,zipv=[0.5,0,0.5,1,0,0,0],daily=COM1_11,status=variable
new load.3000408855M1 bus1=RML1051994068.1.0,Phases=1,kv=0.127,kW=1.00708,pf=0.92,Vminpu=0.92,Vmaxpu=1.5,model=8,zipv=[0.5,0,0.5,1,0,0,0],daily=RES2_6,status=variable
new load.3000408856M1 bus1=RML1051994089.1.2.0,Phases=2,kv=0.22,kW=3.47164,pf=0.92,Vminpu=0.92,Vmaxpu=1.5,model=8,zipv=[0.5,0,0.5,1,0,0,0],daily=RES1_5,status=variable
new load.3000408859M1 bus1=RML1051815575.2.0,Phases=1,kv=0.127,kW=0.73812,pf=0.92,Vminpu=0.92,Vmaxpu=1.5,model=8,zipv=[0.5,0,0.5,1,0,0,0],daily=RES2_6,status=variable
new load.3000408860M1 bus1=RML1051815582.2.3.0,Phases=2,kv=0.22,kW=1.60446,pf=0.92,Vminpu=0.92,Vmaxpu=1.5,model=8,zipv=[0.5,0,0.5,1,0,0,0],daily=RES3_7,status=variable
new load.3000408862M1 bus1=RML1051815533.2.0,Phases=1,kv=0.127,kW=0.50042,pf=0.92,Vminpu=0.92,Vmaxpu=1.5,model=8,zipv=[0.5,0,0.5,1,0,0,0],daily=RES2_6,status=variable
new load.3000408864M1 bus1=RML1051993970.3.0,Phases=1,kv=0.127,kW=2.80026,pf=0.92,Vminpu=0.92,Vmaxpu=1.5,model=8,zipv=[0.5,0,0.5,1,0,0,0],daily=RES4_9,status=variable
new load.3000408866M1 bus1=RML1051993963.1.2.3.0,Phases=3,kv=0.22,kW=2.41414,pf=0.92,Vminpu=0.92,Vmaxpu=1.5,model=8,zipv=[0.5,0,0.5,1,0,0,0],daily=RES5_8,status=variable
new load.3000408869M1 bus1=RML1051993998.3.0,Phases=1,kv=0.127,kW=0.6568,pf=0.92,Vminpu=0.92,Vmaxpu=1.5,model=8,zipv=[0.5,0,0.5,1,0,0,0],daily=RES2_6,status=variable
new load.3000408870M1 bus1=RML1051993991.1.2.0,Phases=2,kv=0.22,kW=3.93306,pf=0.92,Vminpu=0.92,Vmaxpu=1.5,model=8,zipv=[0.5,0,0.5,1,0,0,0],daily=RES4_9,status=variable
new load.3000408874M1 bus1=RML1051993921.3.0,Phases=1,kv=0.127,kW=1.50622,pf=0.92,Vminpu=0.92,Vmaxpu=1.5,model=8,zipv=[0.5,0,0.5,1,0,0,0],daily=RES1_5,status=variable
new load.3000408875M1 bus1=RML1051993914.3.0,Phases=1,kv=0.127,kW=1.39518,pf=0.92,Vminpu=0.92,Vmaxpu=1.5,model=8,zipv=[0.5,0,0.5,1,0,0,0],daily=RES3_7,status=variable
new load.3000408876M1 bus1=RML1051993865.3.0,Phases=1,kv=0.127,kW=1.2698,pf=0.92,Vminpu=0.92,Vmaxpu=1.5,model=8,zipv=[0.5,0,0.5,1,0,0,0],daily=RES2_6,status=variable
new load.3000408877M1 bus1=RML1051993893.1.2.0,Phases=2,kv=0.22,kW=0.6568,pf=0.92,Vminpu=0.92,Vmaxpu=1.5,model=8,zipv=[0.5,0,0.5,1,0,0,0],daily=RES2_6,status=variable
new load.3000408878M1 bus1=RML1051993837.1.3.0,Phases=2,kv=0.22,kW=0.28774,pf=0.92,Vminpu=0.92,Vmaxpu=1.5,model=8,zipv=[0.5,0,0.5,1,0,0,0],daily=RES2_6,status=variable
new load.3000408879M1 bus1=RML1051993851.2.3.0,Phases=2,kv=0.22,kW=1.88054,pf=0.92,Vminpu=0.92,Vmaxpu=1.5,model=8,zipv=[0.5,0,0.5,1,0,0,0],daily=RES5_8,status=variable
new load.3000408880M1 bus1=RML1051785769.3.0,Phases=1,kv=0.127,kW=0.71154,pf=0.92,Vminpu=0.92,Vmaxpu=1.5,model=8,zipv=[0.5,0,0.5,1,0,0,0],daily=RES3_7,status=variable
new load.3000408883M1 bus1=RML1061042498.1.2.0,Phases=2,kv=0.22,kW=1.16498,pf=0.92,Vminpu=0.92,Vmaxpu=1.5,model=8,zipv=[0.5,0,0.5,1,0,0,0],daily=RES3_7,status=variable
new load.3000408886M1 bus1=RML1051792734.1.2.0,Phases=2,kv=0.24,kW=2.15594,pf=0.92,Vminpu=0.92,Vmaxpu=1.5,model=8,zipv=[0.5,0,0.5,1,0,0,0],daily=RES5_8,status=variable
new load.3000408887M1 bus1=RML1051792783.1.0,Phases=1,kv=0.12,kW=0.93202,pf=0.92,Vminpu=0.92,Vmaxpu=1.5,model=8,zipv=[0.5,0,0.5,1,0,0,0],daily=RES2_6,status=variable
new load.3000408888M1 bus1=RML1051792944.2.0,Phases=1,kv=0.12,kW=1.89744,pf=0.92,Vminpu=0.92,Vmaxpu=1.5,model=8,zipv=[0.5,0,0.5,1,0,0,0],daily=RES3_7,status=variable
new load.3000408889M1 bus1=RML1051792944.2.0,Phases=1,kv=0.12,kW=0.7256,pf=0.92,Vminpu=0.92,Vmaxpu=1.5,model=8,zipv=[0.5,0,0.5,1,0,0,0],daily=RES2_6,status=variable
new load.3000408890M1 bus1=RML1051792930.2.0,Phases=1,kv=0.12,kW=0.88168,pf=0.92,Vminpu=0.92,Vmaxpu=1.5,model=8,zipv=[0.5,0,0.5,1,0,0,0],daily=RES1_5,status=variable
new load.3000408891M1 bus1=RML1051792923.2.0,Phases=1,kv=0.12,kW=1.54168,pf=0.92,Vminpu=0.92,Vmaxpu=1.5,model=8,zipv=[0.5,0,0.5,1,0,0,0],daily=RES3_7,status=variable
new load.3000408892M1 bus1=RML1051792909.1.0,Phases=1,kv=0.12,kW=0.7531,pf=0.92,Vminpu=0.92,Vmaxpu=1.5,model=8,zipv=[0.5,0,0.5,1,0,0,0],daily=RES1_5,status=variable
new load.3000408893M1 bus1=RML1051792965.2.0,Phases=1,kv=0.12,kW=0.9919,pf=0.92,Vminpu=0.92,Vmaxpu=1.5,model=8,zipv=[0.5,0,0.5,1,0,0,0],daily=RES1_5,status=variable
new load.3000408894M1 bus1=RML1051792972.2.0,Phases=1,kv=0.12,kW=0.60676,pf=0.92,Vminpu=0.92,Vmaxpu=1.5,model=8,zipv=[0.5,0,0.5,1,0,0,0],daily=RES2_6,status=variable
new load.3000408896M1 bus1=RML1051793000.1.0,Phases=1,kv=0.12,kW=0.6693,pf=0.92,Vminpu=0.92,Vmaxpu=1.5,model=8,zipv=[0.5,0,0.5,1,0,0,0],daily=RES2_6,status=variable
new load.3000408897M1 bus1=RML1051814210.2.0,Phases=1,kv=0.127,kW=1.09466,pf=0.92,Vminpu=0.92,Vmaxpu=1.5,model=8,zipv=[0.5,0,0.5,1,0,0,0],daily=RES2_6,status=variable
new load.3000408898M1 bus1=RML1051814217.1.0,Phases=1,kv=0.127,kW=0.77564,pf=0.92,Vminpu=0.92,Vmaxpu=1.5,model=8,zipv=[0.5,0,0.5,1,0,0,0],daily=RES2_6,status=variable
new load.3000408900M1 bus1=RML1051814196.2.0,Phases=1,kv=0.127,kW=0.6693,pf=0.92,Vminpu=0.92,Vmaxpu=1.5,model=8,zipv=[0.5,0,0.5,1,0,0,0],daily=RES2_6,status=variable
new load.3000408901M1 bus1=RML1053195492.2.0,Phases=1,kv=0.127,kW=1.30416,pf=0.92,Vminpu=0.92,Vmaxpu=1.5,model=8,zipv=[0.5,0,0.5,1,0,0,0],daily=RES1_5,status=variable
new load.3000408902M1 bus1=RML1051792979.2.0,Phases=1,kv=0.12,kW=1.396,pf=0.92,Vminpu=0.92,Vmaxpu=1.5,model=8,zipv=[0.5,0,0.5,1,0,0,0],daily=RES1_5,status=variable
new load.3000408903M1 bus1=RML1051792888.1.0,Phases=1,kv=0.12,kW=2.18346,pf=0.92,Vminpu=0.92,Vmaxpu=1.5,model=8,zipv=[0.5,0,0.5,1,0,0,0],daily=RES3_7,status=variable
new load.3000408904M1 bus1=RML1051792902.1.0,Phases=1,kv=0.12,kW=1.57968,pf=0.92,Vminpu=0.92,Vmaxpu=1.5,model=8,zipv=[0.5,0,0.5,1,0,0,0],daily=RES1_5,status=variable
new load.3000408905M1 bus1=RML1051792895.1.0,Phases=1,kv=0.12,kW=0.73812,pf=0.92,Vminpu=0.92,Vmaxpu=1.5,model=8,zipv=[0.5,0,0.5,1,0,0,0],daily=RES2_6,status=variable
new load.3000408906M1 bus1=RML1051792916.1.0,Phases=1,kv=0.12,kW=0.80692,pf=0.92,Vminpu=0.92,Vmaxpu=1.5,model=8,zipv=[0.5,0,0.5,1,0,0,0],daily=RES2_6,status=variable
new load.3000408909M1 bus1=RML1051792839.1.0,Phases=1,kv=0.12,kW=0.61926,pf=0.92,Vminpu=0.92,Vmaxpu=1.5,model=8,zipv=[0.5,0,0.5,1,0,0,0],daily=RES2_6,status=variable
new load.3000408910M1 bus1=RML1051792825.1.0,Phases=1,kv=0.12,kW=1.48586,pf=0.92,Vminpu=0.92,Vmaxpu=1.5,model=8,zipv=[0.5,0,0.5,1,0,0,0],daily=RES3_7,status=variable
new load.3000408911M1 bus1=RML1051792818.2.0,Phases=1,kv=0.12,kW=0.39408,pf=0.92,Vminpu=0.92,Vmaxpu=1.5,model=8,zipv=[0.5,0,0.5,1,0,0,0],daily=RES2_6,status=variable
new load.3000408912M1 bus1=RML1051792832.2.0,Phases=1,kv=0.12,kW=0.6693,pf=0.92,Vminpu=0.92,Vmaxpu=1.5,model=8,zipv=[0.5,0,0.5,1,0,0,0],daily=RES2_6,status=variable
new load.3000408913M1 bus1=RML1051792846.2.0,Phases=1,kv=0.12,kW=1.58352,pf=0.92,Vminpu=0.92,Vmaxpu=1.5,model=8,zipv=[0.5,0,0.5,1,0,0,0],daily=RES3_7,status=variable
new load.3000408914M1 bus1=RML1051792853.1.2.0,Phases=2,kv=0.24,kW=1.97418,pf=0.92,Vminpu=0.92,Vmaxpu=1.5,model=8,zipv=[0.5,0,0.5,1,0,0,0],daily=RES3_7,status=variable
new load.3000408915M1 bus1=RML1053685023.2.0,Phases=1,kv=0.12,kW=1.12594,pf=0.92,Vminpu=0.92,Vmaxpu=1.5,model=8,zipv=[0.5,0,0.5,1,0,0,0],daily=RES2_6,status=variable
new load.3000408916M1 bus1=RML1051792860.1.2.0,Phases=2,kv=0.24,kW=0.97352,pf=0.92,Vminpu=0.92,Vmaxpu=1.5,model=8,zipv=[0.5,0,0.5,1,0,0,0],daily=RES1_5,status=variable
new load.3000408918M1 bus1=RML1060364752.1.0,Phases=1,kv=0.12,kW=1.05712,pf=0.92,Vminpu=0.92,Vmaxpu=1.5,model=8,zipv=[0.5,0,0.5,1,0,0,0],daily=RES2_6,status=variable
new load.3000408919M1 bus1=RML1051792776.2.0,Phases=1,kv=0.12,kW=0.78816,pf=0.92,Vminpu=0.92,Vmaxpu=1.5,model=8,zipv=[0.5,0,0.5,1,0,0,0],daily=RES2_6,status=variable
new load.3000408920M1 bus1=RML1051792748.1.0,Phases=1,kv=0.12,kW=1.82028,pf=0.92,Vminpu=0.92,Vmaxpu=1.5,model=8,zipv=[0.5,0,0.5,1,0,0,0],daily=RES5_8,status=variable
new load.3000408922M1 bus1=RML1051792713.2.0,Phases=1,kv=0.12,kW=1.3409,pf=0.92,Vminpu=0.92,Vmaxpu=1.5,model=8,zipv=[0.5,0,0.5,1,0,0,0],daily=RES1_5,status=variable
new load.3000408923M1 bus1=RML1051785832.1.2.3.0,Phases=3,kv=0.22,kW=0.613,pf=0.92,Vminpu=0.92,Vmaxpu=1.5,model=8,zipv=[0.5,0,0.5,1,0,0,0],daily=RES2_6,status=variable
new load.3000408925M1 bus1=RML1051785818.1.0,Phases=1,kv=0.127,kW=0.63804,pf=0.92,Vminpu=0.92,Vmaxpu=1.5,model=8,zipv=[0.5,0,0.5,1,0,0,0],daily=RES2_6,status=variable
new load.3000408926M1 bus1=RML1051785811.2.0,Phases=1,kv=0.127,kW=0.4754,pf=0.92,Vminpu=0.92,Vmaxpu=1.5,model=8,zipv=[0.5,0,0.5,1,0,0,0],daily=RES2_6,status=variable
new load.3000408927M1 bus1=RML1061011922.1.2.3.0,Phases=3,kv=0.22,kW=1.6348,pf=0.92,Vminpu=0.92,Vmaxpu=1.5,model=8,zipv=[0.5,0,0.5,1,0,0,0],daily=RES1_5,status=variable
new load.3000408928M1 bus1=RML1051785699.2.3.0,Phases=2,kv=0.22,kW=1.39518,pf=0.92,Vminpu=0.92,Vmaxpu=1.5,model=8,zipv=[0.5,0,0.5,1,0,0,0],daily=RES3_7,status=variable
new load.3000408930M1 bus1=RML1051785685.1.0,Phases=1,kv=0.127,kW=0.70058,pf=0.92,Vminpu=0.92,Vmaxpu=1.5,model=8,zipv=[0.5,0,0.5,1,0,0,0],daily=RES2_6,status=variable
new load.3000408932M1 bus1=RML1051785755.2.0,Phases=1,kv=0.127,kW=0.84446,pf=0.92,Vminpu=0.92,Vmaxpu=1.5,model=8,zipv=[0.5,0,0.5,1,0,0,0],daily=RES2_6,status=variable
new load.3000408933M1 bus1=RML1051785741.1.3.0,Phases=2,kv=0.22,kW=1.60446,pf=0.92,Vminpu=0.92,Vmaxpu=1.5,model=8,zipv=[0.5,0,0.5,1,0,0,0],daily=RES3_7,status=variable
new load.3000408935M1 bus1=RML1051785783.1.2.0,Phases=2,kv=0.22,kW=0.907,pf=0.92,Vminpu=0.92,Vmaxpu=1.5,model=8,zipv=[0.5,0,0.5,1,0,0,0],daily=RES2_6,status=variable
new load.3000408936M1 bus1=RML1051785762.1.2.3.0,Phases=3,kv=0.22,kW=3.5615,pf=0.92,Vminpu=0.92,Vmaxpu=1.5,model=8,zipv=[0.5,0,0.5,1,0,0,0],daily=RES4_9,status=variable
new load.3000408937M1 bus1=RML1051993816.1.0,Phases=1,kv=0.127,kW=0.03674,pf=0.92,Vminpu=0.92,Vmaxpu=1.5,model=8,zipv=[0.5,0,0.5,1,0,0,0],daily=RES1_5,status=variable
new load.3000408938M1 bus1=RML1051787610.2.0,Phases=1,kv=0.127,kW=3.36212,pf=0.92,Vminpu=0.92,Vmaxpu=1.5,model=8,zipv=[0.5,0,0.5,1,0,0,0],daily=RES4_9,status=variable
new load.3000408939M1 bus1=RML1051787603.1.2.3.0,Phases=3,kv=0.22,kW=1.67702,pf=0.92,Vminpu=0.92,Vmaxpu=1.5,model=8,zipv=[0.5,0,0.5,1,0,0,0],daily=COM1_11,status=variable
new load.3000408940M1 bus1=RML1051787596.1.2.0,Phases=2,kv=0.22,kW=0.3513,pf=0.92,Vminpu=0.92,Vmaxpu=1.5,model=8,zipv=[0.5,0,0.5,1,0,0,0],daily=COM1_11,status=variable
new load.3000408941M1 bus1=RML1051787596.1.2.0,Phases=2,kv=0.22,kW=0.36736,pf=0.92,Vminpu=0.92,Vmaxpu=1.5,model=8,zipv=[0.5,0,0.5,1,0,0,0],daily=RES1_5,status=variable
new load.3000408943M1 bus1=RML1051785482.1.2.3.0,Phases=3,kv=0.22,kW=1.35332,pf=0.92,Vminpu=0.92,Vmaxpu=1.5,model=8,zipv=[0.5,0,0.5,1,0,0,0],daily=RES3_7,status=variable
new load.3000408944M1 bus1=RML1051785482.1.2.3.0,Phases=3,kv=0.22,kW=0.74436,pf=0.92,Vminpu=0.92,Vmaxpu=1.5,model=8,zipv=[0.5,0,0.5,1,0,0,0],daily=RES2_6,status=variable
new load.3000408946M1 bus1=RML1051785489.1.2.0,Phases=2,kv=0.22,kW=1.90636,pf=0.92,Vminpu=0.92,Vmaxpu=1.5,model=8,zipv=[0.5,0,0.5,1,0,0,0],daily=RES5_8,status=variable
new load.3000408947M1 bus1=RML1051787575.1.2.0,Phases=2,kv=0.22,kW=2.09412,pf=0.92,Vminpu=0.92,Vmaxpu=1.5,model=8,zipv=[0.5,0,0.5,1,0,0,0],daily=COM3_9,status=variable
new load.3000408948M1 bus1=RML1051787568.2.3.0,Phases=2,kv=0.22,kW=0.27552,pf=0.92,Vminpu=0.92,Vmaxpu=1.5,model=8,zipv=[0.5,0,0.5,1,0,0,0],daily=RES1_5,status=variable
new load.3000408949M1 bus1=RML1051787568.2.3.0,Phases=2,kv=0.22,kW=1.58316,pf=0.92,Vminpu=0.92,Vmaxpu=1.5,model=8,zipv=[0.5,0,0.5,1,0,0,0],daily=COM2_10,status=variable
new load.3000408950M1 bus1=RML1051787512.2.0,Phases=1,kv=0.127,kW=0.58174,pf=0.92,Vminpu=0.92,Vmaxpu=1.5,model=8,zipv=[0.5,0,0.5,1,0,0,0],daily=RES2_6,status=variable
new load.3000408951M1 bus1=RML1051787519.1.2.3.0,Phases=3,kv=0.22,kW=0.9326,pf=0.92,Vminpu=0.92,Vmaxpu=1.5,model=8,zipv=[0.5,0,0.5,1,0,0,0],daily=COM1_11,status=variable
new load.3000408952M1 bus1=RML1051787526.1.3.0,Phases=2,kv=0.22,kW=0.57294,pf=0.92,Vminpu=0.92,Vmaxpu=1.5,model=8,zipv=[0.5,0,0.5,1,0,0,0],daily=COM1_11,status=variable
new load.3000408953M1 bus1=RML1051787533.3.0,Phases=1,kv=0.127,kW=3.25328,pf=0.92,Vminpu=0.92,Vmaxpu=1.5,model=8,zipv=[0.5,0,0.5,1,0,0,0],daily=RES5_8,status=variable
new load.3000408955M1 bus1=RML1051801890.2.0,Phases=1,kv=0.127,kW=0.56922,pf=0.92,Vminpu=0.92,Vmaxpu=1.5,model=8,zipv=[0.5,0,0.5,1,0,0,0],daily=RES2_6,status=variable
new load.3000408956M1 bus1=RML1051801939.1.2.3.0,Phases=3,kv=0.22,kW=0.63804,pf=0.92,Vminpu=0.92,Vmaxpu=1.5,model=8,zipv=[0.5,0,0.5,1,0,0,0],daily=RES2_6,status=variable
new load.3000408957M1 bus1=RML1051801918.3.0,Phases=1,kv=0.127,kW=0.46914,pf=0.92,Vminpu=0.92,Vmaxpu=1.5,model=8,zipv=[0.5,0,0.5,1,0,0,0],daily=RES2_6,status=variable
new load.3000408958M1 bus1=RML1051801925.1.0,Phases=1,kv=0.127,kW=0.35654,pf=0.92,Vminpu=0.92,Vmaxpu=1.5,model=8,zipv=[0.5,0,0.5,1,0,0,0],daily=RES2_6,status=variable
new load.3000408960M1 bus1=RML1051801960.3.0,Phases=1,kv=0.127,kW=1.01026,pf=0.92,Vminpu=0.92,Vmaxpu=1.5,model=8,zipv=[0.5,0,0.5,1,0,0,0],daily=RES1_5,status=variable
new load.3000408962M1 bus1=RML1051785328.1.0,Phases=1,kv=0.127,kW=1.54864,pf=0.92,Vminpu=0.92,Vmaxpu=1.5,model=8,zipv=[0.5,0,0.5,1,0,0,0],daily=RES3_7,status=variable
new load.3000408963M1 bus1=RML1051785342.2.0,Phases=1,kv=0.127,kW=0.61926,pf=0.92,Vminpu=0.92,Vmaxpu=1.5,model=8,zipv=[0.5,0,0.5,1,0,0,0],daily=RES2_6,status=variable
new load.3000408964M1 bus1=RML1051785349.3.0,Phases=1,kv=0.127,kW=0.36906,pf=0.92,Vminpu=0.92,Vmaxpu=1.5,model=8,zipv=[0.5,0,0.5,1,0,0,0],daily=RES2_6,status=variable
new load.3000408965M1 bus1=RML1051785391.2.0,Phases=1,kv=0.127,kW=0.71934,pf=0.92,Vminpu=0.92,Vmaxpu=1.5,model=8,zipv=[0.5,0,0.5,1,0,0,0],daily=RES2_6,status=variable
new load.3000408969M1 bus1=RML1051785608.2.3.0,Phases=2,kv=0.22,kW=2.44684,pf=0.92,Vminpu=0.92,Vmaxpu=1.5,model=8,zipv=[0.5,0,0.5,1,0,0,0],daily=RES4_9,status=variable
new load.3000408970M1 bus1=RML1051785622.1.0,Phases=1,kv=0.127,kW=0.43786,pf=0.92,Vminpu=0.92,Vmaxpu=1.5,model=8,zipv=[0.5,0,0.5,1,0,0,0],daily=RES2_6,status=variable
new load.3000408971M1 bus1=RML1051785594.1.0,Phases=1,kv=0.127,kW=1.11342,pf=0.92,Vminpu=0.92,Vmaxpu=1.5,model=8,zipv=[0.5,0,0.5,1,0,0,0],daily=RES2_6,status=variable
new load.3000408972M1 bus1=RML1051785580.2.0,Phases=1,kv=0.127,kW=0.9836,pf=0.92,Vminpu=0.92,Vmaxpu=1.5,model=8,zipv=[0.5,0,0.5,1,0,0,0],daily=RES3_7,status=variable
new load.3000408973M1 bus1=RML1051785664.1.0,Phases=1,kv=0.127,kW=0.5317,pf=0.92,Vminpu=0.92,Vmaxpu=1.5,model=8,zipv=[0.5,0,0.5,1,0,0,0],daily=RES2_6,status=variable
new load.3000408974M1 bus1=RML1051785713.2.0,Phases=1,kv=0.127,kW=0.67666,pf=0.92,Vminpu=0.92,Vmaxpu=1.5,model=8,zipv=[0.5,0,0.5,1,0,0,0],daily=RES3_7,status=variable
new load.3000408977M1 bus1=RML1051785587.2.0,Phases=1,kv=0.127,kW=1.18848,pf=0.92,Vminpu=0.92,Vmaxpu=1.5,model=8,zipv=[0.5,0,0.5,1,0,0,0],daily=RES2_6,status=variable
new load.3000408979M1 bus1=RML1051785615.3.0,Phases=1,kv=0.127,kW=1.40216,pf=0.92,Vminpu=0.92,Vmaxpu=1.5,model=8,zipv=[0.5,0,0.5,1,0,0,0],daily=RES3_7,status=variable
new load.3000408980M1 bus1=RML1051785552.2.0,Phases=1,kv=0.127,kW=0.63178,pf=0.92,Vminpu=0.92,Vmaxpu=1.5,model=8,zipv=[0.5,0,0.5,1,0,0,0],daily=RES2_6,status=variable
new load.3000408981M1 bus1=RML1051785545.3.0,Phases=1,kv=0.127,kW=0.70058,pf=0.92,Vminpu=0.92,Vmaxpu=1.5,model=8,zipv=[0.5,0,0.5,1,0,0,0],daily=RES2_6,status=variable
new load.3000408982M1 bus1=RML1051785538.3.0,Phases=1,kv=0.127,kW=0.96956,pf=0.92,Vminpu=0.92,Vmaxpu=1.5,model=8,zipv=[0.5,0,0.5,1,0,0,0],daily=RES2_6,status=variable
new load.3000408983M1 bus1=RML1051785531.2.0,Phases=1,kv=0.127,kW=0.86948,pf=0.92,Vminpu=0.92,Vmaxpu=1.5,model=8,zipv=[0.5,0,0.5,1,0,0,0],daily=RES2_6,status=variable
new load.3000408985M1 bus1=RML1051785454.2.0,Phases=1,kv=0.127,kW=0.41284,pf=0.92,Vminpu=0.92,Vmaxpu=1.5,model=8,zipv=[0.5,0,0.5,1,0,0,0],daily=RES2_6,status=variable
new load.3000408988M1 bus1=RML1051785447.1.0,Phases=1,kv=0.127,kW=0.5442,pf=0.92,Vminpu=0.92,Vmaxpu=1.5,model=8,zipv=[0.5,0,0.5,1,0,0,0],daily=RES2_6,status=variable
new load.3000408989M1 bus1=RML1051785440.2.0,Phases=1,kv=0.127,kW=1.06338,pf=0.92,Vminpu=0.92,Vmaxpu=1.5,model=8,zipv=[0.5,0,0.5,1,0,0,0],daily=RES2_6,status=variable
new load.3000408990M1 bus1=RML1051785433.1.0,Phases=1,kv=0.127,kW=0.74436,pf=0.92,Vminpu=0.92,Vmaxpu=1.5,model=8,zipv=[0.5,0,0.5,1,0,0,0],daily=RES2_6,status=variable
new load.3000408991M1 bus1=RML1051785398.1.3.0,Phases=2,kv=0.22,kW=1.04638,pf=0.92,Vminpu=0.92,Vmaxpu=1.5,model=8,zipv=[0.5,0,0.5,1,0,0,0],daily=RES3_7,status=variable
new load.3000408993M1 bus1=RML1051785335.2.0,Phases=1,kv=0.127,kW=0.95704,pf=0.92,Vminpu=0.92,Vmaxpu=1.5,model=8,zipv=[0.5,0,0.5,1,0,0,0],daily=RES2_6,status=variable
new load.3000408994M1 bus1=RML1051801974.1.2.3.0,Phases=3,kv=0.22,kW=2.91808,pf=0.92,Vminpu=0.92,Vmaxpu=1.5,model=8,zipv=[0.5,0,0.5,1,0,0,0],daily=RES4_9,status=variable
new load.3000408997M1 bus1=RML1051801897.1.0,Phases=1,kv=0.127,kW=0.3628,pf=0.92,Vminpu=0.92,Vmaxpu=1.5,model=8,zipv=[0.5,0,0.5,1,0,0,0],daily=RES2_6,status=variable
new load.3000408998M1 bus1=RML1051801827.2.0,Phases=1,kv=0.127,kW=0.80692,pf=0.92,Vminpu=0.92,Vmaxpu=1.5,model=8,zipv=[0.5,0,0.5,1,0,0,0],daily=RES2_6,status=variable
new load.3000408999M1 bus1=RML1051801841.2.0,Phases=1,kv=0.127,kW=1.12048,pf=0.92,Vminpu=0.92,Vmaxpu=1.5,model=8,zipv=[0.5,0,0.5,1,0,0,0],daily=RES1_5,status=variable
new load.3000409001M1 bus1=RML1051801855.1.0,Phases=1,kv=0.127,kW=0.58798,pf=0.92,Vminpu=0.92,Vmaxpu=1.5,model=8,zipv=[0.5,0,0.5,1,0,0,0],daily=RES2_6,status=variable
new load.3000409002M1 bus1=RML1051801813.2.0,Phases=1,kv=0.127,kW=0.20642,pf=0.92,Vminpu=0.92,Vmaxpu=1.5,model=8,zipv=[0.5,0,0.5,1,0,0,0],daily=RES2_6,status=variable
new load.3000409004M1 bus1=RML1051801862.2.0,Phases=1,kv=0.127,kW=1.17558,pf=0.92,Vminpu=0.92,Vmaxpu=1.5,model=8,zipv=[0.5,0,0.5,1,0,0,0],daily=RES1_5,status=variable
new load.3000409005M1 bus1=RML1051801848.1.0,Phases=1,kv=0.127,kW=0.2502,pf=0.92,Vminpu=0.92,Vmaxpu=1.5,model=8,zipv=[0.5,0,0.5,1,0,0,0],daily=RES2_6,status=variable
new load.3000409006M1 bus1=RML1051801834.1.2.0,Phases=2,kv=0.22,kW=1.86684,pf=0.92,Vminpu=0.92,Vmaxpu=1.5,model=8,zipv=[0.5,0,0.5,1,0,0,0],daily=RES4_9,status=variable
new load.3000409007M1 bus1=RML1051787456.3.0,Phases=1,kv=0.127,kW=0.55046,pf=0.92,Vminpu=0.92,Vmaxpu=1.5,model=8,zipv=[0.5,0,0.5,1,0,0,0],daily=RES2_6,status=variable
new load.3000409009M1 bus1=RML1051787442.1.2.3.0,Phases=3,kv=0.22,kW=0.73604,pf=0.92,Vminpu=0.92,Vmaxpu=1.5,model=8,zipv=[0.5,0,0.5,1,0,0,0],daily=COM1_11,status=variable
new load.3000409010M1 bus1=RML1051801785.3.0,Phases=1,kv=0.127,kW=0.77564,pf=0.92,Vminpu=0.92,Vmaxpu=1.5,model=8,zipv=[0.5,0,0.5,1,0,0,0],daily=RES2_6,status=variable
new load.3000409011M1 bus1=RML1051801806.1.0,Phases=1,kv=0.127,kW=0.74436,pf=0.92,Vminpu=0.92,Vmaxpu=1.5,model=8,zipv=[0.5,0,0.5,1,0,0,0],daily=RES2_6,status=variable
new load.3000409012M1 bus1=RML1051801883.1.0,Phases=1,kv=0.127,kW=0.46914,pf=0.92,Vminpu=0.92,Vmaxpu=1.5,model=8,zipv=[0.5,0,0.5,1,0,0,0],daily=RES2_6,status=variable
new load.3000409013M1 bus1=RML1051801883.1.0,Phases=1,kv=0.127,kW=0.19392,pf=0.92,Vminpu=0.92,Vmaxpu=1.5,model=8,zipv=[0.5,0,0.5,1,0,0,0],daily=RES2_6,status=variable
new load.3000409014M1 bus1=RML1051801876.2.3.0,Phases=2,kv=0.22,kW=2.89088,pf=0.92,Vminpu=0.92,Vmaxpu=1.5,model=8,zipv=[0.5,0,0.5,1,0,0,0],daily=RES4_9,status=variable
new load.3000409015M1 bus1=RML1051801792.1.0,Phases=1,kv=0.127,kW=0.55672,pf=0.92,Vminpu=0.92,Vmaxpu=1.5,model=8,zipv=[0.5,0,0.5,1,0,0,0],daily=RES2_6,status=variable
new load.3000409016M1 bus1=RML1051801778.1.0,Phases=1,kv=0.127,kW=0.81318,pf=0.92,Vminpu=0.92,Vmaxpu=1.5,model=8,zipv=[0.5,0,0.5,1,0,0,0],daily=RES2_6,status=variable
new load.3000409018M1 bus1=RML1051801736.3.0,Phases=1,kv=0.127,kW=1.11968,pf=0.92,Vminpu=0.92,Vmaxpu=1.5,model=8,zipv=[0.5,0,0.5,1,0,0,0],daily=RES2_6,status=variable
new load.3000409019M1 bus1=RML1051801743.1.0,Phases=1,kv=0.127,kW=0.56922,pf=0.92,Vminpu=0.92,Vmaxpu=1.5,model=8,zipv=[0.5,0,0.5,1,0,0,0],daily=RES2_6,status=variable
new load.3000409021M1 bus1=RML1051801750.3.0,Phases=1,kv=0.127,kW=0.69432,pf=0.92,Vminpu=0.92,Vmaxpu=1.5,model=8,zipv=[0.5,0,0.5,1,0,0,0],daily=RES2_6,status=variable
new load.3000409022M1 bus1=RML1051801708.1.2.3.0,Phases=3,kv=0.22,kW=0.56876,pf=0.92,Vminpu=0.92,Vmaxpu=1.5,model=8,zipv=[0.5,0,0.5,1,0,0,0],daily=COM1_11,status=variable
new load.3000409025M1 bus1=RML1055056106.1.0,Phases=1,kv=0.127,kW=0.50668,pf=0.92,Vminpu=0.92,Vmaxpu=1.5,model=8,zipv=[0.5,0,0.5,1,0,0,0],daily=RES2_6,status=variable
new load.3000409026M1 bus1=RML1051801638.2.0,Phases=1,kv=0.127,kW=1.00084,pf=0.92,Vminpu=0.92,Vmaxpu=1.5,model=8,zipv=[0.5,0,0.5,1,0,0,0],daily=RES2_6,status=variable
new load.3000409027M1 bus1=RML1051801631.1.2.0,Phases=2,kv=0.22,kW=0.613,pf=0.92,Vminpu=0.92,Vmaxpu=1.5,model=8,zipv=[0.5,0,0.5,1,0,0,0],daily=RES2_6,status=variable
new load.3000409029M1 bus1=RML1051801715.2.3.0,Phases=2,kv=0.22,kW=2.4101,pf=0.92,Vminpu=0.92,Vmaxpu=1.5,model=8,zipv=[0.5,0,0.5,1,0,0,0],daily=COM2_10,status=variable
new load.3000409035M1 bus1=RML1051801904.3.0,Phases=1,kv=0.127,kW=0.67556,pf=0.92,Vminpu=0.92,Vmaxpu=1.5,model=8,zipv=[0.5,0,0.5,1,0,0,0],daily=RES2_6,status=variable
new load.3000409036M1 bus1=RML1051801911.2.0,Phases=1,kv=0.127,kW=0.64428,pf=0.92,Vminpu=0.92,Vmaxpu=1.5,model=8,zipv=[0.5,0,0.5,1,0,0,0],daily=RES2_6,status=variable
new load.3000409037M1 bus1=RML1051785279.1.0,Phases=1,kv=0.127,kW=3.0812,pf=0.92,Vminpu=0.92,Vmaxpu=1.5,model=8,zipv=[0.5,0,0.5,1,0,0,0],daily=RES4_9,status=variable
new load.3000409038M1 bus1=RML1051785286.2.0,Phases=1,kv=0.127,kW=1.01334,pf=0.92,Vminpu=0.92,Vmaxpu=1.5,model=8,zipv=[0.5,0,0.5,1,0,0,0],daily=RES2_6,status=variable
new load.3000409039M1 bus1=RML1051785286.2.0,Phases=1,kv=0.127,kW=0.63804,pf=0.92,Vminpu=0.92,Vmaxpu=1.5,model=8,zipv=[0.5,0,0.5,1,0,0,0],daily=RES2_6,status=variable
new load.3000409040M1 bus1=RML1051785321.1.3.0,Phases=2,kv=0.22,kW=1.00084,pf=0.92,Vminpu=0.92,Vmaxpu=1.5,model=8,zipv=[0.5,0,0.5,1,0,0,0],daily=RES2_6,status=variable
new load.3000409043M1 bus1=RML1051785314.3.0,Phases=1,kv=0.127,kW=0.6693,pf=0.92,Vminpu=0.92,Vmaxpu=1.5,model=8,zipv=[0.5,0,0.5,1,0,0,0],daily=RES2_6,status=variable
new load.3000409044M1 bus1=RML1051785307.2.0,Phases=1,kv=0.127,kW=0.48166,pf=0.92,Vminpu=0.92,Vmaxpu=1.5,model=8,zipv=[0.5,0,0.5,1,0,0,0],daily=RES2_6,status=variable
new load.3000409045M1 bus1=RML1051785356.2.0,Phases=1,kv=0.127,kW=0.6693,pf=0.92,Vminpu=0.92,Vmaxpu=1.5,model=8,zipv=[0.5,0,0.5,1,0,0,0],daily=RES2_6,status=variable
new load.3000409046M1 bus1=RML1051785363.2.0,Phases=1,kv=0.127,kW=0.2388,pf=0.92,Vminpu=0.92,Vmaxpu=1.5,model=8,zipv=[0.5,0,0.5,1,0,0,0],daily=RES1_5,status=variable