! manter este comentario para compatibilidade do C#
new circuit.alimPRRU09 bus1=BMT124252741.1.2.3,basekv=13.800000000,pu=1.040000000

