new line.RML10040916 bus1=BBT145393693.2.3.0,bus2=RML1060040916.2.3.0,Phases=2,Linecode=CABBTG05_4_2,Length=0.017000000,Units=km
new line.RML10041593 bus1=BBT2842594.2.0,bus2=RML1060041593.2.0,Phases=1,Linecode=CABBTG01_4_1,Length=0.017000000,Units=km
new line.RML10041637 bus1=BBT3200735.3.0,bus2=RML1060041637.3.0,Phases=1,Linecode=CABBTG03_4_1,Length=0.017000000,Units=km
new line.RML10102200 bus1=BBT1279235.1.2.0,bus2=RML1060102200.1.2.0,Phases=2,Linecode=CABBTG05_4_2,Length=0.017000000,Units=km
new line.RML10102202 bus1=BBT1279235.1.2.0,bus2=RML1060102202.1.2.0,Phases=2,Linecode=CABBTG05_4_2,Length=0.017000000,Units=km
new line.RML10102403 bus1=BBT6541345.3.0,bus2=RML1060102403.3.0,Phases=1,Linecode=CABBTG02_4_1,Length=0.017000000,Units=km
new line.RML10149223 bus1=BBT2842685.1.0,bus2=RML1060149223.1.0,Phases=1,Linecode=CABBTG01_4_1,Length=0.017000000,Units=km
new line.RML10149586 bus1=BBT1287215.1.3.0,bus2=RML1060149586.1.3.0,Phases=2,Linecode=CABBTG05_4_2,Length=0.017000000,Units=km
new line.RML10151058 bus1=BBT65225647.2.0,bus2=RML1060151058.2.0,Phases=1,Linecode=CABBTG02_4_1,Length=0.017000000,Units=km
new line.RML10152135 bus1=BBT1272984.1.2.0,bus2=RML1060152135.1.2.0,Phases=2,Linecode=CABBTG05_4_2,Length=0.017000000,Units=km
new line.RML10180079 bus1=BBT1284128.1.0,bus2=RML1060180079.1.0,Phases=1,Linecode=CABBTG02_4_1,Length=0.017000000,Units=km
new line.RML10180489 bus1=BBT1284156.1.2.0,bus2=RML1060180489.1.2.0,Phases=2,Linecode=CABBTG05_4_2,Length=0.017000000,Units=km
new line.RML10180493 bus1=BBT1269239.2.3.0,bus2=RML1060180493.2.3.0,Phases=2,Linecode=CABBTG05_4_2,Length=0.017000000,Units=km
new line.RML10180494 bus1=BBT1279235.1.2.0,bus2=RML1060180494.1.2.0,Phases=2,Linecode=CABBTG05_4_2,Length=0.017000000,Units=km
new line.RML10180496 bus1=BBT1279235.1.2.0,bus2=RML1060180496.1.2.0,Phases=2,Linecode=CABBTG05_4_2,Length=0.017000000,Units=km
new line.RML10180499 bus1=BBT1279207.1.2.0,bus2=RML1060180499.1.2.0,Phases=2,Linecode=CABBTG05_4_2,Length=0.017000000,Units=km
new line.RML10180527 bus1=BBT1279207.1.2.0,bus2=RML1060180527.1.2.0,Phases=2,Linecode=CABBTG05_4_2,Length=0.017000000,Units=km
new line.RML10180832 bus1=BBT1278437.1.0,bus2=RML1060180832.1.0,Phases=1,Linecode=CABBTG02_4_1,Length=0.017000000,Units=km
new line.RML10181108 bus1=BBT1286627.1.2.0,bus2=RML1060181108.1.2.0,Phases=2,Linecode=CABBTG05_4_2,Length=0.017000000,Units=km
new line.RML10181343 bus1=BBT3476094.1.2.0,bus2=RML1060181343.1.2.0,Phases=2,Linecode=CABBTG05_4_2,Length=0.017000000,Units=km
new line.RML10181673 bus1=BBT4998916.1.0,bus2=RML1060181673.1.0,Phases=1,Linecode=CABBTG01_4_1,Length=0.017000000,Units=km
new line.RML10181684 bus1=BBT1298016.2.3.0,bus2=RML1060181684.2.3.0,Phases=2,Linecode=CABBTG04_4_2,Length=0.017000000,Units=km
new line.RML10181689 bus1=BBT1285115.2.3.0,bus2=RML1060181689.2.3.0,Phases=2,Linecode=CABBTG04_4_2,Length=0.017000000,Units=km
new line.RML10181695 bus1=BBT1297407.1.0,bus2=RML1060181695.1.0,Phases=1,Linecode=CABBTG01_4_1,Length=0.017000000,Units=km
new line.RML10181831 bus1=BBT1280992.1.0,bus2=RML1060181831.1.0,Phases=1,Linecode=CABBTG02_4_1,Length=0.017000000,Units=km
new line.RML10181832 bus1=BBT145392118.1.2.0,bus2=RML1060181832.1.2.0,Phases=2,Linecode=CABBTG05_4_2,Length=0.017000000,Units=km
new line.RML10181835 bus1=BBT145393840.1.2.0,bus2=RML1060181835.1.2.0,Phases=2,Linecode=CABBTG05_4_2,Length=0.017000000,Units=km
new line.RML10287903 bus1=BBT1289161.1.2.0,bus2=RML1060287903.1.2.0,Phases=2,Linecode=CABBTG05_4_2,Length=0.017000000,Units=km
new line.RML10287930 bus1=BBT1278633.1.0,bus2=RML1060287930.1.0,Phases=1,Linecode=CABBTG02_4_1,Length=0.017000000,Units=km
new line.RML10287968 bus1=BBT1286571.1.2.3.0,bus2=RML1060287968.1.2.3.0,Phases=3,Linecode=CABBTG06_4_3,Length=0.017000000,Units=km
new line.RML10288266 bus1=BBT1298408.1.2.0,bus2=RML1060288266.1.2.0,Phases=2,Linecode=CABBTG05_4_2,Length=0.017000000,Units=km
new line.RML10288272 bus1=BBT1272459.2.3.0,bus2=RML1060288272.2.3.0,Phases=2,Linecode=CABBTG05_4_2,Length=0.017000000,Units=km
new line.RML10312402 bus1=BBT1283687.1.0,bus2=RML1060312402.1.0,Phases=1,Linecode=CABBTG02_4_1,Length=0.017000000,Units=km
new line.RML10313056 bus1=BBT1283911.1.2.0,bus2=RML1060313056.1.2.0,Phases=2,Linecode=CABBTG05_4_2,Length=0.017000000,Units=km
new line.RML10313440 bus1=BBT1285115.1.2.0,bus2=RML1060313440.1.2.0,Phases=2,Linecode=CABBTG05_4_2,Length=0.017000000,Units=km
new line.RML10313490 bus1=BBT1294474.3.0,bus2=RML1060313490.3.0,Phases=1,Linecode=CABBTG02_4_1,Length=0.017000000,Units=km
new line.RML10313543 bus1=BBT1284863.1.2.0,bus2=RML1060313543.1.2.0,Phases=2,Linecode=CABBTG05_4_2,Length=0.017000000,Units=km
new line.RML10313645 bus1=BBT145393931.3.0,bus2=RML1060313645.3.0,Phases=1,Linecode=CABBTG02_4_1,Length=0.017000000,Units=km
new line.RML10313868 bus1=BBT2842622.2.0,bus2=RML1060313868.2.0,Phases=1,Linecode=CABBTG02_4_1,Length=0.017000000,Units=km
new line.RML10342440 bus1=BBT1280327.1.2.0,bus2=RML1060342440.1.2.0,Phases=2,Linecode=CABBTG05_4_2,Length=0.017000000,Units=km
new line.RML10342717 bus1=BBT1276295.1.0,bus2=RML1060342717.1.0,Phases=1,Linecode=CABBTG02_4_1,Length=0.017000000,Units=km
new line.RML10342739 bus1=BBT1271787.1.0,bus2=RML1060342739.1.0,Phases=1,Linecode=CABBTG02_4_1,Length=0.017000000,Units=km
new line.RML10342996 bus1=BBT3170299.1.0,bus2=RML1060342996.1.0,Phases=1,Linecode=CABBTG02_4_1,Length=0.017000000,Units=km
new line.RML10368686 bus1=BBT1295300.1.2.0,bus2=RML1060368686.1.2.0,Phases=2,Linecode=CABBTG05_4_2,Length=0.017000000,Units=km
new line.RML10395782 bus1=BBT1266880.1.2.0,bus2=RML1060395782.1.2.0,Phases=2,Linecode=CABBTG05_4_2,Length=0.017000000,Units=km
new line.RML10397189 bus1=BBT153265640.2.0,bus2=RML1060397189.2.0,Phases=1,Linecode=CABBTG02_4_1,Length=0.017000000,Units=km
new line.RML10397226 bus1=BBT1278633.1.2.3.0,bus2=RML1060397226.1.2.3.0,Phases=3,Linecode=CABBTG06_4_3,Length=0.017000000,Units=km
new line.RML10422346 bus1=BBT2842699.1.0,bus2=RML1060422346.1.0,Phases=1,Linecode=CABBTG02_4_1,Length=0.017000000,Units=km
new line.RML10470705 bus1=BBT3174751.1.0,bus2=RML1060470705.1.0,Phases=1,Linecode=CABBTG02_4_1,Length=0.017000000,Units=km
new line.RML10470951 bus1=BBT170789697.2.0,bus2=RML1060470951.2.0,Phases=1,Linecode=CABBTG02_4_1,Length=0.017000000,Units=km
new line.RML10473703 bus1=BBT1274636.2.3.0,bus2=RML1060473703.2.3.0,Phases=2,Linecode=CABBTG05_4_2,Length=0.017000000,Units=km
new line.RML10495547 bus1=BBT1285066.2.0,bus2=RML1060495547.2.0,Phases=1,Linecode=CABBTG02_4_1,Length=0.006000000,Units=km
new line.RML10497269 bus1=BBT52194727.1.0,bus2=RML1060497269.1.0,Phases=1,Linecode=CABBTG02_4_1,Length=0.017000000,Units=km
new line.RML10526650 bus1=BBT1283533.2.3.0,bus2=RML1060526650.2.3.0,Phases=2,Linecode=CABBTG05_4_2,Length=0.008000000,Units=km
new line.RML10526836 bus1=BBT1296378.1.0,bus2=RML1060526836.1.0,Phases=1,Linecode=CABBTG02_4_1,Length=0.010000000,Units=km
new line.RML10526894 bus1=BBT1279011.1.0,bus2=RML1060526894.1.0,Phases=1,Linecode=CABBTG02_4_1,Length=0.015000000,Units=km
new line.RML10526926 bus1=BBT3170355.2.0,bus2=RML1060526926.2.0,Phases=1,Linecode=CABBTG02_4_1,Length=0.017000000,Units=km
new line.RML10528034 bus1=BBT1296378.2.0,bus2=RML1060528034.2.0,Phases=1,Linecode=CABBTG02_4_1,Length=0.016000000,Units=km
new line.RML10528072 bus1=BBT1277128.1.2.0,bus2=RML1060528072.1.2.0,Phases=2,Linecode=CABBTG05_4_2,Length=0.015000000,Units=km
new line.RML10528141 bus1=BBT1297302.1.0,bus2=RML1060528141.1.0,Phases=1,Linecode=CABBTG02_4_1,Length=0.017000000,Units=km
new line.RML10047715 bus1=BBT1297946.1.2.0,bus2=RML1060047715.1.2.0,Phases=2,Linecode=CABBTG05_4_2,Length=0.017000000,Units=km
new line.RML10047729 bus1=BBT1279235.1.2.0,bus2=RML1060047729.1.2.0,Phases=2,Linecode=CABBTG05_4_2,Length=0.017000000,Units=km
new line.RML10050747 bus1=BBT1281461.1.0,bus2=RML1060050747.1.0,Phases=1,Linecode=CABBTG01_4_1,Length=0.017000000,Units=km
new line.RML10050782 bus1=BBT145392118.1.0,bus2=RML1060050782.1.0,Phases=1,Linecode=CABBTG01_4_1,Length=0.017000000,Units=km
new line.RML10050830 bus1=BBT147866548.1.2.0,bus2=RML1060050830.1.2.0,Phases=2,Linecode=CABBTG05_4_2,Length=0.017000000,Units=km
new line.RML10051060 bus1=BBT1274811.1.3.0,bus2=RML1060051060.1.3.0,Phases=2,Linecode=CABBTG05_4_2,Length=0.017000000,Units=km
new line.RML10077653 bus1=BBT1275574.1.2.0,bus2=RML1060077653.1.2.0,Phases=2,Linecode=CABBTG05_4_2,Length=0.017000000,Units=km
new line.RML10108359 bus1=BBT1277268.1.2.0,bus2=RML1060108359.1.2.0,Phases=2,Linecode=CABBTG05_4_2,Length=0.018000000,Units=km
new line.RML10108505 bus1=BBT1283148.2.3.0,bus2=RML1060108505.2.3.0,Phases=2,Linecode=CABBTG05_4_2,Length=0.012000000,Units=km
new line.RML10109000 bus1=BBT1282224.1.2.0,bus2=RML1060109000.1.2.0,Phases=2,Linecode=CABBTG04_4_2,Length=0.012000000,Units=km
new line.RML10109083 bus1=BBT1285115.2.3.0,bus2=RML1060109083.2.3.0,Phases=2,Linecode=CABBTG05_4_2,Length=0.018000000,Units=km
new line.RML10134470 bus1=BBT1276449.1.2.0,bus2=RML1060134470.1.2.0,Phases=2,Linecode=CABBTG05_4_2,Length=0.017000000,Units=km
new line.RML10137008 bus1=BBT52194727.1.0,bus2=RML1060137008.1.0,Phases=1,Linecode=CABBTG02_4_1,Length=0.017000000,Units=km
new line.RML10137107 bus1=BBT1273236.3.0,bus2=RML1060137107.3.0,Phases=1,Linecode=CABBTG02_4_1,Length=0.017000000,Units=km
new line.RML10137216 bus1=BBT1294152.2.0,bus2=RML1060137216.2.0,Phases=1,Linecode=CABBTG02_4_1,Length=0.017000000,Units=km
new line.RML10137407 bus1=BBT145393931.1.0,bus2=RML1060137407.1.0,Phases=1,Linecode=CABBTG02_4_1,Length=0.017000000,Units=km
new line.RML10137425 bus1=BBT1280663.1.0,bus2=RML1060137425.1.0,Phases=1,Linecode=CABBTG02_4_1,Length=0.017000000,Units=km
new line.RML10192379 bus1=BBT1269589.2.3.0,bus2=RML1060192379.2.3.0,Phases=2,Linecode=CABBTG05_4_2,Length=0.017000000,Units=km
new line.RML10192386 bus1=BBT145392153.3.0,bus2=RML1060192386.3.0,Phases=1,Linecode=CABBTG02_4_1,Length=0.017000000,Units=km
new line.RML10192708 bus1=BBT1287411.1.2.0,bus2=RML1060192708.1.2.0,Phases=2,Linecode=CABBTG05_4_2,Length=0.017000000,Units=km
new line.RML10224229 bus1=BBT1278549.1.2.0,bus2=RML1060224229.1.2.0,Phases=2,Linecode=CABBTG05_4_2,Length=0.017000000,Units=km
new line.RML10224314 bus1=BBT1271339.1.2.0,bus2=RML1060224314.1.2.0,Phases=2,Linecode=CABBTG05_4_2,Length=0.017000000,Units=km
new line.RML10224540 bus1=BBT1267846.1.2.0,bus2=RML1060224540.1.2.0,Phases=2,Linecode=CABBTG04_4_2,Length=0.017000000,Units=km
new line.RML10249714 bus1=BBT1273103.2.0,bus2=RML1060249714.2.0,Phases=1,Linecode=CABBTG02_4_1,Length=0.017000000,Units=km
new line.RML10249718 bus1=BBT1273124.2.0,bus2=RML1060249718.2.0,Phases=1,Linecode=CABBTG02_4_1,Length=0.017000000,Units=km
new line.RML10250136 bus1=BBT1281608.1.0,bus2=RML1060250136.1.0,Phases=1,Linecode=CABBTG02_4_1,Length=0.017000000,Units=km
new line.RML10250551 bus1=BBT1297862.1.2.0,bus2=RML1060250551.1.2.0,Phases=2,Linecode=CABBTG05_4_2,Length=0.017000000,Units=km
new line.RML10275059 bus1=BBT1275350.2.0,bus2=RML1060275059.2.0,Phases=1,Linecode=CABBTG02_4_1,Length=0.017000000,Units=km
new line.RML10275221 bus1=BBT1279235.1.2.0,bus2=RML1060275221.1.2.0,Phases=2,Linecode=CABBTG05_4_2,Length=0.017000000,Units=km
new line.RML10275225 bus1=BBT1280999.1.2.0,bus2=RML1060275225.1.2.0,Phases=2,Linecode=CABBTG05_4_2,Length=0.017000000,Units=km
new line.RML10275254 bus1=BBT1286557.1.2.3.0,bus2=RML1060275254.1.2.3.0,Phases=3,Linecode=CABBTG06_4_3,Length=0.017000000,Units=km
new line.RML10275375 bus1=BBT71865476.1.3.0,bus2=RML1060275375.1.3.0,Phases=2,Linecode=CABBTG05_4_2,Length=0.017000000,Units=km
new line.RML10275549 bus1=BBT2842685.2.0,bus2=RML1060275549.2.0,Phases=1,Linecode=CABBTG02_4_1,Length=0.017000000,Units=km
new line.RML10275815 bus1=BBT1266880.1.3.0,bus2=RML1060275815.1.3.0,Phases=2,Linecode=CABBTG05_4_2,Length=0.017000000,Units=km
new line.RML10275863 bus1=BBT52194657.2.3.0,bus2=RML1060275863.2.3.0,Phases=2,Linecode=CABBTG05_4_2,Length=0.017000000,Units=km
new line.RML10276275 bus1=BBT6541345.1.3.0,bus2=RML1060276275.1.3.0,Phases=2,Linecode=CABBTG05_4_2,Length=0.017000000,Units=km
new line.RML10329664 bus1=BBT1284128.3.0,bus2=RML1060329664.3.0,Phases=1,Linecode=CABBTG02_4_1,Length=0.017000000,Units=km
new line.RML10329815 bus1=BBT71879343.2.3.0,bus2=RML1060329815.2.3.0,Phases=2,Linecode=CABBTG05_4_2,Length=0.017000000,Units=km
new line.RML10329856 bus1=BBT2842594.1.0,bus2=RML1060329856.1.0,Phases=1,Linecode=CABBTG02_4_1,Length=0.017000000,Units=km
new line.RML10329858 bus1=BBT1278549.1.2.0,bus2=RML1060329858.1.2.0,Phases=2,Linecode=CABBTG05_4_2,Length=0.017000000,Units=km
new line.RML10330335 bus1=BBT145393931.1.3.0,bus2=RML1060330335.1.3.0,Phases=2,Linecode=CABBTG05_4_2,Length=0.017000000,Units=km
new line.RML10330340 bus1=BBT1280866.1.2.3.0,bus2=RML1060330340.1.2.3.0,Phases=3,Linecode=CABBTG06_4_3,Length=0.017000000,Units=km
new line.RML10330361 bus1=BBT6441014.2.0,bus2=RML1060330361.2.0,Phases=1,Linecode=CABBTG02_4_1,Length=0.017000000,Units=km
new line.RML10330369 bus1=BBT1285108.1.2.0,bus2=RML1060330369.1.2.0,Phases=2,Linecode=CABBTG05_4_2,Length=0.017000000,Units=km
new line.RML10330401 bus1=BBT1283589.2.0,bus2=RML1060330401.2.0,Phases=1,Linecode=CABBTG02_4_1,Length=0.017000000,Units=km
new line.RML10330431 bus1=BBT1293473.1.0,bus2=RML1060330431.1.0,Phases=1,Linecode=CABBTG02_4_1,Length=0.017000000,Units=km
new line.RML10380299 bus1=BBT1286473.1.0,bus2=RML1060380299.1.0,Phases=1,Linecode=CABBTG02_4_1,Length=0.017000000,Units=km
new line.RML10380363 bus1=BBT153225596.2.0,bus2=RML1060380363.2.0,Phases=1,Linecode=CABBTG02_4_1,Length=0.017000000,Units=km
new line.RML10457962 bus1=BBT1279207.1.2.0,bus2=RML1060457962.1.2.0,Phases=2,Linecode=CABBTG05_4_2,Length=0.017000000,Units=km
new line.RML10459107 bus1=BBT3171510.1.3.0,bus2=RML1060459107.1.3.0,Phases=2,Linecode=CABBTG05_4_2,Length=0.017000000,Units=km
new line.RML10459159 bus1=BBT1284968.1.0,bus2=RML1060459159.1.0,Phases=1,Linecode=CABBTG02_4_1,Length=0.017000000,Units=km
new line.RML10485865 bus1=BBT1277772.2.0,bus2=RML1060485865.2.0,Phases=1,Linecode=CABBTG02_4_1,Length=0.013000000,Units=km
new line.RML10485877 bus1=BBT1271724.1.2.0,bus2=RML1060485877.1.2.0,Phases=2,Linecode=CABBTG05_4_2,Length=0.017000000,Units=km
new line.RML10486838 bus1=BBT1278234.1.2.0,bus2=RML1060486838.1.2.0,Phases=2,Linecode=CABBTG05_4_2,Length=0.015000000,Units=km
new line.RML10486914 bus1=BBT3171510.1.3.0,bus2=RML1060486914.1.3.0,Phases=2,Linecode=CABBTG05_4_2,Length=0.024000000,Units=km
new line.RML10488357 bus1=BBT1284142.1.2.0,bus2=RML1060488357.1.2.0,Phases=2,Linecode=CABBTG05_4_2,Length=0.017000000,Units=km
new line.RML10488702 bus1=BBT1278689.1.2.0,bus2=RML1060488702.1.2.0,Phases=2,Linecode=CABBTG05_4_2,Length=0.015000000,Units=km
new line.RML10513982 bus1=BBT153799987.1.2.0,bus2=RML1060513982.1.2.0,Phases=2,Linecode=CABBT811_4_2,Length=0.018000000,Units=km
new line.RML10517127 bus1=BBT1283526.2.0,bus2=RML1060517127.2.0,Phases=1,Linecode=CABBTG02_4_1,Length=0.013000000,Units=km
new line.RML10540462 bus1=BBT3170264.1.2.0,bus2=RML1060540462.1.2.0,Phases=2,Linecode=CABBTG05_4_2,Length=0.014000000,Units=km
new line.RML10077009 bus1=BBT1297876.2.3.0,bus2=RML1060077009.2.3.0,Phases=2,Linecode=CABBTG05_4_2,Length=0.017000000,Units=km
new line.RML10077117 bus1=BBT1274342.2.0,bus2=RML1060077117.2.0,Phases=1,Linecode=CABBTG02_4_1,Length=0.017000000,Units=km
new line.RML10133617 bus1=BBT1277163.1.0,bus2=RML1060133617.1.0,Phases=1,Linecode=CABBTG02_4_1,Length=0.017000000,Units=km
new line.RML10156949 bus1=BBT1278486.2.0,bus2=RML1060156949.2.0,Phases=1,Linecode=CABBTG01_4_1,Length=0.017000000,Units=km
new line.RML10157512 bus1=BBT145393931.2.0,bus2=RML1060157512.2.0,Phases=1,Linecode=CABBTG02_4_1,Length=0.017000000,Units=km
new line.RML10157517 bus1=BBT1283498.1.0,bus2=RML1060157517.1.0,Phases=1,Linecode=CABBTG02_4_1,Length=0.017000000,Units=km
new line.RML10157606 bus1=BBT1297316.2.0,bus2=RML1060157606.2.0,Phases=1,Linecode=CABBTG02_4_1,Length=0.017000000,Units=km
new line.RML10157762 bus1=BBT1259992.1.0,bus2=RML1060157762.1.0,Phases=1,Linecode=CABBTG02_4_1,Length=0.017000000,Units=km
new line.RML10157804 bus1=BBT145392216.1.2.0,bus2=RML1060157804.1.2.0,Phases=2,Linecode=CABBTG05_4_2,Length=0.017000000,Units=km
new line.RML10157842 bus1=BBT145392111.1.0,bus2=RML1060157842.1.0,Phases=1,Linecode=CABBTG02_4_1,Length=0.017000000,Units=km
new line.RML10262335 bus1=BBT1278822.1.2.0,bus2=RML1060262335.1.2.0,Phases=2,Linecode=CABBTG05_4_2,Length=0.017000000,Units=km
new line.RML10262417 bus1=BBT145393931.1.2.0,bus2=RML1060262417.1.2.0,Phases=2,Linecode=CABBTG05_4_2,Length=0.017000000,Units=km
new line.RML10262746 bus1=BBT1280285.1.2.0,bus2=RML1060262746.1.2.0,Phases=2,Linecode=CABBTG05_4_2,Length=0.017000000,Units=km
new line.RML10262898 bus1=BBT2842573.1.0,bus2=RML1060262898.1.0,Phases=1,Linecode=CABBTG02_4_1,Length=0.017000000,Units=km
new line.RML10290504 bus1=BBT145393931.2.0,bus2=RML1060290504.2.0,Phases=1,Linecode=CABBTG02_4_1,Length=0.017000000,Units=km
new line.RML10316306 bus1=BBT1283491.1.2.0,bus2=RML1060316306.1.2.0,Phases=2,Linecode=CABBTG05_4_2,Length=0.017000000,Units=km
new line.RML10316409 bus1=BBT148904739.3.0,bus2=RML1060316409.3.0,Phases=1,Linecode=CABBTG01_4_1,Length=0.017000000,Units=km
new line.RML10316452 bus1=BBT2842615.1.0,bus2=RML1060316452.1.0,Phases=1,Linecode=CABBTG02_4_1,Length=0.017000000,Units=km
new line.RML10316949 bus1=BBT1280873.1.0,bus2=RML1060316949.1.0,Phases=1,Linecode=CABBTG02_4_1,Length=0.017000000,Units=km
new line.RML10317056 bus1=BBT1283127.1.0,bus2=RML1060317056.1.0,Phases=1,Linecode=CABBTG02_4_1,Length=0.017000000,Units=km
new line.RML10317563 bus1=BBT1282882.1.2.0,bus2=RML1060317563.1.2.0,Phases=2,Linecode=CABBTG05_4_2,Length=0.017000000,Units=km
new line.RML10372121 bus1=BBT1284128.1.0,bus2=RML1060372121.1.0,Phases=1,Linecode=CABBTG02_4_1,Length=0.017000000,Units=km
new line.RML10373238 bus1=BBT1286676.1.2.3.0,bus2=RML1060373238.1.2.3.0,Phases=3,Linecode=CABBTG08_4_3,Length=0.029000000,Units=km
new line.RML10373255 bus1=BBT3170341.1.0,bus2=RML1060373255.1.0,Phases=1,Linecode=CABBTG02_4_1,Length=0.017000000,Units=km
new line.RML10374593 bus1=BBT1294712.1.2.0,bus2=RML1060374593.1.2.0,Phases=2,Linecode=CABBTG05_4_2,Length=0.017000000,Units=km
new line.RML10398665 bus1=BBT1294747.1.0,bus2=RML1060398665.1.0,Phases=1,Linecode=CABBTG02_4_1,Length=0.017000000,Units=km
new line.RML10398928 bus1=BBT1285115.1.2.0,bus2=RML1060398928.1.2.0,Phases=2,Linecode=CABBTG05_4_2,Length=0.017000000,Units=km
new line.RML10401100 bus1=BBT1283960.1.2.3.0,bus2=RML1060401100.1.2.3.0,Phases=3,Linecode=CABBTG08_4_3,Length=0.017000000,Units=km
new line.RML10425307 bus1=BBT1280586.2.0,bus2=RML1060425307.2.0,Phases=1,Linecode=CABBTG02_4_1,Length=0.017000000,Units=km
new line.RML10425682 bus1=BBT1294761.2.3.0,bus2=RML1060425682.2.3.0,Phases=2,Linecode=CABBTG05_4_2,Length=0.017000000,Units=km
new line.RML10426252 bus1=BBT145392209.1.2.0,bus2=RML1060426252.1.2.0,Phases=2,Linecode=CABBTG05_4_2,Length=0.017000000,Units=km
new line.RML10428488 bus1=BBT1276442.1.0,bus2=RML1060428488.1.0,Phases=1,Linecode=CABBTG02_4_1,Length=0.029000000,Units=km
new line.RML10449909 bus1=BBT1277856.1.0,bus2=RML1060449909.1.0,Phases=1,Linecode=CABBTG02_4_1,Length=0.017000000,Units=km
new line.RML10449963 bus1=BBT145392111.2.0,bus2=RML1060449963.2.0,Phases=1,Linecode=CABBTG02_4_1,Length=0.017000000,Units=km
new line.RML10450031 bus1=BBT1297813.2.0,bus2=RML1060450031.2.0,Phases=1,Linecode=CABBTG02_4_1,Length=0.017000000,Units=km
new line.RML10450076 bus1=BBT2844960.2.0,bus2=RML1060450076.2.0,Phases=1,Linecode=CABBTG02_4_1,Length=0.017000000,Units=km
new line.RML10450130 bus1=BBT1272326.2.3.0,bus2=RML1060450130.2.3.0,Phases=2,Linecode=CABBTG05_4_2,Length=0.017000000,Units=km
new line.RML10450138 bus1=BBT1284135.2.3.0,bus2=RML1060450138.2.3.0,Phases=2,Linecode=CABBTG05_4_2,Length=0.017000000,Units=km
new line.RML10451558 bus1=BBT65105863.1.2.0,bus2=RML1060451558.1.2.0,Phases=2,Linecode=CABBTG05_4_2,Length=0.017000000,Units=km
new line.RML10451581 bus1=BBT1280999.1.2.0,bus2=RML1060451581.1.2.0,Phases=2,Linecode=CABBTG05_4_2,Length=0.017000000,Units=km
new line.RML10475141 bus1=BBT3538975.1.2.3.0,bus2=RML1060475141.1.2.3.0,Phases=3,Linecode=CABBTG06_4_3,Length=0.017000000,Units=km
new line.RML10475821 bus1=BBT1297337.1.0,bus2=RML1060475821.1.0,Phases=1,Linecode=CABBTG02_4_1,Length=0.017000000,Units=km
new line.RML10475827 bus1=BBT1297337.3.0,bus2=RML1060475827.3.0,Phases=1,Linecode=CABBTG02_4_1,Length=0.017000000,Units=km
new line.RML10476404 bus1=BBT1286487.1.0,bus2=RML1060476404.1.0,Phases=1,Linecode=CABBTG02_4_1,Length=0.017000000,Units=km
new line.RML10476518 bus1=BBT1296602.3.0,bus2=RML1060476518.3.0,Phases=1,Linecode=CABBTG02_4_1,Length=0.017000000,Units=km
new line.RML10476519 bus1=BBT1296602.2.0,bus2=RML1060476519.2.0,Phases=1,Linecode=CABBTG02_4_1,Length=0.017000000,Units=km
new line.RML10476917 bus1=BBT1293543.1.2.0,bus2=RML1060476917.1.2.0,Phases=2,Linecode=CABBTG05_4_2,Length=0.017000000,Units=km
new line.RML10476946 bus1=BBT2147830.1.0,bus2=RML1060476946.1.0,Phases=1,Linecode=CABBTG02_4_1,Length=0.025000000,Units=km
new line.RML10477703 bus1=BBT52194867.1.0,bus2=RML1060477703.1.0,Phases=1,Linecode=CABBTG02_4_1,Length=0.017000000,Units=km
new line.RML10477707 bus1=BBT1278794.1.2.0,bus2=RML1060477707.1.2.0,Phases=2,Linecode=CABBTG05_4_2,Length=0.008000000,Units=km
new line.RML10477873 bus1=BBT1279753.1.2.3.0,bus2=RML1060477873.1.2.3.0,Phases=3,Linecode=CABBTG06_4_3,Length=0.017000000,Units=km
new line.RML10503027 bus1=BBT52194727.2.0,bus2=RML1060503027.2.0,Phases=1,Linecode=CABBTG02_4_1,Length=0.013000000,Units=km
new line.RML10504036 bus1=BBT2420256.3.0,bus2=RML1060504036.3.0,Phases=1,Linecode=CABBTG02_4_1,Length=0.021000000,Units=km
new line.RML10504114 bus1=BBT1284156.1.2.0,bus2=RML1060504114.1.2.0,Phases=2,Linecode=CABBTG05_4_2,Length=0.017000000,Units=km
new line.RML10504125 bus1=BBT52194727.1.0,bus2=RML1060504125.1.0,Phases=1,Linecode=CABBTG02_4_1,Length=0.017000000,Units=km
new line.RML10504798 bus1=BBT1283568.3.0,bus2=RML1060504798.3.0,Phases=1,Linecode=CABBTG02_4_1,Length=0.018000000,Units=km
new line.RML10531084 bus1=BBT1278178.2.0,bus2=RML1060531084.2.0,Phases=1,Linecode=CABBTG02_4_1,Length=0.025000000,Units=km
new line.RML10531518 bus1=BBT1299969.1.0,bus2=RML1060531518.1.0,Phases=1,Linecode=CABBT802_4_1,Length=0.007000000,Units=km
new line.RML10532224 bus1=BBT1298688.1.2.0,bus2=RML1060532224.1.2.0,Phases=2,Linecode=CABBT811_4_2,Length=0.012000000,Units=km
new line.RML10586853 bus1=BBT1269295.1.2.0,bus2=RML1060586853.1.2.0,Phases=2,Linecode=CABBTG05_4_2,Length=0.023000000,Units=km
new line.RML10056021 bus1=BBT1284177.1.2.0,bus2=RML1060056021.1.2.0,Phases=2,Linecode=CABBTG05_4_2,Length=0.017000000,Units=km
new line.RML10056066 bus1=BBT1266880.2.0,bus2=RML1060056066.2.0,Phases=1,Linecode=CABBTG03_4_1,Length=0.017000000,Units=km
new line.RML10056230 bus1=BBT1280054.2.0,bus2=RML1060056230.2.0,Phases=1,Linecode=CABBTG02_4_1,Length=0.017000000,Units=km
new line.RML10056232 bus1=BBT1289203.1.2.3.0,bus2=RML1060056232.1.2.3.0,Phases=3,Linecode=CABBTG12_4_3,Length=0.017000000,Units=km
new line.RML10056239 bus1=BBT1270786.2.3.0,bus2=RML1060056239.2.3.0,Phases=2,Linecode=CABBTG05_4_2,Length=0.017000000,Units=km
new line.RML10057526 bus1=BBT1297316.3.0,bus2=RML1060057526.3.0,Phases=1,Linecode=CABBTG02_4_1,Length=0.017000000,Units=km
new line.RML10057569 bus1=BBT1280201.1.0,bus2=RML1060057569.1.0,Phases=1,Linecode=CABBTG02_4_1,Length=0.017000000,Units=km
new line.RML10088145 bus1=BBT1419508.1.2.0,bus2=RML1060088145.1.2.0,Phases=2,Linecode=CABBTG05_4_2,Length=0.017000000,Units=km
new line.RML10116049 bus1=BBT1278668.1.0,bus2=RML1060116049.1.0,Phases=1,Linecode=CABBTG02_4_1,Length=0.017000000,Units=km
new line.RML10116342 bus1=BBT1278801.1.2.0,bus2=RML1060116342.1.2.0,Phases=2,Linecode=CABBTG05_4_2,Length=0.017000000,Units=km
new line.RML10116346 bus1=BBT1286158.1.2.0,bus2=RML1060116346.1.2.0,Phases=2,Linecode=CABBTG05_4_2,Length=0.017000000,Units=km
new line.RML10116752 bus1=BBT1278976.1.2.0,bus2=RML1060116752.1.2.0,Phases=2,Linecode=CABBTG05_4_2,Length=0.017000000,Units=km
new line.RML10116781 bus1=BBT1294509.2.0,bus2=RML1060116781.2.0,Phases=1,Linecode=CABBTG02_4_1,Length=0.017000000,Units=km
new line.RML10137885 bus1=BBT1282294.2.0,bus2=RML1060137885.2.0,Phases=1,Linecode=CABBTG01_4_1,Length=0.017000000,Units=km
new line.RML10138098 bus1=BBT1285094.1.0,bus2=RML1060138098.1.0,Phases=1,Linecode=CABBTG01_4_1,Length=0.017000000,Units=km
new line.RML10141237 bus1=BBT1280628.2.0,bus2=RML1060141237.2.0,Phases=1,Linecode=CABBTG01_4_1,Length=0.017000000,Units=km
new line.RML10364752 bus1=BBT1283204.1.0,bus2=RML1060364752.1.0,Phases=1,Linecode=CABBTG02_4_1,Length=0.017000000,Units=km
new line.RML10364792 bus1=BBT1271703.1.0,bus2=RML1060364792.1.0,Phases=1,Linecode=CABBTG02_4_1,Length=0.017000000,Units=km
new line.RML10391361 bus1=BBT1286578.2.3.0,bus2=RML1060391361.2.3.0,Phases=2,Linecode=CABBTG05_4_2,Length=0.017000000,Units=km
new line.RML10391682 bus1=BBT1279543.1.0,bus2=RML1060391682.1.0,Phases=1,Linecode=CABBTG02_4_1,Length=0.017000000,Units=km
new line.RML10391802 bus1=BBT1286613.1.2.0,bus2=RML1060391802.1.2.0,Phases=2,Linecode=CABBTG05_4_2,Length=0.017000000,Units=km
new line.RML10392002 bus1=BBT1278815.1.2.0,bus2=RML1060392002.1.2.0,Phases=2,Linecode=CABBTG05_4_2,Length=0.017000000,Units=km
new line.RML10393036 bus1=BBT2842657.2.0,bus2=RML1060393036.2.0,Phases=1,Linecode=CABBTG01_4_1,Length=0.017000000,Units=km
new line.RML10393058 bus1=BBT1280285.1.0,bus2=RML1060393058.1.0,Phases=1,Linecode=CABBTG02_4_1,Length=0.017000000,Units=km
new line.RML10393059 bus1=BBT1280285.1.0,bus2=RML1060393059.1.0,Phases=1,Linecode=CABBTG02_4_1,Length=0.017000000,Units=km
new line.RML10393065 bus1=BBT1283946.1.2.3.0,bus2=RML1060393065.1.2.3.0,Phases=3,Linecode=CABBTG06_4_3,Length=0.017000000,Units=km
new line.RML10393162 bus1=BBT1278549.1.2.0,bus2=RML1060393162.1.2.0,Phases=2,Linecode=CABBTG04_4_2,Length=0.017000000,Units=km
new line.RML10419095 bus1=BBT1277982.2.0,bus2=RML1060419095.2.0,Phases=1,Linecode=CABBTG02_4_1,Length=0.017000000,Units=km
new line.RML10419116 bus1=BBT1281286.1.2.0,bus2=RML1060419116.1.2.0,Phases=2,Linecode=CABBTG05_4_2,Length=0.017000000,Units=km
new line.RML10419581 bus1=BBT1279263.1.2.0,bus2=RML1060419581.1.2.0,Phases=2,Linecode=CABBTG05_4_2,Length=0.017000000,Units=km
new line.RML10419674 bus1=BBT1276274.2.0,bus2=RML1060419674.2.0,Phases=1,Linecode=CABBTG02_4_1,Length=0.017000000,Units=km
new line.RML10420521 bus1=BBT1268826.2.3.0,bus2=RML1060420521.2.3.0,Phases=2,Linecode=CABBTG05_4_2,Length=0.017000000,Units=km
new line.RML10470194 bus1=BBT1278822.1.2.0,bus2=RML1060470194.1.2.0,Phases=2,Linecode=CABBTG05_4_2,Length=0.017000000,Units=km
new line.RML10505402 bus1=BBT3175661.1.0,bus2=RML1060505402.1.0,Phases=1,Linecode=CABBTG02_4_1,Length=0.020000000,Units=km
new line.RML10505404 bus1=BBT1376577.1.2.3.0,bus2=RML1060505404.1.2.3.0,Phases=3,Linecode=CABBTG06_4_3,Length=0.017000000,Units=km
new line.RML10505899 bus1=BBT1275875.1.3.0,bus2=RML1060505899.1.3.0,Phases=2,Linecode=CABBT811_4_2,Length=0.008000000,Units=km
new line.RML10506129 bus1=BBT1283519.1.3.0,bus2=RML1060506129.1.3.0,Phases=2,Linecode=CABBTG05_4_2,Length=0.023000000,Units=km
new line.RML10506307 bus1=BBT1297022.1.2.3.0,bus2=RML1060506307.1.2.3.0,Phases=3,Linecode=CABBTG06_4_3,Length=0.013000000,Units=km
new line.RML10507115 bus1=BBT1283554.2.0,bus2=RML1060507115.2.0,Phases=1,Linecode=CABBTG02_4_1,Length=0.018000000,Units=km
new line.RML10507438 bus1=BBT1283512.3.0,bus2=RML1060507438.3.0,Phases=1,Linecode=CABBTG02_4_1,Length=0.006000000,Units=km
new line.RML10567197 bus1=BBT1282224.1.2.0,bus2=RML1060567197.1.2.0,Phases=2,Linecode=CABBTG05_4_2,Length=0.017000000,Units=km
new line.RML10567501 bus1=BBT1266908.1.2.0,bus2=RML1060567501.1.2.0,Phases=2,Linecode=CABBTG05_4_2,Length=0.020000000,Units=km
new line.RML10568296 bus1=BBT1280586.2.0,bus2=RML1060568296.2.0,Phases=1,Linecode=CABBTG02_4_1,Length=0.010000000,Units=km
new line.RML10568968 bus1=BBT1297925.1.2.0,bus2=RML1060568968.1.2.0,Phases=2,Linecode=CABBTG05_4_2,Length=0.019000000,Units=km
new line.RML10569226 bus1=BBT145393693.1.2.0,bus2=RML1060569226.1.2.0,Phases=2,Linecode=CABBTG05_4_2,Length=0.020000000,Units=km
new line.RML10569267 bus1=BBT156995299.1.2.0,bus2=RML1060569267.1.2.0,Phases=2,Linecode=CABBTG05_4_2,Length=0.015000000,Units=km
new line.RML10598805 bus1=BBT5354957.2.3.0,bus2=RML1060598805.2.3.0,Phases=2,Linecode=CABBTG05_4_2,Length=0.016000000,Units=km
new line.RML10599336 bus1=BBT1278619.1.2.3.0,bus2=RML1060599336.1.2.3.0,Phases=3,Linecode=CABBTG06_4_3,Length=0.018000000,Units=km
new line.RML10628456 bus1=BBT145392153.1.0,bus2=RML1060628456.1.0,Phases=1,Linecode=CABBTG02_4_1,Length=0.020000000,Units=km
new line.RML10628546 bus1=BBT5870206.1.0,bus2=RML1060628546.1.0,Phases=1,Linecode=CABBTG02_4_1,Length=0.017000000,Units=km
new line.RML10628547 bus1=BBT2844946.1.0,bus2=RML1060628547.1.0,Phases=1,Linecode=CABBTG02_4_1,Length=0.022000000,Units=km
new line.RML10660857 bus1=BBT1266943.1.3.0,bus2=RML1060660857.1.3.0,Phases=2,Linecode=CABBTG05_4_2,Length=0.030000000,Units=km
new line.RML10660869 bus1=BBT1275392.2.0,bus2=RML1060660869.2.0,Phases=1,Linecode=CABBTG02_4_1,Length=0.025000000,Units=km
new line.RML10660878 bus1=BBT1278577.1.0,bus2=RML1060660878.1.0,Phases=1,Linecode=CABBTG02_4_1,Length=0.016000000,Units=km
new line.RML10660885 bus1=BBT1287138.1.3.0,bus2=RML1060660885.1.3.0,Phases=2,Linecode=CABBTG05_4_2,Length=0.020000000,Units=km
new line.RML10660993 bus1=BBT1279291.2.0,bus2=RML1060660993.2.0,Phases=1,Linecode=CABBTG02_4_1,Length=0.019000000,Units=km
new line.RML10661023 bus1=BBT1286438.1.0,bus2=RML1060661023.1.0,Phases=1,Linecode=CABBTG02_4_1,Length=0.008000000,Units=km
new line.RML10661055 bus1=BBT1279235.2.0,bus2=RML1060661055.2.0,Phases=1,Linecode=CABBTG02_4_1,Length=0.015000000,Units=km
new line.RML10661078 bus1=BBT1259992.1.3.0,bus2=RML1060661078.1.3.0,Phases=2,Linecode=CABBTG05_4_2,Length=0.020000000,Units=km