! manter este comentario para compatibilidade do C#
new circuit.alimTCSD210 bus1=BMT125723581.1.2.3,basekv=13.800000000,pu=1.040000000