new load.3000140291M1 bus1=RML1052679243.1.2.0,Phases=2,kv=0.22,kW=0.88752,pf=0.92,Vminpu=0.92,Vmaxpu=1.5,model=1,daily=RES2_2,status=variable
new load.3000140292M1 bus1=RML1052679257.2.3.0,Phases=2,kv=0.22,kW=1.29722,pf=0.92,Vminpu=0.92,Vmaxpu=1.5,model=1,daily=RES3_3,status=variable
new load.3000140293M1 bus1=RML1052679264.1.0,Phases=1,kv=0.127,kW=0.07542,pf=0.92,Vminpu=0.92,Vmaxpu=1.5,model=1,daily=RES3_3,status=variable
new load.3000140294M1 bus1=RML1052679495.1.3.0,Phases=2,kv=0.22,kW=1.47824,pf=0.92,Vminpu=0.92,Vmaxpu=1.5,model=1,daily=RES3_3,status=variable
new load.3000140295M1 bus1=RML1052679033.1.0,Phases=1,kv=0.127,kW=0.52964,pf=0.92,Vminpu=0.92,Vmaxpu=1.5,model=1,daily=RES2_2,status=variable
new load.3000140296M1 bus1=RML1052679040.2.3.0,Phases=2,kv=0.22,kW=0.80518,pf=0.92,Vminpu=0.92,Vmaxpu=1.5,model=1,daily=RES1_2,status=variable
new load.3000140297M1 bus1=RML1052678998.2.3.0,Phases=2,kv=0.22,kW=1.0235,pf=0.92,Vminpu=0.92,Vmaxpu=1.5,model=1,daily=RES2_2,status=variable
new load.3000140298M1 bus1=RML1052678914.2.0,Phases=1,kv=0.127,kW=1.04498,pf=0.92,Vminpu=0.92,Vmaxpu=1.5,model=1,daily=RES2_2,status=variable
new load.3000140299M1 bus1=RML1052678921.1.2.3.0,Phases=3,kv=0.22,kW=1.40282,pf=0.92,Vminpu=0.92,Vmaxpu=1.5,model=1,daily=RES3_3,status=variable
new load.3000140300M1 bus1=RML1052678921.1.2.3.0,Phases=3,kv=0.22,kW=1.00918,pf=0.92,Vminpu=0.92,Vmaxpu=1.5,model=1,daily=RES2_2,status=variable
new load.3000140301M1 bus1=RML1052678935.2.3.0,Phases=2,kv=0.22,kW=0.49096,pf=0.92,Vminpu=0.92,Vmaxpu=1.5,model=1,daily=RES1_2,status=variable
new load.3000140302M1 bus1=RML1052678949.1.2.0,Phases=2,kv=0.22,kW=0.66564,pf=0.92,Vminpu=0.92,Vmaxpu=1.5,model=1,daily=RES2_2,status=variable
new load.3000140303M1 bus1=RML1052678928.1.3.0,Phases=2,kv=0.22,kW=0.45168,pf=0.92,Vminpu=0.92,Vmaxpu=1.5,model=1,daily=RES1_2,status=variable
new load.3000140304M1 bus1=RML1052678942.1.2.0,Phases=2,kv=0.22,kW=0.34356,pf=0.92,Vminpu=0.92,Vmaxpu=1.5,model=1,daily=RES2_2,status=variable
new load.3000140305M1 bus1=RML1052824388.1.0,Phases=1,kv=0.127,kW=0.83742,pf=0.92,Vminpu=0.92,Vmaxpu=1.5,model=1,daily=RES2_2,status=variable
new load.3000140307M1 bus1=RML1052824318.1.2.3.0,Phases=3,kv=0.22,kW=1.38774,pf=0.92,Vminpu=0.92,Vmaxpu=1.5,model=1,daily=RES3_3,status=variable
new load.3000140308M1 bus1=RML1052824318.1.2.3.0,Phases=3,kv=0.22,kW=3.9004,pf=0.92,Vminpu=0.92,Vmaxpu=1.5,model=1,daily=RES4_4,status=variable
new load.3000140309M1 bus1=RML1052824325.1.2.3.0,Phases=3,kv=0.22,kW=0.3044,pf=0.92,Vminpu=0.92,Vmaxpu=1.5,model=1,daily=RES1_2,status=variable
new load.3000140311M1 bus1=RML1052824276.2.3.0,Phases=2,kv=0.22,kW=1.77992,pf=0.92,Vminpu=0.92,Vmaxpu=1.5,model=1,daily=RES3_3,status=variable
new load.3000140312M1 bus1=RML1052824227.1.0,Phases=1,kv=0.127,kW=1.95338,pf=0.92,Vminpu=0.92,Vmaxpu=1.5,model=1,daily=RES3_3,status=variable
new load.3000140313M1 bus1=RML1052824241.2.3.0,Phases=2,kv=0.22,kW=0.85172,pf=0.92,Vminpu=0.92,Vmaxpu=1.5,model=1,daily=RES2_2,status=variable
new load.3000140314M1 bus1=RML1052824234.2.0,Phases=1,kv=0.127,kW=0.70142,pf=0.92,Vminpu=0.92,Vmaxpu=1.5,model=1,daily=RES2_2,status=variable
new load.3000140316M1 bus1=RML1052824115.1.2.3.0,Phases=3,kv=0.22,kW=2.77378,pf=0.92,Vminpu=0.92,Vmaxpu=1.5,model=1,daily=RES5_5,status=variable
new load.3000140317M1 bus1=RML1052824087.2.0,Phases=1,kv=0.127,kW=0.85888,pf=0.92,Vminpu=0.92,Vmaxpu=1.5,model=1,daily=RES2_2,status=variable
new load.3000140318M1 bus1=RML1052824073.1.0,Phases=1,kv=0.127,kW=1.3098,pf=0.92,Vminpu=0.92,Vmaxpu=1.5,model=1,daily=RES2_2,status=variable
new load.3000140320M1 bus1=RML1056424639.1.0,Phases=1,kv=0.127,kW=1.17656,pf=0.92,Vminpu=0.92,Vmaxpu=1.5,model=1,daily=RES3_3,status=variable
new load.3000140321M1 bus1=RML1052822953.1.2.0,Phases=2,kv=0.22,kW=0.93284,pf=0.92,Vminpu=0.92,Vmaxpu=1.5,model=1,daily=RES1_2,status=variable
new load.3000140322M1 bus1=RML1052822953.1.2.0,Phases=2,kv=0.22,kW=0.1098,pf=0.92,Vminpu=0.92,Vmaxpu=1.5,model=1,daily=COM1_5,status=variable
new load.3000140323M1 bus1=RML1052822883.1.2.3.0,Phases=3,kv=0.22,kW=0.0732,pf=0.92,Vminpu=0.92,Vmaxpu=1.5,model=1,daily=COM1_5,status=variable
new load.3000140324M1 bus1=RML1052822890.1.2.0,Phases=2,kv=0.22,kW=0.55112,pf=0.92,Vminpu=0.92,Vmaxpu=1.5,model=1,daily=RES2_2,status=variable
new load.3000140325M1 bus1=RML1052822897.2.0,Phases=1,kv=0.127,kW=0.11502,pf=0.92,Vminpu=0.92,Vmaxpu=1.5,model=1,daily=COM1_5,status=variable
new load.3000140326M1 bus1=RML1052822904.1.0,Phases=1,kv=0.127,kW=0.70858,pf=0.92,Vminpu=0.92,Vmaxpu=1.5,model=1,daily=RES2_2,status=variable
new load.3000140327M1 bus1=RML1052824031.2.3.0,Phases=2,kv=0.22,kW=1.35756,pf=0.92,Vminpu=0.92,Vmaxpu=1.5,model=1,daily=RES3_3,status=variable
new load.3000140330M1 bus1=RML1052823996.1.3.0,Phases=2,kv=0.22,kW=4.20396,pf=0.92,Vminpu=0.92,Vmaxpu=1.5,model=1,daily=RES4_4,status=variable
new load.3000140331M1 bus1=RML1052823954.1.0,Phases=1,kv=0.127,kW=0.06788,pf=0.92,Vminpu=0.92,Vmaxpu=1.5,model=1,daily=RES3_3,status=variable
new load.3000140332M1 bus1=RML1052823947.2.0,Phases=1,kv=0.127,kW=0.16692,pf=0.92,Vminpu=0.92,Vmaxpu=1.5,model=1,daily=RES1_2,status=variable
new load.3000140333M1 bus1=RML1052901010.1.2.0,Phases=2,kv=0.22,kW=1.1237,pf=0.92,Vminpu=0.92,Vmaxpu=1.5,model=1,daily=RES2_2,status=variable
new load.3000140334M1 bus1=RML1052900975.1.0,Phases=1,kv=0.127,kW=0.81594,pf=0.92,Vminpu=0.92,Vmaxpu=1.5,model=1,daily=RES2_2,status=variable
new load.3000140335M1 bus1=RML1052900982.3.0,Phases=1,kv=0.127,kW=0.70698,pf=0.92,Vminpu=0.92,Vmaxpu=1.5,model=1,daily=RES1_2,status=variable
new load.3000140336M1 bus1=RML1052900954.1.0,Phases=1,kv=0.127,kW=0.6227,pf=0.92,Vminpu=0.92,Vmaxpu=1.5,model=1,daily=RES2_2,status=variable
new load.3000140337M1 bus1=RML1056424499.1.2.0,Phases=2,kv=0.22,kW=1.9318,pf=0.92,Vminpu=0.92,Vmaxpu=1.5,model=1,daily=RES4_4,status=variable
new load.3000140338M1 bus1=RML1052900891.2.0,Phases=1,kv=0.127,kW=0.45092,pf=0.92,Vminpu=0.92,Vmaxpu=1.5,model=1,daily=RES2_2,status=variable
new load.3000140339M1 bus1=RML1052900856.3.0,Phases=1,kv=0.127,kW=0.75152,pf=0.92,Vminpu=0.92,Vmaxpu=1.5,model=1,daily=RES2_2,status=variable
new load.3000140340M1 bus1=RML1052819635.1.0,Phases=1,kv=0.127,kW=0.90898,pf=0.92,Vminpu=0.92,Vmaxpu=1.5,model=1,daily=RES2_2,status=variable
new load.3000140342M1 bus1=RML1053716433.1.2.3.0,Phases=3,kv=0.22,kW=0.42228,pf=0.92,Vminpu=0.92,Vmaxpu=1.5,model=1,daily=RES2_2,status=variable
new load.3000140343M1 bus1=RML1052819579.1.2.3.0,Phases=3,kv=0.22,kW=0.2062,pf=0.92,Vminpu=0.92,Vmaxpu=1.5,model=1,daily=RES1_2,status=variable
new load.3000140344M1 bus1=RML1052819579.1.2.3.0,Phases=3,kv=0.22,kW=1.76484,pf=0.92,Vminpu=0.92,Vmaxpu=1.5,model=1,daily=RES3_3,status=variable
new load.3000140345M1 bus1=RML1052819607.1.0,Phases=1,kv=0.127,kW=0.82482,pf=0.92,Vminpu=0.92,Vmaxpu=1.5,model=1,daily=RES1_2,status=variable
new load.3000140346M1 bus1=RML1052819593.2.3.0,Phases=2,kv=0.22,kW=1.28214,pf=0.92,Vminpu=0.92,Vmaxpu=1.5,model=1,daily=RES3_3,status=variable
new load.3000140347M1 bus1=RML1052819642.2.3.0,Phases=2,kv=0.22,kW=0.27972,pf=0.92,Vminpu=0.92,Vmaxpu=1.5,model=1,daily=COM1_5,status=variable
new load.3000140348M1 bus1=RML1052819439.1.2.0,Phases=2,kv=0.22,kW=0.85888,pf=0.92,Vminpu=0.92,Vmaxpu=1.5,model=1,daily=RES2_2,status=variable
new load.3000140349M1 bus1=RML1052819432.2.0,Phases=1,kv=0.127,kW=1.2679,pf=0.92,Vminpu=0.92,Vmaxpu=1.5,model=1,daily=COM1_5,status=variable
new load.3000140350M1 bus1=RML1052819425.2.0,Phases=1,kv=0.127,kW=0.60912,pf=0.92,Vminpu=0.92,Vmaxpu=1.5,model=1,daily=COM1_5,status=variable
new load.3000140351M1 bus1=RML1052900828.2.0,Phases=1,kv=0.127,kW=0.63788,pf=0.92,Vminpu=0.92,Vmaxpu=1.5,model=1,daily=COM1_5,status=variable
new load.3000140352M1 bus1=RML1052900821.3.0,Phases=1,kv=0.127,kW=0.96624,pf=0.92,Vminpu=0.92,Vmaxpu=1.5,model=1,daily=RES2_2,status=variable
new load.3000140353M1 bus1=RML1052900814.2.3.0,Phases=2,kv=0.22,kW=0.74626,pf=0.92,Vminpu=0.92,Vmaxpu=1.5,model=1,daily=RES1_2,status=variable
new load.3000140354M1 bus1=RML1052900807.1.0,Phases=1,kv=0.127,kW=1.42544,pf=0.92,Vminpu=0.92,Vmaxpu=1.5,model=1,daily=RES3_3,status=variable
new load.3000140355M1 bus1=RML1052900786.1.0,Phases=1,kv=0.127,kW=0.7229,pf=0.92,Vminpu=0.92,Vmaxpu=1.5,model=1,daily=RES2_2,status=variable
new load.3000140356M1 bus1=RML1060936054.1.2.0,Phases=2,kv=0.22,kW=0.0491,pf=0.92,Vminpu=0.92,Vmaxpu=1.5,model=1,daily=RES1_2,status=variable
new load.3000140357M1 bus1=RML1052900737.1.0,Phases=1,kv=0.127,kW=0.64808,pf=0.92,Vminpu=0.92,Vmaxpu=1.5,model=1,daily=RES1_2,status=variable
new load.3000140358M1 bus1=RML1052900744.1.0,Phases=1,kv=0.127,kW=0.99488,pf=0.92,Vminpu=0.92,Vmaxpu=1.5,model=1,daily=RES2_2,status=variable
new load.3000140361M1 bus1=RML1052820454.1.2.0,Phases=2,kv=0.22,kW=1.44806,pf=0.92,Vminpu=0.92,Vmaxpu=1.5,model=1,daily=RES3_3,status=variable
new load.3000140362M1 bus1=RML1052820286.1.0,Phases=1,kv=0.127,kW=0.16692,pf=0.92,Vminpu=0.92,Vmaxpu=1.5,model=1,daily=RES1_2,status=variable
new load.3000140363M1 bus1=RML1052900765.3.0,Phases=1,kv=0.127,kW=0.6728,pf=0.92,Vminpu=0.92,Vmaxpu=1.5,model=1,daily=RES2_2,status=variable
new load.3000140364M1 bus1=RML1052900842.1.0,Phases=1,kv=0.127,kW=0.64416,pf=0.92,Vminpu=0.92,Vmaxpu=1.5,model=1,daily=RES2_2,status=variable
new load.3000140365M1 bus1=RML1052900884.1.0,Phases=1,kv=0.127,kW=0.69716,pf=0.92,Vminpu=0.92,Vmaxpu=1.5,model=1,daily=RES1_2,status=variable
new load.3000140366M1 bus1=RML1052900877.1.3.0,Phases=2,kv=0.22,kW=1.53102,pf=0.92,Vminpu=0.92,Vmaxpu=1.5,model=1,daily=RES3_3,status=variable
new load.3000140368M1 bus1=RML1052820489.1.0,Phases=1,kv=0.127,kW=1.67432,pf=0.92,Vminpu=0.92,Vmaxpu=1.5,model=1,daily=RES3_3,status=variable
new load.3000140369M1 bus1=RML1052820468.2.0,Phases=1,kv=0.127,kW=0.98056,pf=0.92,Vminpu=0.92,Vmaxpu=1.5,model=1,daily=RES2_2,status=variable
new load.3000140370M1 bus1=RML1052820447.2.0,Phases=1,kv=0.127,kW=0.70698,pf=0.92,Vminpu=0.92,Vmaxpu=1.5,model=1,daily=RES1_2,status=variable
new load.3000140371M1 bus1=RML1052820517.3.0,Phases=1,kv=0.127,kW=0.96228,pf=0.92,Vminpu=0.92,Vmaxpu=1.5,model=1,daily=RES1_2,status=variable
new load.3000140372M1 bus1=RML1052820538.2.0,Phases=1,kv=0.127,kW=0.55828,pf=0.92,Vminpu=0.92,Vmaxpu=1.5,model=1,daily=RES2_2,status=variable
new load.3000140373M1 bus1=RML1052820510.1.2.3.0,Phases=3,kv=0.22,kW=2.23244,pf=0.92,Vminpu=0.92,Vmaxpu=1.5,model=1,daily=RES3_3,status=variable
new load.3000140375M1 bus1=RML1052820531.2.0,Phases=1,kv=0.127,kW=0.7168,pf=0.92,Vminpu=0.92,Vmaxpu=1.5,model=1,daily=RES1_2,status=variable
new load.3000140376M1 bus1=RML1052820461.1.2.0,Phases=2,kv=0.22,kW=0.00982,pf=0.92,Vminpu=0.92,Vmaxpu=1.5,model=1,daily=RES1_2,status=variable
new load.3000140377M1 bus1=RML1052820496.3.0,Phases=1,kv=0.127,kW=0.637,pf=0.92,Vminpu=0.92,Vmaxpu=1.5,model=1,daily=RES2_2,status=variable
new load.3000140378M1 bus1=RML1052820482.2.3.0,Phases=2,kv=0.22,kW=1.1738,pf=0.92,Vminpu=0.92,Vmaxpu=1.5,model=1,daily=RES2_2,status=variable
new load.3000140379M1 bus1=RML1052820643.3.0,Phases=1,kv=0.127,kW=0.58916,pf=0.92,Vminpu=0.92,Vmaxpu=1.5,model=1,daily=RES1_2,status=variable
new load.3000140380M1 bus1=RML1052900870.2.0,Phases=1,kv=0.127,kW=1.18812,pf=0.92,Vminpu=0.92,Vmaxpu=1.5,model=1,daily=RES2_2,status=variable
new load.3000140381M1 bus1=RML1052900849.3.0,Phases=1,kv=0.127,kW=2.11176,pf=0.92,Vminpu=0.92,Vmaxpu=1.5,model=1,daily=RES3_3,status=variable
new load.3000140384M1 bus1=RML1052900912.2.0,Phases=1,kv=0.127,kW=0.48114,pf=0.92,Vminpu=0.92,Vmaxpu=1.5,model=1,daily=RES1_2,status=variable
new load.3000140385M1 bus1=RML1052900898.1.0,Phases=1,kv=0.127,kW=0.60122,pf=0.92,Vminpu=0.92,Vmaxpu=1.5,model=1,daily=RES2_2,status=variable
new load.3000140387M1 bus1=RML1052901031.1.0,Phases=1,kv=0.127,kW=0.8732,pf=0.92,Vminpu=0.92,Vmaxpu=1.5,model=1,daily=RES2_2,status=variable
new load.3000140388M1 bus1=RML1052820552.1.0,Phases=1,kv=0.127,kW=0.62844,pf=0.92,Vminpu=0.92,Vmaxpu=1.5,model=1,daily=RES1_2,status=variable
new load.3000140389M1 bus1=RML1052820573.2.3.0,Phases=2,kv=0.22,kW=0.9233,pf=0.92,Vminpu=0.92,Vmaxpu=1.5,model=1,daily=RES2_2,status=variable
new load.3000140390M1 bus1=RML1052820545.1.2.0,Phases=2,kv=0.22,kW=0.61862,pf=0.92,Vminpu=0.92,Vmaxpu=1.5,model=1,daily=RES1_2,status=variable
new load.3000140392M1 bus1=RML1052820636.2.0,Phases=1,kv=0.127,kW=0.83742,pf=0.92,Vminpu=0.92,Vmaxpu=1.5,model=1,daily=RES2_2,status=variable
new load.3000140393M1 bus1=RML1052820587.2.0,Phases=1,kv=0.127,kW=0.73644,pf=0.92,Vminpu=0.92,Vmaxpu=1.5,model=1,daily=RES1_2,status=variable
new load.3000140394M1 bus1=RML1052820601.3.0,Phases=1,kv=0.127,kW=0.04294,pf=0.92,Vminpu=0.92,Vmaxpu=1.5,model=1,daily=RES2_2,status=variable
new load.3000140395M1 bus1=RML1052820580.1.0,Phases=1,kv=0.127,kW=0.4124,pf=0.92,Vminpu=0.92,Vmaxpu=1.5,model=1,daily=RES1_2,status=variable
new load.3000140396M1 bus1=RML1052820594.3.0,Phases=1,kv=0.127,kW=0.85428,pf=0.92,Vminpu=0.92,Vmaxpu=1.5,model=1,daily=RES1_2,status=variable
new load.3000140397M1 bus1=RML1052820559.1.0,Phases=1,kv=0.127,kW=0.65848,pf=0.92,Vminpu=0.92,Vmaxpu=1.5,model=1,daily=RES2_2,status=variable
new load.3000140398M1 bus1=RML1052900961.2.3.0,Phases=2,kv=0.22,kW=3.8268,pf=0.92,Vminpu=0.92,Vmaxpu=1.5,model=1,daily=RES4_4,status=variable
new load.3000140399M1 bus1=RML1052900989.1.2.3.0,Phases=3,kv=0.22,kW=0.09412,pf=0.92,Vminpu=0.92,Vmaxpu=1.5,model=1,daily=COM1_5,status=variable
new load.3000140400M1 bus1=RML1052900968.1.2.0,Phases=2,kv=0.22,kW=2.99946,pf=0.92,Vminpu=0.92,Vmaxpu=1.5,model=1,daily=RES5_5,status=variable
new load.3000140403M1 bus1=RML1052901003.2.3.0,Phases=2,kv=0.22,kW=1.1237,pf=0.92,Vminpu=0.92,Vmaxpu=1.5,model=1,daily=RES2_2,status=variable
new load.3000140404M1 bus1=RML1052823933.1.0,Phases=1,kv=0.127,kW=0.62844,pf=0.92,Vminpu=0.92,Vmaxpu=1.5,model=1,daily=RES1_2,status=variable
new load.3000140405M1 bus1=RML1052823884.3.0,Phases=1,kv=0.127,kW=2.00618,pf=0.92,Vminpu=0.92,Vmaxpu=1.5,model=1,daily=RES3_3,status=variable
new load.3000140406M1 bus1=RML1056424632.1.2.0,Phases=2,kv=0.22,kW=0.36502,pf=0.92,Vminpu=0.92,Vmaxpu=1.5,model=1,daily=RES2_2,status=variable
new load.3000140407M1 bus1=RML1052823905.2.0,Phases=1,kv=0.127,kW=1.76484,pf=0.92,Vminpu=0.92,Vmaxpu=1.5,model=1,daily=RES3_3,status=variable
new load.3000140408M1 bus1=RML1052823079.2.3.0,Phases=2,kv=0.22,kW=1.5084,pf=0.92,Vminpu=0.92,Vmaxpu=1.5,model=1,daily=RES3_3,status=variable
new load.3000140409M1 bus1=RML1052823086.1.0,Phases=1,kv=0.127,kW=0.70698,pf=0.92,Vminpu=0.92,Vmaxpu=1.5,model=1,daily=RES1_2,status=variable
new load.3000140411M1 bus1=RML1052823212.2.3.0,Phases=2,kv=0.22,kW=0.85172,pf=0.92,Vminpu=0.92,Vmaxpu=1.5,model=1,daily=RES2_2,status=variable
new load.3000140412M1 bus1=RML1052823205.1.2.0,Phases=2,kv=0.22,kW=1.42544,pf=0.92,Vminpu=0.92,Vmaxpu=1.5,model=1,daily=RES3_3,status=variable
new load.3000140414M1 bus1=RML1052823149.2.0,Phases=1,kv=0.127,kW=1.55464,pf=0.92,Vminpu=0.92,Vmaxpu=1.5,model=1,daily=RES4_4,status=variable
new load.3000140416M1 bus1=RML1052823100.2.3.0,Phases=2,kv=0.22,kW=0.6088,pf=0.92,Vminpu=0.92,Vmaxpu=1.5,model=1,daily=RES1_2,status=variable
new load.3000140417M1 bus1=RML1052823093.1.2.0,Phases=2,kv=0.22,kW=1.2597,pf=0.92,Vminpu=0.92,Vmaxpu=1.5,model=1,daily=RES2_2,status=variable
new load.3000140418M1 bus1=RML1052823912.2.0,Phases=1,kv=0.127,kW=0.8732,pf=0.92,Vminpu=0.92,Vmaxpu=1.5,model=1,daily=RES2_2,status=variable
new load.3000140419M1 bus1=RML1052823898.1.0,Phases=1,kv=0.127,kW=1.15234,pf=0.92,Vminpu=0.92,Vmaxpu=1.5,model=1,daily=RES2_2,status=variable
new load.3000140421M1 bus1=RML1052824024.1.2.0,Phases=2,kv=0.22,kW=1.1237,pf=0.92,Vminpu=0.92,Vmaxpu=1.5,model=1,daily=RES2_2,status=variable
new load.3000140422M1 bus1=RML1052824059.2.3.0,Phases=2,kv=0.22,kW=1.19164,pf=0.92,Vminpu=0.92,Vmaxpu=1.5,model=1,daily=RES3_3,status=variable
new load.3000140423M1 bus1=RML1052824052.2.0,Phases=1,kv=0.127,kW=0.42228,pf=0.92,Vminpu=0.92,Vmaxpu=1.5,model=1,daily=RES2_2,status=variable
new load.3000140424M1 bus1=RML1052824192.2.0,Phases=1,kv=0.127,kW=0.89468,pf=0.92,Vminpu=0.92,Vmaxpu=1.5,model=1,daily=RES2_2,status=variable
new load.3000140427M1 bus1=RML1052824066.1.3.0,Phases=2,kv=0.22,kW=0.81594,pf=0.92,Vminpu=0.92,Vmaxpu=1.5,model=1,daily=RES2_2,status=variable
new load.3000140428M1 bus1=RML1052824017.2.0,Phases=1,kv=0.127,kW=0.00982,pf=0.92,Vminpu=0.92,Vmaxpu=1.5,model=1,daily=RES1_2,status=variable
new load.3000140431M1 bus1=RML1052823919.1.2.0,Phases=2,kv=0.22,kW=0.74626,pf=0.92,Vminpu=0.92,Vmaxpu=1.5,model=1,daily=RES1_2,status=variable
new load.3000140432M1 bus1=RML1052823926.3.0,Phases=1,kv=0.127,kW=1.41716,pf=0.92,Vminpu=0.92,Vmaxpu=1.5,model=1,daily=RES2_2,status=variable
new load.3000140433M1 bus1=RML1052823940.2.0,Phases=1,kv=0.127,kW=0.10736,pf=0.92,Vminpu=0.92,Vmaxpu=1.5,model=1,daily=RES2_2,status=variable
new load.3000140434M1 bus1=RML1052823961.3.0,Phases=1,kv=0.127,kW=1.30476,pf=0.92,Vminpu=0.92,Vmaxpu=1.5,model=1,daily=RES3_3,status=variable
new load.3000140435M1 bus1=RML1052823989.3.0,Phases=1,kv=0.127,kW=1.33842,pf=0.92,Vminpu=0.92,Vmaxpu=1.5,model=1,daily=RES2_2,status=variable
new load.3000140436M1 bus1=RML1052823975.2.0,Phases=1,kv=0.127,kW=0.6871,pf=0.92,Vminpu=0.92,Vmaxpu=1.5,model=1,daily=RES2_2,status=variable
new load.3000140438M1 bus1=RML1052824094.1.0,Phases=1,kv=0.127,kW=0.95908,pf=0.92,Vminpu=0.92,Vmaxpu=1.5,model=1,daily=RES2_2,status=variable
new load.3000140439M1 bus1=RML1052824101.2.0,Phases=1,kv=0.127,kW=0.55828,pf=0.92,Vminpu=0.92,Vmaxpu=1.5,model=1,daily=RES2_2,status=variable
new load.3000140440M1 bus1=RML1052824108.1.0,Phases=1,kv=0.127,kW=1.0593,pf=0.92,Vminpu=0.92,Vmaxpu=1.5,model=1,daily=RES2_2,status=variable
new load.3000140441M1 bus1=RML1052824199.3.0,Phases=1,kv=0.127,kW=0.49096,pf=0.92,Vminpu=0.92,Vmaxpu=1.5,model=1,daily=RES1_2,status=variable
new load.3000140442M1 bus1=RML1052824213.2.0,Phases=1,kv=0.127,kW=1.0235,pf=0.92,Vminpu=0.92,Vmaxpu=1.5,model=1,daily=RES2_2,status=variable
new load.3000140443M1 bus1=RML1052824206.1.3.0,Phases=2,kv=0.22,kW=0.02862,pf=0.92,Vminpu=0.92,Vmaxpu=1.5,model=1,daily=RES2_2,status=variable
new load.3000140444M1 bus1=RML1052824220.3.0,Phases=1,kv=0.127,kW=1.1094,pf=0.92,Vminpu=0.92,Vmaxpu=1.5,model=1,daily=RES2_2,status=variable
new load.3000140445M1 bus1=RML1052824171.1.3.0,Phases=2,kv=0.22,kW=1.53624,pf=0.92,Vminpu=0.92,Vmaxpu=1.5,model=1,daily=RES4_4,status=variable
new load.3000140446M1 bus1=RML1052824178.2.0,Phases=1,kv=0.127,kW=0.62844,pf=0.92,Vminpu=0.92,Vmaxpu=1.5,model=1,daily=RES1_2,status=variable
new load.3000140447M1 bus1=RML1052824157.2.3.0,Phases=2,kv=0.22,kW=1.0235,pf=0.92,Vminpu=0.92,Vmaxpu=1.5,model=1,daily=RES2_2,status=variable
new load.3000140448M1 bus1=RML1052824136.3.0,Phases=1,kv=0.127,kW=1.41036,pf=0.92,Vminpu=0.92,Vmaxpu=1.5,model=1,daily=RES3_3,status=variable
new load.3000140449M1 bus1=RML1052824122.2.0,Phases=1,kv=0.127,kW=1.14518,pf=0.92,Vminpu=0.92,Vmaxpu=1.5,model=1,daily=RES2_2,status=variable
new load.3000140450M1 bus1=RML1052825445.1.2.3.0,Phases=3,kv=0.22,kW=1.20062,pf=0.92,Vminpu=0.92,Vmaxpu=1.5,model=1,daily=COM2_2,status=variable
new load.3000140451M1 bus1=RML1052825459.3.0,Phases=1,kv=0.127,kW=1.12376,pf=0.92,Vminpu=0.92,Vmaxpu=1.5,model=1,daily=RES3_3,status=variable
new load.3000140452M1 bus1=RML1052825466.1.2.0,Phases=2,kv=0.22,kW=1.14068,pf=0.92,Vminpu=0.92,Vmaxpu=1.5,model=1,daily=RES4_4,status=variable
new load.3000140453M1 bus1=RML1052825466.1.2.0,Phases=2,kv=0.22,kW=0.55112,pf=0.92,Vminpu=0.92,Vmaxpu=1.5,model=1,daily=RES2_2,status=variable
new load.3000140454M1 bus1=RML1052825452.1.0,Phases=1,kv=0.127,kW=0.12766,pf=0.92,Vminpu=0.92,Vmaxpu=1.5,model=1,daily=RES1_2,status=variable
new load.3000140455M1 bus1=RML1052823324.2.0,Phases=1,kv=0.127,kW=0.54006,pf=0.92,Vminpu=0.92,Vmaxpu=1.5,model=1,daily=RES1_2,status=variable
new load.3000140456M1 bus1=RML1052823324.2.0,Phases=1,kv=0.127,kW=0.02946,pf=0.92,Vminpu=0.92,Vmaxpu=1.5,model=1,daily=RES1_2,status=variable
new load.3000140457M1 bus1=RML1052824129.1.3.0,Phases=2,kv=0.22,kW=1.0736,pf=0.92,Vminpu=0.92,Vmaxpu=1.5,model=1,daily=RES2_2,status=variable
new load.3000140459M1 bus1=RML1052824283.1.3.0,Phases=2,kv=0.22,kW=0.94478,pf=0.92,Vminpu=0.92,Vmaxpu=1.5,model=1,daily=RES2_2,status=variable
new load.3000140460M1 bus1=RML1052824269.3.0,Phases=1,kv=0.127,kW=0.7659,pf=0.92,Vminpu=0.92,Vmaxpu=1.5,model=1,daily=RES1_2,status=variable
new load.3000140461M1 bus1=RML1052824332.1.0,Phases=1,kv=0.127,kW=0.7168,pf=0.92,Vminpu=0.92,Vmaxpu=1.5,model=1,daily=RES1_2,status=variable
new load.3000140462M1 bus1=RML1052824311.3.0,Phases=1,kv=0.127,kW=0.42222,pf=0.92,Vminpu=0.92,Vmaxpu=1.5,model=1,daily=RES1_2,status=variable
new load.3000140463M1 bus1=RML1052824395.2.0,Phases=1,kv=0.127,kW=0.90898,pf=0.92,Vminpu=0.92,Vmaxpu=1.5,model=1,daily=RES2_2,status=variable
new load.3000140464M1 bus1=RML1052825424.1.2.3.0,Phases=3,kv=0.22,kW=2.57574,pf=0.92,Vminpu=0.92,Vmaxpu=1.5,model=1,daily=RES4_4,status=variable
new load.3000140467M1 bus1=RML1052825417.1.2.0,Phases=2,kv=0.22,kW=0.11502,pf=0.92,Vminpu=0.92,Vmaxpu=1.5,model=1,daily=COM1_5,status=variable
new load.3000140469M1 bus1=RML1052825480.2.3.0,Phases=2,kv=0.22,kW=0.90898,pf=0.92,Vminpu=0.92,Vmaxpu=1.5,model=1,daily=RES2_2,status=variable
new load.3000307651M1 bus1=RML1052679474.1.2.0,Phases=2,kv=0.22,kW=0.63694,pf=0.92,Vminpu=0.92,Vmaxpu=1.5,model=1,daily=COM1_9,status=variable
new load.3000307652M1 bus1=RML1052679467.1.2.0,Phases=2,kv=0.22,kW=0.79326,pf=0.92,Vminpu=0.92,Vmaxpu=1.5,model=1,daily=RES1_3,status=variable
new load.3000307653M1 bus1=RML1052679460.1.2.3.0,Phases=3,kv=0.22,kW=0.5848,pf=0.92,Vminpu=0.92,Vmaxpu=1.5,model=1,daily=COM1_9,status=variable
new load.3000307654M1 bus1=RML1052679313.1.0,Phases=1,kv=0.127,kW=0.61832,pf=0.92,Vminpu=0.92,Vmaxpu=1.5,model=1,daily=COM1_9,status=variable
new load.3000307655M1 bus1=RML1052679327.1.2.0,Phases=2,kv=0.22,kW=0.61088,pf=0.92,Vminpu=0.92,Vmaxpu=1.5,model=1,daily=COM1_9,status=variable
new load.3000307656M1 bus1=RML1052679341.3.0,Phases=1,kv=0.127,kW=1.1696,pf=0.92,Vminpu=0.92,Vmaxpu=1.5,model=1,daily=COM1_9,status=variable
new load.3000307657M1 bus1=RML1052826215.2.0,Phases=1,kv=0.127,kW=1.43034,pf=0.92,Vminpu=0.92,Vmaxpu=1.5,model=1,daily=COM1_9,status=variable
new load.3000307658M1 bus1=RML1052826229.1.2.0,Phases=2,kv=0.22,kW=1.03584,pf=0.92,Vminpu=0.92,Vmaxpu=1.5,model=1,daily=RES2_5,status=variable
new load.3000307659M1 bus1=RML1060316619.1.2.0,Phases=2,kv=0.22,kW=0.6215,pf=0.92,Vminpu=0.92,Vmaxpu=1.5,model=1,daily=RES2_5,status=variable
new load.3000307660M1 bus1=RML1060316623.1.2.0,Phases=2,kv=0.22,kW=0.87906,pf=0.92,Vminpu=0.92,Vmaxpu=1.5,model=1,daily=RES2_5,status=variable
new load.3000307661M1 bus1=RML1060316745.3.0,Phases=1,kv=0.127,kW=0.149,pf=0.92,Vminpu=0.92,Vmaxpu=1.5,model=1,daily=COM1_9,status=variable
new load.3000307663M1 bus1=RML1052827188.3.0,Phases=1,kv=0.127,kW=1.00784,pf=0.92,Vminpu=0.92,Vmaxpu=1.5,model=1,daily=RES2_5,status=variable
new load.3000307664M1 bus1=RML1052827202.1.2.3.0,Phases=3,kv=0.22,kW=1.68274,pf=0.92,Vminpu=0.92,Vmaxpu=1.5,model=1,daily=RES5_7,status=variable
new load.3000307665M1 bus1=RML1052827244.2.3.0,Phases=2,kv=0.22,kW=3.11014,pf=0.92,Vminpu=0.92,Vmaxpu=1.5,model=1,daily=RES3_5,status=variable
new load.3000307666M1 bus1=RML1052827209.1.2.0,Phases=2,kv=0.22,kW=1.52478,pf=0.92,Vminpu=0.92,Vmaxpu=1.5,model=1,daily=RES3_5,status=variable
new load.3000307668M1 bus1=RML1052827181.2.0,Phases=1,kv=0.127,kW=0.46188,pf=0.92,Vminpu=0.92,Vmaxpu=1.5,model=1,daily=COM1_9,status=variable
new load.3000307669M1 bus1=RML1052826201.2.3.0,Phases=2,kv=0.22,kW=0.47136,pf=0.92,Vminpu=0.92,Vmaxpu=1.5,model=1,daily=RES1_3,status=variable
new load.3000307670M1 bus1=RML1052827195.1.0,Phases=1,kv=0.127,kW=0.0447,pf=0.92,Vminpu=0.92,Vmaxpu=1.5,model=1,daily=COM1_9,status=variable
new load.3000307671M1 bus1=RML1052826173.1.2.0,Phases=2,kv=0.22,kW=0.5711,pf=0.92,Vminpu=0.92,Vmaxpu=1.5,model=1,daily=RES2_5,status=variable
new load.3000307673M1 bus1=RML1052826103.2.3.0,Phases=2,kv=0.22,kW=0.27564,pf=0.92,Vminpu=0.92,Vmaxpu=1.5,model=1,daily=COM1_9,status=variable
new load.3000307674M1 bus1=RML1052826124.1.2.0,Phases=2,kv=0.22,kW=2.24172,pf=0.92,Vminpu=0.92,Vmaxpu=1.5,model=1,daily=RES3_5,status=variable
new load.3000307675M1 bus1=RML1052826124.1.2.0,Phases=2,kv=0.22,kW=1.41544,pf=0.92,Vminpu=0.92,Vmaxpu=1.5,model=1,daily=COM1_9,status=variable
new load.3000307680M1 bus1=RML1052825305.1.2.0,Phases=2,kv=0.22,kW=0.6103,pf=0.92,Vminpu=0.92,Vmaxpu=1.5,model=1,daily=RES2_5,status=variable
new load.3000307681M1 bus1=RML1052825361.1.2.0,Phases=2,kv=0.22,kW=3.10102,pf=0.92,Vminpu=0.92,Vmaxpu=1.5,model=1,daily=RES4_7,status=variable
new load.3000307682M1 bus1=RML1052825347.1.3.0,Phases=2,kv=0.22,kW=2.76002,pf=0.92,Vminpu=0.92,Vmaxpu=1.5,model=1,daily=RES4_7,status=variable
new load.3000307683M1 bus1=RML1052825347.1.3.0,Phases=2,kv=0.22,kW=0.73892,pf=0.92,Vminpu=0.92,Vmaxpu=1.5,model=1,daily=COM2_7,status=variable
new load.3000307690M1 bus1=RML1052825333.1.0,Phases=1,kv=0.127,kW=0.6663,pf=0.92,Vminpu=0.92,Vmaxpu=1.5,model=1,daily=RES2_5,status=variable
new load.3000307692M1 bus1=RML1052825333.1.0,Phases=1,kv=0.127,kW=0.09684,pf=0.92,Vminpu=0.92,Vmaxpu=1.5,model=1,daily=COM1_9,status=variable
new load.3000307693M1 bus1=RML1052825249.2.0,Phases=1,kv=0.127,kW=0.56334,pf=0.92,Vminpu=0.92,Vmaxpu=1.5,model=1,daily=RES1_3,status=variable
new load.3000307698M1 bus1=RML1052825179.3.0,Phases=1,kv=0.127,kW=0.70026,pf=0.92,Vminpu=0.92,Vmaxpu=1.5,model=1,daily=COM1_9,status=variable
new load.3000307699M1 bus1=RML1052825193.2.3.0,Phases=2,kv=0.22,kW=1.27232,pf=0.92,Vminpu=0.92,Vmaxpu=1.5,model=1,daily=RES3_5,status=variable
new load.3000307700M1 bus1=RML1052825137.1.0,Phases=1,kv=0.127,kW=0.58852,pf=0.92,Vminpu=0.92,Vmaxpu=1.5,model=1,daily=COM1_9,status=variable
new load.3000307701M1 bus1=RML1052825200.3.0,Phases=1,kv=0.127,kW=0.149,pf=0.92,Vminpu=0.92,Vmaxpu=1.5,model=1,daily=COM1_9,status=variable
new load.3000307702M1 bus1=RML1052825123.1.0,Phases=1,kv=0.127,kW=1.63892,pf=0.92,Vminpu=0.92,Vmaxpu=1.5,model=1,daily=COM1_9,status=variable
new load.3000307703M1 bus1=RML1052825060.2.3.0,Phases=2,kv=0.22,kW=3.62318,pf=0.92,Vminpu=0.92,Vmaxpu=1.5,model=1,daily=RES4_7,status=variable
new load.3000307704M1 bus1=RML1052825067.1.3.0,Phases=2,kv=0.22,kW=1.01766,pf=0.92,Vminpu=0.92,Vmaxpu=1.5,model=1,daily=RES5_7,status=variable
new load.3000307705M1 bus1=RML1052825067.1.3.0,Phases=2,kv=0.22,kW=0.1341,pf=0.92,Vminpu=0.92,Vmaxpu=1.5,model=1,daily=COM1_9,status=variable
new load.3000307706M1 bus1=RML1052825074.1.2.0,Phases=2,kv=0.22,kW=1.05822,pf=0.92,Vminpu=0.92,Vmaxpu=1.5,model=1,daily=RES2_5,status=variable
new load.3000307707M1 bus1=RML1052825046.2.0,Phases=1,kv=0.127,kW=0.5848,pf=0.92,Vminpu=0.92,Vmaxpu=1.5,model=1,daily=COM1_9,status=variable
new load.3000307708M1 bus1=RML1052825053.2.0,Phases=1,kv=0.127,kW=0.84546,pf=0.92,Vminpu=0.92,Vmaxpu=1.5,model=1,daily=RES2_5,status=variable
new load.3000307710M1 bus1=RML1052825025.1.2.3.0,Phases=3,kv=0.22,kW=0.49436,pf=0.92,Vminpu=0.92,Vmaxpu=1.5,model=1,daily=RES1_3,status=variable
new load.3000307711M1 bus1=RML1052825039.1.2.3.0,Phases=3,kv=0.22,kW=1.89752,pf=0.92,Vminpu=0.92,Vmaxpu=1.5,model=1,daily=COM3_6,status=variable
new load.3000307712M1 bus1=RML1052823065.1.2.3.0,Phases=3,kv=0.22,kW=0.75878,pf=0.92,Vminpu=0.92,Vmaxpu=1.5,model=1,daily=RES1_3,status=variable
new load.3000307713M1 bus1=RML1052823065.1.2.3.0,Phases=3,kv=0.22,kW=1.79742,pf=0.92,Vminpu=0.92,Vmaxpu=1.5,model=1,daily=RES3_5,status=variable
new load.3000307714M1 bus1=RML1052823065.1.2.3.0,Phases=3,kv=0.22,kW=0.64812,pf=0.92,Vminpu=0.92,Vmaxpu=1.5,model=1,daily=COM1_9,status=variable
new load.3000307715M1 bus1=RML1052823065.1.2.3.0,Phases=3,kv=0.22,kW=0.06332,pf=0.92,Vminpu=0.92,Vmaxpu=1.5,model=1,daily=COM1_9,status=variable
new load.3000307717M1 bus1=RML1052823072.1.3.0,Phases=2,kv=0.22,kW=1.8329,pf=0.92,Vminpu=0.92,Vmaxpu=1.5,model=1,daily=RES4_7,status=variable
new load.3000307719M1 bus1=RML1052823051.1.2.0,Phases=2,kv=0.22,kW=0.67048,pf=0.92,Vminpu=0.92,Vmaxpu=1.5,model=1,daily=COM1_9,status=variable
new load.3000307720M1 bus1=RML1052823002.2.0,Phases=1,kv=0.127,kW=0.10078,pf=0.92,Vminpu=0.92,Vmaxpu=1.5,model=1,daily=RES2_5,status=variable
new load.3000307721M1 bus1=RML1052823009.3.0,Phases=1,kv=0.127,kW=1.05822,pf=0.92,Vminpu=0.92,Vmaxpu=1.5,model=1,daily=RES2_5,status=variable
new load.3000307722M1 bus1=RML1052823023.2.0,Phases=1,kv=0.127,kW=0.72428,pf=0.92,Vminpu=0.92,Vmaxpu=1.5,model=1,daily=RES1_3,status=variable
new load.3000307724M1 bus1=RML1052823030.1.0,Phases=1,kv=0.127,kW=0.80628,pf=0.92,Vminpu=0.92,Vmaxpu=1.5,model=1,daily=RES2_5,status=variable
new load.3000307725M1 bus1=RML1052823730.1.2.3.0,Phases=3,kv=0.22,kW=0.29798,pf=0.92,Vminpu=0.92,Vmaxpu=1.5,model=1,daily=COM1_9,status=variable
new load.3000307726M1 bus1=RML1052823737.2.3.0,Phases=2,kv=0.22,kW=0.6159,pf=0.92,Vminpu=0.92,Vmaxpu=1.5,model=1,daily=RES2_5,status=variable
new load.3000307727M1 bus1=RML1052823037.2.3.0,Phases=2,kv=0.22,kW=0.78948,pf=0.92,Vminpu=0.92,Vmaxpu=1.5,model=1,daily=RES2_5,status=variable
new load.3000307728M1 bus1=RML1052823016.1.3.0,Phases=2,kv=0.22,kW=0.0224,pf=0.92,Vminpu=0.92,Vmaxpu=1.5,model=1,daily=RES2_5,status=variable
new load.3000307729M1 bus1=RML1052822995.1.0,Phases=1,kv=0.127,kW=0.42538,pf=0.92,Vminpu=0.92,Vmaxpu=1.5,model=1,daily=RES1_3,status=variable
new load.3000307730M1 bus1=RML1052822932.1.2.0,Phases=2,kv=0.22,kW=0.77828,pf=0.92,Vminpu=0.92,Vmaxpu=1.5,model=1,daily=RES2_5,status=variable
new load.3000307731M1 bus1=RML1052822869.1.0,Phases=1,kv=0.127,kW=0.21312,pf=0.92,Vminpu=0.92,Vmaxpu=1.5,model=1,daily=RES4_7,status=variable
new load.3000307732M1 bus1=RML1052822827.1.2.3.0,Phases=3,kv=0.22,kW=1.29996,pf=0.92,Vminpu=0.92,Vmaxpu=1.5,model=1,daily=COM1_9,status=variable
new load.3000307733M1 bus1=RML1052822841.1.3.0,Phases=2,kv=0.22,kW=0.47032,pf=0.92,Vminpu=0.92,Vmaxpu=1.5,model=1,daily=RES2_5,status=variable