new line.1706061 bus1=BBT1944299.1.2.3.0,bus2=BBT1944292.1.2.3.0,Phases=3,Linecode=BT108_BT107_7_3_1,Length=0.039840000,Units=km
new line.1706068 bus1=BBT1944306.1.2.3.0,bus2=BBT1944299.1.2.3.0,Phases=3,Linecode=BT108_BT107_7_3_1,Length=0.026881000,Units=km
new line.1706075 bus1=BBT1944285.1.2.3.0,bus2=BBT1944313.1.2.3.0,Phases=3,Linecode=BT518_BT518_7_3_1,Length=0.000501000,Units=km
new line.1706082 bus1=BBT1944313.1.2.3.0,bus2=BBT1944320.1.2.3.0,Phases=3,Linecode=BT803_BT803_4_3_4,Length=0.040016000,Units=km
new line.1706089 bus1=BBT1944313.1.2.3.0,bus2=BBT3072384.1.2.3.0,Phases=3,Linecode=BT803_BT803_4_3_4,Length=0.036415000,Units=km
new line.1706096 bus1=BBT1944320.1.2.3.0,bus2=BBT1944327.1.2.3.0,Phases=3,Linecode=BT108_BT107_7_3_1,Length=0.038964000,Units=km
new line.1706110 bus1=BBT1944348.1.2.3.0,bus2=BBT1944341.1.2.3.0,Phases=3,Linecode=BT107_BT107_7_3_1,Length=0.034539000,Units=km
new line.1706117 bus1=BBT1944355.1.2.3.0,bus2=BBT3062570.1.2.3.0,Phases=3,Linecode=BT810_BT810_4_3_4,Length=0.031635000,Units=km
new line.1706124 bus1=BBT1944362.1.2.3.0,bus2=BBT1944348.1.2.3.0,Phases=3,Linecode=BT107_BT107_7_3_1,Length=0.034539000,Units=km
new line.1706131 bus1=BBT1944362.1.2.3.0,bus2=BBT1944355.1.2.3.0,Phases=3,Linecode=BT107_BT107_7_3_1,Length=0.033614000,Units=km
new line.1706138 bus1=BBT1944369.1.2.3.0,bus2=BBT1944362.1.2.3.0,Phases=3,Linecode=BT107_BT107_7_3_1,Length=0.037122000,Units=km
new line.1706145 bus1=BBT1944376.1.2.3.0,bus2=BBT1944369.1.2.3.0,Phases=3,Linecode=BT107_BT107_7_3_1,Length=0.033554000,Units=km
new line.1706152 bus1=BBT1944383.1.2.3.0,bus2=BBT1944390.1.2.3.0,Phases=3,Linecode=BT108_BT107_7_3_1,Length=0.029166000,Units=km
new line.1706159 bus1=BBT1944390.1.2.3.0,bus2=BBT1944376.1.2.3.0,Phases=3,Linecode=BT107_BT107_7_3_1,Length=0.030095000,Units=km
new line.1706173 bus1=BBT1944397.1.2.3.0,bus2=BBT1944383.1.2.3.0,Phases=3,Linecode=BT108_BT107_7_3_1,Length=0.030095000,Units=km
new line.1706180 bus1=BBT1944334.1.2.3.0,bus2=BBT1944397.1.2.3.0,Phases=3,Linecode=BT518_BT518_7_3_1,Length=0.000501000,Units=km
new line.1706187 bus1=BBT1944397.1.2.3.0,bus2=BBT1944404.1.2.3.0,Phases=3,Linecode=BT108_BT107_7_3_1,Length=0.042561000,Units=km
new line.1706194 bus1=BBT1944404.1.2.3.0,bus2=BBT1944411.1.2.3.0,Phases=3,Linecode=BT108_BT107_7_3_1,Length=0.032215000,Units=km
new line.1706201 bus1=BBT1944411.1.2.3.0,bus2=BBT1944418.1.2.3.0,Phases=3,Linecode=BT108_BT107_7_3_1,Length=0.038434000,Units=km
new line.1706208 bus1=BBT1944418.1.2.3.0,bus2=BBT1944425.1.2.3.0,Phases=3,Linecode=BT108_BT107_7_3_1,Length=0.035397000,Units=km
new line.1706215 bus1=BBT1944446.1.2.3.0,bus2=BBT1944439.1.2.3.0,Phases=3,Linecode=BT108_BT107_7_3_1,Length=0.038199000,Units=km
new line.1706222 bus1=BBT1944453.1.2.3.0,bus2=BBT1944446.1.2.3.0,Phases=3,Linecode=BT108_BT107_7_3_1,Length=0.038913000,Units=km
new line.1706229 bus1=BBT1944460.1.2.3.0,bus2=BBT1944453.1.2.3.0,Phases=3,Linecode=BT108_BT107_7_3_1,Length=0.039613000,Units=km
new line.1706236 bus1=BBT1944467.1.2.3.0,bus2=BBT1944460.1.2.3.0,Phases=3,Linecode=BT108_BT107_7_3_1,Length=0.038303000,Units=km
new line.1706243 bus1=BBT1944474.1.2.3.0,bus2=BBT1944467.1.2.3.0,Phases=3,Linecode=BT108_BT107_7_3_1,Length=0.038094000,Units=km
new line.1706250 bus1=BBT1944432.1.2.3.0,bus2=BBT1944474.1.2.3.0,Phases=3,Linecode=BT518_BT518_7_3_1,Length=0.000501000,Units=km
new line.1706257 bus1=BBT1944474.1.2.3.0,bus2=BBT1944481.1.2.3.0,Phases=3,Linecode=BT108_BT107_7_3_1,Length=0.039576000,Units=km
new line.1706264 bus1=BBT1944481.1.2.3.0,bus2=BBT1944488.1.2.3.0,Phases=3,Linecode=BT108_BT107_7_3_1,Length=0.040513000,Units=km
new line.1706271 bus1=BBT1944488.1.2.3.0,bus2=BBT1944495.1.2.3.0,Phases=3,Linecode=BT108_BT108_7_3_1,Length=0.038499000,Units=km
new line.1706278 bus1=BBT1944495.1.2.3.0,bus2=BBT1944509.1.2.3.0,Phases=3,Linecode=BT108_BT108_7_3_1,Length=0.038642000,Units=km
new line.1706285 bus1=BBT1944509.1.2.3.0,bus2=BBT1944516.1.2.3.0,Phases=3,Linecode=BT108_BT108_7_3_1,Length=0.040513000,Units=km
new line.1706292 bus1=BBT1944516.1.2.3.0,bus2=BBT1944502.1.2.3.0,Phases=3,Linecode=BT809_BT809_4_3_4,Length=0.025010000,Units=km
new line.1706313 bus1=BBT1944537.1.2.3.0,bus2=BBT2928303.1.2.3.0,Phases=3,Linecode=BT810_BT810_4_3_4,Length=0.006327000,Units=km
new line.1706320 bus1=BBT1944551.1.2.3.0,bus2=BBT2928464.1.2.3.0,Phases=3,Linecode=BT810_BT810_4_3_4,Length=0.023269000,Units=km
new line.1706327 bus1=BBT1944558.1.2.3.0,bus2=BBT1944530.1.2.3.0,Phases=3,Linecode=BT810_BT810_4_3_4,Length=0.029979000,Units=km
new line.1706334 bus1=BBT1944558.1.2.3.0,bus2=BBT1944551.1.2.3.0,Phases=3,Linecode=BT810_BT810_4_3_4,Length=0.019731000,Units=km
new line.1706341 bus1=BBT1944558.1.2.3.0,bus2=BBT1944565.1.2.3.0,Phases=3,Linecode=BT810_BT810_4_3_4,Length=0.007283000,Units=km
new line.1706348 bus1=BBT1944572.1.2.3.0,bus2=BBT1944558.1.2.3.0,Phases=3,Linecode=BT810_BT810_4_3_4,Length=0.006711000,Units=km
new line.1706355 bus1=BBT1944579.1.2.3.0,bus2=BBT1944537.1.2.3.0,Phases=3,Linecode=BT810_BT810_4_3_4,Length=0.041199000,Units=km
new line.1706362 bus1=BBT1944586.1.2.3.0,bus2=BBT2928310.1.2.3.0,Phases=3,Linecode=BT803_BT803_4_3_4,Length=0.032215000,Units=km
new line.1706369 bus1=BBT1944593.1.2.3.0,bus2=BBT1944586.1.2.3.0,Phases=3,Linecode=BT803_BT803_4_3_4,Length=0.027324000,Units=km
new line.1706376 bus1=BBT1944600.1.2.3.0,bus2=BBT1944579.1.2.3.0,Phases=3,Linecode=BT108_BT107_7_3_1,Length=0.034899000,Units=km
new line.1706383 bus1=BBT1944523.1.2.3.0,bus2=BBT1944600.1.2.3.0,Phases=3,Linecode=BT518_BT518_7_3_1,Length=0.000501000,Units=km
new line.1706390 bus1=BBT1944600.1.2.3.0,bus2=BBT1944621.1.2.3.0,Phases=3,Linecode=BT108_BT107_7_3_1,Length=0.030899000,Units=km
new line.1706397 bus1=BBT1944607.1.2.3.0,bus2=BBT131479702.1.2.3.0,Phases=3,Linecode=BT107_BT107_7_3_1,Length=0.025090000,Units=km
new line.1706404 bus1=BBT1944614.1.2.3.0,bus2=BBT1944572.1.2.3.0,Phases=3,Linecode=BT107_BT107_7_3_1,Length=0.038499000,Units=km
new line.1706411 bus1=BBT1944621.1.2.3.0,bus2=BBT1944614.1.2.3.0,Phases=3,Linecode=BT107_BT107_7_3_1,Length=0.005388000,Units=km
new line.1706418 bus1=BBT1944621.1.2.3.0,bus2=BBT1944628.1.2.3.0,Phases=3,Linecode=BT107_BT107_7_3_1,Length=0.008548000,Units=km
new line.1706425 bus1=BBT1944621.1.2.3.0,bus2=BBT1944642.1.2.3.0,Phases=3,Linecode=BT107_BT107_7_3_1,Length=0.021032000,Units=km
new line.1706432 bus1=BBT1944628.1.2.3.0,bus2=BBT1944635.1.2.3.0,Phases=3,Linecode=BT108_BT107_7_3_1,Length=0.031317000,Units=km
new line.1706439 bus1=BBT2928338.1.2.3.0,bus2=BBT1944607.1.2.3.0,Phases=3,Linecode=BT107_BT107_7_3_1,Length=0.026411000,Units=km
new line.1706446 bus1=BBT1944642.1.2.3.0,bus2=BBT1944663.1.2.3.0,Phases=3,Linecode=BT107_BT107_7_3_1,Length=0.026411000,Units=km
new line.1706453 bus1=BBT1944649.1.2.3.0,bus2=BBT2928338.1.2.3.0,Phases=3,Linecode=BT810_BT810_4_3_4,Length=0.018035000,Units=km
new line.1706460 bus1=BBT1944656.1.2.3.0,bus2=BBT1944649.1.2.3.0,Phases=3,Linecode=BT810_BT810_4_3_4,Length=0.029626000,Units=km
new line.1706467 bus1=BBT1944691.1.2.3.0,bus2=BBT1944684.1.2.3.0,Phases=3,Linecode=BT810_BT810_4_3_4,Length=0.035242000,Units=km
new line.1706474 bus1=BBT1944677.1.2.3.0,bus2=BBT1944754.1.2.3.0,Phases=3,Linecode=BT815_BT815_4_3_4,Length=0.007619000,Units=km
new line.1706481 bus1=BBT1944684.1.2.3.0,bus2=BBT1944677.1.2.3.0,Phases=3,Linecode=BT810_BT810_4_3_4,Length=0.037605000,Units=km
new line.1706488 bus1=BBT1944698.1.2.3.0,bus2=BBT1944691.1.2.3.0,Phases=3,Linecode=BT810_BT810_4_3_4,Length=0.020257000,Units=km
new line.1706495 bus1=BBT1944705.1.2.3.0,bus2=BBT1944698.1.2.3.0,Phases=3,Linecode=BT810_BT810_4_3_4,Length=0.006711000,Units=km
new line.1706502 bus1=BBT1944719.1.2.3.0,bus2=BBT1944705.1.2.3.0,Phases=3,Linecode=BT803_BT803_4_3_4,Length=0.035482000,Units=km
new line.1706509 bus1=BBT1944670.1.2.3.0,bus2=BBT1944719.1.2.3.0,Phases=3,Linecode=BT513_BT513_7_3_1,Length=0.000501000,Units=km
new line.1706516 bus1=BBT1944719.1.2.3.0,bus2=BBT1944726.1.2.3.0,Phases=3,Linecode=BT803_BT803_4_3_4,Length=0.036415000,Units=km
new line.1706523 bus1=BBT1944726.1.2.3.0,bus2=BBT1944740.1.2.3.0,Phases=3,Linecode=BT803_BT803_4_3_4,Length=0.040722000,Units=km
new line.1706530 bus1=BBT1944733.1.2.3.0,bus2=BBT1944712.1.2.3.0,Phases=3,Linecode=BT810_BT810_4_3_4,Length=0.036511000,Units=km
new line.1706537 bus1=BBT1944740.1.2.3.0,bus2=BBT1944733.1.2.3.0,Phases=3,Linecode=BT810_BT810_4_3_4,Length=0.007619000,Units=km
new line.1706544 bus1=BBT1944740.1.2.3.0,bus2=BBT1944747.1.2.3.0,Phases=3,Linecode=BT810_BT810_4_3_4,Length=0.012088000,Units=km
new line.1706551 bus1=BBT1944761.1.2.0,bus2=BBT1944768.1.2.0,Phases=2,Linecode=BT304_BT304_7_2_1,Length=0.000501000,Units=km
new line.1706558 bus1=BBT1944775.1.2.0,bus2=BBT1944782.1.2.0,Phases=2,Linecode=BT304_BT304_7_2_1,Length=0.000501000,Units=km
new line.1706572 bus1=BBT1944803.1.2.3.0,bus2=BBT1944810.1.2.3.0,Phases=3,Linecode=BT313_BT313_7_3_1,Length=0.000501000,Units=km
new line.1706579 bus1=BBT1944817.1.2.0,bus2=BBT1944824.1.2.0,Phases=2,Linecode=BT308_BT308_7_2_1,Length=0.000501000,Units=km
new line.1769782 bus1=BBT2006627.1.2.0,bus2=BBT2006634.1.2.0,Phases=2,Linecode=BT307_BT307_7_2_1,Length=0.000501000,Units=km
new line.1769796 bus1=BBT2006655.1.2.0,bus2=BBT2006662.1.2.0,Phases=2,Linecode=BT308_BT308_7_2_1,Length=0.000501000,Units=km
new line.1769831 bus1=BBT2006725.1.2.0,bus2=BBT2006732.1.2.0,Phases=2,Linecode=BT307_BT307_7_2_1,Length=0.000501000,Units=km
new line.1769859 bus1=BBT2006767.1.2.0,bus2=BBT2006774.1.2.0,Phases=2,Linecode=BT307_BT307_7_2_1,Length=0.000501000,Units=km
new line.1769866 bus1=BBT2006781.1.2.0,bus2=BBT2006788.1.2.0,Phases=2,Linecode=BT518_BT518_7_2_1,Length=0.000501000,Units=km
new line.1769873 bus1=BBT2006788.1.2.0,bus2=BBT3140564.1.2.0,Phases=2,Linecode=BT808_BT808_4_2_3,Length=0.047188000,Units=km
new line.1769880 bus1=BBT2006795.1.2.0,bus2=BBT2006802.1.2.0,Phases=2,Linecode=BT304_BT304_7_2_1,Length=0.000501000,Units=km
new line.1769894 bus1=BBT2006823.1.2.0,bus2=BBT2006830.1.2.0,Phases=2,Linecode=BT316_BT316_7_2_1,Length=0.000501000,Units=km
new line.1769915 bus1=BBT2006865.1.2.0,bus2=BBT2006872.1.2.0,Phases=2,Linecode=BT316_BT316_7_2_1,Length=0.000501000,Units=km
new line.1769922 bus1=BBT2006879.1.2.0,bus2=BBT2006886.1.2.0,Phases=2,Linecode=BT316_BT316_7_2_1,Length=0.000501000,Units=km
new line.1769929 bus1=BBT2006893.1.2.0,bus2=BBT2006900.1.2.0,Phases=2,Linecode=BT316_BT316_7_2_1,Length=0.000501000,Units=km
new line.1769943 bus1=BBT2006921.1.2.0,bus2=BBT2006928.1.2.0,Phases=2,Linecode=BT307_BT307_7_2_1,Length=0.000501000,Units=km
new line.1769964 bus1=BBT2006963.1.2.0,bus2=BBT2006970.1.2.0,Phases=2,Linecode=BT513_BT513_7_2_1,Length=0.000501000,Units=km
new line.1769971 bus1=BBT2006970.1.2.0,bus2=BBT3350235.1.2.0,Phases=2,Linecode=BT808_BT808_4_2_3,Length=0.038342000,Units=km
new line.1769985 bus1=BBT2006991.1.2.0,bus2=BBT2006998.1.2.0,Phases=2,Linecode=BT308_BT308_7_2_1,Length=0.000501000,Units=km
new line.1769999 bus1=BBT2007019.1.2.0,bus2=BBT2007026.1.2.0,Phases=2,Linecode=BT518_BT518_7_2_1,Length=0.000501000,Units=km
new line.1770006 bus1=BBT2007026.1.2.0,bus2=BBT3350249.1.2.0,Phases=2,Linecode=BT808_BT808_4_2_3,Length=0.054252000,Units=km
new line.1770041 bus1=BBT2007089.1.2.0,bus2=BBT2007096.1.2.0,Phases=2,Linecode=BT304_BT304_7_2_1,Length=0.000501000,Units=km
new line.1770062 bus1=BBT2007117.1.2.0,bus2=BBT2007124.1.2.0,Phases=2,Linecode=BT513_BT513_7_2_1,Length=0.000501000,Units=km
new line.1770069 bus1=BBT2007131.1.2.0,bus2=BBT2007138.1.2.0,Phases=2,Linecode=BT304_BT304_7_2_1,Length=0.000501000,Units=km
new line.1770104 bus1=BBT2007201.1.2.0,bus2=BBT2007208.1.2.0,Phases=2,Linecode=BT316_BT316_7_2_1,Length=0.000501000,Units=km
new line.1770111 bus1=BBT2007215.1.2.0,bus2=BBT2007222.1.2.0,Phases=2,Linecode=BT304_BT304_7_2_1,Length=0.000501000,Units=km
new line.1770118 bus1=BBT2007236.1.2.0,bus2=BBT2007243.1.2.0,Phases=2,Linecode=BT107_BT107_7_2_1,Length=0.037591000,Units=km
new line.1770125 bus1=BBT2007243.1.2.0,bus2=BBT2007257.1.2.0,Phases=2,Linecode=BT107_BT107_7_2_1,Length=0.030095000,Units=km
new line.1770132 bus1=BBT2007250.1.2.0,bus2=BBT2007236.1.2.0,Phases=2,Linecode=BT107_BT107_7_2_1,Length=0.027814000,Units=km
new line.1770139 bus1=BBT2007264.1.2.0,bus2=BBT3115707.1.2.0,Phases=2,Linecode=BT107_BT107_7_2_1,Length=0.031028000,Units=km
new line.1770146 bus1=BBT2007271.1.2.0,bus2=BBT2007250.1.2.0,Phases=2,Linecode=BT107_BT107_7_2_1,Length=0.032262000,Units=km
new line.1770160 bus1=BBT2007278.1.2.0,bus2=BBT2007264.1.2.0,Phases=2,Linecode=BT107_BT107_7_2_1,Length=0.031397000,Units=km
new line.1770167 bus1=BBT2007285.1.2.0,bus2=BBT2007271.1.2.0,Phases=2,Linecode=BT108_BT107_7_2_1,Length=0.037351000,Units=km
new line.1770174 bus1=BBT2007292.1.2.0,bus2=BBT2007278.1.2.0,Phases=2,Linecode=BT107_BT107_7_2_1,Length=0.030095000,Units=km
new line.1770181 bus1=BBT2007292.1.2.0,bus2=BBT2007306.1.2.0,Phases=2,Linecode=BT107_BT107_7_2_1,Length=0.030095000,Units=km
new line.1770188 bus1=BBT2007299.1.2.0,bus2=BBT2007285.1.2.0,Phases=2,Linecode=BT108_BT107_7_2_1,Length=0.033255000,Units=km
new line.1770195 bus1=BBT2007306.1.2.0,bus2=BBT2007320.1.2.0,Phases=2,Linecode=BT107_BT107_7_2_1,Length=0.032324000,Units=km
new line.1770202 bus1=BBT2007313.1.2.0,bus2=BBT2007299.1.2.0,Phases=2,Linecode=BT108_BT107_7_2_1,Length=0.035482000,Units=km
new line.1770209 bus1=BBT2007229.1.2.0,bus2=BBT2007313.1.2.0,Phases=2,Linecode=BT513_BT513_7_2_1,Length=0.000501000,Units=km
new line.1770216 bus1=BBT2007313.1.2.0,bus2=BBT2007334.1.2.0,Phases=2,Linecode=BT108_BT107_7_2_1,Length=0.034189000,Units=km
new line.1770223 bus1=BBT2007327.1.2.0,bus2=BBT2007292.1.2.0,Phases=2,Linecode=BT107_BT107_7_2_1,Length=0.030376000,Units=km
new line.1770230 bus1=BBT2007334.1.2.0,bus2=BBT2007341.1.2.0,Phases=2,Linecode=BT107_BT107_7_2_1,Length=0.040869000,Units=km
new line.1770237 bus1=BBT2007341.1.2.0,bus2=BBT2007327.1.2.0,Phases=2,Linecode=BT107_BT107_7_2_1,Length=0.021549000,Units=km
new line.1770244 bus1=BBT2007341.1.2.0,bus2=BBT2007348.1.2.0,Phases=2,Linecode=BT108_BT107_7_2_1,Length=0.035128000,Units=km
new line.1770251 bus1=BBT2007348.1.2.0,bus2=BBT2007355.1.2.0,Phases=2,Linecode=BT108_BT107_7_2_1,Length=0.035861000,Units=km
new line.1770265 bus1=BBT2007390.1.2.0,bus2=BBT2007383.1.2.0,Phases=2,Linecode=BT107_BT107_7_2_1,Length=0.031635000,Units=km
new line.1770272 bus1=BBT2007397.1.2.0,bus2=BBT2007390.1.2.0,Phases=2,Linecode=BT107_BT107_7_2_1,Length=0.028804000,Units=km
new line.1770279 bus1=BBT2007404.1.2.0,bus2=BBT2007397.1.2.0,Phases=2,Linecode=BT107_BT107_7_2_1,Length=0.034942000,Units=km
new line.1770286 bus1=BBT2007404.1.2.0,bus2=BBT2007411.1.2.0,Phases=2,Linecode=BT107_BT107_7_2_1,Length=0.032586000,Units=km
new line.1770293 bus1=BBT2007411.1.2.0,bus2=BBT2007425.1.2.0,Phases=2,Linecode=BT107_BT107_7_2_1,Length=0.036784000,Units=km
new line.1770300 bus1=BBT2007523.1.2.3.0,bus2=BBT2007544.1.2.3.0,Phases=3,Linecode=BT107_BT107_7_3_1,Length=0.036263000,Units=km
new line.1770307 bus1=BBT2007432.1.2.0,bus2=BBT2007418.1.2.0,Phases=2,Linecode=BT108_BT107_7_2_1,Length=0.037351000,Units=km
new line.1770314 bus1=BBT2007439.1.2.0,bus2=BBT2007404.1.2.0,Phases=2,Linecode=BT107_BT107_7_2_1,Length=0.037591000,Units=km
new line.1770321 bus1=BBT2007446.1.2.0,bus2=BBT2007432.1.2.0,Phases=2,Linecode=BT108_BT107_7_2_1,Length=0.038641000,Units=km
new line.1770328 bus1=BBT2007467.1.2.0,bus2=BBT134494378.1.2.0,Phases=2,Linecode=BT808_BT808_4_2_3,Length=0.030376000,Units=km
new line.1770335 bus1=BBT2007453.1.2.0,bus2=BBT2007446.1.2.0,Phases=2,Linecode=BT108_BT107_7_2_1,Length=0.029744000,Units=km
new line.1770342 bus1=BBT2007376.1.2.0,bus2=BBT2007453.1.2.0,Phases=2,Linecode=BT513_BT513_7_2_1,Length=0.000501000,Units=km
new line.1770349 bus1=BBT2007453.1.2.0,bus2=BBT2007460.1.2.0,Phases=2,Linecode=BT108_BT107_7_2_1,Length=0.030475000,Units=km
new line.1770356 bus1=BBT2007460.1.2.0,bus2=BBT2007439.1.2.0,Phases=2,Linecode=BT107_BT107_7_2_1,Length=0.035482000,Units=km
new line.1770363 bus1=BBT2007460.1.2.0,bus2=BBT2007488.1.2.0,Phases=2,Linecode=BT107_BT107_7_2_1,Length=0.044739000,Units=km
new line.1770370 bus1=BBT3062535.1.2.0,bus2=BBT2007467.1.2.0,Phases=2,Linecode=BT808_BT808_4_2_3,Length=0.025010000,Units=km
new line.1770377 bus1=BBT134490577.1.2.0,bus2=BBT2007495.1.2.0,Phases=2,Linecode=BT808_BT808_4_2_3,Length=0.030095000,Units=km
new line.1770384 bus1=BBT2007488.1.2.0,bus2=BBT2007509.1.2.0,Phases=2,Linecode=BT107_BT107_7_2_1,Length=0.034013000,Units=km
new line.1770391 bus1=BBT2007495.1.2.0,bus2=BBT2007502.1.2.0,Phases=2,Linecode=BT808_BT808_4_2_3,Length=0.031028000,Units=km
new line.1770398 bus1=BBT2007502.1.2.0,bus2=BBT134490598.1.2.0,Phases=2,Linecode=BT808_BT808_4_2_3,Length=0.027305000,Units=km
new line.1770412 bus1=BBT2007530.1.2.3.0,bus2=BBT2007523.1.2.3.0,Phases=3,Linecode=BT108_BT108_7_3_1,Length=0.028804000,Units=km
new line.1770419 bus1=BBT2007537.1.2.3.0,bus2=BBT2007530.1.2.3.0,Phases=3,Linecode=BT108_BT108_7_3_1,Length=0.031397000,Units=km
new line.1770426 bus1=BBT2007551.1.2.3.0,bus2=BBT2007537.1.2.3.0,Phases=3,Linecode=BT108_BT108_7_3_1,Length=0.026936000,Units=km
new line.1770433 bus1=BBT2007586.1.2.3.0,bus2=BBT2007551.1.2.3.0,Phases=3,Linecode=BT108_BT108_7_3_1,Length=0.029166000,Units=km
new line.1770440 bus1=BBT2007516.1.2.3.0,bus2=BBT2007586.1.2.3.0,Phases=3,Linecode=BT513_BT513_7_3_1,Length=0.000501000,Units=km
new line.1770447 bus1=BBT2007586.1.2.3.0,bus2=BBT2887129.1.2.3.0,Phases=3,Linecode=BT108_BT107_7_3_1,Length=0.029744000,Units=km
new line.1770461 bus1=BBT2007593.1.2.0,bus2=BBT3243926.1.2.0,Phases=2,Linecode=BT108_BT107_7_2_1,Length=0.006327000,Units=km
new line.1770468 bus1=BBT2007600.1.2.0,bus2=BBT2007579.1.2.0,Phases=2,Linecode=BT107_BT107_7_2_1,Length=0.031793000,Units=km
new line.1770475 bus1=BBT2007607.1.2.0,bus2=BBT2007621.1.2.0,Phases=2,Linecode=BT107_BT107_7_2_1,Length=0.037014000,Units=km
new line.1770482 bus1=BBT2007614.1.2.0,bus2=BBT2007593.1.2.0,Phases=2,Linecode=BT108_BT107_7_2_1,Length=0.034942000,Units=km
new line.1770489 bus1=BBT2007621.1.2.0,bus2=BBT2007642.1.2.0,Phases=2,Linecode=BT107_BT107_7_2_1,Length=0.028804000,Units=km
new line.1770496 bus1=BBT2007628.1.2.0,bus2=BBT2007614.1.2.0,Phases=2,Linecode=BT108_BT107_7_2_1,Length=0.032708000,Units=km
new line.1770503 bus1=BBT2007572.1.2.0,bus2=BBT2007628.1.2.0,Phases=2,Linecode=BT513_BT513_7_2_1,Length=0.000501000,Units=km
new line.1770510 bus1=BBT2007628.1.2.0,bus2=BBT2007649.1.2.0,Phases=2,Linecode=BT108_BT107_7_2_1,Length=0.025090000,Units=km
new line.1770517 bus1=BBT2007635.1.2.0,bus2=BBT2007600.1.2.0,Phases=2,Linecode=BT107_BT107_7_2_1,Length=0.027324000,Units=km
new line.1770524 bus1=BBT2007642.1.2.0,bus2=BBT3115553.1.2.0,Phases=2,Linecode=BT107_BT107_7_2_1,Length=0.028647000,Units=km
new line.1770531 bus1=BBT2007649.1.2.0,bus2=BBT2007656.1.2.0,Phases=2,Linecode=BT108_BT107_7_2_1,Length=0.010300000,Units=km
new line.1770538 bus1=BBT2007656.1.2.0,bus2=BBT2007635.1.2.0,Phases=2,Linecode=BT107_BT107_7_2_1,Length=0.008548000,Units=km
new line.1770545 bus1=BBT2007656.1.2.0,bus2=BBT2007670.1.2.0,Phases=2,Linecode=BT108_BT107_7_2_1,Length=0.020624000,Units=km
new line.1770552 bus1=BBT2007656.1.2.0,bus2=BBT2007691.1.2.0,Phases=2,Linecode=BT107_BT107_7_2_1,Length=0.022370000,Units=km
new line.1770559 bus1=BBT2007670.1.2.0,bus2=BBT2007684.1.2.0,Phases=2,Linecode=BT108_BT107_7_2_1,Length=0.025090000,Units=km
new line.1770566 bus1=BBT2007677.1.2.0,bus2=BBT2007663.1.2.0,Phases=2,Linecode=BT107_BT107_7_2_1,Length=0.026411000,Units=km
new line.1770573 bus1=BBT2007691.1.2.0,bus2=BBT2007705.1.2.0,Phases=2,Linecode=BT107_BT107_7_2_1,Length=0.027305000,Units=km
new line.1770580 bus1=BBT2007698.1.2.0,bus2=BBT2007677.1.2.0,Phases=2,Linecode=BT107_BT107_7_2_1,Length=0.032215000,Units=km
new line.1770587 bus1=BBT2007705.1.2.0,bus2=BBT2007698.1.2.0,Phases=2,Linecode=BT107_BT107_7_2_1,Length=0.035355000,Units=km
new line.1770594 bus1=BBT2007726.1.2.3.0,bus2=BBT2821399.1.2.3.0,Phases=3,Linecode=BT809_BT809_4_3_4,Length=0.008548000,Units=km
new line.1770601 bus1=BBT2007733.1.2.3.0,bus2=BBT2007726.1.2.3.0,Phases=3,Linecode=BT107_BT107_7_3_1,Length=0.034013000,Units=km
new line.1770608 bus1=BBT2821364.1.2.3.0,bus2=BBT2007733.1.2.3.0,Phases=3,Linecode=BT518_BT518_7_3_1,Length=0.000501000,Units=km
new line.1770615 bus1=BBT2007733.1.2.3.0,bus2=BBT2007754.1.2.3.0,Phases=3,Linecode=BT107_BT107_7_3_1,Length=0.029080000,Units=km
new line.1770622 bus1=BBT2007747.1.2.3.0,bus2=BBT2007740.1.2.3.0,Phases=3,Linecode=BT108_BT107_7_3_1,Length=0.028472000,Units=km
new line.1770629 bus1=BBT2007754.1.2.3.0,bus2=BBT2821392.1.2.3.0,Phases=3,Linecode=BT107_BT107_7_3_1,Length=0.028189000,Units=km
new line.1770636 bus1=BBT2007754.1.2.3.0,bus2=BBT2007852.1.2.3.0,Phases=3,Linecode=BT809_BT809_4_3_4,Length=0.013158000,Units=km
new line.1770643 bus1=BBT2007761.1.2.3.0,bus2=BBT2007747.1.2.3.0,Phases=3,Linecode=BT108_BT107_7_3_1,Length=0.029744000,Units=km
new line.1770650 bus1=BBT2007768.1.2.3.0,bus2=BBT2007761.1.2.3.0,Phases=3,Linecode=BT107_BT107_7_3_1,Length=0.029166000,Units=km
new line.1770657 bus1=BBT2007775.1.2.3.0,bus2=BBT2007768.1.2.3.0,Phases=3,Linecode=BT108_BT107_7_3_1,Length=0.029744000,Units=km
new line.1770664 bus1=BBT2007775.1.2.3.0,bus2=BBT2007803.1.2.3.0,Phases=3,Linecode=BT107_BT107_7_3_1,Length=0.028804000,Units=km
new line.1770671 bus1=BBT2007789.1.2.3.0,bus2=BBT2007775.1.2.3.0,Phases=3,Linecode=BT108_BT107_7_3_1,Length=0.035128000,Units=km
new line.1770678 bus1=BBT2007712.1.2.3.0,bus2=BBT2007789.1.2.3.0,Phases=3,Linecode=BT513_BT513_7_3_1,Length=0.000501000,Units=km
new line.1770685 bus1=BBT2007789.1.2.3.0,bus2=BBT2007796.1.2.3.0,Phases=3,Linecode=BT108_BT107_7_3_1,Length=0.046505000,Units=km
new line.1770692 bus1=BBT2007796.1.2.3.0,bus2=BBT2007817.1.2.3.0,Phases=3,Linecode=BT108_BT107_7_3_1,Length=0.040178000,Units=km
new line.1770699 bus1=BBT2007810.1.2.3.0,bus2=BBT2007782.1.2.3.0,Phases=3,Linecode=BT107_BT107_7_3_1,Length=0.029541000,Units=km
new line.1770706 bus1=BBT2007817.1.2.3.0,bus2=BBT2007824.1.2.3.0,Phases=3,Linecode=BT107_BT107_7_3_1,Length=0.041126000,Units=km
new line.1770713 bus1=BBT2007824.1.2.3.0,bus2=BBT2007810.1.2.3.0,Phases=3,Linecode=BT107_BT107_7_3_1,Length=0.028437000,Units=km
new line.1770720 bus1=BBT2007824.1.2.3.0,bus2=BBT2007831.1.2.3.0,Phases=3,Linecode=BT107_BT107_7_3_1,Length=0.023204000,Units=km
new line.1770727 bus1=BBT2007831.1.2.3.0,bus2=BBT2007838.1.2.3.0,Phases=3,Linecode=BT107_BT107_7_3_1,Length=0.033134000,Units=km
new line.1770734 bus1=BBT2007838.1.2.3.0,bus2=BBT2007845.1.2.3.0,Phases=3,Linecode=BT107_BT107_7_3_1,Length=0.029541000,Units=km
new line.1770748 bus1=BBT2007852.1.2.3.0,bus2=BBT2007859.1.2.3.0,Phases=3,Linecode=BT809_BT809_4_3_4,Length=0.031635000,Units=km
new line.1770755 bus1=BBT2007859.1.2.3.0,bus2=BBT2007866.1.2.3.0,Phases=3,Linecode=BT809_BT809_4_3_4,Length=0.034423000,Units=km
new line.1770762 bus1=BBT2007866.1.2.3.0,bus2=BBT2821378.1.2.3.0,Phases=3,Linecode=BT810_BT810_4_3_4,Length=0.025249000,Units=km
new line.1770769 bus1=BBT2007866.1.2.0,bus2=BBT5126730.1.2.0,Phases=2,Linecode=BT808_BT808_4_2_3,Length=0.036893000,Units=km
new line.1770776 bus1=BBT2007873.1.2.0,bus2=BBT2007880.1.2.0,Phases=2,Linecode=BT316_BT316_7_2_1,Length=0.000501000,Units=km
new line.1770783 bus1=BBT2007894.1.2.3.0,bus2=BBT3062528.1.2.3.0,Phases=3,Linecode=BT810_BT810_4_3_4,Length=0.043880000,Units=km
new line.1770797 bus1=BBT2007901.1.2.3.0,bus2=BBT2007894.1.2.3.0,Phases=3,Linecode=BT107_BT108_7_3_1,Length=0.035397000,Units=km
new line.1770804 bus1=BBT2007901.1.2.3.0,bus2=BBT72467980.1.2.3.0,Phases=3,Linecode=BT107_BT107_7_3_1,Length=0.023355000,Units=km
new line.1770811 bus1=BBT2007915.1.2.3.0,bus2=BBT2007908.1.2.3.0,Phases=3,Linecode=BT107_BT107_7_3_1,Length=0.035014000,Units=km
new line.1770818 bus1=BBT2007922.1.2.3.0,bus2=BBT2007915.1.2.3.0,Phases=3,Linecode=BT107_BT107_7_3_1,Length=0.037817000,Units=km
new line.1770825 bus1=BBT2007929.1.2.3.0,bus2=BBT2007922.1.2.3.0,Phases=3,Linecode=BT107_BT107_7_3_1,Length=0.036415000,Units=km
new line.1770832 bus1=BBT2007936.1.2.3.0,bus2=BBT2007929.1.2.3.0,Phases=3,Linecode=BT107_BT107_7_3_1,Length=0.033614000,Units=km
new line.1770839 bus1=BBT2007943.1.2.3.0,bus2=BBT2007936.1.2.3.0,Phases=3,Linecode=BT108_BT107_7_3_1,Length=0.033614000,Units=km
new line.1770846 bus1=BBT2007950.1.2.3.0,bus2=BBT2007943.1.2.3.0,Phases=3,Linecode=BT108_BT107_7_3_1,Length=0.034219000,Units=km
new line.1770853 bus1=BBT2007957.1.2.3.0,bus2=BBT2007950.1.2.3.0,Phases=3,Linecode=BT108_BT107_7_3_1,Length=0.033435000,Units=km
new line.1770860 bus1=BBT2007887.1.2.3.0,bus2=BBT2007957.1.2.3.0,Phases=3,Linecode=BT518_BT518_7_3_1,Length=0.000501000,Units=km
new line.1770867 bus1=BBT2007957.1.2.3.0,bus2=BBT2007964.1.2.3.0,Phases=3,Linecode=BT108_BT107_7_3_1,Length=0.034423000,Units=km
new line.1770874 bus1=BBT2007964.1.2.3.0,bus2=BBT2007971.1.2.3.0,Phases=3,Linecode=BT108_BT107_7_3_1,Length=0.032770000,Units=km
new line.1770881 bus1=BBT2007971.1.2.3.0,bus2=BBT2007978.1.2.3.0,Phases=3,Linecode=BT108_BT107_7_3_1,Length=0.034999000,Units=km
new line.1770888 bus1=BBT2007978.1.2.3.0,bus2=BBT2007985.1.2.3.0,Phases=3,Linecode=BT108_BT107_7_3_1,Length=0.034683000,Units=km
new line.1770895 bus1=BBT2007985.1.2.3.0,bus2=BBT2007992.1.2.3.0,Phases=3,Linecode=BT107_BT107_7_3_1,Length=0.035623000,Units=km
new line.1770902 bus1=BBT2007992.1.2.3.0,bus2=BBT2007999.1.2.3.0,Phases=3,Linecode=BT107_BT107_7_3_1,Length=0.035623000,Units=km
new line.1770909 bus1=BBT2007999.1.2.3.0,bus2=BBT2008006.1.2.3.0,Phases=3,Linecode=BT107_BT107_7_3_1,Length=0.039840000,Units=km
new line.1770916 bus1=BBT2008006.1.2.3.0,bus2=BBT2008013.1.2.3.0,Phases=3,Linecode=BT107_BT107_7_3_1,Length=0.022370000,Units=km
new line.1770923 bus1=BBT2008013.1.2.3.0,bus2=BBT2008020.1.2.3.0,Phases=3,Linecode=BT107_BT107_7_3_1,Length=0.037217000,Units=km
new line.1770930 bus1=BBT2008041.1.2.3.0,bus2=BBT2008034.1.2.3.0,Phases=3,Linecode=BT107_BT107_7_3_1,Length=0.035128000,Units=km
new line.1770937 bus1=BBT2008048.1.2.3.0,bus2=BBT2008041.1.2.3.0,Phases=3,Linecode=BT107_BT107_7_3_1,Length=0.038290000,Units=km
new line.1770944 bus1=BBT2008062.1.2.3.0,bus2=BBT2008048.1.2.3.0,Phases=3,Linecode=BT108_BT107_7_3_1,Length=0.032907000,Units=km
new line.1770951 bus1=BBT2008069.1.2.3.0,bus2=BBT2008062.1.2.3.0,Phases=3,Linecode=BT108_BT107_7_3_1,Length=0.037351000,Units=km
new line.1770958 bus1=BBT2008076.1.2.3.0,bus2=BBT2008055.1.2.3.0,Phases=3,Linecode=BT107_BT107_7_3_1,Length=0.027525000,Units=km
new line.1770965 bus1=BBT2008076.1.2.3.0,bus2=BBT2008069.1.2.3.0,Phases=3,Linecode=BT108_BT107_7_3_1,Length=0.034799000,Units=km
new line.1770972 bus1=BBT2008083.1.2.3.0,bus2=BBT2008076.1.2.3.0,Phases=3,Linecode=BT108_BT107_7_3_1,Length=0.035128000,Units=km
new line.1770979 bus1=BBT2008027.1.2.3.0,bus2=BBT2008083.1.2.3.0,Phases=3,Linecode=BT518_BT518_7_3_1,Length=0.000501000,Units=km
new line.1770986 bus1=BBT2008083.1.2.3.0,bus2=BBT2008090.1.2.3.0,Phases=3,Linecode=BT108_BT107_7_3_1,Length=0.036070000,Units=km
new line.1770993 bus1=BBT2008090.1.2.3.0,bus2=BBT2008104.1.2.3.0,Phases=3,Linecode=BT810_BT810_4_3_4,Length=0.033851000,Units=km
new line.1771000 bus1=BBT2008104.1.2.3.0,bus2=BBT2008111.1.2.3.0,Phases=3,Linecode=BT810_BT810_4_3_4,Length=0.036415000,Units=km
new line.1771007 bus1=BBT2008111.1.2.3.0,bus2=BBT2008118.1.2.3.0,Phases=3,Linecode=BT810_BT810_4_3_4,Length=0.035749000,Units=km
new line.1771014 bus1=BBT2008118.1.2.3.0,bus2=BBT2008097.1.2.3.0,Phases=3,Linecode=BT810_BT810_4_3_4,Length=0.032907000,Units=km
new line.1771021 bus1=BBT2008118.1.2.3.0,bus2=BBT2008125.1.2.3.0,Phases=3,Linecode=BT810_BT810_4_3_4,Length=0.033255000,Units=km
new line.1771028 bus1=BBT2008132.1.2.0,bus2=BBT2008139.1.2.0,Phases=2,Linecode=BT304_BT304_7_2_1,Length=0.000501000,Units=km
new line.1771049 bus1=BBT2008202.1.2.3.0,bus2=BBT2008195.1.2.3.0,Phases=3,Linecode=BT107_BT108_7_3_1,Length=0.039575000,Units=km
new line.1771056 bus1=BBT2008209.1.2.3.0,bus2=BBT2008202.1.2.3.0,Phases=3,Linecode=BT107_BT108_7_3_1,Length=0.037711000,Units=km
new line.1771063 bus1=BBT2008216.1.2.3.0,bus2=BBT2008209.1.2.3.0,Phases=3,Linecode=BT107_BT108_7_3_1,Length=0.034028000,Units=km
new line.1771070 bus1=BBT2008223.1.2.3.0,bus2=BBT2008216.1.2.3.0,Phases=3,Linecode=BT108_BT107_7_3_1,Length=0.035369000,Units=km
new line.1771077 bus1=BBT2008230.1.2.3.0,bus2=BBT2008223.1.2.3.0,Phases=3,Linecode=BT107_BT108_7_3_1,Length=0.033629000,Units=km
new line.1771084 bus1=BBT2008188.1.2.3.0,bus2=BBT2008230.1.2.3.0,Phases=3,Linecode=BT518_BT518_7_3_1,Length=0.000501000,Units=km
new line.1771091 bus1=BBT2008230.1.2.3.0,bus2=BBT2008237.1.2.3.0,Phases=3,Linecode=BT107_BT108_7_3_1,Length=0.035524000,Units=km
new line.1771098 bus1=BBT2008237.1.2.3.0,bus2=BBT2008244.1.2.3.0,Phases=3,Linecode=BT107_BT108_7_3_1,Length=0.034999000,Units=km
new line.1771105 bus1=BBT2008244.1.2.3.0,bus2=BBT2008286.1.2.3.0,Phases=3,Linecode=BT107_BT108_7_3_1,Length=0.036634000,Units=km
new line.1771140 bus1=BBT2008293.1.2.3.0,bus2=BBT3116547.1.2.3.0,Phases=3,Linecode=BT803_BT803_4_3_4,Length=0.015006000,Units=km
new line.1771154 bus1=BBT2008300.1.2.3.0,bus2=BBT2008293.1.2.3.0,Phases=3,Linecode=BT803_BT803_4_3_4,Length=0.031413000,Units=km
new line.1771161 bus1=BBT2008307.1.2.3.0,bus2=BBT2008314.1.2.3.0,Phases=3,Linecode=BT809_BT809_4_3_4,Length=0.032540000,Units=km
new line.1771168 bus1=BBT2008321.1.2.3.0,bus2=BBT2008328.1.2.3.0,Phases=3,Linecode=BT803_BT803_4_3_4,Length=0.031413000,Units=km
new line.1771175 bus1=BBT2008328.1.2.3.0,bus2=BBT3116463.1.2.3.0,Phases=3,Linecode=BT803_BT803_4_3_4,Length=0.067702000,Units=km
new line.1771189 bus1=BBT2008335.1.2.3.0,bus2=BBT2008300.1.2.3.0,Phases=3,Linecode=BT803_BT803_4_3_4,Length=0.037217000,Units=km
new line.1771196 bus1=BBT2008335.1.2.3.0,bus2=BBT2008307.1.2.3.0,Phases=3,Linecode=BT803_BT803_4_3_4,Length=0.033435000,Units=km
new line.1771203 bus1=BBT2008279.1.2.3.0,bus2=BBT2008335.1.2.3.0,Phases=3,Linecode=BT518_BT518_7_3_1,Length=0.000501000,Units=km
new line.1776131 bus1=BBT2013256.1.2.3.0,bus2=BBT2013263.1.2.3.0,Phases=3,Linecode=BT107_BT107_7_3_1,Length=0.006327000,Units=km