new line.RML10034935 bus1=BBT2015132.1.0,bus2=RML1060034935.1.0,Phases=1,Linecode=CABBTG02_4_1,Length=0.017000000,Units=km
new line.RML10034940 bus1=BBT4147458.1.2.0,bus2=RML1060034940.1.2.0,Phases=2,Linecode=CABBTG05_4_2,Length=0.017000000,Units=km
new line.RML10036900 bus1=BBT2015664.1.2.0,bus2=RML1060036900.1.2.0,Phases=2,Linecode=CABBTG05_4_2,Length=0.017000000,Units=km
new line.RML10037632 bus1=BBT2014698.1.0,bus2=RML1060037632.1.0,Phases=1,Linecode=CABBTG02_4_1,Length=0.017000000,Units=km
new line.RML10039958 bus1=BBT2954707.1.0,bus2=RML1060039958.1.0,Phases=1,Linecode=CABBTG02_4_1,Length=0.020000000,Units=km
new line.RML10047178 bus1=BBT143527948.1.2.0,bus2=RML1060047178.1.2.0,Phases=2,Linecode=CABBT801_4_2,Length=0.017000000,Units=km
new line.RML10055044 bus1=BBT4147626.2.0,bus2=RML1060055044.2.0,Phases=1,Linecode=CABBTG02_4_1,Length=0.017000000,Units=km
new line.RML10071243 bus1=BBT1944656.1.2.3.0,bus2=RML1060071243.1.2.3.0,Phases=3,Linecode=CABBTG06_4_3,Length=0.017000000,Units=km
new line.RML10075439 bus1=BBT149158811.1.2.0,bus2=RML1060075439.1.2.0,Phases=2,Linecode=CABBT808_4_2,Length=0.030000000,Units=km
new line.RML10078763 bus1=BBT2015510.1.2.0,bus2=RML1060078763.1.2.0,Phases=2,Linecode=CABBTG05_4_2,Length=0.017000000,Units=km
new line.RML10078781 bus1=BBT2102072.2.3.0,bus2=RML1060078781.2.3.0,Phases=2,Linecode=CABBTG05_4_2,Length=0.017000000,Units=km
new line.RML10079056 bus1=BBT3193302.2.0,bus2=RML1060079056.2.0,Phases=1,Linecode=CABBTG02_4_1,Length=0.017000000,Units=km
new line.RML10079089 bus1=BBT2011219.3.0,bus2=RML1060079089.3.0,Phases=1,Linecode=CABBTG02_4_1,Length=0.017000000,Units=km
new line.RML10079092 bus1=BBT5126730.1.0,bus2=RML1060079092.1.0,Phases=1,Linecode=CABBTG02_4_1,Length=0.017000000,Units=km
new line.RML10079133 bus1=BBT2102121.1.2.0,bus2=RML1060079133.1.2.0,Phases=2,Linecode=CABBTG05_4_2,Length=0.017000000,Units=km
new line.RML10079147 bus1=BBT4147605.1.2.0,bus2=RML1060079147.1.2.0,Phases=2,Linecode=CABBTG05_4_2,Length=0.017000000,Units=km
new line.RML10079345 bus1=BBT5433302.1.2.0,bus2=RML1060079345.1.2.0,Phases=2,Linecode=CABBTG05_4_2,Length=0.017000000,Units=km
new line.RML10079496 bus1=BBT2015069.1.2.0,bus2=RML1060079496.1.2.0,Phases=2,Linecode=CABBTG05_4_2,Length=0.017000000,Units=km
new line.RML10079811 bus1=BBT2010274.1.2.3.0,bus2=RML1060079811.1.2.3.0,Phases=3,Linecode=CABBTG06_4_3,Length=0.017000000,Units=km
new line.RML10079819 bus1=BBT2102751.1.0,bus2=RML1060079819.1.0,Phases=1,Linecode=CABBTG01_4_1,Length=0.017000000,Units=km
new line.RML10079825 bus1=BBT4856845.1.2.0,bus2=RML1060079825.1.2.0,Phases=2,Linecode=CABBTG05_4_2,Length=0.017000000,Units=km
new line.RML10079827 bus1=BBT2016595.3.0,bus2=RML1060079827.3.0,Phases=1,Linecode=CABBTG02_4_1,Length=0.017000000,Units=km
new line.RML10082410 bus1=BBT2015300.1.0,bus2=RML1060082410.1.0,Phases=1,Linecode=CABBTG02_4_1,Length=0.017000000,Units=km
new line.RML10083783 bus1=BBT2011933.1.2.3.0,bus2=RML1060083783.1.2.3.0,Phases=3,Linecode=CABBTG06_4_3,Length=0.017000000,Units=km
new line.RML10083785 bus1=BBT2010778.3.0,bus2=RML1060083785.3.0,Phases=1,Linecode=CABBTG02_4_1,Length=0.017000000,Units=km
new line.RML10083939 bus1=BBT4147521.3.0,bus2=RML1060083939.3.0,Phases=1,Linecode=CABBTG02_4_1,Length=0.017000000,Units=km
new line.RML10083942 bus1=BBT2008972.1.0,bus2=RML1060083942.1.0,Phases=1,Linecode=CABBTG02_4_1,Length=0.017000000,Units=km
new line.RML10086501 bus1=BBT2013942.1.0,bus2=RML1060086501.1.0,Phases=1,Linecode=CABBTG02_4_1,Length=0.017000000,Units=km
new line.RML10089228 bus1=BBT2053527.1.0,bus2=RML1060089228.1.0,Phases=1,Linecode=CABBTG02_4_1,Length=0.017000000,Units=km
new line.RML10089393 bus1=BBT2049859.1.0,bus2=RML1060089393.1.0,Phases=1,Linecode=CABBTG02_4_1,Length=0.017000000,Units=km
new line.RML10089556 bus1=BBT2772385.1.0,bus2=RML1060089556.1.0,Phases=1,Linecode=CABBTG02_4_1,Length=0.017000000,Units=km
new line.RML10090361 bus1=BBT165154504.1.0,bus2=RML1060090361.1.0,Phases=1,Linecode=CABBTG02_4_1,Length=0.017000000,Units=km
new line.RML10090369 bus1=BBT3936807.1.0,bus2=RML1060090369.1.0,Phases=1,Linecode=CABBTG02_4_1,Length=0.017000000,Units=km
new line.RML10090372 bus1=BBT3224361.1.0,bus2=RML1060090372.1.0,Phases=1,Linecode=CABBTG02_4_1,Length=0.017000000,Units=km
new line.RML10090376 bus1=BBT3224368.1.0,bus2=RML1060090376.1.0,Phases=1,Linecode=CABBTG02_4_1,Length=0.017000000,Units=km
new line.RML10090455 bus1=BBT3222870.1.0,bus2=RML1060090455.1.0,Phases=1,Linecode=CABBTG02_4_1,Length=0.017000000,Units=km
new line.RML10090458 bus1=BBT3222891.1.0,bus2=RML1060090458.1.0,Phases=1,Linecode=CABBTG02_4_1,Length=0.017000000,Units=km
new line.RML10090464 bus1=BBT3224228.1.0,bus2=RML1060090464.1.0,Phases=1,Linecode=CABBTG02_4_1,Length=0.017000000,Units=km
new line.RML10090468 bus1=BBT3224459.1.0,bus2=RML1060090468.1.0,Phases=1,Linecode=CABBTG02_4_1,Length=0.017000000,Units=km
new line.RML10090478 bus1=BBT3224459.1.0,bus2=RML1060090478.1.0,Phases=1,Linecode=CABBTG02_4_1,Length=0.017000000,Units=km
new line.RML10090602 bus1=BBT3188220.1.0,bus2=RML1060090602.1.0,Phases=1,Linecode=CABBTG02_4_1,Length=0.017000000,Units=km
new line.RML10090614 bus1=BBT3398346.1.0,bus2=RML1060090614.1.0,Phases=1,Linecode=CABBTG02_4_1,Length=0.017000000,Units=km
new line.RML10090623 bus1=BBT3245389.1.0,bus2=RML1060090623.1.0,Phases=1,Linecode=CABBTG02_4_1,Length=0.017000000,Units=km
new line.RML10090628 bus1=BBT3245375.1.0,bus2=RML1060090628.1.0,Phases=1,Linecode=CABBTG02_4_1,Length=0.017000000,Units=km
new line.RML10090630 bus1=BBT3518004.1.0,bus2=RML1060090630.1.0,Phases=1,Linecode=CABBTG02_4_1,Length=0.017000000,Units=km
new line.RML10090644 bus1=BBT3662029.1.0,bus2=RML1060090644.1.0,Phases=1,Linecode=CABBTG02_4_1,Length=0.017000000,Units=km
new line.RML10090652 bus1=BBT3376002.1.0,bus2=RML1060090652.1.0,Phases=1,Linecode=CABBTG02_4_1,Length=0.017000000,Units=km
new line.RML10090690 bus1=BBT2014698.1.2.3.0,bus2=RML1060090690.1.2.3.0,Phases=3,Linecode=CABBTG06_4_3,Length=0.017000000,Units=km
new line.RML10090696 bus1=BBT2015265.1.0,bus2=RML1060090696.1.0,Phases=1,Linecode=CABBTG02_4_1,Length=0.017000000,Units=km
new line.RML10090707 bus1=BBT2014663.1.0,bus2=RML1060090707.1.0,Phases=1,Linecode=CABBTG02_4_1,Length=0.017000000,Units=km
new line.RML10090727 bus1=BBT3288950.1.2.0,bus2=RML1060090727.1.2.0,Phases=2,Linecode=CABBTG05_4_2,Length=0.017000000,Units=km
new line.RML10090780 bus1=BBT2102807.1.2.0,bus2=RML1060090780.1.2.0,Phases=2,Linecode=CABBTG05_4_2,Length=0.017000000,Units=km
new line.RML10090799 bus1=BBT2053331.1.0,bus2=RML1060090799.1.0,Phases=1,Linecode=CABBTG02_4_1,Length=0.017000000,Units=km
new line.RML10090835 bus1=BBT3376002.1.2.0,bus2=RML1060090835.1.2.0,Phases=2,Linecode=CABBTG05_4_2,Length=0.017000000,Units=km
new line.RML10090848 bus1=BBT4750781.1.2.3.0,bus2=RML1060090848.1.2.3.0,Phases=3,Linecode=CABBTG06_4_3,Length=0.017000000,Units=km
new line.RML10091056 bus1=BBT4898306.1.2.3.0,bus2=RML1060091056.1.2.3.0,Phases=3,Linecode=CABBTG06_4_3,Length=0.017000000,Units=km
new line.RML10091749 bus1=BBT3532788.1.0,bus2=RML1060091749.1.0,Phases=1,Linecode=CABBTG02_4_1,Length=0.017000000,Units=km
new line.RML10093285 bus1=BBT2851499.1.0,bus2=RML1060093285.1.0,Phases=1,Linecode=CABBTG02_4_1,Length=0.017000000,Units=km
new line.RML10093745 bus1=BBT3025540.1.0,bus2=RML1060093745.1.0,Phases=1,Linecode=CABBTG02_4_1,Length=0.017000000,Units=km
new line.RML10093749 bus1=BBT2092160.1.2.0,bus2=RML1060093749.1.2.0,Phases=2,Linecode=CABBTG05_4_2,Length=0.017000000,Units=km
new line.RML10093802 bus1=BBT134748723.1.0,bus2=RML1060093802.1.0,Phases=1,Linecode=CABBTG02_4_1,Length=0.017000000,Units=km
new line.RML10093965 bus1=BBT2107399.1.2.0,bus2=RML1060093965.1.2.0,Phases=2,Linecode=CABBTG05_4_2,Length=0.017000000,Units=km
new line.RML10096271 bus1=BBT127968565.1.0,bus2=RML1060096271.1.0,Phases=1,Linecode=CABBTG02_4_1,Length=0.017000000,Units=km
new line.RML10096273 bus1=BBT3368498.1.0,bus2=RML1060096273.1.0,Phases=1,Linecode=CABBTG02_4_1,Length=0.017000000,Units=km
new line.RML10096300 bus1=BBT54624490.1.0,bus2=RML1060096300.1.0,Phases=1,Linecode=CABBTG02_4_1,Length=0.017000000,Units=km
new line.RML10096408 bus1=BBT116822255.1.0,bus2=RML1060096408.1.0,Phases=1,Linecode=CABBTG02_4_1,Length=0.017000000,Units=km
new line.RML10096439 bus1=BBT134156481.1.0,bus2=RML1060096439.1.0,Phases=1,Linecode=CABBTG02_4_1,Length=0.017000000,Units=km
new line.RML10096513 bus1=BBT129919675.1.0,bus2=RML1060096513.1.0,Phases=1,Linecode=CABBTG02_4_1,Length=0.017000000,Units=km
new line.RML10096540 bus1=BBT139615396.1.0,bus2=RML1060096540.1.0,Phases=1,Linecode=CABBTG02_4_1,Length=0.017000000,Units=km
new line.RML10096545 bus1=BBT7484848.1.2.0,bus2=RML1060096545.1.2.0,Phases=2,Linecode=CABBTG05_4_2,Length=0.017000000,Units=km
new line.RML10096594 bus1=BBT2108498.1.2.3.0,bus2=RML1060096594.1.2.3.0,Phases=3,Linecode=CABBTG06_4_3,Length=0.017000000,Units=km
new line.RML10096638 bus1=BBT140069297.1.0,bus2=RML1060096638.1.0,Phases=1,Linecode=CABBTG02_4_1,Length=0.017000000,Units=km
new line.RML10096657 bus1=BBT136208783.1.2.0,bus2=RML1060096657.1.2.0,Phases=2,Linecode=CABBTG05_4_2,Length=0.017000000,Units=km
new line.RML10096915 bus1=BBT2818767.1.2.0,bus2=RML1060096915.1.2.0,Phases=2,Linecode=CABBTG05_4_2,Length=0.017000000,Units=km
new line.RML10099481 bus1=BBT4147507.1.0,bus2=RML1060099481.1.0,Phases=1,Linecode=CABBTG02_4_1,Length=0.017000000,Units=km
new line.RML10099491 bus1=BBT4147514.1.0,bus2=RML1060099491.1.0,Phases=1,Linecode=CABBTG02_4_1,Length=0.017000000,Units=km
new line.RML10099495 bus1=BBT4147479.1.2.0,bus2=RML1060099495.1.2.0,Phases=2,Linecode=CABBTG05_4_2,Length=0.017000000,Units=km
new line.RML10099498 bus1=BBT4147458.1.0,bus2=RML1060099498.1.0,Phases=1,Linecode=CABBTG02_4_1,Length=0.017000000,Units=km
new line.RML10099504 bus1=BBT4147465.3.0,bus2=RML1060099504.3.0,Phases=1,Linecode=CABBTG02_4_1,Length=0.017000000,Units=km
new line.RML10099510 bus1=BBT4147437.1.0,bus2=RML1060099510.1.0,Phases=1,Linecode=CABBTG02_4_1,Length=0.017000000,Units=km
new line.RML10099513 bus1=BBT4147640.1.0,bus2=RML1060099513.1.0,Phases=1,Linecode=CABBTG02_4_1,Length=0.017000000,Units=km
new line.RML10099515 bus1=BBT4147444.1.0,bus2=RML1060099515.1.0,Phases=1,Linecode=CABBTG02_4_1,Length=0.017000000,Units=km
new line.RML10099518 bus1=BBT4147444.2.0,bus2=RML1060099518.2.0,Phases=1,Linecode=CABBTG02_4_1,Length=0.017000000,Units=km
new line.RML10099522 bus1=BBT4147423.3.0,bus2=RML1060099522.3.0,Phases=1,Linecode=CABBTG02_4_1,Length=0.017000000,Units=km
new line.RML10099526 bus1=BBT4147402.1.2.0,bus2=RML1060099526.1.2.0,Phases=2,Linecode=CABBTG05_4_2,Length=0.017000000,Units=km
new line.RML10099531 bus1=BBT4147563.1.0,bus2=RML1060099531.1.0,Phases=1,Linecode=CABBTG02_4_1,Length=0.017000000,Units=km
new line.RML10099534 bus1=BBT2049565.2.3.0,bus2=RML1060099534.2.3.0,Phases=2,Linecode=CABBTG05_4_2,Length=0.017000000,Units=km
new line.RML10099544 bus1=BBT2102296.1.0,bus2=RML1060099544.1.0,Phases=1,Linecode=CABBTG02_4_1,Length=0.017000000,Units=km
new line.RML10099548 bus1=BBT2102247.2.0,bus2=RML1060099548.2.0,Phases=1,Linecode=CABBTG02_4_1,Length=0.017000000,Units=km
new line.RML10099569 bus1=BBT2050167.1.2.0,bus2=RML1060099569.1.2.0,Phases=2,Linecode=CABBTG05_4_2,Length=0.017000000,Units=km
new line.RML10099572 bus1=BBT2015713.1.0,bus2=RML1060099572.1.0,Phases=1,Linecode=CABBTG02_4_1,Length=0.017000000,Units=km
new line.RML10099581 bus1=BBT2016287.1.0,bus2=RML1060099581.1.0,Phases=1,Linecode=CABBTG02_4_1,Length=0.017000000,Units=km
new line.RML10099586 bus1=BBT2015762.2.3.0,bus2=RML1060099586.2.3.0,Phases=2,Linecode=CABBTG05_4_2,Length=0.017000000,Units=km
new line.RML10099591 bus1=BBT2015783.1.3.0,bus2=RML1060099591.1.3.0,Phases=2,Linecode=CABBTG05_4_2,Length=0.017000000,Units=km
new line.RML10099640 bus1=BBT2015755.2.0,bus2=RML1060099640.2.0,Phases=1,Linecode=CABBTG02_4_1,Length=0.017000000,Units=km
new line.RML10099644 bus1=BBT2015734.1.0,bus2=RML1060099644.1.0,Phases=1,Linecode=CABBTG02_4_1,Length=0.017000000,Units=km
new line.RML10099646 bus1=BBT2014789.1.2.0,bus2=RML1060099646.1.2.0,Phases=2,Linecode=CABBTG05_4_2,Length=0.017000000,Units=km
new line.RML10100203 bus1=BBT5227754.1.2.0,bus2=RML1060100203.1.2.0,Phases=2,Linecode=CABBTG05_4_2,Length=0.017000000,Units=km
new line.RML10100205 bus1=BBT2010722.3.0,bus2=RML1060100205.3.0,Phases=1,Linecode=CABBTG02_4_1,Length=0.017000000,Units=km
new line.RML10100618 bus1=BBT2102177.1.3.0,bus2=RML1060100618.1.3.0,Phases=2,Linecode=CABBTG05_4_2,Length=0.017000000,Units=km
new line.RML10100624 bus1=BBT2015426.1.3.0,bus2=RML1060100624.1.3.0,Phases=2,Linecode=CABBTG05_4_2,Length=0.017000000,Units=km
new line.RML10100641 bus1=BBT2010834.2.0,bus2=RML1060100641.2.0,Phases=1,Linecode=CABBTG02_4_1,Length=0.017000000,Units=km
new line.RML10100646 bus1=BBT2749404.3.0,bus2=RML1060100646.3.0,Phases=1,Linecode=CABBTG02_4_1,Length=0.017000000,Units=km
new line.RML10101382 bus1=BBT3062528.2.0,bus2=RML1060101382.2.0,Phases=1,Linecode=CABBTG02_4_1,Length=0.017000000,Units=km
new line.RML10102688 bus1=BBT2011758.1.2.0,bus2=RML1060102688.1.2.0,Phases=2,Linecode=CABBTG05_4_2,Length=0.017000000,Units=km
new line.RML10105014 bus1=BBT4386319.1.2.0,bus2=RML1060105014.1.2.0,Phases=2,Linecode=CABBTG04_4_2,Length=0.017000000,Units=km
new line.RML10105019 bus1=BBT2648289.1.3.0,bus2=RML1060105019.1.3.0,Phases=2,Linecode=CABBTG05_4_2,Length=0.017000000,Units=km
new line.RML10105022 bus1=BBT2010148.3.0,bus2=RML1060105022.3.0,Phases=1,Linecode=CABBTG02_4_1,Length=0.017000000,Units=km
new line.RML10105023 bus1=BBT2008825.1.2.0,bus2=RML1060105023.1.2.0,Phases=2,Linecode=CABBTG05_4_2,Length=0.017000000,Units=km
new line.RML10105024 bus1=BBT2011086.2.3.0,bus2=RML1060105024.2.3.0,Phases=2,Linecode=CABBTG05_4_2,Length=0.017000000,Units=km
new line.RML10106967 bus1=BBT2011548.3.0,bus2=RML1060106967.3.0,Phases=1,Linecode=CABBTG02_4_1,Length=0.017000000,Units=km
new line.RML10106968 bus1=BBT2009784.1.0,bus2=RML1060106968.1.0,Phases=1,Linecode=CABBTG02_4_1,Length=0.017000000,Units=km
new line.RML10109924 bus1=BBT2009189.1.2.0,bus2=RML1060109924.1.2.0,Phases=2,Linecode=CABBTG05_4_2,Length=0.017000000,Units=km
new line.RML10109947 bus1=BBT4856593.1.2.0,bus2=RML1060109947.1.2.0,Phases=2,Linecode=CABBTG05_4_2,Length=0.017000000,Units=km
new line.RML10109952 bus1=BBT4856593.1.2.0,bus2=RML1060109952.1.2.0,Phases=2,Linecode=CABBTG05_4_2,Length=0.017000000,Units=km
new line.RML10109956 bus1=BBT4856593.1.2.0,bus2=RML1060109956.1.2.0,Phases=2,Linecode=CABBTG05_4_2,Length=0.017000000,Units=km
new line.RML10109963 bus1=BBT3311609.1.2.0,bus2=RML1060109963.1.2.0,Phases=2,Linecode=CABBTG04_4_2,Length=0.017000000,Units=km
new line.RML10110030 bus1=BBT2009644.1.0,bus2=RML1060110030.1.0,Phases=1,Linecode=CABBTG02_4_1,Length=0.017000000,Units=km
new line.RML10110039 bus1=BBT2009308.1.2.0,bus2=RML1060110039.1.2.0,Phases=2,Linecode=CABBTG05_4_2,Length=0.017000000,Units=km
new line.RML10110045 bus1=BBT2008895.2.0,bus2=RML1060110045.2.0,Phases=1,Linecode=CABBTG02_4_1,Length=0.017000000,Units=km
new line.RML10110049 bus1=BBT2008748.1.2.3.0,bus2=RML1060110049.1.2.3.0,Phases=3,Linecode=CABBTG06_4_3,Length=0.017000000,Units=km
new line.RML10114325 bus1=BBT2015769.1.0,bus2=RML1060114325.1.0,Phases=1,Linecode=CABBTG02_4_1,Length=0.017000000,Units=km
new line.RML10114357 bus1=BBT5227845.1.2.3.0,bus2=RML1060114357.1.2.3.0,Phases=3,Linecode=CABBTG06_4_3,Length=0.017000000,Units=km
new line.RML10114376 bus1=BBT2101967.3.0,bus2=RML1060114376.3.0,Phases=1,Linecode=CABBTG02_4_1,Length=0.017000000,Units=km
new line.RML10114435 bus1=BBT2050279.1.2.0,bus2=RML1060114435.1.2.0,Phases=2,Linecode=CABBTG05_4_2,Length=0.017000000,Units=km
new line.RML10126645 bus1=BBT3115553.2.0,bus2=RML1060126645.2.0,Phases=1,Linecode=CABBTG02_4_1,Length=0.017000000,Units=km
new line.RML10126649 bus1=BBT134490535.1.0,bus2=RML1060126649.1.0,Phases=1,Linecode=CABBTG02_4_1,Length=0.017000000,Units=km
new line.RML10126658 bus1=BBT3062556.2.0,bus2=RML1060126658.2.0,Phases=1,Linecode=CABBTG02_4_1,Length=0.017000000,Units=km
new line.RML10126668 bus1=BBT2007327.2.0,bus2=RML1060126668.2.0,Phases=1,Linecode=CABBTG02_4_1,Length=0.017000000,Units=km
new line.RML10126670 bus1=BBT2055004.2.0,bus2=RML1060126670.2.0,Phases=1,Linecode=CABBTG02_4_1,Length=0.017000000,Units=km
new line.RML10126679 bus1=BBT2055011.1.2.0,bus2=RML1060126679.1.2.0,Phases=2,Linecode=CABBTG05_4_2,Length=0.017000000,Units=km
new line.RML10126685 bus1=BBT2055165.1.0,bus2=RML1060126685.1.0,Phases=1,Linecode=CABBTG02_4_1,Length=0.017000000,Units=km
new line.RML10126701 bus1=BBT2055018.1.0,bus2=RML1060126701.1.0,Phases=1,Linecode=CABBTG02_4_1,Length=0.017000000,Units=km
new line.RML10129948 bus1=BBT3310132.1.2.0,bus2=RML1060129948.1.2.0,Phases=2,Linecode=CABBTG04_4_2,Length=0.017000000,Units=km
new line.RML10129957 bus1=BBT132868656.1.2.0,bus2=RML1060129957.1.2.0,Phases=2,Linecode=CABBTG04_4_2,Length=0.017000000,Units=km
new line.RML10129961 bus1=BBT3310132.2.0,bus2=RML1060129961.2.0,Phases=1,Linecode=CABBTG02_4_1,Length=0.017000000,Units=km
new line.RML10129975 bus1=BBT3310132.1.2.0,bus2=RML1060129975.1.2.0,Phases=2,Linecode=CABBTG04_4_2,Length=0.017000000,Units=km
new line.RML10129986 bus1=BBT2008006.1.2.0,bus2=RML1060129986.1.2.0,Phases=2,Linecode=CABBTG04_4_2,Length=0.017000000,Units=km
new line.RML10130004 bus1=BBT2007957.3.0,bus2=RML1060130004.3.0,Phases=1,Linecode=CABBTG02_4_1,Length=0.017000000,Units=km
new line.RML10130032 bus1=BBT2007915.1.2.3.0,bus2=RML1060130032.1.2.3.0,Phases=3,Linecode=CABBTG06_4_3,Length=0.017000000,Units=km
new line.RML10136428 bus1=BBT2053373.1.2.0,bus2=RML1060136428.1.2.0,Phases=2,Linecode=CABBTG05_4_2,Length=0.017000000,Units=km
new line.RML10137472 bus1=BBT2016413.1.0,bus2=RML1060137472.1.0,Phases=1,Linecode=CABBTG02_4_1,Length=0.017000000,Units=km
new line.RML10137511 bus1=BBT2050279.1.2.0,bus2=RML1060137511.1.2.0,Phases=2,Linecode=CABBTG05_4_2,Length=0.017000000,Units=km
new line.RML10137535 bus1=BBT4147577.2.0,bus2=RML1060137535.2.0,Phases=1,Linecode=CABBTG02_4_1,Length=0.017000000,Units=km
new line.RML10137539 bus1=BBT4147577.1.0,bus2=RML1060137539.1.0,Phases=1,Linecode=CABBTG02_4_1,Length=0.017000000,Units=km
new line.RML10137545 bus1=BBT2676821.1.0,bus2=RML1060137545.1.0,Phases=1,Linecode=CABBTG02_4_1,Length=0.017000000,Units=km
new line.RML10137554 bus1=BBT2015636.1.0,bus2=RML1060137554.1.0,Phases=1,Linecode=CABBTG02_4_1,Length=0.017000000,Units=km
new line.RML10139671 bus1=BBT2076648.1.2.0,bus2=RML1060139671.1.2.0,Phases=2,Linecode=CABBTG05_4_2,Length=0.017000000,Units=km
new line.RML10140546 bus1=BBT2008811.1.2.0,bus2=RML1060140546.1.2.0,Phases=2,Linecode=CABBTG05_4_2,Length=0.017000000,Units=km
new line.RML10144749 bus1=BBT6830348.1.0,bus2=RML1060144749.1.0,Phases=1,Linecode=CABBTG01_4_1,Length=0.017000000,Units=km
new line.RML10144751 bus1=BBT2015202.1.2.0,bus2=RML1060144751.1.2.0,Phases=2,Linecode=CABBTG04_4_2,Length=0.017000000,Units=km
new line.RML10145307 bus1=BBT5227831.3.0,bus2=RML1060145307.3.0,Phases=1,Linecode=CABBTG02_4_1,Length=0.017000000,Units=km
new line.RML10145310 bus1=BBT5227768.3.0,bus2=RML1060145310.3.0,Phases=1,Linecode=CABBTG02_4_1,Length=0.017000000,Units=km
new line.RML10145311 bus1=BBT2016455.1.2.0,bus2=RML1060145311.1.2.0,Phases=2,Linecode=CABBTG05_4_2,Length=0.017000000,Units=km
new line.RML10145312 bus1=BBT2016392.1.2.0,bus2=RML1060145312.1.2.0,Phases=2,Linecode=CABBTG05_4_2,Length=0.017000000,Units=km
new line.RML10145315 bus1=BBT2016392.1.2.0,bus2=RML1060145315.1.2.0,Phases=2,Linecode=CABBTG05_4_2,Length=0.017000000,Units=km
new line.RML10145316 bus1=BBT2015587.1.0,bus2=RML1060145316.1.0,Phases=1,Linecode=CABBTG02_4_1,Length=0.017000000,Units=km
new line.RML10145317 bus1=BBT2015916.3.0,bus2=RML1060145317.3.0,Phases=1,Linecode=CABBTG02_4_1,Length=0.017000000,Units=km
new line.RML10154299 bus1=BBT4147402.1.2.0,bus2=RML1060154299.1.2.0,Phases=2,Linecode=CABBTG05_4_2,Length=0.017000000,Units=km
new line.RML10167579 bus1=BBT2007866.2.0,bus2=RML1060167579.2.0,Phases=1,Linecode=CABBTG02_4_1,Length=0.017000000,Units=km
new line.RML10167592 bus1=BBT2068416.1.0,bus2=RML1060167592.1.0,Phases=1,Linecode=CABBTG02_4_1,Length=0.017000000,Units=km
new line.RML10167608 bus1=BBT7484848.1.2.0,bus2=RML1060167608.1.2.0,Phases=2,Linecode=CABBTG05_4_2,Length=0.017000000,Units=km
new line.RML10167610 bus1=BBT2007859.1.0,bus2=RML1060167610.1.0,Phases=1,Linecode=CABBTG01_4_1,Length=0.017000000,Units=km
new line.RML10172637 bus1=BBT2076578.1.0,bus2=RML1060172637.1.0,Phases=1,Linecode=CABBTG01_4_1,Length=0.017000000,Units=km
new line.RML10172638 bus1=BBT5126730.1.0,bus2=RML1060172638.1.0,Phases=1,Linecode=CABBTG01_4_1,Length=0.017000000,Units=km
new line.RML10172641 bus1=BBT4147423.1.0,bus2=RML1060172641.1.0,Phases=1,Linecode=CABBTG01_4_1,Length=0.017000000,Units=km
new line.RML10172649 bus1=BBT5227845.1.0,bus2=RML1060172649.1.0,Phases=1,Linecode=CABBTG01_4_1,Length=0.017000000,Units=km
new line.RML10172656 bus1=BBT5227838.1.0,bus2=RML1060172656.1.0,Phases=1,Linecode=CABBTG01_4_1,Length=0.017000000,Units=km
new line.RML10172660 bus1=BBT2821413.2.0,bus2=RML1060172660.2.0,Phases=1,Linecode=CABBTG01_4_1,Length=0.017000000,Units=km
new line.RML10172688 bus1=BBT2094295.1.0,bus2=RML1060172688.1.0,Phases=1,Linecode=CABBTG01_4_1,Length=0.017000000,Units=km
new line.RML10172691 bus1=BBT5227817.1.2.0,bus2=RML1060172691.1.2.0,Phases=2,Linecode=CABBTG05_4_2,Length=0.017000000,Units=km
new line.RML10172700 bus1=BBT4147696.1.0,bus2=RML1060172700.1.0,Phases=1,Linecode=CABBTG01_4_1,Length=0.017000000,Units=km
new line.RML10172703 bus1=BBT4147696.2.0,bus2=RML1060172703.2.0,Phases=1,Linecode=CABBTG01_4_1,Length=0.017000000,Units=km
new line.RML10172706 bus1=BBT2050160.2.0,bus2=RML1060172706.2.0,Phases=1,Linecode=CABBTG01_4_1,Length=0.017000000,Units=km
new line.RML10172708 bus1=BBT2050160.1.0,bus2=RML1060172708.1.0,Phases=1,Linecode=CABBTG01_4_1,Length=0.017000000,Units=km
new line.RML10172711 bus1=BBT2010267.1.0,bus2=RML1060172711.1.0,Phases=1,Linecode=CABBTG01_4_1,Length=0.017000000,Units=km
new line.RML10172712 bus1=BBT2101967.2.3.0,bus2=RML1060172712.2.3.0,Phases=2,Linecode=CABBTG04_4_2,Length=0.017000000,Units=km
new line.RML10172719 bus1=BBT4147402.1.0,bus2=RML1060172719.1.0,Phases=1,Linecode=CABBTG02_4_1,Length=0.017000000,Units=km
new line.RML10174985 bus1=BBT3522610.1.2.0,bus2=RML1060174985.1.2.0,Phases=2,Linecode=CABBTG05_4_2,Length=0.017000000,Units=km
new line.RML10183450 bus1=BBT129919675.1.2.0,bus2=RML1060183450.1.2.0,Phases=2,Linecode=CABBTG05_4_2,Length=0.017000000,Units=km
new line.RML10183452 bus1=BBT106657954.1.2.0,bus2=RML1060183452.1.2.0,Phases=2,Linecode=CABBTG05_4_2,Length=0.017000000,Units=km
new line.RML10183455 bus1=BBT2049600.1.2.0,bus2=RML1060183455.1.2.0,Phases=2,Linecode=CABBTG05_4_2,Length=0.017000000,Units=km
new line.RML10186847 bus1=BBT3532767.1.2.0,bus2=RML1060186847.1.2.0,Phases=2,Linecode=CABBTG05_4_2,Length=0.017000000,Units=km
new line.RML10190796 bus1=BBT2049586.1.2.0,bus2=RML1060190796.1.2.0,Phases=2,Linecode=CABBTG05_4_2,Length=0.017000000,Units=km
new line.RML10191345 bus1=BBT2067107.1.2.3.0,bus2=RML1060191345.1.2.3.0,Phases=3,Linecode=CABBTG06_4_3,Length=0.017000000,Units=km
new line.RML10201011 bus1=BBT2014222.3.0,bus2=RML1060201011.3.0,Phases=1,Linecode=CABBTG02_4_1,Length=0.017000000,Units=km
new line.RML10201014 bus1=BBT2012857.3.0,bus2=RML1060201014.3.0,Phases=1,Linecode=CABBTG02_4_1,Length=0.017000000,Units=km
new line.RML10201019 bus1=BBT2102030.2.0,bus2=RML1060201019.2.0,Phases=1,Linecode=CABBTG02_4_1,Length=0.017000000,Units=km
new line.RML10201021 bus1=BBT4147458.1.2.0,bus2=RML1060201021.1.2.0,Phases=2,Linecode=CABBTG05_4_2,Length=0.017000000,Units=km
new line.RML10201026 bus1=BBT2749537.1.2.0,bus2=RML1060201026.1.2.0,Phases=2,Linecode=CABBTG05_4_2,Length=0.017000000,Units=km
new line.RML10201029 bus1=BBT2013151.1.0,bus2=RML1060201029.1.0,Phases=1,Linecode=CABBTG02_4_1,Length=0.017000000,Units=km
new line.RML10201030 bus1=BBT4147577.1.2.0,bus2=RML1060201030.1.2.0,Phases=2,Linecode=CABBTG05_4_2,Length=0.017000000,Units=km
new line.RML10201032 bus1=BBT4147577.1.0,bus2=RML1060201032.1.0,Phases=1,Linecode=CABBTG02_4_1,Length=0.017000000,Units=km
new line.RML10201109 bus1=BBT2954749.3.0,bus2=RML1060201109.3.0,Phases=1,Linecode=CABBTG02_4_1,Length=0.017000000,Units=km
new line.RML10201128 bus1=BBT2009560.2.3.0,bus2=RML1060201128.2.3.0,Phases=2,Linecode=CABBTG05_4_2,Length=0.017000000,Units=km
new line.RML10201150 bus1=BBT3311609.2.3.0,bus2=RML1060201150.2.3.0,Phases=2,Linecode=CABBTG05_4_2,Length=0.017000000,Units=km
new line.RML10201154 bus1=BBT3311609.1.2.0,bus2=RML1060201154.1.2.0,Phases=2,Linecode=CABBTG05_4_2,Length=0.017000000,Units=km
new line.RML10201158 bus1=BBT2749404.1.2.0,bus2=RML1060201158.1.2.0,Phases=2,Linecode=CABBTG05_4_2,Length=0.017000000,Units=km
new line.RML10201173 bus1=BBT4147402.3.0,bus2=RML1060201173.3.0,Phases=1,Linecode=CABBTG02_4_1,Length=0.017000000,Units=km
new line.RML10201178 bus1=BBT2014495.1.2.3.0,bus2=RML1060201178.1.2.3.0,Phases=3,Linecode=CABBTG06_4_3,Length=0.017000000,Units=km
new line.RML10201218 bus1=BBT2011744.1.2.0,bus2=RML1060201218.1.2.0,Phases=2,Linecode=CABBTG05_4_2,Length=0.017000000,Units=km
new line.RML10201552 bus1=BBT2054962.1.0,bus2=RML1060201552.1.0,Phases=1,Linecode=CABBTG02_4_1,Length=0.017000000,Units=km
new line.RML10210982 bus1=BBT2055158.1.2.3.0,bus2=RML1060210982.1.2.3.0,Phases=3,Linecode=CABBTG06_4_3,Length=0.017000000,Units=km
new line.RML10210991 bus1=BBT2016350.1.0,bus2=RML1060210991.1.0,Phases=1,Linecode=CABBTG02_4_1,Length=0.017000000,Units=km
new line.RML10212273 bus1=BBT4856775.1.2.0,bus2=RML1060212273.1.2.0,Phases=2,Linecode=CABBTG05_4_2,Length=0.017000000,Units=km
new line.RML10220841 bus1=BBT2014663.2.3.0,bus2=RML1060220841.2.3.0,Phases=2,Linecode=CABBTG05_4_2,Length=0.017000000,Units=km
new line.RML10220846 bus1=BBT133260873.2.0,bus2=RML1060220846.2.0,Phases=1,Linecode=CABBTG02_4_1,Length=0.017000000,Units=km
new line.RML10221040 bus1=BBT4147430.1.2.0,bus2=RML1060221040.1.2.0,Phases=2,Linecode=CABBTG05_4_2,Length=0.017000000,Units=km
new line.RML10221645 bus1=BBT2676828.1.2.0,bus2=RML1060221645.1.2.0,Phases=2,Linecode=CABBTG05_4_2,Length=0.017000000,Units=km
new line.RML10224592 bus1=BBT4856957.1.2.0,bus2=RML1060224592.1.2.0,Phases=2,Linecode=CABBTG05_4_2,Length=0.017000000,Units=km
new line.RML10227666 bus1=BBT4147577.2.0,bus2=RML1060227666.2.0,Phases=1,Linecode=CABBTG02_4_1,Length=0.017000000,Units=km
new line.RML10227669 bus1=BBT4147577.1.0,bus2=RML1060227669.1.0,Phases=1,Linecode=CABBTG02_4_1,Length=0.017000000,Units=km
new line.RML10227673 bus1=BBT4147591.2.0,bus2=RML1060227673.2.0,Phases=1,Linecode=CABBTG02_4_1,Length=0.017000000,Units=km
new line.RML10227864 bus1=BBT4856782.1.2.0,bus2=RML1060227864.1.2.0,Phases=2,Linecode=CABBTG05_4_2,Length=0.017000000,Units=km
new line.RML10227866 bus1=BBT4856789.1.2.0,bus2=RML1060227866.1.2.0,Phases=2,Linecode=CABBTG05_4_2,Length=0.017000000,Units=km
new line.RML10228281 bus1=BBT2054962.1.0,bus2=RML1060228281.1.0,Phases=1,Linecode=CABBTG02_4_1,Length=0.017000000,Units=km
new line.RML10230240 bus1=BBT2014572.1.2.0,bus2=RML1060230240.1.2.0,Phases=2,Linecode=CABBTG05_4_2,Length=0.017000000,Units=km
new line.RML10230254 bus1=BBT2055032.2.0,bus2=RML1060230254.2.0,Phases=1,Linecode=CABBTG02_4_1,Length=0.017000000,Units=km
new line.RML10230740 bus1=BBT2044833.1.3.0,bus2=RML1060230740.1.3.0,Phases=2,Linecode=CABBTG05_4_2,Length=0.017000000,Units=km
new line.RML10230744 bus1=BBT2044784.1.2.3.0,bus2=RML1060230744.1.2.3.0,Phases=3,Linecode=CABBTG06_4_3,Length=0.017000000,Units=km
new line.RML10230749 bus1=BBT2009784.2.0,bus2=RML1060230749.2.0,Phases=1,Linecode=CABBTG02_4_1,Length=0.017000000,Units=km
new line.RML10230752 bus1=BBT2009784.1.0,bus2=RML1060230752.1.0,Phases=1,Linecode=CABBTG02_4_1,Length=0.017000000,Units=km
new line.RML10230756 bus1=BBT2009770.1.0,bus2=RML1060230756.1.0,Phases=1,Linecode=CABBTG02_4_1,Length=0.017000000,Units=km
new line.RML10230766 bus1=BBT1944453.2.0,bus2=RML1060230766.2.0,Phases=1,Linecode=CABBTG02_4_1,Length=0.017000000,Units=km
new line.RML10230767 bus1=BBT1944292.2.0,bus2=RML1060230767.2.0,Phases=1,Linecode=CABBTG02_4_1,Length=0.017000000,Units=km
new line.RML10230770 bus1=BBT2008524.2.0,bus2=RML1060230770.2.0,Phases=1,Linecode=CABBTG02_4_1,Length=0.017000000,Units=km
new line.RML10230771 bus1=BBT2676800.1.2.0,bus2=RML1060230771.1.2.0,Phases=2,Linecode=CABBTG05_4_2,Length=0.017000000,Units=km
new line.RML10230772 bus1=BBT2676814.1.0,bus2=RML1060230772.1.0,Phases=1,Linecode=CABBTG02_4_1,Length=0.017000000,Units=km
new line.RML10230773 bus1=BBT3062619.1.0,bus2=RML1060230773.1.0,Phases=1,Linecode=CABBTG02_4_1,Length=0.017000000,Units=km
new line.RML10230774 bus1=BBT3062633.1.0,bus2=RML1060230774.1.0,Phases=1,Linecode=CABBTG02_4_1,Length=0.017000000,Units=km
new line.RML10230775 bus1=BBT2010491.3.0,bus2=RML1060230775.3.0,Phases=1,Linecode=CABBTG02_4_1,Length=0.017000000,Units=km
new line.RML10230776 bus1=BBT2011170.2.0,bus2=RML1060230776.2.0,Phases=1,Linecode=CABBTG02_4_1,Length=0.017000000,Units=km
new line.RML10230777 bus1=BBT2011702.2.0,bus2=RML1060230777.2.0,Phases=1,Linecode=CABBTG02_4_1,Length=0.017000000,Units=km
new line.RML10230778 bus1=BBT2011387.1.2.3.0,bus2=RML1060230778.1.2.3.0,Phases=3,Linecode=CABBTG06_4_3,Length=0.017000000,Units=km
new line.RML10230779 bus1=BBT2013123.1.2.0,bus2=RML1060230779.1.2.0,Phases=2,Linecode=CABBTG05_4_2,Length=0.017000000,Units=km
new line.RML10230780 bus1=BBT2013158.1.2.0,bus2=RML1060230780.1.2.0,Phases=2,Linecode=CABBTG05_4_2,Length=0.017000000,Units=km
new line.RML10230782 bus1=BBT4147493.1.2.0,bus2=RML1060230782.1.2.0,Phases=2,Linecode=CABBTG05_4_2,Length=0.017000000,Units=km
new line.RML10230783 bus1=BBT4147451.1.3.0,bus2=RML1060230783.1.3.0,Phases=2,Linecode=CABBTG05_4_2,Length=0.017000000,Units=km
new line.RML10230784 bus1=BBT4147451.1.2.0,bus2=RML1060230784.1.2.0,Phases=2,Linecode=CABBTG05_4_2,Length=0.017000000,Units=km