new line.TR12134751 bus1=BMT8718595C.1.2.3,bus2=BMT8728470C.1.2.3,Phases=3,Linecode=CABA08_3_3,Length=0.029157000,Units=km
new line.TR12134753 bus1=BMT8718595B.1.2.3,bus2=BMT8728470B.1.2.3,Phases=3,Linecode=CABA08_3_3,Length=0.029157000,Units=km
new line.TR12134762 bus1=BMT8728470C.1.2.3,bus2=BMT151206241.1.2.3,Phases=3,Linecode=CABA08_3_3,Length=0.052244000,Units=km
new line.TR12134767 bus1=BMT8728470B.1.2.3,bus2=BMT8723712B.1.2.3,Phases=3,Linecode=CABA08_3_3,Length=0.052244000,Units=km
new line.TR12134797 bus1=BMT151206241.1.2.3,bus2=BMT166573625.1.2.3,Phases=3,Linecode=CABA08_3_3,Length=0.016033000,Units=km
new line.TR12134799 bus1=BMT8728489C.1.2.3,bus2=BMT8728492E.1.2.3,Phases=3,Linecode=CABA08_3_3,Length=0.043177000,Units=km
new line.TR12134803 bus1=BMT8723712B.1.2.3,bus2=BMT166573585.1.2.3,Phases=3,Linecode=CABA08_3_3,Length=0.047512000,Units=km
new line.TR12134804 bus1=BMT166573585.1.2.3,bus2=BMT8728492D.1.2.3,Phases=3,Linecode=CABA08_3_3,Length=0.043177000,Units=km
new line.TR12134815 bus1=BMT166573625.1.2.3,bus2=BMT8728489C.1.2.3,Phases=3,Linecode=CABA08_3_3,Length=0.039928000,Units=km
new line.TR12135236 bus1=BMT150349892.1.2.3,bus2=BMT150349893.1.2.3,Phases=3,Linecode=CABA06_3_3,Length=0.000501000,Units=km
new line.TR12135237 bus1=BMT150349893.1.2.3,bus2=BMT150349894.1.2.3,Phases=3,Linecode=CAB609_3_3,Length=0.008001000,Units=km
new line.TR12135238 bus1=BMT150349894.1.2.3,bus2=BMT150349895.1.2.3,Phases=3,Linecode=CAB609_3_3,Length=0.009056000,Units=km
new line.TR12135239 bus1=BMT150349895.1.2.3,bus2=BMT150349896.1.2.3,Phases=3,Linecode=CAB609_3_3,Length=0.008063000,Units=km
new line.TR12135980 bus1=BMT170182825.1.2.3,bus2=BMT170182826.1.2.3,Phases=3,Linecode=CAB207_3_3,Length=0.064200000,Units=km
new line.TR12135984 bus1=BMT2259138B.1.2.3,bus2=BMT149043960.1.2.3,Phases=3,Linecode=CABA08_3_3,Length=0.007001000,Units=km
new line.TR12135985 bus1=BMT170182798.1.2.3,bus2=BMT8020998B.1.2.3,Phases=3,Linecode=CABA08_3_3,Length=0.021026000,Units=km
new line.TR12135992 bus1=BMT2256534B.1.2.3,bus2=BMT149044209.1.2.3,Phases=3,Linecode=CAB104_3_3,Length=0.007001000,Units=km
new line.TR12135993 bus1=BMT170182769.1.2.3,bus2=BMT8020018B.1.2.3,Phases=3,Linecode=CAB104_3_3,Length=0.018002000,Units=km
new line.TR12136001 bus1=BMT8718573B.1.2.3,bus2=BMT2256534D.1.2.3,Phases=3,Linecode=CABA08_3_3,Length=0.006001000,Units=km
new line.TR12136002 bus1=BMT2256534D.1.2.3,bus2=BMT2259138D.1.2.3,Phases=3,Linecode=CABA08_3_3,Length=0.008001000,Units=km
new line.TR12136005 bus1=BMT2259138D.1.2.3,bus2=BMT149044427.1.2.3,Phases=3,Linecode=CABA08_3_3,Length=0.007001000,Units=km
new line.TR12136006 bus1=BMT155947600.1.2.3,bus2=BMT155947601.1.2.3,Phases=3,Linecode=CABA08_3_3,Length=0.031147000,Units=km
new line.TR12136007 bus1=BMT170772123.1.2.3,bus2=BMT1293306C.1.2.3,Phases=3,Linecode=CABA08_3_3,Length=0.034237000,Units=km
new line.TR12136008 bus1=BMT1293306C.1.2.3,bus2=BMT2969673C.1.2.3,Phases=3,Linecode=CABA08_3_3,Length=0.034017000,Units=km
new line.TR12136017 bus1=BMT2969673C.1.2.3,bus2=BMT1293299C.1.2.3,Phases=3,Linecode=CABA08_3_3,Length=0.033018000,Units=km
new line.TR12136018 bus1=BMT1293299C.1.2.3,bus2=BMT1293292C.1.2.3,Phases=3,Linecode=CABA08_3_3,Length=0.035003000,Units=km
new line.TR12136019 bus1=BMT1293292C.1.2.3,bus2=BMT2969680C.1.2.3,Phases=3,Linecode=CABA08_3_3,Length=0.034017000,Units=km
new line.TR12136020 bus1=BMT2969680C.1.2.3,bus2=BMT1293285C.1.2.3,Phases=3,Linecode=CABA08_3_3,Length=0.034017000,Units=km
new line.TR12136021 bus1=BMT1293285C.1.2.3,bus2=BMT2969687C.1.2.3,Phases=3,Linecode=CABA08_3_3,Length=0.035060000,Units=km
new line.TR12136022 bus1=BMT2969687C.1.2.3,bus2=BMT1293278C.1.2.3,Phases=3,Linecode=CABA08_3_3,Length=0.034062000,Units=km
new line.TR12136023 bus1=BMT1293278C.1.2.3,bus2=BMT2969694C.1.2.3,Phases=3,Linecode=CABA08_3_3,Length=0.035696000,Units=km
new line.TR12136024 bus1=BMT2969694C.1.2.3,bus2=BMT1293271C.1.2.3,Phases=3,Linecode=CABA08_3_3,Length=0.033841000,Units=km
new line.TR12136025 bus1=BMT1293271C.1.2.3,bus2=BMT2969701C.1.2.3,Phases=3,Linecode=CABA08_3_3,Length=0.034017000,Units=km
new line.TR12136026 bus1=BMT2969701C.1.2.3,bus2=BMT1293264E.1.2.3,Phases=3,Linecode=CABA08_3_3,Length=0.033544000,Units=km
new line.TR12136032 bus1=BMT1293264E.1.2.3,bus2=BMT8729746B.1.2.3,Phases=3,Linecode=CABA08_3_3,Length=0.057389000,Units=km
new line.TR12136034 bus1=BMT8729746B.1.2.3,bus2=BMT8729749B.1.2.3,Phases=3,Linecode=CABA08_3_3,Length=0.051618000,Units=km
new line.TR12136035 bus1=BMT8729749B.1.2.3,bus2=BMT8729751B.1.2.3,Phases=3,Linecode=CABA08_3_3,Length=0.053744000,Units=km
new line.TR12136039 bus1=BMT8729763B.1.2.3,bus2=BMT8729764B.1.2.3,Phases=3,Linecode=CABA08_3_3,Length=0.039702000,Units=km
new line.TR12136649 bus1=BMT8729764B.1.2.3,bus2=BMT8729929B.1.2.3,Phases=3,Linecode=CABA08_3_3,Length=0.042441000,Units=km
new line.TR12136651 bus1=BMT170772124.1.2.3,bus2=BMT149071701.1.2.3,Phases=3,Linecode=CABA08_3_3,Length=0.059645000,Units=km
new line.TR12136653 bus1=BMT170772383.1.2.3,bus2=BMT8730324B.1.2.3,Phases=3,Linecode=CABA08_3_3,Length=0.037205000,Units=km
new line.TR12136667 bus1=BMT8730324B.1.2.3,bus2=BMT8730326B.1.2.3,Phases=3,Linecode=CABA08_3_3,Length=0.037646000,Units=km
new line.TR12136668 bus1=BMT8730326B.1.2.3,bus2=BMT8730327B.1.2.3,Phases=3,Linecode=CABA08_3_3,Length=0.038900000,Units=km
new line.TR12136669 bus1=BMT8730327B.1.2.3,bus2=BMT8730328B.1.2.3,Phases=3,Linecode=CABA08_3_3,Length=0.031893000,Units=km
new line.TR12136670 bus1=BMT8730328B.1.2.3,bus2=BMT8730333B.1.2.3,Phases=3,Linecode=CABA08_3_3,Length=0.024209000,Units=km
new line.TR12136671 bus1=BMT8730333B.1.2.3,bus2=BMT8730337B.1.2.3,Phases=3,Linecode=CABA08_3_3,Length=0.025002000,Units=km
new line.TR12136672 bus1=BMT8730337B.1.2.3,bus2=BMT8730349B.1.2.3,Phases=3,Linecode=CABA08_3_3,Length=0.025082000,Units=km
new line.TR12136673 bus1=BMT8730349B.1.2.3,bus2=BMT8730350B.1.2.3,Phases=3,Linecode=CABA08_3_3,Length=0.026079000,Units=km
new line.TR12136674 bus1=BMT8730350B.1.2.3,bus2=BMT8730351B.1.2.3,Phases=3,Linecode=CABA08_3_3,Length=0.060079000,Units=km
new line.TR12136675 bus1=BMT8730351B.1.2.3,bus2=BMT8730353B.1.2.3,Phases=3,Linecode=CABA08_3_3,Length=0.059140000,Units=km
new line.TR12136676 bus1=BMT8730353B.1.2.3,bus2=BMT8730354B.1.2.3,Phases=3,Linecode=CABA08_3_3,Length=0.059140000,Units=km
new line.TR12136677 bus1=BMT8730354B.1.2.3,bus2=BMT8730355B.1.2.3,Phases=3,Linecode=CABA08_3_3,Length=0.059216000,Units=km
new line.TR12136704 bus1=BMT8730355B.1.2.3,bus2=BMT8730369B.1.2.3,Phases=3,Linecode=CABA08_3_3,Length=0.059080000,Units=km
new line.TR12136711 bus1=BMT8730369B.1.2.3,bus2=BMT8730382B.1.2.3,Phases=3,Linecode=CABA08_3_3,Length=0.060212000,Units=km
new line.TR12136712 bus1=BMT8730382B.1.2.3,bus2=BMT8730383B.1.2.3,Phases=3,Linecode=CABA08_3_3,Length=0.059140000,Units=km
new line.TR12136713 bus1=BMT8730383B.1.2.3,bus2=BMT8730384B.1.2.3,Phases=3,Linecode=CABA08_3_3,Length=0.060212000,Units=km
new line.TR12136749 bus1=BMT149075657.1.2.3,bus2=BMT149075658.1.2.3,Phases=3,Linecode=CABA08_3_3,Length=0.052013000,Units=km
new line.TR12136755 bus1=BMT8730384B.1.2.3,bus2=BMT1130948B.1.2.3,Phases=3,Linecode=CABA08_3_3,Length=0.053939000,Units=km
new line.TR12136758 bus1=BMT150348689.1.2.3,bus2=BMT7292074C.1.2.3,Phases=3,Linecode=CABA08_3_3,Length=0.046274000,Units=km
new line.TR12136759 bus1=BMT7292074C.1.2.3,bus2=BMT1129814C.1.2.3,Phases=3,Linecode=CABA08_3_3,Length=0.019649000,Units=km
new line.TR12136760 bus1=BMT1129814C.1.2.3,bus2=BMT150348690.1.2.3,Phases=3,Linecode=CABA08_3_3,Length=0.040028000,Units=km
new line.TR12136761 bus1=BMT1130948B.1.2.3,bus2=BMT149075948.1.2.3,Phases=3,Linecode=CABA08_3_3,Length=0.065005000,Units=km
new line.TR12136762 bus1=BMT150588560.1.2.3,bus2=BMT150588561.1.2.3,Phases=3,Linecode=CABA08_3_3,Length=0.040028000,Units=km
new line.TR12136764 bus1=BMT150348690.1.2.3,bus2=BMT150348691.1.2.3,Phases=3,Linecode=CAB611_3_3,Length=0.005100000,Units=km
new line.TR12136765 bus1=BMT150348691.1.2.3,bus2=BMT150348692.1.2.3,Phases=3,Linecode=CAB611_3_3,Length=0.010199000,Units=km
new line.TR12136774 bus1=BMT150348692.1.2.3,bus2=BMT150348693.1.2.3,Phases=3,Linecode=CAB611_3_3,Length=0.004001000,Units=km
new line.TR12136775 bus1=BMT150348693.1.2.3,bus2=BMT150348694.1.2.3,Phases=3,Linecode=CABA08_3_3,Length=0.009056000,Units=km
new line.TR12136782 bus1=BMT150588561.1.2.3,bus2=BMT150588562.1.2.3,Phases=3,Linecode=CAB611_3_3,Length=0.005100000,Units=km
new line.TR12136783 bus1=BMT150588562.1.2.3,bus2=BMT150588563.1.2.3,Phases=3,Linecode=CAB611_3_3,Length=0.010199000,Units=km
new line.TR12136784 bus1=BMT150588563.1.2.3,bus2=BMT150588564.1.2.3,Phases=3,Linecode=CAB611_3_3,Length=0.004001000,Units=km
new line.TR12136788 bus1=BMT149075658.1.2.3,bus2=BMT149075507.1.2.3,Phases=3,Linecode=CABA06_3_3,Length=0.002237000,Units=km
new line.TR12136789 bus1=BMT170775694.1.2.3,bus2=BMT170775695.1.2.3,Phases=3,Linecode=CABA06_3_3,Length=0.031387000,Units=km
new line.TR12136915 bus1=BMT150588564.1.2.3,bus2=BMT8730629B.1.2.3,Phases=3,Linecode=CABA08_3_3,Length=0.031067000,Units=km
new line.TR12136920 bus1=BMT8730629B.1.2.3,bus2=BMT8730630B.1.2.3,Phases=3,Linecode=CABA08_3_3,Length=0.036017000,Units=km
new line.TR12136921 bus1=BMT8730630B.1.2.3,bus2=BMT8730632B.1.2.3,Phases=3,Linecode=CABA08_3_3,Length=0.037057000,Units=km
new line.TR12136922 bus1=BMT8730632B.1.2.3,bus2=BMT150588565.1.2.3,Phases=3,Linecode=CABA08_3_3,Length=0.044015000,Units=km
new line.TR12136923 bus1=BMT150588565.1.2.3,bus2=BMT8730637B.1.2.3,Phases=3,Linecode=CABA08_3_3,Length=0.033063000,Units=km
new line.TR12136924 bus1=BMT8730637B.1.2.3,bus2=BMT8730638B.1.2.3,Phases=3,Linecode=CABA08_3_3,Length=0.038055000,Units=km
new line.TR12136925 bus1=BMT8730638B.1.2.3,bus2=BMT8730639B.1.2.3,Phases=3,Linecode=CABA08_3_3,Length=0.034017000,Units=km
new line.TR12136933 bus1=BMT8730639B.1.2.3,bus2=BMT8730640B.1.2.3,Phases=3,Linecode=CABA08_3_3,Length=0.037057000,Units=km
new line.TR12136934 bus1=BMT8730640B.1.2.3,bus2=BMT8730641B.1.2.3,Phases=3,Linecode=CABA08_3_3,Length=0.021002000,Units=km
new line.TR12136935 bus1=BMT8730641B.1.2.3,bus2=BMT8730642B.1.2.3,Phases=3,Linecode=CABA08_3_3,Length=0.032143000,Units=km
new line.TR12136963 bus1=BMT150588565.1.2.3,bus2=BMT8730636B.1.2.3,Phases=3,Linecode=CABA08_3_3,Length=0.005658000,Units=km
new line.TR12136971 bus1=BMT8730636B.1.2.3,bus2=BMT150588567.1.2.3,Phases=3,Linecode=CABA08_3_3,Length=0.022474000,Units=km
new line.TR12136993 bus1=BMT8730642B.1.2.3,bus2=BMT8730672B.1.2.3,Phases=3,Linecode=CABA08_3_3,Length=0.047014000,Units=km
new line.TR12136994 bus1=BMT8730672B.1.2.3,bus2=BMT8730673B.1.2.3,Phases=3,Linecode=CABA08_3_3,Length=0.040053000,Units=km
new line.TR12155474 bus1=BMT163150462.1,bus2=BMT8751077B.1,Phases=1,Linecode=CAB202_3_1,Length=0.299407000,Units=km
new line.TR12155475 bus1=BMT8751077B.1,bus2=BMT8751078B.1,Phases=1,Linecode=CAB202_3_1,Length=0.024842000,Units=km
new line.TR12155477 bus1=BMT8751078B.1,bus2=BMT8751080B.1,Phases=1,Linecode=CAB202_3_1,Length=0.438341000,Units=km
new line.TR12155481 bus1=BMT8751080B.1,bus2=BMT163150464.1,Phases=1,Linecode=CAB202_3_1,Length=0.180149000,Units=km
new line.TR12155483 bus1=BMT163150464.1,bus2=BMT163150465.1,Phases=1,Linecode=CAB103_3_1,Length=0.031578000,Units=km
new line.TR12156606 bus1=BMT172394115.1.2.3,bus2=BMT8752588B.1.2.3,Phases=3,Linecode=CABA08_3_3,Length=0.036677000,Units=km
new line.TR12156663 bus1=BMT8752588B.1.2.3,bus2=BMT8752637B.1.2.3,Phases=3,Linecode=CABA08_3_3,Length=0.049400000,Units=km
new line.TR12156679 bus1=BMT8752637B.1.2.3,bus2=BMT8752650B.1.2.3,Phases=3,Linecode=CABA08_3_3,Length=0.059946000,Units=km
new line.TR12156685 bus1=BMT8752650B.1.2.3,bus2=BMT8752655B.1.2.3,Phases=3,Linecode=CABA08_3_3,Length=0.050163000,Units=km
new line.TR12156687 bus1=BMT8752655B.1.2.3,bus2=BMT8752657B.1.2.3,Phases=3,Linecode=CABA08_3_3,Length=0.060840000,Units=km
new line.TR12156821 bus1=BMT167420897.1.2.3,bus2=BMT8752750B.1.2.3,Phases=3,Linecode=CABA08_3_3,Length=0.033528000,Units=km
new line.TR12156822 bus1=BMT8752750B.1.2.3,bus2=BMT167420898.1.2.3,Phases=3,Linecode=CABA08_3_3,Length=0.043188000,Units=km
new line.TR12156826 bus1=BMT8752753B.1.2.3,bus2=BMT8752754B.1.2.3,Phases=3,Linecode=CAB907_4_3,Length=0.028304000,Units=km
new line.TR12156827 bus1=BMT8752754B.1.2.3,bus2=BMT8752755B.1.2.3,Phases=3,Linecode=CAB907_4_3,Length=0.033289000,Units=km
new line.TR12156828 bus1=BMT8752755B.1.2.3,bus2=BMT8752757B.1.2.3,Phases=3,Linecode=CAB907_4_3,Length=0.040314000,Units=km
new line.TR12156831 bus1=BMT8752757B.1.2.3,bus2=BMT8752759B.1.2.3,Phases=3,Linecode=CAB907_4_3,Length=0.034787000,Units=km
new line.TR12156832 bus1=BMT8752759B.1.2.3,bus2=BMT8752761B.1.2.3,Phases=3,Linecode=CAB907_4_3,Length=0.030367000,Units=km
new line.TR12156833 bus1=BMT8752761B.1.2.3,bus2=BMT8752762B.1.2.3,Phases=3,Linecode=CAB907_4_3,Length=0.032282000,Units=km
new line.TR12156834 bus1=BMT8752762B.1.2.3,bus2=BMT8752764B.1.2.3,Phases=3,Linecode=CAB907_4_3,Length=0.039815000,Units=km
new line.TR12156835 bus1=BMT8752764B.1.2.3,bus2=BMT8752765B.1.2.3,Phases=3,Linecode=CAB907_4_3,Length=0.030808000,Units=km
new line.TR12156836 bus1=BMT8752765B.1.2.3,bus2=BMT167420899.1.2.3,Phases=3,Linecode=CAB907_4_3,Length=0.031018000,Units=km
new line.TR12156837 bus1=BMT167420899.1.2.3,bus2=BMT8752848B.1.2.3,Phases=3,Linecode=CABA08_3_3,Length=0.049652000,Units=km
new line.TR12156839 bus1=BMT8752848B.1.2.3,bus2=BMT8752850B.1.2.3,Phases=3,Linecode=CABA08_3_3,Length=0.044388000,Units=km
new line.TR12156840 bus1=BMT8752850B.1.2.3,bus2=BMT8752851B.1.2.3,Phases=3,Linecode=CABA08_3_3,Length=0.042945000,Units=km
new line.TR12156841 bus1=BMT8752851B.1.2.3,bus2=BMT8752854B.1.2.3,Phases=3,Linecode=CABA08_3_3,Length=0.047427000,Units=km
new line.TR12156845 bus1=BMT8752854B.1.2.3,bus2=BMT8752855B.1.2.3,Phases=3,Linecode=CABA08_3_3,Length=0.053743000,Units=km
new line.TR12156860 bus1=BMT8752855B.1.2.3,bus2=BMT8752856B.1.2.3,Phases=3,Linecode=CABA08_3_3,Length=0.055230000,Units=km
new line.TR12156861 bus1=BMT8752856B.1.2.3,bus2=BMT8752847B.1.2.3,Phases=3,Linecode=CABA08_3_3,Length=0.053003000,Units=km
new line.TR12156864 bus1=BMT8752847B.1.2.3,bus2=BMT8752812B.1.2.3,Phases=3,Linecode=CABA08_3_3,Length=0.051868000,Units=km
new line.TR12156865 bus1=BMT8752812B.1.2.3,bus2=BMT8752810B.1.2.3,Phases=3,Linecode=CABA08_3_3,Length=0.055546000,Units=km
new line.TR12156868 bus1=BMT8752810B.1.2.3,bus2=BMT8752809B.1.2.3,Phases=3,Linecode=CABA08_3_3,Length=0.054133000,Units=km
new line.TR12156869 bus1=BMT8752809B.1.2.3,bus2=BMT8752808B.1.2.3,Phases=3,Linecode=CABA08_3_3,Length=0.047077000,Units=km
new line.TR12156870 bus1=BMT8752808B.1.2.3,bus2=BMT8752807B.1.2.3,Phases=3,Linecode=CABA08_3_3,Length=0.044207000,Units=km
new line.TR12156871 bus1=BMT8752807B.1.2.3,bus2=BMT8752806B.1.2.3,Phases=3,Linecode=CABA08_3_3,Length=0.049823000,Units=km
new line.TR12156873 bus1=BMT8752806B.1.2.3,bus2=BMT8752804B.1.2.3,Phases=3,Linecode=CABA08_3_3,Length=0.041776000,Units=km
new line.TR12156888 bus1=BMT8752796B.1.2.3,bus2=BMT8752795B.1.2.3,Phases=3,Linecode=CABA08_3_3,Length=0.040610000,Units=km
new line.TR12156889 bus1=BMT8752795B.1.2.3,bus2=BMT167420900.1.2.3,Phases=3,Linecode=CABA08_3_3,Length=0.048013000,Units=km
new line.TR12156890 bus1=BMT167420900.1.2.3,bus2=BMT8752788B.1.2.3,Phases=3,Linecode=CAB907_4_3,Length=0.039701000,Units=km
new line.TR12156891 bus1=BMT8752788B.1.2.3,bus2=BMT8752786B.1.2.3,Phases=3,Linecode=CAB907_4_3,Length=0.041234000,Units=km
new line.TR12156892 bus1=BMT8752786B.1.2.3,bus2=BMT8752783B.1.2.3,Phases=3,Linecode=CAB907_4_3,Length=0.032759000,Units=km
new line.TR12156895 bus1=BMT8752783B.1.2.3,bus2=BMT8752782B.1.2.3,Phases=3,Linecode=CAB907_4_3,Length=0.029532000,Units=km
new line.TR12156896 bus1=BMT8752782B.1.2.3,bus2=BMT8752781B.1.2.3,Phases=3,Linecode=CAB907_4_3,Length=0.039449000,Units=km
new line.TR12156897 bus1=BMT8752781B.1.2.3,bus2=BMT167420901.1.2.3,Phases=3,Linecode=CAB907_4_3,Length=0.047437000,Units=km
new line.TR12136995 bus1=BMT8730673B.1.2.3,bus2=BMT150588566.1.2.3,Phases=3,Linecode=CABA08_3_3,Length=0.038055000,Units=km
new line.TR12136996 bus1=BMT150588566.1.2.3,bus2=BMT8730675B.1.2.3,Phases=3,Linecode=CABA08_3_3,Length=0.042051000,Units=km
new line.TR12136997 bus1=BMT8730675B.1.2.3,bus2=BMT8730676B.1.2.3,Phases=3,Linecode=CABA08_3_3,Length=0.032018000,Units=km
new line.TR12136998 bus1=BMT8730676B.1.2.3,bus2=BMT150588568.1.2.3,Phases=3,Linecode=CABA08_3_3,Length=0.033063000,Units=km
new line.TR12139424 bus1=BMT159240459.2,bus2=BMT159240460.2,Phases=1,Linecode=CAB103_3_1,Length=0.034238000,Units=km
new line.TR12139494 bus1=BMT150588566.1.2.3,bus2=BMT150588569.1.2.3,Phases=3,Linecode=CABA08_3_3,Length=0.008063000,Units=km
new line.TR12139803 bus1=BMT149147760.1.2.3,bus2=BMT8733644B.1.2.3,Phases=3,Linecode=CABA08_3_3,Length=0.046047000,Units=km
new line.TR12139804 bus1=BMT8733644B.1.2.3,bus2=BMT8733647B.1.2.3,Phases=3,Linecode=CABA08_3_3,Length=0.032018000,Units=km
new line.TR12139806 bus1=BMT8733647B.1.2.3,bus2=BMT171370273.1.2.3,Phases=3,Linecode=CABA08_3_3,Length=0.033063000,Units=km
new line.TR12139807 bus1=BMT171370273.1.2.3,bus2=BMT8733657B.1.2.3,Phases=3,Linecode=CAB907_4_3,Length=0.041052000,Units=km
new line.TR12139808 bus1=BMT8733657B.1.2.3,bus2=BMT8733663B.1.2.3,Phases=3,Linecode=CAB907_4_3,Length=0.039016000,Units=km
new line.TR12139811 bus1=BMT8733663B.1.2.3,bus2=BMT171370274.1.2.3,Phases=3,Linecode=CAB907_4_3,Length=0.017466000,Units=km
new line.TR12139821 bus1=BMT171370274.1.2.3,bus2=BMT8733666B.1.2.3,Phases=3,Linecode=CABA08_3_3,Length=0.018002000,Units=km
new line.TR12139822 bus1=BMT8733666B.1.2.3,bus2=BMT8733671B.1.2.3,Phases=3,Linecode=CABA08_3_3,Length=0.009488000,Units=km
new line.TR12139825 bus1=BMT8733671B.1.2.3,bus2=BMT8733674B.1.2.3,Phases=3,Linecode=CABA08_3_3,Length=0.038016000,Units=km
new line.TR12139827 bus1=BMT8733674B.1.2.3,bus2=BMT8733677B.1.2.3,Phases=3,Linecode=CABA08_3_3,Length=0.031625000,Units=km
new line.TR12139828 bus1=BMT8733677B.1.2.3,bus2=BMT8733678B.1.2.3,Phases=3,Linecode=CABA08_3_3,Length=0.030808000,Units=km
new line.TR12139832 bus1=BMT8733678B.1.2.3,bus2=BMT8733681B.1.2.3,Phases=3,Linecode=CABA08_3_3,Length=0.039207000,Units=km
new line.TR12139833 bus1=BMT8733681B.1.2.3,bus2=BMT8733693B.1.2.3,Phases=3,Linecode=CABA08_3_3,Length=0.029413000,Units=km
new line.TR12139836 bus1=BMT8733693B.1.2.3,bus2=BMT8733695B.1.2.3,Phases=3,Linecode=CABA08_3_3,Length=0.020593000,Units=km
new line.TR12139837 bus1=BMT8733695B.1.2.3,bus2=BMT8733697B.1.2.3,Phases=3,Linecode=CABA08_3_3,Length=0.013455000,Units=km
new line.TR12139839 bus1=BMT8733697B.1.2.3,bus2=BMT8733699B.1.2.3,Phases=3,Linecode=CABA08_3_3,Length=0.015654000,Units=km
new line.TR12139840 bus1=BMT8733699B.1.2.3,bus2=BMT8733710B.1.2.3,Phases=3,Linecode=CABA08_3_3,Length=0.045225000,Units=km
new line.TR12139841 bus1=BMT8733710B.1.2.3,bus2=BMT8733713B.1.2.3,Phases=3,Linecode=CABA08_3_3,Length=0.045610000,Units=km
new line.TR12139842 bus1=BMT8733713B.1.2.3,bus2=BMT8733717B.1.2.3,Phases=3,Linecode=CABA08_3_3,Length=0.030367000,Units=km
new line.TR12139843 bus1=BMT8733717B.1.2.3,bus2=BMT8733726B.1.2.3,Phases=3,Linecode=CABA08_3_3,Length=0.036881000,Units=km
new line.TR12139845 bus1=BMT8733726B.1.2.3,bus2=BMT8733729B.1.2.3,Phases=3,Linecode=CABA08_3_3,Length=0.037659000,Units=km
new line.TR12139846 bus1=BMT8733729B.1.2.3,bus2=BMT149215734.1.2.3,Phases=3,Linecode=CABA08_3_3,Length=0.030268000,Units=km
new line.TR12139847 bus1=BMT171978739.1.2.3,bus2=BMT8733779B.1.2.3,Phases=3,Linecode=CABA08_3_3,Length=0.032560000,Units=km
new line.TR12139851 bus1=BMT8733779B.1.2.3,bus2=BMT1123017C.1.2.3,Phases=3,Linecode=CABA08_3_3,Length=0.026403000,Units=km
new line.TR12139852 bus1=BMT1123017C.1.2.3,bus2=BMT4205649C.1.2.3,Phases=3,Linecode=CABA08_3_3,Length=0.034135000,Units=km
new line.TR12139853 bus1=BMT4205649C.1.2.3,bus2=BMT4205635B.1.2.3,Phases=3,Linecode=CABA08_3_3,Length=0.032018000,Units=km
new line.TR12139854 bus1=BMT4205635B.1.2.3,bus2=BMT4205628B.1.2.3,Phases=3,Linecode=CABA08_3_3,Length=0.030235000,Units=km
new line.TR12139855 bus1=BMT4205628B.1.2.3,bus2=BMT4205621B.1.2.3,Phases=3,Linecode=CABA08_3_3,Length=0.031051000,Units=km
new line.TR12139857 bus1=BMT4205621B.1.2.3,bus2=BMT4205614B.1.2.3,Phases=3,Linecode=CABA08_3_3,Length=0.037057000,Units=km
new line.TR12139860 bus1=BMT4205614B.1.2.3,bus2=BMT4205607B.1.2.3,Phases=3,Linecode=CABA08_3_3,Length=0.021025000,Units=km
new line.TR12139861 bus1=BMT4205607B.1.2.3,bus2=BMT4205600B.1.2.3,Phases=3,Linecode=CABA08_3_3,Length=0.034135000,Units=km
new line.TR12139864 bus1=BMT4205600B.1.2.3,bus2=BMT4205593B.1.2.3,Phases=3,Linecode=CABA08_3_3,Length=0.033528000,Units=km
new line.TR12139876 bus1=BMT4205593B.1.2.3,bus2=BMT8733788B.1.2.3,Phases=3,Linecode=CABA08_3_3,Length=0.039563000,Units=km
new line.TR12139878 bus1=BMT8733788B.1.2.3,bus2=BMT8733789B.1.2.3,Phases=3,Linecode=CABA08_3_3,Length=0.037164000,Units=km
new line.TR12139881 bus1=BMT8733789B.1.2.3,bus2=BMT8733792B.1.2.3,Phases=3,Linecode=CABA08_3_3,Length=0.027787000,Units=km
new line.TR12139894 bus1=BMT8733792B.1.2.3,bus2=BMT8643347B.1.2.3,Phases=3,Linecode=CABA08_3_3,Length=0.035611000,Units=km
new line.TR12139904 bus1=BMT8643347B.1.2.3,bus2=BMT8641114B.1.2.3,Phases=3,Linecode=CABA08_3_3,Length=0.033840000,Units=km
new line.TR12165537 bus1=BMT2625273B.2,bus2=BMT156595193.2,Phases=1,Linecode=CAB202_3_1,Length=0.073355000,Units=km
new line.TR12165538 bus1=BMT156595193.2,bus2=BMT122559707.2,Phases=1,Linecode=CAB202_3_1,Length=0.293611000,Units=km
new line.TR12165539 bus1=BMT159544331.2,bus2=BMT159544332.2,Phases=1,Linecode=CAB103_3_1,Length=0.075300000,Units=km
new line.TR12170201 bus1=BMT2325211B.1.2.3,bus2=BMT8768225B.1.2.3,Phases=3,Linecode=CAB202_3_3,Length=0.134022000,Units=km
new line.TR12170202 bus1=BMT8768225B.1.2.3,bus2=BMT150209016.1.2.3,Phases=3,Linecode=CAB202_3_3,Length=0.158059000,Units=km
new line.TR12172640 bus1=BMT166573628.1.2.3,bus2=BMT8747209C.1.2.3,Phases=3,Linecode=CABA08_3_3,Length=0.060004000,Units=km
new line.TR12172641 bus1=BMT8747209C.1.2.3,bus2=BMT151206245.1.2.3,Phases=3,Linecode=CABA08_3_3,Length=0.060004000,Units=km
new line.TR12172693 bus1=BMT166285234.1.2.3,bus2=BMT8747349C.1.2.3,Phases=3,Linecode=CABA08_3_3,Length=0.059081000,Units=km
new line.TR12172694 bus1=BMT8747349C.1.2.3,bus2=BMT8752016C.1.2.3,Phases=3,Linecode=CABA08_3_3,Length=0.055807000,Units=km
new line.TR12172695 bus1=BMT8752016C.1.2.3,bus2=BMT8752018C.1.2.3,Phases=3,Linecode=CABA08_3_3,Length=0.030002000,Units=km
new line.TR12172696 bus1=BMT8752018C.1.2.3,bus2=BMT8752024C.1.2.3,Phases=3,Linecode=CABA08_3_3,Length=0.047205000,Units=km
new line.TR12172697 bus1=BMT8752024C.1.2.3,bus2=BMT8770754C.1.2.3,Phases=3,Linecode=CABA08_3_3,Length=0.045807000,Units=km
new line.TR12172709 bus1=BMT8770764C.1.2.3,bus2=BMT8770768C.1.2.3,Phases=3,Linecode=CABA08_3_3,Length=0.045225000,Units=km
new line.TR12172720 bus1=BMT8747200D.1.2.3,bus2=BMT8747205C.1.2.3,Phases=3,Linecode=CABA08_3_3,Length=0.049207000,Units=km
new line.TR12172722 bus1=BMT8747205C.1.2.3,bus2=BMT8747209B.1.2.3,Phases=3,Linecode=CABA08_3_3,Length=0.060004000,Units=km
new line.TR12172723 bus1=BMT8747209B.1.2.3,bus2=BMT8747348B.1.2.3,Phases=3,Linecode=CABA08_3_3,Length=0.060004000,Units=km
new line.TR12172724 bus1=BMT8747348B.1.2.3,bus2=BMT8747349B.1.2.3,Phases=3,Linecode=CABA08_3_3,Length=0.059081000,Units=km
new line.TR12172725 bus1=BMT8747349B.1.2.3,bus2=BMT150569997.1.2.3,Phases=3,Linecode=CABA08_3_3,Length=0.055807000,Units=km
new line.TR12172727 bus1=BMT166529168.1.2.3,bus2=BMT8752018B.1.2.3,Phases=3,Linecode=CABA08_3_3,Length=0.030002000,Units=km
new line.TR12172729 bus1=BMT8752018B.1.2.3,bus2=BMT8752024B.1.2.3,Phases=3,Linecode=CABA08_3_3,Length=0.047205000,Units=km
new line.TR12172731 bus1=BMT8752024B.1.2.3,bus2=BMT8770754B.1.2.3,Phases=3,Linecode=CABA08_3_3,Length=0.045807000,Units=km
new line.TR12172738 bus1=BMT8770768C.1.2.3,bus2=BMT8770777C.1.2.3,Phases=3,Linecode=CABA08_3_3,Length=0.045884000,Units=km
new line.TR12172744 bus1=BMT8770777C.1.2.3,bus2=BMT8770780C.1.2.3,Phases=3,Linecode=CABA08_3_3,Length=0.034135000,Units=km
new line.TR12172745 bus1=BMT8770780C.1.2.3,bus2=BMT8770784C.1.2.3,Phases=3,Linecode=CABA08_3_3,Length=0.036362000,Units=km
new line.TR12172746 bus1=BMT8770784C.1.2.3,bus2=BMT8770786C.1.2.3,Phases=3,Linecode=CABA08_3_3,Length=0.040500000,Units=km
new line.TR12172747 bus1=BMT8770786C.1.2.3,bus2=BMT1131893C.1.2.3,Phases=3,Linecode=CABA08_3_3,Length=0.045280000,Units=km
new line.TR12172748 bus1=BMT1131893C.1.2.3,bus2=BMT1131886C.1.2.3,Phases=3,Linecode=CABA08_3_3,Length=0.031387000,Units=km
new line.TR12172749 bus1=BMT1131886C.1.2.3,bus2=BMT1131872C.1.2.3,Phases=3,Linecode=CABA08_3_3,Length=0.038016000,Units=km
new line.TR12172750 bus1=BMT1131872C.1.2.3,bus2=BMT8770794C.1.2.3,Phases=3,Linecode=CABA08_3_3,Length=0.016494000,Units=km
new line.TR12172752 bus1=BMT8770794C.1.2.3,bus2=BMT8770795C.1.2.3,Phases=3,Linecode=CABA08_3_3,Length=0.021842000,Units=km
new line.TR12172754 bus1=BMT8770795C.1.2.3,bus2=BMT8770796C.1.2.3,Phases=3,Linecode=CABA08_3_3,Length=0.037486000,Units=km
new line.TR12172755 bus1=BMT8770796C.1.2.3,bus2=BMT8770797C.1.2.3,Phases=3,Linecode=CABA08_3_3,Length=0.036677000,Units=km
new line.TR12172758 bus1=BMT8770797C.1.2.3,bus2=BMT8770798C.1.2.3,Phases=3,Linecode=CABA08_3_3,Length=0.047680000,Units=km
new line.TR12172760 bus1=BMT8770798C.1.2.3,bus2=BMT8770799C.1.2.3,Phases=3,Linecode=CABA08_3_3,Length=0.057275000,Units=km
new line.TR12172761 bus1=BMT8770799C.1.2.3,bus2=BMT8770802C.1.2.3,Phases=3,Linecode=CABA08_3_3,Length=0.043293000,Units=km
new line.TR12172763 bus1=BMT8770802C.1.2.3,bus2=BMT166284852.1.2.3,Phases=3,Linecode=CABA08_3_3,Length=0.043741000,Units=km
new line.TR12172766 bus1=BMT170098936.1.2.3,bus2=BMT8770804C.1.2.3,Phases=3,Linecode=CABA08_3_3,Length=0.036677000,Units=km
new line.TR12172767 bus1=BMT8770804C.1.2.3,bus2=BMT8770807C.1.2.3,Phases=3,Linecode=CABA08_3_3,Length=0.027315000,Units=km
new line.TR12172770 bus1=BMT8770808C.1.2.3,bus2=BMT8770812C.1.2.3,Phases=3,Linecode=CABA08_3_3,Length=0.047889000,Units=km
new line.TR12172773 bus1=BMT8770812C.1.2.3,bus2=BMT8770820C.1.2.3,Phases=3,Linecode=CABA08_3_3,Length=0.026573000,Units=km
new line.TR12172775 bus1=BMT8770820C.1.2.3,bus2=BMT1130927C.1.2.3,Phases=3,Linecode=CABA08_3_3,Length=0.045003000,Units=km
new line.TR12172776 bus1=BMT1130927C.1.2.3,bus2=BMT8770821C.1.2.3,Phases=3,Linecode=CABA08_3_3,Length=0.005386000,Units=km
new line.TR12172778 bus1=BMT8770821C.1.2.3,bus2=BMT1130843C.1.2.3,Phases=3,Linecode=CABA08_3_3,Length=0.015526000,Units=km
new line.TR12172780 bus1=BMT1130843C.1.2.3,bus2=BMT1130850C.1.2.3,Phases=3,Linecode=CABA08_3_3,Length=0.030367000,Units=km
new line.TR12172783 bus1=BMT1130850C.1.2.3,bus2=BMT1130857C.1.2.3,Phases=3,Linecode=CABA08_3_3,Length=0.012043000,Units=km
new line.TR12172784 bus1=BMT1130857C.1.2.3,bus2=BMT8770826C.1.2.3,Phases=3,Linecode=CABA08_3_3,Length=0.032205000,Units=km
new line.TR12172786 bus1=BMT8770826C.1.2.3,bus2=BMT8770829C.1.2.3,Phases=3,Linecode=CABA08_3_3,Length=0.035003000,Units=km
new line.TR12172788 bus1=BMT8770829C.1.2.3,bus2=BMT8770832C.1.2.3,Phases=3,Linecode=CABA08_3_3,Length=0.038474000,Units=km
new line.TR12172789 bus1=BMT8770832C.1.2.3,bus2=BMT8770835C.1.2.3,Phases=3,Linecode=CABA08_3_3,Length=0.032805000,Units=km
new line.TR12172791 bus1=BMT8770835C.1.2.3,bus2=BMT8755264C.1.2.3,Phases=3,Linecode=CABA08_3_3,Length=0.048170000,Units=km
new line.TR12172799 bus1=BMT8770756B.1.2.3,bus2=BMT8770760B.1.2.3,Phases=3,Linecode=CABA08_3_3,Length=0.062941000,Units=km
new line.TR12172807 bus1=BMT8770760B.1.2.3,bus2=BMT8770761B.1.2.3,Phases=3,Linecode=CABA08_3_3,Length=0.008486000,Units=km
new line.TR12172808 bus1=BMT8770761B.1.2.3,bus2=BMT8770764B.1.2.3,Phases=3,Linecode=CABA08_3_3,Length=0.025497000,Units=km
new line.TR12172809 bus1=BMT8770764B.1.2.3,bus2=BMT8770768B.1.2.3,Phases=3,Linecode=CABA08_3_3,Length=0.045225000,Units=km
new line.TR12172816 bus1=BMT8770768B.1.2.3,bus2=BMT8770778B.1.2.3,Phases=3,Linecode=CABA08_3_3,Length=0.047301000,Units=km
new line.TR12172818 bus1=BMT8770778B.1.2.3,bus2=BMT8770927B.1.2.3,Phases=3,Linecode=CABA08_3_3,Length=0.020811000,Units=km
new line.TR12172819 bus1=BMT8770778B.1.2.3,bus2=BMT8770777B.1.2.3,Phases=3,Linecode=CABA08_3_3,Length=0.005832000,Units=km
new line.TR12172821 bus1=BMT8770777B.1.2.3,bus2=BMT8770780B.1.2.3,Phases=3,Linecode=CABA08_3_3,Length=0.034135000,Units=km
new line.TR12172822 bus1=BMT8770780B.1.2.3,bus2=BMT8770784B.1.2.3,Phases=3,Linecode=CABA08_3_3,Length=0.036362000,Units=km
new line.TR12172824 bus1=BMT8770784B.1.2.3,bus2=BMT8770786B.1.2.3,Phases=3,Linecode=CABA08_3_3,Length=0.040500000,Units=km
new line.TR12172875 bus1=BMT8770786B.1.2.3,bus2=BMT1131893B.1.2.3,Phases=3,Linecode=CABA08_3_3,Length=0.045280000,Units=km
new line.TR12172876 bus1=BMT1131893B.1.2.3,bus2=BMT1131886B.1.2.3,Phases=3,Linecode=CABA08_3_3,Length=0.031387000,Units=km
new line.TR12172877 bus1=BMT1131886B.1.2.3,bus2=BMT1131872B.1.2.3,Phases=3,Linecode=CABA08_3_3,Length=0.038016000,Units=km
new line.TR12172878 bus1=BMT1131872B.1.2.3,bus2=BMT8770794B.1.2.3,Phases=3,Linecode=CABA08_3_3,Length=0.016494000,Units=km
new line.TR12172879 bus1=BMT8770794B.1.2.3,bus2=BMT8770795B.1.2.3,Phases=3,Linecode=CABA08_3_3,Length=0.021842000,Units=km
new line.TR12172882 bus1=BMT8770795B.1.2.3,bus2=BMT8770796B.1.2.3,Phases=3,Linecode=CABA08_3_3,Length=0.037486000,Units=km
new line.TR12172883 bus1=BMT8770796B.1.2.3,bus2=BMT8770797B.1.2.3,Phases=3,Linecode=CABA08_3_3,Length=0.036677000,Units=km
new line.TR12172884 bus1=BMT8770797B.1.2.3,bus2=BMT8770798B.1.2.3,Phases=3,Linecode=CABA08_3_3,Length=0.047680000,Units=km
new line.TR12172885 bus1=BMT8770798B.1.2.3,bus2=BMT166284739.1.2.3,Phases=3,Linecode=CABA08_3_3,Length=0.057275000,Units=km
new line.TR12172886 bus1=BMT170111883.1.2.3,bus2=BMT8770802B.1.2.3,Phases=3,Linecode=CABA08_3_3,Length=0.043293000,Units=km
new line.TR12172887 bus1=BMT8770802B.1.2.3,bus2=BMT8770803B.1.2.3,Phases=3,Linecode=CABA08_3_3,Length=0.043741000,Units=km