new load.3009008402M1 bus1=BMT167325366.1.2.3.0,Phases=3,kv=13.8,kW=8.97454,pf=0.92,Vminpu=0.93,Vmaxpu=1.5,model=8,zipv=[0.5,0,0.5,1,0,0,0],daily=A4-2,status=variable
new load.3009011579M1 bus1=BMT161113033.1.2.3.0,Phases=3,kv=13.8,kW=37.753,pf=0.92,Vminpu=0.93,Vmaxpu=1.5,model=8,zipv=[0.5,0,0.5,1,0,0,0],daily=A4-3,status=variable
new load.3009013895M1 bus1=BMT122548304.1.2.3.0,Phases=3,kv=13.8,kW=3.1923,pf=0.92,Vminpu=0.93,Vmaxpu=1.5,model=8,zipv=[0.5,0,0.5,1,0,0,0],daily=A4-1,status=variable
new load.3009015098M1 bus1=BMT166282779.1.2.3.0,Phases=3,kv=13.8,kW=396.7592,pf=0.92,Vminpu=0.93,Vmaxpu=1.5,model=8,zipv=[0.5,0,0.5,1,0,0,0],daily=A4-5,status=variable
new load.3009016703M1 bus1=BMT122550649.1.2.3.0,Phases=3,kv=13.8,kW=121.15638,pf=0.92,Vminpu=0.93,Vmaxpu=1.5,model=8,zipv=[0.5,0,0.5,1,0,0,0],daily=A4-2,status=variable
new load.3009017204M1 bus1=BMT150344523.1.2.3.0,Phases=3,kv=13.8,kW=12.58434,pf=0.92,Vminpu=0.93,Vmaxpu=1.5,model=8,zipv=[0.5,0,0.5,1,0,0,0],daily=A4-3,status=variable
new load.3009019818M1 bus1=BMT122551818.1.2.3.0,Phases=3,kv=13.8,kW=19.15376,pf=0.92,Vminpu=0.93,Vmaxpu=1.5,model=8,zipv=[0.5,0,0.5,1,0,0,0],daily=A4-1,status=variable
new load.3009020827M1 bus1=BMT150344519.1.2.3.0,Phases=3,kv=13.8,kW=9.57688,pf=0.92,Vminpu=0.93,Vmaxpu=1.5,model=8,zipv=[0.5,0,0.5,1,0,0,0],daily=A4-1,status=variable
new load.3009021039M1 bus1=BMT122558993.1.2.3.0,Phases=3,kv=13.8,kW=8.38956,pf=0.92,Vminpu=0.93,Vmaxpu=1.5,model=8,zipv=[0.5,0,0.5,1,0,0,0],daily=A4-3,status=variable
new load.3009021040M1 bus1=BMT152229174.1.2.3.0,Phases=3,kv=13.8,kW=123.48302,pf=0.92,Vminpu=0.93,Vmaxpu=1.5,model=8,zipv=[0.5,0,0.5,1,0,0,0],daily=A4-6,status=variable
new load.3009021041M1 bus1=BMT122558965.1.2.3.0,Phases=3,kv=13.8,kW=7.98074,pf=0.92,Vminpu=0.93,Vmaxpu=1.5,model=8,zipv=[0.5,0,0.5,1,0,0,0],daily=A4-1,status=variable
new load.3009021891M1 bus1=BMT122552840.1.2.3.0,Phases=3,kv=13.8,kW=8.97454,pf=0.92,Vminpu=0.93,Vmaxpu=1.5,model=8,zipv=[0.5,0,0.5,1,0,0,0],daily=A4-2,status=variable
new load.3009022233M1 bus1=BMT122556375.1.2.3.0,Phases=3,kv=13.8,kW=44.04516,pf=0.92,Vminpu=0.93,Vmaxpu=1.5,model=8,zipv=[0.5,0,0.5,1,0,0,0],daily=A4-3,status=variable
new load.3010838971M1 bus1=BMT122550957.1.2.3.0,Phases=3,kv=13.8,kW=3.1923,pf=0.92,Vminpu=0.93,Vmaxpu=1.5,model=8,zipv=[0.5,0,0.5,1,0,0,0],daily=A4-1,status=variable
new load.3010925489M1 bus1=BMT122552770.1.2.3.0,Phases=3,kv=13.8,kW=33.51908,pf=0.92,Vminpu=0.93,Vmaxpu=1.5,model=8,zipv=[0.5,0,0.5,1,0,0,0],daily=A4-1,status=variable
new load.3010958599M1 bus1=BMT168427270.1.2.3.0,Phases=3,kv=13.8,kW=186.9546,pf=0.92,Vminpu=0.93,Vmaxpu=1.5,model=8,zipv=[0.5,0,0.5,1,0,0,0],daily=A4-5,status=variable
new load.3011654818M1 bus1=BMT149989102.1.2.3.0,Phases=3,kv=13.8,kW=65.06546,pf=0.92,Vminpu=0.93,Vmaxpu=1.5,model=8,zipv=[0.5,0,0.5,1,0,0,0],daily=A4-2,status=variable
new load.3012006905M1 bus1=BMT150170188.1.2.3.0,Phases=3,kv=13.8,kW=29.16728,pf=0.92,Vminpu=0.93,Vmaxpu=1.5,model=8,zipv=[0.5,0,0.5,1,0,0,0],daily=A4-2,status=variable
new load.3012169618M1 bus1=BMT167860586.1.2.3.0,Phases=3,kv=13.8,kW=812.28672,pf=0.92,Vminpu=0.93,Vmaxpu=1.5,model=8,zipv=[0.5,0,0.5,1,0,0,0],daily=A4-6,status=variable
new load.3012532520M1 bus1=BMT152956308.1.2.3.0,Phases=3,kv=13.8,kW=56.62948,pf=0.92,Vminpu=0.93,Vmaxpu=1.5,model=8,zipv=[0.5,0,0.5,1,0,0,0],daily=A4-3,status=variable
new load.3013095532M1 bus1=BMT150344521.1.2.3.0,Phases=3,kv=13.8,kW=241.143,pf=0.92,Vminpu=0.93,Vmaxpu=1.5,model=8,zipv=[0.5,0,0.5,1,0,0,0],daily=A4-4,status=variable
new load.3013124536M1 bus1=BMT168621816.1.2.3.0,Phases=3,kv=13.8,kW=2.09738,pf=0.92,Vminpu=0.93,Vmaxpu=1.5,model=8,zipv=[0.5,0,0.5,1,0,0,0],daily=A4-3,status=variable
new load.3013226975M1 bus1=BMT156674819.1.2.3.0,Phases=3,kv=13.8,kW=206.44816,pf=0.92,Vminpu=0.93,Vmaxpu=1.5,model=8,zipv=[0.5,0,0.5,1,0,0,0],daily=A4-6,status=variable
new load.3013333175M1 bus1=BMT160043608.1.2.3.0,Phases=3,kv=13.8,kW=299.06042,pf=0.92,Vminpu=0.93,Vmaxpu=1.5,model=8,zipv=[0.5,0,0.5,1,0,0,0],daily=A4-6,status=variable
new load.3013382940M1 bus1=BMT122556900.1.2.3.0,Phases=3,kv=13.8,kW=245.11826,pf=0.92,Vminpu=0.93,Vmaxpu=1.5,model=8,zipv=[0.5,0,0.5,1,0,0,0],daily=A4-5,status=variable
