new load.3004208466M1 bus1=RML1052121539.3.0,Phases=1,kv=0.127,kW=1.49308,pf=0.92,Vminpu=0.92,Vmaxpu=1.5,model=8,zipv=[0.5,0,0.5,1,0,0,0],daily=RES4_19,status=variable
new load.3004286055M1 bus1=RML1052121490.1.0,Phases=1,kv=0.127,kW=0.3968,pf=0.92,Vminpu=0.92,Vmaxpu=1.5,model=8,zipv=[0.5,0,0.5,1,0,0,0],daily=RES2_24,status=variable
new load.3004455885M1 bus1=RML1052121385.1.0,Phases=1,kv=0.127,kW=0.35798,pf=0.92,Vminpu=0.92,Vmaxpu=1.5,model=8,zipv=[0.5,0,0.5,1,0,0,0],daily=RES2_1,status=variable
new load.3004498573M1 bus1=RML1052121392.3.0,Phases=1,kv=0.127,kW=0.57974,pf=0.92,Vminpu=0.92,Vmaxpu=1.5,model=8,zipv=[0.5,0,0.5,1,0,0,0],daily=RES2_2,status=variable
new load.3004498574M1 bus1=RML1052121406.2.3.0,Phases=2,kv=0.22,kW=0.7229,pf=0.92,Vminpu=0.92,Vmaxpu=1.5,model=8,zipv=[0.5,0,0.5,1,0,0,0],daily=RES2_2,status=variable
new load.3004550258M1 bus1=RML1052121532.1.0,Phases=1,kv=0.127,kW=2.2745,pf=0.92,Vminpu=0.92,Vmaxpu=1.5,model=8,zipv=[0.5,0,0.5,1,0,0,0],daily=RES2_3,status=variable
new load.IP8365511M1 bus1=BBT160888826.2.3.0,Phases=2,kv=0.22,kW=0.1317,pf=0.92,Vminpu=0.92,Vmaxpu=1.5,model=8,zipv=[0.5,0,0.5,1,0,0,0],daily=IP,status=variable
new load.IP8365512M1 bus1=BBT1510299.2.3.0,Phases=2,kv=0.22,kW=0.1317,pf=0.92,Vminpu=0.92,Vmaxpu=1.5,model=8,zipv=[0.5,0,0.5,1,0,0,0],daily=IP,status=variable
new load.IP8365513M1 bus1=BBT1510320.2.3.0,Phases=2,kv=0.22,kW=0.1317,pf=0.92,Vminpu=0.92,Vmaxpu=1.5,model=8,zipv=[0.5,0,0.5,1,0,0,0],daily=IP,status=variable
new load.IP418614M1 bus1=BBT1510313.1.2.0,Phases=2,kv=0.22,kW=0.1317,pf=0.92,Vminpu=0.92,Vmaxpu=1.5,model=8,zipv=[0.5,0,0.5,1,0,0,0],daily=IP,status=variable
new load.3006593701M1 bus1=RML1060620887.2.0,Phases=1,kv=0.127,kW=0.70142,pf=0.92,Vminpu=0.92,Vmaxpu=1.5,model=8,zipv=[0.5,0,0.5,1,0,0,0],daily=RES2_2,status=variable
new load.3007630510M1 bus1=RML1054801160.3.0,Phases=1,kv=0.127,kW=0.68354,pf=0.92,Vminpu=0.92,Vmaxpu=1.5,model=8,zipv=[0.5,0,0.5,1,0,0,0],daily=RES2_25,status=variable
new load.3011227603M1 bus1=RML1056245523.1.2.0,Phases=2,kv=0.22,kW=0.76532,pf=0.92,Vminpu=0.92,Vmaxpu=1.5,model=8,zipv=[0.5,0,0.5,1,0,0,0],daily=RES2_1,status=variable
new load.IP8365510M1 bus1=BBT1510264.1.3.0,Phases=2,kv=0.22,kW=0.1317,pf=0.92,Vminpu=0.92,Vmaxpu=1.5,model=8,zipv=[0.5,0,0.5,1,0,0,0],daily=IP,status=variable
new load.3005318090M1 bus1=RML1052121378.3.0,Phases=1,kv=0.127,kW=0.55134,pf=0.92,Vminpu=0.92,Vmaxpu=1.5,model=8,zipv=[0.5,0,0.5,1,0,0,0],daily=RES2_23,status=variable
new load.3005453342M1 bus1=RML1052121441.2.0,Phases=1,kv=0.127,kW=0.70432,pf=0.92,Vminpu=0.92,Vmaxpu=1.5,model=8,zipv=[0.5,0,0.5,1,0,0,0],daily=RES1_1,status=variable
new load.3006003861M1 bus1=RML1052121448.1.2.0,Phases=2,kv=0.22,kW=1.91656,pf=0.92,Vminpu=0.92,Vmaxpu=1.5,model=8,zipv=[0.5,0,0.5,1,0,0,0],daily=IND1_15,status=variable
new load.3006230067M1 bus1=RML1053912748.3.0,Phases=1,kv=0.127,kW=0.59246,pf=0.92,Vminpu=0.92,Vmaxpu=1.5,model=8,zipv=[0.5,0,0.5,1,0,0,0],daily=RES2_18,status=variable
new load.3006674235M1 bus1=RML1054249903.1.2.0,Phases=2,kv=0.22,kW=1.43072,pf=0.92,Vminpu=0.92,Vmaxpu=1.5,model=8,zipv=[0.5,0,0.5,1,0,0,0],daily=RES3_4,status=variable
new load.3004519073M1 bus1=RML1052121483.3.0,Phases=1,kv=0.127,kW=0.6871,pf=0.92,Vminpu=0.92,Vmaxpu=1.5,model=8,zipv=[0.5,0,0.5,1,0,0,0],daily=RES2_2,status=variable
new load.3004746511M1 bus1=RML1052121511.2.0,Phases=1,kv=0.127,kW=0.70058,pf=0.92,Vminpu=0.92,Vmaxpu=1.5,model=8,zipv=[0.5,0,0.5,1,0,0,0],daily=RES2_6,status=variable
new load.3004790212M1 bus1=RML1052121462.1.2.0,Phases=2,kv=0.22,kW=0.5696,pf=0.92,Vminpu=0.92,Vmaxpu=1.5,model=8,zipv=[0.5,0,0.5,1,0,0,0],daily=RES1_6,status=variable
new load.3004966198M1 bus1=RML1052121455.1.3.0,Phases=2,kv=0.22,kW=0.89276,pf=0.92,Vminpu=0.92,Vmaxpu=1.5,model=8,zipv=[0.5,0,0.5,1,0,0,0],daily=RES2_10,status=variable
new load.3012116712M1 bus1=RML1060168846.1.0,Phases=1,kv=0.12,kW=1.15382,pf=0.92,Vminpu=0.92,Vmaxpu=1.5,model=8,zipv=[0.5,0,0.5,1,0,0,0],daily=RUR1_17,status=variable
new load.IP8270461M1 bus1=BBT157055174.2.3.0,Phases=2,kv=0.22,kW=0.16666,pf=0.92,Vminpu=0.92,Vmaxpu=1.5,model=8,zipv=[0.5,0,0.5,1,0,0,0],daily=IP,status=variable
new load.IP8270462M1 bus1=BBT157055173.1.2.0,Phases=2,kv=0.22,kW=0.16666,pf=0.92,Vminpu=0.92,Vmaxpu=1.5,model=8,zipv=[0.5,0,0.5,1,0,0,0],daily=IP,status=variable
new load.IP8270463M1 bus1=BBT157055172.1.3.0,Phases=2,kv=0.22,kW=0.16666,pf=0.92,Vminpu=0.92,Vmaxpu=1.5,model=8,zipv=[0.5,0,0.5,1,0,0,0],daily=IP,status=variable
new load.IP8270464M1 bus1=BBT157055171.2.3.0,Phases=2,kv=0.22,kW=0.16666,pf=0.92,Vminpu=0.92,Vmaxpu=1.5,model=8,zipv=[0.5,0,0.5,1,0,0,0],daily=IP,status=variable
new load.IP8270465M1 bus1=BBT157055164.1.2.0,Phases=2,kv=0.22,kW=0.16666,pf=0.92,Vminpu=0.92,Vmaxpu=1.5,model=8,zipv=[0.5,0,0.5,1,0,0,0],daily=IP,status=variable
new load.IP8270466M1 bus1=BBT157055190.2.3.0,Phases=2,kv=0.22,kW=0.16666,pf=0.92,Vminpu=0.92,Vmaxpu=1.5,model=8,zipv=[0.5,0,0.5,1,0,0,0],daily=IP,status=variable
new load.IP8270467M1 bus1=BBT157055191.1.3.0,Phases=2,kv=0.22,kW=0.16666,pf=0.92,Vminpu=0.92,Vmaxpu=1.5,model=8,zipv=[0.5,0,0.5,1,0,0,0],daily=IP,status=variable
new load.IP8270468M1 bus1=BBT157055199.1.2.0,Phases=2,kv=0.22,kW=0.16666,pf=0.92,Vminpu=0.92,Vmaxpu=1.5,model=8,zipv=[0.5,0,0.5,1,0,0,0],daily=IP,status=variable
new load.IP8270469M1 bus1=BBT157055200.2.3.0,Phases=2,kv=0.22,kW=0.16666,pf=0.92,Vminpu=0.92,Vmaxpu=1.5,model=8,zipv=[0.5,0,0.5,1,0,0,0],daily=IP,status=variable
new load.3014000018M1 bus1=RML1061026063.1.3.0,Phases=2,kv=0.22,kW=0.14142,pf=0.92,Vminpu=0.92,Vmaxpu=1.5,model=8,zipv=[0.5,0,0.5,1,0,0,0],daily=RES1_23,status=variable
new load.3013843328M1 bus1=RML1060800588.1.2.0,Phases=2,kv=0.24,kW=0.56678,pf=0.92,Vminpu=0.92,Vmaxpu=1.5,model=8,zipv=[0.5,0,0.5,1,0,0,0],daily=RES3_19,status=variable
new load.3013829664M1 bus1=RML1060800588.1.2.0,Phases=2,kv=0.24,kW=0.43314,pf=0.92,Vminpu=0.92,Vmaxpu=1.5,model=8,zipv=[0.5,0,0.5,1,0,0,0],daily=RES5_19,status=variable
new load.3013246401M1 bus1=RML1060800588.1.2.0,Phases=2,kv=0.24,kW=0.59562,pf=0.92,Vminpu=0.92,Vmaxpu=1.5,model=8,zipv=[0.5,0,0.5,1,0,0,0],daily=RES3_11,status=variable
new load.3001928275M1 bus1=RML1052134076.3.0,Phases=1,kv=0.127,kW=0.5652,pf=0.92,Vminpu=0.92,Vmaxpu=1.5,model=8,zipv=[0.5,0,0.5,1,0,0,0],daily=RES3_15,status=variable
new load.3001928276M1 bus1=RML1052134034.3.0,Phases=1,kv=0.127,kW=0.663,pf=0.92,Vminpu=0.92,Vmaxpu=1.5,model=8,zipv=[0.5,0,0.5,1,0,0,0],daily=RES2_18,status=variable
new load.3001928277M1 bus1=RML1052134048.3.0,Phases=1,kv=0.127,kW=0.6536,pf=0.92,Vminpu=0.92,Vmaxpu=1.5,model=8,zipv=[0.5,0,0.5,1,0,0,0],daily=RES2_18,status=variable
new load.3001928278M1 bus1=RML1052134006.2.3.0,Phases=2,kv=0.22,kW=0.35266,pf=0.92,Vminpu=0.92,Vmaxpu=1.5,model=8,zipv=[0.5,0,0.5,1,0,0,0],daily=RES2_18,status=variable
new load.3013846564M1 bus1=RML1060945993.2.3.0,Phases=2,kv=0.22,kW=4.495,pf=0.92,Vminpu=0.92,Vmaxpu=1.5,model=8,zipv=[0.5,0,0.5,1,0,0,0],daily=COM3_22,status=variable
new load.IP422072M1 bus1=BBT1516284.2.3.0,Phases=2,kv=0.22,kW=0.1317,pf=0.92,Vminpu=0.92,Vmaxpu=1.5,model=8,zipv=[0.5,0,0.5,1,0,0,0],daily=IP,status=variable
new load.IP422079M1 bus1=BBT1516291.2.3.0,Phases=2,kv=0.22,kW=0.1317,pf=0.92,Vminpu=0.92,Vmaxpu=1.5,model=8,zipv=[0.5,0,0.5,1,0,0,0],daily=IP,status=variable
new load.IP422086M1 bus1=BBT1516298.2.3.0,Phases=2,kv=0.22,kW=0.1317,pf=0.92,Vminpu=0.92,Vmaxpu=1.5,model=8,zipv=[0.5,0,0.5,1,0,0,0],daily=IP,status=variable
new load.IP422093M1 bus1=BBT1516305.2.3.0,Phases=2,kv=0.22,kW=0.1317,pf=0.92,Vminpu=0.92,Vmaxpu=1.5,model=8,zipv=[0.5,0,0.5,1,0,0,0],daily=IP,status=variable
new load.3011330103M1 bus1=RML1056325680.1.2.0,Phases=2,kv=0.22,kW=3.25238,pf=0.92,Vminpu=0.92,Vmaxpu=1.5,model=8,zipv=[0.5,0,0.5,1,0,0,0],daily=RES4_3,status=variable
new load.3011678083M1 bus1=RML1060089330.1.2.0,Phases=2,kv=0.24,kW=0.75224,pf=0.92,Vminpu=0.92,Vmaxpu=1.5,model=8,zipv=[0.5,0,0.5,1,0,0,0],daily=RUR4_5,status=variable
new load.3003025437M1 bus1=RML1052134363.1.2.3.0,Phases=3,kv=0.22,kW=0.00514,pf=0.92,Vminpu=0.92,Vmaxpu=1.5,model=8,zipv=[0.5,0,0.5,1,0,0,0],daily=RES1_17,status=variable
new load.3003025438M1 bus1=RML1052134496.1.2.3.0,Phases=3,kv=0.22,kW=1.3975,pf=0.92,Vminpu=0.92,Vmaxpu=1.5,model=8,zipv=[0.5,0,0.5,1,0,0,0],daily=RES3_15,status=variable
new load.3003025441M1 bus1=RML1052134475.2.0,Phases=1,kv=0.127,kW=1.86454,pf=0.92,Vminpu=0.92,Vmaxpu=1.5,model=8,zipv=[0.5,0,0.5,1,0,0,0],daily=COM1_19,status=variable
new load.3003025442M1 bus1=RML1052134461.3.0,Phases=1,kv=0.127,kW=0.8571,pf=0.92,Vminpu=0.92,Vmaxpu=1.5,model=8,zipv=[0.5,0,0.5,1,0,0,0],daily=RES2_19,status=variable
new load.IP422198M1 bus1=BBT1516452.1.3.0,Phases=2,kv=0.22,kW=0.1317,pf=0.92,Vminpu=0.92,Vmaxpu=1.5,model=8,zipv=[0.5,0,0.5,1,0,0,0],daily=IP,status=variable
new load.IP422205M1 bus1=BBT1516459.1.3.0,Phases=2,kv=0.22,kW=0.1317,pf=0.92,Vminpu=0.92,Vmaxpu=1.5,model=8,zipv=[0.5,0,0.5,1,0,0,0],daily=IP,status=variable
new load.IP422212M1 bus1=BBT1516473.1.2.0,Phases=2,kv=0.22,kW=0.1317,pf=0.92,Vminpu=0.92,Vmaxpu=1.5,model=8,zipv=[0.5,0,0.5,1,0,0,0],daily=IP,status=variable
new load.IP422156M1 bus1=BBT1516389.1.3.0,Phases=2,kv=0.22,kW=0.1129,pf=0.92,Vminpu=0.92,Vmaxpu=1.5,model=8,zipv=[0.5,0,0.5,1,0,0,0],daily=IP,status=variable
new load.IP422163M1 bus1=BBT1516396.1.3.0,Phases=2,kv=0.22,kW=0.25804,pf=0.92,Vminpu=0.92,Vmaxpu=1.5,model=8,zipv=[0.5,0,0.5,1,0,0,0],daily=IP,status=variable
new load.IP422170M1 bus1=BBT1516417.1.3.0,Phases=2,kv=0.22,kW=0.1317,pf=0.92,Vminpu=0.92,Vmaxpu=1.5,model=8,zipv=[0.5,0,0.5,1,0,0,0],daily=IP,status=variable
new load.IP422177M1 bus1=BBT1516424.1.3.0,Phases=2,kv=0.22,kW=0.1317,pf=0.92,Vminpu=0.92,Vmaxpu=1.5,model=8,zipv=[0.5,0,0.5,1,0,0,0],daily=IP,status=variable
new load.IP422184M1 bus1=BBT1516431.1.3.0,Phases=2,kv=0.22,kW=0.1317,pf=0.92,Vminpu=0.92,Vmaxpu=1.5,model=8,zipv=[0.5,0,0.5,1,0,0,0],daily=IP,status=variable
new load.IP422191M1 bus1=BBT1516438.1.3.0,Phases=2,kv=0.22,kW=0.1317,pf=0.92,Vminpu=0.92,Vmaxpu=1.5,model=8,zipv=[0.5,0,0.5,1,0,0,0],daily=IP,status=variable
new load.3012476735M1 bus1=RML1052134426.2.3.0,Phases=2,kv=0.22,kW=0.36712,pf=0.92,Vminpu=0.92,Vmaxpu=1.5,model=8,zipv=[0.5,0,0.5,1,0,0,0],daily=RES3_19,status=variable
new load.3011638339M1 bus1=RML1060212038.2.3.0,Phases=2,kv=0.22,kW=2.41974,pf=0.92,Vminpu=0.92,Vmaxpu=1.5,model=8,zipv=[0.5,0,0.5,1,0,0,0],daily=RES3_6,status=variable
new load.IP422128M1 bus1=BBT1516361.1.3.0,Phases=2,kv=0.22,kW=0.1317,pf=0.92,Vminpu=0.92,Vmaxpu=1.5,model=8,zipv=[0.5,0,0.5,1,0,0,0],daily=IP,status=variable
new load.IP422135M1 bus1=BBT1516368.1.3.0,Phases=2,kv=0.22,kW=0.1317,pf=0.92,Vminpu=0.92,Vmaxpu=1.5,model=8,zipv=[0.5,0,0.5,1,0,0,0],daily=IP,status=variable
new load.IP422142M1 bus1=BBT1516375.1.3.0,Phases=2,kv=0.22,kW=0.1317,pf=0.92,Vminpu=0.92,Vmaxpu=1.5,model=8,zipv=[0.5,0,0.5,1,0,0,0],daily=IP,status=variable
new load.IP422149M1 bus1=BBT1516382.1.3.0,Phases=2,kv=0.22,kW=0.1317,pf=0.92,Vminpu=0.92,Vmaxpu=1.5,model=8,zipv=[0.5,0,0.5,1,0,0,0],daily=IP,status=variable
new load.3007653166M1 bus1=RML1052134475.2.0,Phases=1,kv=0.127,kW=0.3247,pf=0.92,Vminpu=0.92,Vmaxpu=1.5,model=8,zipv=[0.5,0,0.5,1,0,0,0],daily=RES2_27,status=variable
new load.3010986932M1 bus1=RML1052134363.1.2.3.0,Phases=3,kv=0.22,kW=1.11404,pf=0.92,Vminpu=0.92,Vmaxpu=1.5,model=8,zipv=[0.5,0,0.5,1,0,0,0],daily=COM1_21,status=variable
new load.3006022196M1 bus1=RML1052134447.1.2.3.0,Phases=3,kv=0.22,kW=9.5784,pf=0.92,Vminpu=0.92,Vmaxpu=1.5,model=8,zipv=[0.5,0,0.5,1,0,0,0],daily=COM3_12,status=variable
new load.3006192410M1 bus1=RML1052134293.1.2.0,Phases=2,kv=0.22,kW=1.27948,pf=0.92,Vminpu=0.92,Vmaxpu=1.5,model=8,zipv=[0.5,0,0.5,1,0,0,0],daily=RES3_15,status=variable
new load.3013691127M1 bus1=RML1060883652.1.2.0,Phases=2,kv=0.22,kW=0.33834,pf=0.92,Vminpu=0.92,Vmaxpu=1.5,model=8,zipv=[0.5,0,0.5,1,0,0,0],daily=RES2_22,status=variable
new load.IP422030M1 bus1=BBT1516242.2.3.0,Phases=2,kv=0.22,kW=0.1317,pf=0.92,Vminpu=0.92,Vmaxpu=1.5,model=8,zipv=[0.5,0,0.5,1,0,0,0],daily=IP,status=variable
new load.IP422037M1 bus1=BBT1516249.2.3.0,Phases=2,kv=0.22,kW=0.1317,pf=0.92,Vminpu=0.92,Vmaxpu=1.5,model=8,zipv=[0.5,0,0.5,1,0,0,0],daily=IP,status=variable
new load.IP422044M1 bus1=BBT1516256.2.3.0,Phases=2,kv=0.22,kW=0.1317,pf=0.92,Vminpu=0.92,Vmaxpu=1.5,model=8,zipv=[0.5,0,0.5,1,0,0,0],daily=IP,status=variable
new load.IP422051M1 bus1=BBT1516263.2.3.0,Phases=2,kv=0.22,kW=0.1317,pf=0.92,Vminpu=0.92,Vmaxpu=1.5,model=8,zipv=[0.5,0,0.5,1,0,0,0],daily=IP,status=variable
new load.IP422058M1 bus1=BBT1516270.2.3.0,Phases=2,kv=0.22,kW=0.1317,pf=0.92,Vminpu=0.92,Vmaxpu=1.5,model=8,zipv=[0.5,0,0.5,1,0,0,0],daily=IP,status=variable
new load.IP422065M1 bus1=BBT1516277.2.3.0,Phases=2,kv=0.22,kW=0.1317,pf=0.92,Vminpu=0.92,Vmaxpu=1.5,model=8,zipv=[0.5,0,0.5,1,0,0,0],daily=IP,status=variable
new load.3010951270M1 bus1=RML1055057045.1.2.3.0,Phases=3,kv=0.22,kW=0.92604,pf=0.92,Vminpu=0.92,Vmaxpu=1.5,model=8,zipv=[0.5,0,0.5,1,0,0,0],daily=RES3_17,status=variable
new load.3011202338M1 bus1=RML1056082164.1.2.0,Phases=2,kv=0.22,kW=0.79288,pf=0.92,Vminpu=0.92,Vmaxpu=1.5,model=8,zipv=[0.5,0,0.5,1,0,0,0],daily=RES4_20,status=variable
new load.3011203413M1 bus1=RML1060971241.1.2.3.0,Phases=3,kv=0.22,kW=15.96082,pf=0.92,Vminpu=0.92,Vmaxpu=1.5,model=8,zipv=[0.5,0,0.5,1,0,0,0],daily=COM3_26,status=variable
new load.3012947106M1 bus1=RML1060565267.1.2.0,Phases=2,kv=0.22,kW=0.50586,pf=0.92,Vminpu=0.92,Vmaxpu=1.5,model=8,zipv=[0.5,0,0.5,1,0,0,0],daily=RES1_3,status=variable
new load.IP422016M1 bus1=BBT1516228.2.3.0,Phases=2,kv=0.22,kW=0.1317,pf=0.92,Vminpu=0.92,Vmaxpu=1.5,model=8,zipv=[0.5,0,0.5,1,0,0,0],daily=IP,status=variable
new load.IP422023M1 bus1=BBT1516235.2.3.0,Phases=2,kv=0.22,kW=0.1317,pf=0.92,Vminpu=0.92,Vmaxpu=1.5,model=8,zipv=[0.5,0,0.5,1,0,0,0],daily=IP,status=variable
new load.3007729486M1 bus1=RML1060955336.1.2.0,Phases=2,kv=0.22,kW=3.13004,pf=0.92,Vminpu=0.92,Vmaxpu=1.5,model=8,zipv=[0.5,0,0.5,1,0,0,0],daily=RES4_2,status=variable
new load.3010764306M1 bus1=RML1055057045.1.2.3.0,Phases=3,kv=0.22,kW=0.41014,pf=0.92,Vminpu=0.92,Vmaxpu=1.5,model=8,zipv=[0.5,0,0.5,1,0,0,0],daily=RES1_14,status=variable
new load.3012256016M1 bus1=RML1060216210.3.0,Phases=1,kv=0.127,kW=0.01542,pf=0.92,Vminpu=0.92,Vmaxpu=1.5,model=8,zipv=[0.5,0,0.5,1,0,0,0],daily=RES1_17,status=variable
new load.3010949849M1 bus1=RML1055057045.1.2.3.0,Phases=3,kv=0.22,kW=0.88156,pf=0.92,Vminpu=0.92,Vmaxpu=1.5,model=8,zipv=[0.5,0,0.5,1,0,0,0],daily=RES3_16,status=variable
new load.3006461491M1 bus1=RML1052134216.1.3.0,Phases=2,kv=0.22,kW=1.0329,pf=0.92,Vminpu=0.92,Vmaxpu=1.5,model=8,zipv=[0.5,0,0.5,1,0,0,0],daily=RES1_26,status=variable
new load.3007302050M1 bus1=RML1052134027.1.0,Phases=1,kv=0.127,kW=1.02486,pf=0.92,Vminpu=0.92,Vmaxpu=1.5,model=8,zipv=[0.5,0,0.5,1,0,0,0],daily=RES3_13,status=variable
new load.3006778847M1 bus1=RML1052133999.1.2.3.0,Phases=3,kv=0.22,kW=1.1447,pf=0.92,Vminpu=0.92,Vmaxpu=1.5,model=8,zipv=[0.5,0,0.5,1,0,0,0],daily=RES2_6,status=variable
new load.3007657468M1 bus1=RML1052134055.1.2.0,Phases=2,kv=0.22,kW=0.50152,pf=0.92,Vminpu=0.92,Vmaxpu=1.5,model=8,zipv=[0.5,0,0.5,1,0,0,0],daily=COM1_25,status=variable
new load.3010487817M1 bus1=RML1060225594.3.0,Phases=1,kv=0.127,kW=0.72952,pf=0.92,Vminpu=0.92,Vmaxpu=1.5,model=8,zipv=[0.5,0,0.5,1,0,0,0],daily=COM1_13,status=variable
new load.3007591658M1 bus1=RML1054797940.1.2.3.0,Phases=3,kv=0.22,kW=1.2074,pf=0.92,Vminpu=0.92,Vmaxpu=1.5,model=8,zipv=[0.5,0,0.5,1,0,0,0],daily=COM2_23,status=variable
new load.3003723599M1 bus1=RML1052133999.1.2.3.0,Phases=3,kv=0.22,kW=0.8382,pf=0.92,Vminpu=0.92,Vmaxpu=1.5,model=8,zipv=[0.5,0,0.5,1,0,0,0],daily=RES2_6,status=variable
new load.3003858881M1 bus1=RML1052134062.1.2.3.0,Phases=3,kv=0.22,kW=0.63958,pf=0.92,Vminpu=0.92,Vmaxpu=1.5,model=8,zipv=[0.5,0,0.5,1,0,0,0],daily=RES2_10,status=variable
new load.3005556796M1 bus1=RML1052134055.1.2.0,Phases=2,kv=0.22,kW=1.4707,pf=0.92,Vminpu=0.92,Vmaxpu=1.5,model=8,zipv=[0.5,0,0.5,1,0,0,0],daily=RES3_3,status=variable
new load.3006372857M1 bus1=RML1052134440.1.2.3.0,Phases=3,kv=0.22,kW=0.6543,pf=0.92,Vminpu=0.92,Vmaxpu=1.5,model=8,zipv=[0.5,0,0.5,1,0,0,0],daily=RES2_24,status=variable
new load.3006361406M1 bus1=RML1053803856.1.2.0,Phases=2,kv=0.22,kW=0.8051,pf=0.92,Vminpu=0.92,Vmaxpu=1.5,model=8,zipv=[0.5,0,0.5,1,0,0,0],daily=RES3_19,status=variable
new load.3006004163M1 bus1=RML1052134384.1.2.3.0,Phases=3,kv=0.22,kW=0.39166,pf=0.92,Vminpu=0.92,Vmaxpu=1.5,model=8,zipv=[0.5,0,0.5,1,0,0,0],daily=RES1_11,status=variable
new load.3004967700M1 bus1=RML1052134531.1.2.3.0,Phases=3,kv=0.22,kW=0.75916,pf=0.92,Vminpu=0.92,Vmaxpu=1.5,model=8,zipv=[0.5,0,0.5,1,0,0,0],daily=IND1_15,status=variable
new load.3005196055M1 bus1=RML1052134384.1.2.3.0,Phases=3,kv=0.22,kW=0.02054,pf=0.92,Vminpu=0.92,Vmaxpu=1.5,model=8,zipv=[0.5,0,0.5,1,0,0,0],daily=RES1_17,status=variable
new load.3005665582M1 bus1=RML1052134552.2.0,Phases=1,kv=0.127,kW=0.9227,pf=0.92,Vminpu=0.92,Vmaxpu=1.5,model=8,zipv=[0.5,0,0.5,1,0,0,0],daily=RES2_4,status=variable
new load.3006013233M1 bus1=RML1052134468.1.2.3.0,Phases=3,kv=0.22,kW=2.11938,pf=0.92,Vminpu=0.92,Vmaxpu=1.5,model=8,zipv=[0.5,0,0.5,1,0,0,0],daily=IND3_17,status=variable
new load.3006038489M1 bus1=RML1052134482.1.2.3.0,Phases=3,kv=0.22,kW=0.82138,pf=0.92,Vminpu=0.92,Vmaxpu=1.5,model=8,zipv=[0.5,0,0.5,1,0,0,0],daily=IND1_15,status=variable
new load.3001753680M1 bus1=RML1052134510.2.3.0,Phases=2,kv=0.22,kW=0.22664,pf=0.92,Vminpu=0.92,Vmaxpu=1.5,model=8,zipv=[0.5,0,0.5,1,0,0,0],daily=COM1_17,status=variable
new load.3003441257M1 bus1=RML1052134370.1.2.0,Phases=2,kv=0.22,kW=0.60122,pf=0.92,Vminpu=0.92,Vmaxpu=1.5,model=8,zipv=[0.5,0,0.5,1,0,0,0],daily=RES2_2,status=variable
new load.3003910771M1 bus1=RML1052134363.1.2.3.0,Phases=3,kv=0.22,kW=1.36054,pf=0.92,Vminpu=0.92,Vmaxpu=1.5,model=8,zipv=[0.5,0,0.5,1,0,0,0],daily=COM1_13,status=variable
new load.3004362947M1 bus1=RML1052134433.1.2.3.0,Phases=3,kv=0.22,kW=0.12214,pf=0.92,Vminpu=0.92,Vmaxpu=1.5,model=8,zipv=[0.5,0,0.5,1,0,0,0],daily=RES1_25,status=variable
new load.3003881073M1 bus1=RML1052134482.1.2.3.0,Phases=3,kv=0.22,kW=10.45868,pf=0.92,Vminpu=0.92,Vmaxpu=1.5,model=8,zipv=[0.5,0,0.5,1,0,0,0],daily=COM4_13,status=variable
new load.3003025612M1 bus1=RML1052134545.3.0,Phases=1,kv=0.127,kW=0.81108,pf=0.92,Vminpu=0.92,Vmaxpu=1.5,model=8,zipv=[0.5,0,0.5,1,0,0,0],daily=RES2_19,status=variable
new load.3003025613M1 bus1=RML1052134538.2.0,Phases=1,kv=0.127,kW=0.8571,pf=0.92,Vminpu=0.92,Vmaxpu=1.5,model=8,zipv=[0.5,0,0.5,1,0,0,0],daily=RES2_19,status=variable
new load.3001753674M1 bus1=RML1052134503.1.0,Phases=1,kv=0.127,kW=1.82064,pf=0.92,Vminpu=0.92,Vmaxpu=1.5,model=8,zipv=[0.5,0,0.5,1,0,0,0],daily=RES2_12,status=variable
new load.3001753679M1 bus1=RML1052134517.1.0,Phases=1,kv=0.127,kW=1.2457,pf=0.92,Vminpu=0.92,Vmaxpu=1.5,model=8,zipv=[0.5,0,0.5,1,0,0,0],daily=RES2_12,status=variable
new load.3003025596M1 bus1=RML1052134384.1.2.3.0,Phases=3,kv=0.22,kW=0.11302,pf=0.92,Vminpu=0.92,Vmaxpu=1.5,model=8,zipv=[0.5,0,0.5,1,0,0,0],daily=RES1_17,status=variable
new load.3003025597M1 bus1=RML1052134447.1.2.3.0,Phases=3,kv=0.22,kW=0.4997,pf=0.92,Vminpu=0.92,Vmaxpu=1.5,model=8,zipv=[0.5,0,0.5,1,0,0,0],daily=COM1_19,status=variable
new load.3003025598M1 bus1=RML1053803856.1.2.0,Phases=2,kv=0.22,kW=0.71904,pf=0.92,Vminpu=0.92,Vmaxpu=1.5,model=8,zipv=[0.5,0,0.5,1,0,0,0],daily=RES2_19,status=variable
new load.3004966199M1 bus1=RML1052121504.1.0,Phases=1,kv=0.127,kW=1.06598,pf=0.92,Vminpu=0.92,Vmaxpu=1.5,model=8,zipv=[0.5,0,0.5,1,0,0,0],daily=RES2_10,status=variable
new load.3005027270M1 bus1=RML1060464739.1.2.0,Phases=2,kv=0.22,kW=1.086,pf=0.92,Vminpu=0.92,Vmaxpu=1.5,model=8,zipv=[0.5,0,0.5,1,0,0,0],daily=RES2_12,status=variable
new load.3004265530M1 bus1=RML1052121399.1.2.0,Phases=2,kv=0.22,kW=0.64584,pf=0.92,Vminpu=0.92,Vmaxpu=1.5,model=8,zipv=[0.5,0,0.5,1,0,0,0],daily=RES2_23,status=variable
new load.3004936337M1 bus1=RML1052121469.1.2.0,Phases=2,kv=0.22,kW=0.80716,pf=0.92,Vminpu=0.92,Vmaxpu=1.5,model=8,zipv=[0.5,0,0.5,1,0,0,0],daily=RES4_12,status=variable
new load.3005305291M1 bus1=RML1052121371.2.0,Phases=1,kv=0.127,kW=0.14946,pf=0.92,Vminpu=0.92,Vmaxpu=1.5,model=8,zipv=[0.5,0,0.5,1,0,0,0],daily=RES1_19,status=variable
new load.3004340861M1 bus1=RML1052121476.3.0,Phases=1,kv=0.127,kW=0.17428,pf=0.92,Vminpu=0.92,Vmaxpu=1.5,model=8,zipv=[0.5,0,0.5,1,0,0,0],daily=RES2_27,status=variable
new load.3004782170M1 bus1=RML1052121497.2.3.0,Phases=2,kv=0.22,kW=0.83194,pf=0.92,Vminpu=0.92,Vmaxpu=1.5,model=8,zipv=[0.5,0,0.5,1,0,0,0],daily=RES2_6,status=variable
new load.3004916397M1 bus1=RML1052121518.2.3.0,Phases=2,kv=0.22,kW=0.3654,pf=0.92,Vminpu=0.92,Vmaxpu=1.5,model=8,zipv=[0.5,0,0.5,1,0,0,0],daily=RES1_9,status=variable
new load.3005136304M1 bus1=RML1052121525.1.2.0,Phases=2,kv=0.22,kW=0.5563,pf=0.92,Vminpu=0.92,Vmaxpu=1.5,model=8,zipv=[0.5,0,0.5,1,0,0,0],daily=RES1_16,status=variable
new load.3004358674M1 bus1=RML1052121413.2.0,Phases=1,kv=0.127,kW=0.12176,pf=0.92,Vminpu=0.92,Vmaxpu=1.5,model=8,zipv=[0.5,0,0.5,1,0,0,0],daily=RES2_27,status=variable
new load.3004362862M1 bus1=RML1052121434.3.0,Phases=1,kv=0.127,kW=0.33902,pf=0.92,Vminpu=0.92,Vmaxpu=1.5,model=8,zipv=[0.5,0,0.5,1,0,0,0],daily=RES2_27,status=variable
new load.3012456368M1 bus1=RML1060907779.1.2.3.0,Phases=3,kv=0.22,kW=41.7083,pf=0.92,Vminpu=0.92,Vmaxpu=1.5,model=8,zipv=[0.5,0,0.5,1,0,0,0],daily=SERVP4_14,status=variable
new load.3001574729M1 bus1=RML1052135021.1.3.0,Phases=2,kv=0.22,kW=0.6882,pf=0.92,Vminpu=0.92,Vmaxpu=1.5,model=8,zipv=[0.5,0,0.5,1,0,0,0],daily=RES5_9,status=variable
new load.3001574731M1 bus1=RML1052135049.2.3.0,Phases=2,kv=0.22,kW=3.17618,pf=0.92,Vminpu=0.92,Vmaxpu=1.5,model=8,zipv=[0.5,0,0.5,1,0,0,0],daily=RES3_8,status=variable
new load.3001574732M1 bus1=RML1052135028.1.2.0,Phases=2,kv=0.22,kW=2.9659,pf=0.92,Vminpu=0.92,Vmaxpu=1.5,model=8,zipv=[0.5,0,0.5,1,0,0,0],daily=RES3_8,status=variable
new load.3001574733M1 bus1=RML1052135042.1.2.0,Phases=2,kv=0.22,kW=0.269,pf=0.92,Vminpu=0.92,Vmaxpu=1.5,model=8,zipv=[0.5,0,0.5,1,0,0,0],daily=RES1_7,status=variable
new load.3001574735M1 bus1=RML1052134839.1.2.0,Phases=2,kv=0.22,kW=0.8485,pf=0.92,Vminpu=0.92,Vmaxpu=1.5,model=8,zipv=[0.5,0,0.5,1,0,0,0],daily=COM1_12,status=variable
new load.IP422338M1 bus1=BBT1516669.1.2.0,Phases=2,kv=0.22,kW=0.16666,pf=0.92,Vminpu=0.92,Vmaxpu=1.5,model=8,zipv=[0.5,0,0.5,1,0,0,0],daily=IP,status=variable
new load.IP422345M1 bus1=BBT1516676.2.3.0,Phases=2,kv=0.22,kW=0.16666,pf=0.92,Vminpu=0.92,Vmaxpu=1.5,model=8,zipv=[0.5,0,0.5,1,0,0,0],daily=IP,status=variable
new load.IP422352M1 bus1=BBT1516683.1.3.0,Phases=2,kv=0.22,kW=0.16666,pf=0.92,Vminpu=0.92,Vmaxpu=1.5,model=8,zipv=[0.5,0,0.5,1,0,0,0],daily=IP,status=variable
new load.IP422359M1 bus1=BBT1516690.2.3.0,Phases=2,kv=0.22,kW=0.1317,pf=0.92,Vminpu=0.92,Vmaxpu=1.5,model=8,zipv=[0.5,0,0.5,1,0,0,0],daily=IP,status=variable
new load.IP422296M1 bus1=BBT1516620.2.3.0,Phases=2,kv=0.22,kW=0.16666,pf=0.92,Vminpu=0.92,Vmaxpu=1.5,model=8,zipv=[0.5,0,0.5,1,0,0,0],daily=IP,status=variable
new load.IP422303M1 bus1=BBT1516627.1.3.0,Phases=2,kv=0.22,kW=0.16666,pf=0.92,Vminpu=0.92,Vmaxpu=1.5,model=8,zipv=[0.5,0,0.5,1,0,0,0],daily=IP,status=variable
new load.IP422310M1 bus1=BBT1516641.1.2.0,Phases=2,kv=0.22,kW=0.16666,pf=0.92,Vminpu=0.92,Vmaxpu=1.5,model=8,zipv=[0.5,0,0.5,1,0,0,0],daily=IP,status=variable
new load.IP422317M1 bus1=BBT1516648.2.3.0,Phases=2,kv=0.22,kW=0.16666,pf=0.92,Vminpu=0.92,Vmaxpu=1.5,model=8,zipv=[0.5,0,0.5,1,0,0,0],daily=IP,status=variable
new load.3005225731M1 bus1=RML1052134020.1.3.0,Phases=2,kv=0.22,kW=1.03774,pf=0.92,Vminpu=0.92,Vmaxpu=1.5,model=8,zipv=[0.5,0,0.5,1,0,0,0],daily=COM1_21,status=variable
new load.3004819011M1 bus1=RML1052134146.1.2.0,Phases=2,kv=0.22,kW=0.81132,pf=0.92,Vminpu=0.92,Vmaxpu=1.5,model=8,zipv=[0.5,0,0.5,1,0,0,0],daily=COM1_11,status=variable
new load.3001928455M1 bus1=RML1052134167.1.2.3.0,Phases=3,kv=0.22,kW=0.00764,pf=0.92,Vminpu=0.92,Vmaxpu=1.5,model=8,zipv=[0.5,0,0.5,1,0,0,0],daily=COM1_21,status=variable
new load.3001928456M1 bus1=RML1052134167.1.2.3.0,Phases=3,kv=0.22,kW=2.45092,pf=0.92,Vminpu=0.92,Vmaxpu=1.5,model=8,zipv=[0.5,0,0.5,1,0,0,0],daily=RES5_16,status=variable
new load.3001928457M1 bus1=RML1052134174.2.3.0,Phases=2,kv=0.22,kW=1.52172,pf=0.92,Vminpu=0.92,Vmaxpu=1.5,model=8,zipv=[0.5,0,0.5,1,0,0,0],daily=RES3_15,status=variable
new load.3001928459M1 bus1=RML1052134209.1.3.0,Phases=2,kv=0.22,kW=0.15412,pf=0.92,Vminpu=0.92,Vmaxpu=1.5,model=8,zipv=[0.5,0,0.5,1,0,0,0],daily=RES1_17,status=variable
new load.3001928460M1 bus1=RML1052134216.1.3.0,Phases=2,kv=0.22,kW=0.1798,pf=0.92,Vminpu=0.92,Vmaxpu=1.5,model=8,zipv=[0.5,0,0.5,1,0,0,0],daily=RES1_17,status=variable
new load.3001928450M1 bus1=RML1052134139.1.2.3.0,Phases=3,kv=0.22,kW=0.05138,pf=0.92,Vminpu=0.92,Vmaxpu=1.5,model=8,zipv=[0.5,0,0.5,1,0,0,0],daily=RES1_17,status=variable
new load.3001928451M1 bus1=RML1052134132.1.3.0,Phases=2,kv=0.22,kW=0.04624,pf=0.92,Vminpu=0.92,Vmaxpu=1.5,model=8,zipv=[0.5,0,0.5,1,0,0,0],daily=RES1_17,status=variable
new load.3001928452M1 bus1=RML1052134125.1.3.0,Phases=2,kv=0.22,kW=0.57366,pf=0.92,Vminpu=0.92,Vmaxpu=1.5,model=8,zipv=[0.5,0,0.5,1,0,0,0],daily=RES2_18,status=variable
new load.3001928453M1 bus1=RML1052134153.2.0,Phases=1,kv=0.127,kW=0.4608,pf=0.92,Vminpu=0.92,Vmaxpu=1.5,model=8,zipv=[0.5,0,0.5,1,0,0,0],daily=RES2_18,status=variable
new load.3001928423M1 bus1=RML1052134027.1.0,Phases=1,kv=0.127,kW=0.33904,pf=0.92,Vminpu=0.92,Vmaxpu=1.5,model=8,zipv=[0.5,0,0.5,1,0,0,0],daily=RES1_17,status=variable
new load.3001928424M1 bus1=RML1052134069.3.0,Phases=1,kv=0.127,kW=0.02822,pf=0.92,Vminpu=0.92,Vmaxpu=1.5,model=8,zipv=[0.5,0,0.5,1,0,0,0],daily=RES2_18,status=variable
new load.3001928425M1 bus1=RML1052134090.2.3.0,Phases=2,kv=0.22,kW=0.86988,pf=0.92,Vminpu=0.92,Vmaxpu=1.5,model=8,zipv=[0.5,0,0.5,1,0,0,0],daily=COM1_21,status=variable
new load.3001928445M1 bus1=RML1052134097.1.3.0,Phases=2,kv=0.22,kW=0.39556,pf=0.92,Vminpu=0.92,Vmaxpu=1.5,model=8,zipv=[0.5,0,0.5,1,0,0,0],daily=RES1_17,status=variable
new load.3001928446M1 bus1=RML1052134097.1.3.0,Phases=2,kv=0.22,kW=0.01542,pf=0.92,Vminpu=0.92,Vmaxpu=1.5,model=8,zipv=[0.5,0,0.5,1,0,0,0],daily=RES1_17,status=variable
new load.3001928447M1 bus1=RML1052134118.3.0,Phases=1,kv=0.127,kW=0.33904,pf=0.92,Vminpu=0.92,Vmaxpu=1.5,model=8,zipv=[0.5,0,0.5,1,0,0,0],daily=RES1_17,status=variable
new load.3001036179M1 bus1=RML1052135119.2.3.0,Phases=2,kv=0.22,kW=0.38194,pf=0.92,Vminpu=0.92,Vmaxpu=1.5,model=8,zipv=[0.5,0,0.5,1,0,0,0],daily=COM2_26,status=variable
new load.3001036180M1 bus1=RML1052135154.2.3.0,Phases=2,kv=0.22,kW=0.16838,pf=0.92,Vminpu=0.92,Vmaxpu=1.5,model=8,zipv=[0.5,0,0.5,1,0,0,0],daily=COM1_25,status=variable
new load.3001036181M1 bus1=RML1052135168.2.0,Phases=1,kv=0.127,kW=0.16234,pf=0.92,Vminpu=0.92,Vmaxpu=1.5,model=8,zipv=[0.5,0,0.5,1,0,0,0],daily=RES2_27,status=variable
new load.3001036416M1 bus1=RML1053738154.1.2.3.0,Phases=3,kv=0.22,kW=11.9496,pf=0.92,Vminpu=0.92,Vmaxpu=1.5,model=8,zipv=[0.5,0,0.5,1,0,0,0],daily=RES6_15,status=variable
new load.3001928208M1 bus1=RML1053759742.1.2.3.0,Phases=3,kv=0.22,kW=0.30564,pf=0.92,Vminpu=0.92,Vmaxpu=1.5,model=8,zipv=[0.5,0,0.5,1,0,0,0],daily=RES2_18,status=variable
new load.3001928209M1 bus1=RML1052138248.1.2.3.0,Phases=3,kv=0.22,kW=1.31054,pf=0.92,Vminpu=0.92,Vmaxpu=1.5,model=8,zipv=[0.5,0,0.5,1,0,0,0],daily=RES3_15,status=variable
new load.IP1385601M1 bus1=BBT1518363.2.3.0,Phases=2,kv=0.22,kW=0.2688,pf=0.92,Vminpu=0.92,Vmaxpu=1.5,model=8,zipv=[0.5,0,0.5,1,0,0,0],daily=IP,status=variable
new load.IP1332121M1 bus1=BBT1518440.1.2.0,Phases=2,kv=0.22,kW=0.25804,pf=0.92,Vminpu=0.92,Vmaxpu=1.5,model=8,zipv=[0.5,0,0.5,1,0,0,0],daily=IP,status=variable
new load.3003025589M1 bus1=RML1052134426.2.3.0,Phases=2,kv=0.22,kW=0.11302,pf=0.92,Vminpu=0.92,Vmaxpu=1.5,model=8,zipv=[0.5,0,0.5,1,0,0,0],daily=RES1_17,status=variable
new load.3003025591M1 bus1=RML1052134426.2.3.0,Phases=2,kv=0.22,kW=0.4947,pf=0.92,Vminpu=0.92,Vmaxpu=1.5,model=8,zipv=[0.5,0,0.5,1,0,0,0],daily=RES2_19,status=variable
new load.3003025592M1 bus1=RML1052134398.2.0,Phases=1,kv=0.127,kW=0.63276,pf=0.92,Vminpu=0.92,Vmaxpu=1.5,model=8,zipv=[0.5,0,0.5,1,0,0,0],daily=RES2_19,status=variable
new load.3003025593M1 bus1=RML1052134412.1.3.0,Phases=2,kv=0.22,kW=0.3185,pf=0.92,Vminpu=0.92,Vmaxpu=1.5,model=8,zipv=[0.5,0,0.5,1,0,0,0],daily=RES1_17,status=variable
new load.3003025583M1 bus1=RML1052134321.1.3.0,Phases=2,kv=0.22,kW=1.38722,pf=0.92,Vminpu=0.92,Vmaxpu=1.5,model=8,zipv=[0.5,0,0.5,1,0,0,0],daily=COM1_19,status=variable
new load.3003025567M1 bus1=RML1060750199.2.0,Phases=1,kv=0.127,kW=0.5177,pf=0.92,Vminpu=0.92,Vmaxpu=1.5,model=8,zipv=[0.5,0,0.5,1,0,0,0],daily=RES2_19,status=variable
new load.3003025575M1 bus1=RML1052134272.1.3.0,Phases=2,kv=0.22,kW=1.88994,pf=0.92,Vminpu=0.92,Vmaxpu=1.5,model=8,zipv=[0.5,0,0.5,1,0,0,0],daily=RES4_18,status=variable
new load.3003025576M1 bus1=RML1052134286.1.2.3.0,Phases=3,kv=0.22,kW=1.2919,pf=0.92,Vminpu=0.92,Vmaxpu=1.5,model=8,zipv=[0.5,0,0.5,1,0,0,0],daily=RES3_15,status=variable
new load.3003025577M1 bus1=RML1052134286.1.2.3.0,Phases=3,kv=0.22,kW=0.30206,pf=0.92,Vminpu=0.92,Vmaxpu=1.5,model=8,zipv=[0.5,0,0.5,1,0,0,0],daily=COM1_19,status=variable
new load.3003025579M1 bus1=RML1052134279.2.0,Phases=1,kv=0.127,kW=0.39556,pf=0.92,Vminpu=0.92,Vmaxpu=1.5,model=8,zipv=[0.5,0,0.5,1,0,0,0],daily=RES1_17,status=variable
new load.3003025580M1 bus1=RML1052134300.1.2.3.0,Phases=3,kv=0.22,kW=0.56948,pf=0.92,Vminpu=0.92,Vmaxpu=1.5,model=8,zipv=[0.5,0,0.5,1,0,0,0],daily=RES2_19,status=variable
new load.3003025456M1 bus1=RML1052134314.2.0,Phases=1,kv=0.127,kW=0.8149,pf=0.92,Vminpu=0.92,Vmaxpu=1.5,model=8,zipv=[0.5,0,0.5,1,0,0,0],daily=RES4_18,status=variable
new load.3003025457M1 bus1=RML1052134293.1.2.0,Phases=2,kv=0.22,kW=0.58674,pf=0.92,Vminpu=0.92,Vmaxpu=1.5,model=8,zipv=[0.5,0,0.5,1,0,0,0],daily=RES2_19,status=variable