new line.1323882 bus1=BBT1507996.1.2.3.0,bus2=BBT1508003.1.2.3.0,Phases=3,Linecode=BT308_BT308_7_3_1,Length=0.000501000,Units=km
new line.1323889 bus1=BBT1508010.1.2.0,bus2=BBT1508017.1.2.0,Phases=2,Linecode=BT518_BT518_7_2_1,Length=0.000501000,Units=km
new line.1323903 bus1=BBT1508038.1.2.0,bus2=BBT1508045.1.2.0,Phases=2,Linecode=BT316_BT316_7_2_1,Length=0.000501000,Units=km
new line.1323910 bus1=BBT1508052.1.2.3.0,bus2=BBT1508059.1.2.3.0,Phases=3,Linecode=BT513_BT513_7_3_1,Length=0.000501000,Units=km
new line.1323917 bus1=BBT1508066.1.2.3.0,bus2=BBT1508073.1.2.3.0,Phases=3,Linecode=BT308_BT308_7_3_1,Length=0.000501000,Units=km
new line.1323924 bus1=BBT1508080.1.2.0,bus2=BBT1508087.1.2.0,Phases=2,Linecode=BT307_BT307_7_2_1,Length=0.000501000,Units=km
new line.1323931 bus1=BBT1508094.1.2.0,bus2=BBT1508101.1.2.0,Phases=2,Linecode=BT317_BT317_7_2_1,Length=0.000501000,Units=km
new line.1323938 bus1=BBT1508108.1.2.3.0,bus2=BBT1508115.1.2.3.0,Phases=3,Linecode=BT518_BT518_7_3_1,Length=0.000501000,Units=km
new line.1323945 bus1=BBT1508122.1.2.3.0,bus2=BBT1508129.1.2.3.0,Phases=3,Linecode=BT518_BT518_7_3_1,Length=0.000501000,Units=km
new line.1323952 bus1=BBT1508136.1.2.3.0,bus2=BBT1508143.1.2.3.0,Phases=3,Linecode=BT509_BT509_7_3_1,Length=0.000501000,Units=km
new line.1323959 bus1=BBT1508150.1.2.3.0,bus2=BBT1508157.1.2.3.0,Phases=3,Linecode=BT206_BT206_7_3_1,Length=0.000501000,Units=km
new line.1323966 bus1=BBT1508164.1.2.0,bus2=BBT1508171.1.2.0,Phases=2,Linecode=BT307_BT307_7_2_1,Length=0.000501000,Units=km
new line.1323973 bus1=BBT1508178.1.2.0,bus2=BBT1508185.1.2.0,Phases=2,Linecode=BT304_BT304_7_2_1,Length=0.000501000,Units=km
new line.1323980 bus1=BBT1508192.1.2.0,bus2=BBT1508199.1.2.0,Phases=2,Linecode=BT317_BT317_7_2_1,Length=0.000501000,Units=km
new line.1323994 bus1=BBT1508220.1.2.0,bus2=BBT1508227.1.2.0,Phases=2,Linecode=BT304_BT304_7_2_1,Length=0.000501000,Units=km
new line.1324001 bus1=BBT1508234.1.2.3.0,bus2=BBT1508241.1.2.3.0,Phases=3,Linecode=BT307_BT307_7_3_1,Length=0.000501000,Units=km
new line.1324008 bus1=BBT1508248.1.2.0,bus2=BBT1508255.1.2.0,Phases=2,Linecode=BT518_BT518_7_2_1,Length=0.000501000,Units=km
new line.1324015 bus1=BBT1508262.1.2.0,bus2=BBT1508269.1.2.0,Phases=2,Linecode=BT307_BT307_7_2_1,Length=0.000501000,Units=km
new line.1324022 bus1=BBT1508276.1.2.3.0,bus2=BBT1508283.1.2.3.0,Phases=3,Linecode=BT513_BT513_7_3_1,Length=0.000501000,Units=km
new line.1324029 bus1=BBT1508283.1.2.3.0,bus2=BBT1508290.1.2.3.0,Phases=3,Linecode=BT803_BT803_4_3_4,Length=0.031767000,Units=km
new line.1324036 bus1=BBT1508283.1.2.3.0,bus2=BBT1508311.1.2.3.0,Phases=3,Linecode=BT803_BT803_4_3_4,Length=0.020126000,Units=km
new line.1324043 bus1=BBT1508290.1.2.3.0,bus2=BBT1508297.1.2.3.0,Phases=3,Linecode=BT803_BT803_4_3_4,Length=0.032652000,Units=km
new line.1324050 bus1=BBT1508297.1.2.3.0,bus2=BBT1508304.1.2.3.0,Phases=3,Linecode=BT803_BT803_4_3_4,Length=0.025944000,Units=km
new line.1324057 bus1=BBT1508311.1.2.3.0,bus2=BBT1508318.1.2.3.0,Phases=3,Linecode=BT810_BT810_4_3_4,Length=0.038912000,Units=km
new line.1324064 bus1=BBT1508311.1.2.3.0,bus2=BBT1508332.1.2.3.0,Phases=3,Linecode=BT803_BT803_4_3_4,Length=0.043832000,Units=km
new line.1324071 bus1=BBT1508318.1.2.3.0,bus2=BBT1508325.1.2.3.0,Phases=3,Linecode=BT810_BT810_4_3_4,Length=0.032204000,Units=km
new line.1324099 bus1=BBT1508332.1.2.3.0,bus2=BBT1508339.1.2.3.0,Phases=3,Linecode=BT803_BT803_4_3_4,Length=0.037445000,Units=km
new line.1324113 bus1=BBT1508360.1.2.0,bus2=BBT1508367.1.2.0,Phases=2,Linecode=BT206_BT206_7_2_1,Length=0.000501000,Units=km
new line.1324127 bus1=BBT1508388.1.2.0,bus2=BBT1508395.1.2.0,Phases=2,Linecode=BT206_BT206_7_2_1,Length=0.000501000,Units=km
new line.1324134 bus1=BBT1508402.1.2.0,bus2=BBT1508409.1.2.0,Phases=2,Linecode=BT316_BT316_7_2_1,Length=0.000501000,Units=km
new line.1324141 bus1=BBT1508416.1.2.0,bus2=BBT1508423.1.2.0,Phases=2,Linecode=BT317_BT317_7_2_1,Length=0.000501000,Units=km
new line.1324148 bus1=BBT1508430.1.2.0,bus2=BBT1508437.1.2.0,Phases=2,Linecode=BT304_BT304_7_2_1,Length=0.000501000,Units=km
new line.1324155 bus1=BBT1508444.1.2.0,bus2=BBT1508451.1.2.0,Phases=2,Linecode=BT513_BT513_7_2_1,Length=0.000501000,Units=km
new line.1324169 bus1=BBT1508465.1.2.3.0,bus2=BBT1508472.1.2.3.0,Phases=3,Linecode=BT302_BT302_7_3_1,Length=0.000501000,Units=km
new line.1324176 bus1=BBT1508479.1.2.0,bus2=BBT1508486.1.2.0,Phases=2,Linecode=BT518_BT518_7_2_1,Length=0.000501000,Units=km
new line.1324183 bus1=BBT1508493.1.2.0,bus2=BBT1508500.1.2.0,Phases=2,Linecode=BT307_BT307_7_2_1,Length=0.000501000,Units=km
new line.1324190 bus1=BBT1508507.1.2.0,bus2=BBT1508514.1.2.0,Phases=2,Linecode=BT304_BT304_7_2_1,Length=0.000501000,Units=km
new line.1324197 bus1=BBT1508521.1.2.0,bus2=BBT1508528.1.2.0,Phases=2,Linecode=BT304_BT304_7_2_1,Length=0.000501000,Units=km
new line.1324204 bus1=BBT1508535.1.2.3.0,bus2=BBT1508542.1.2.3.0,Phases=3,Linecode=BT308_BT308_7_3_1,Length=0.000501000,Units=km
new line.1324211 bus1=BBT1508549.1.2.0,bus2=BBT1508556.1.2.0,Phases=2,Linecode=BT304_BT304_7_2_1,Length=0.000501000,Units=km
new line.1324218 bus1=BBT1508563.1.2.0,bus2=BBT1508570.1.2.0,Phases=2,Linecode=BT304_BT304_7_2_1,Length=0.000501000,Units=km
new line.1324225 bus1=BBT1508577.1.2.0,bus2=BBT1508584.1.2.0,Phases=2,Linecode=BT307_BT307_7_2_1,Length=0.000501000,Units=km
new line.1324232 bus1=BBT1508591.1.2.0,bus2=BBT1508598.1.2.0,Phases=2,Linecode=BT316_BT316_7_2_1,Length=0.000501000,Units=km
new line.1324239 bus1=BBT1508605.1.2.0,bus2=BBT1508612.1.2.0,Phases=2,Linecode=BT304_BT304_7_2_1,Length=0.000501000,Units=km
new line.1324253 bus1=BBT1508633.1.2.0,bus2=BBT1508640.1.2.0,Phases=2,Linecode=BT307_BT307_7_2_1,Length=0.000501000,Units=km
new line.1324260 bus1=BBT1508647.1.2.0,bus2=BBT1508654.1.2.0,Phases=2,Linecode=BT304_BT304_7_2_1,Length=0.000501000,Units=km
new line.1324267 bus1=BBT1508661.1.2.0,bus2=BBT1508668.1.2.0,Phases=2,Linecode=BT307_BT307_7_2_1,Length=0.000501000,Units=km
new line.1324274 bus1=BBT1508675.1.2.0,bus2=BBT1508682.1.2.0,Phases=2,Linecode=BT307_BT307_7_2_1,Length=0.000501000,Units=km
new line.1324281 bus1=BBT1508689.1.2.3.0,bus2=BBT1508696.1.2.3.0,Phases=3,Linecode=BT308_BT308_7_3_1,Length=0.000501000,Units=km
new line.1324288 bus1=BBT1508703.1.2.0,bus2=BBT1508710.1.2.0,Phases=2,Linecode=BT304_BT304_7_2_1,Length=0.000501000,Units=km
new line.1324295 bus1=BBT1508717.1.2.0,bus2=BBT1508724.1.2.0,Phases=2,Linecode=BT304_BT304_7_2_1,Length=0.000501000,Units=km
new line.1324302 bus1=BBT1508731.1.2.0,bus2=BBT1508738.1.2.0,Phases=2,Linecode=BT307_BT307_7_2_1,Length=0.000501000,Units=km
new line.1324309 bus1=BBT1508745.1.2.0,bus2=BBT1508752.1.2.0,Phases=2,Linecode=BT307_BT307_7_2_1,Length=0.000501000,Units=km
new line.1324323 bus1=BBT1508759.1.2.0,bus2=BBT1508766.1.2.0,Phases=2,Linecode=BT308_BT308_7_2_1,Length=0.000501000,Units=km
new line.1324330 bus1=BBT1508773.1.2.0,bus2=BBT1508780.1.2.0,Phases=2,Linecode=BT304_BT304_7_2_1,Length=0.000501000,Units=km
new line.1324337 bus1=BBT1508787.1.2.0,bus2=BBT1508794.1.2.0,Phases=2,Linecode=BT304_BT303_7_2_1,Length=0.000501000,Units=km
new line.1324344 bus1=BBT1508801.1.2.3.0,bus2=BBT1508808.1.2.3.0,Phases=3,Linecode=BT307_BT307_7_3_1,Length=0.000501000,Units=km
new line.1324351 bus1=BBT1508815.1.2.0,bus2=BBT1508822.1.2.0,Phases=2,Linecode=BT304_BT304_7_2_1,Length=0.000501000,Units=km
new line.1324358 bus1=BBT1508829.1.2.0,bus2=BBT1508836.1.2.0,Phases=2,Linecode=BT304_BT304_7_2_1,Length=0.000501000,Units=km
new line.1329195 bus1=BBT1513939.1.2.3.0,bus2=BBT1513932.1.2.3.0,Phases=3,Linecode=BT108_BT107_7_3_1,Length=0.031243000,Units=km
new line.1329202 bus1=BBT1513946.1.2.3.0,bus2=BBT1513939.1.2.3.0,Phases=3,Linecode=BT108_BT107_7_3_1,Length=0.032313000,Units=km
new line.1329209 bus1=BBT1513911.1.2.3.0,bus2=BBT1513946.1.2.3.0,Phases=3,Linecode=BT518_BT518_7_3_1,Length=0.000501000,Units=km
new line.1329216 bus1=BBT1513946.1.2.3.0,bus2=BBT1513960.1.2.3.0,Phases=3,Linecode=BT108_BT107_7_3_1,Length=0.018441000,Units=km
new line.1329223 bus1=BBT1513960.1.2.3.0,bus2=BBT1513953.1.2.3.0,Phases=3,Linecode=BT107_BT107_7_3_1,Length=0.025634000,Units=km
new line.1329230 bus1=BBT1513960.1.2.3.0,bus2=BBT1513967.1.2.3.0,Phases=3,Linecode=BT107_BT107_7_3_1,Length=0.013603000,Units=km
new line.1329237 bus1=BBT1513960.1.2.3.0,bus2=BBT1513974.1.2.3.0,Phases=3,Linecode=BT108_BT107_7_3_1,Length=0.013603000,Units=km
new line.1329244 bus1=BBT1513967.1.2.3.0,bus2=BBT1513981.1.2.3.0,Phases=3,Linecode=BT107_BT107_7_3_1,Length=0.028463000,Units=km
new line.1329251 bus1=BBT1513974.1.2.3.0,bus2=BBT1513995.1.2.3.0,Phases=3,Linecode=BT108_BT107_7_3_1,Length=0.033958000,Units=km
new line.1329258 bus1=BBT1513981.1.2.3.0,bus2=BBT1513988.1.2.3.0,Phases=3,Linecode=BT107_BT107_7_3_1,Length=0.029413000,Units=km
new line.1329265 bus1=BBT1697871.1.2.3.0,bus2=BBT1697878.1.2.3.0,Phases=3,Linecode=BT809_BT809_4_3_4,Length=0.030596000,Units=km
new line.1329279 bus1=BBT1514016.1.2.3.0,bus2=BBT1514009.1.2.3.0,Phases=3,Linecode=BT107_BT106_7_3_1,Length=0.031830000,Units=km
new line.1329286 bus1=BBT1514023.1.2.3.0,bus2=BBT2892694.1.2.3.0,Phases=3,Linecode=BT107_BT106_7_3_1,Length=0.015001000,Units=km
new line.1329293 bus1=BBT1514023.1.2.3.0,bus2=BBT1514016.1.2.3.0,Phases=3,Linecode=BT107_BT106_7_3_1,Length=0.011315000,Units=km
new line.1329300 bus1=BBT1514023.1.2.3.0,bus2=BBT1514030.1.2.3.0,Phases=3,Linecode=BT106_BT106_7_3_1,Length=0.012729000,Units=km
new line.1329307 bus1=BBT1514030.1.2.3.0,bus2=BBT1514044.1.2.3.0,Phases=3,Linecode=BT106_BT106_7_3_1,Length=0.046672000,Units=km
new line.1329314 bus1=BBT1514037.1.2.3.0,bus2=BBT1514023.1.2.3.0,Phases=3,Linecode=BT107_BT106_7_3_1,Length=0.030416000,Units=km
new line.1329321 bus1=BBT1514051.1.2.3.0,bus2=BBT1514037.1.2.3.0,Phases=3,Linecode=BT108_BT107_7_3_1,Length=0.034658000,Units=km
new line.1329328 bus1=BBT1514051.1.2.3.0,bus2=BBT81912744.1.2.3.0,Phases=3,Linecode=BT108_BT107_7_3_1,Length=0.033944000,Units=km
new line.1329335 bus1=BBT1514065.1.2.3.0,bus2=BBT1514058.1.2.3.0,Phases=3,Linecode=BT108_BT107_7_3_1,Length=0.035358000,Units=km
new line.1329342 bus1=BBT1514072.1.2.3.0,bus2=BBT1514065.1.2.3.0,Phases=3,Linecode=BT108_BT107_7_3_1,Length=0.038186000,Units=km
new line.1329349 bus1=BBT1514002.1.2.3.0,bus2=BBT1514072.1.2.3.0,Phases=3,Linecode=BT518_BT518_7_3_1,Length=0.000501000,Units=km
new line.1329356 bus1=BBT1514072.1.2.3.0,bus2=BBT1514079.1.2.3.0,Phases=3,Linecode=BT108_BT107_7_3_1,Length=0.012729000,Units=km
new line.1329363 bus1=BBT1514079.1.2.3.0,bus2=BBT1514086.1.2.3.0,Phases=3,Linecode=BT108_BT107_7_3_1,Length=0.033973000,Units=km
new line.1329384 bus1=BBT1514086.1.2.3.0,bus2=BBT1514093.1.2.3.0,Phases=3,Linecode=BT108_BT107_7_3_1,Length=0.019107000,Units=km
new line.1329391 bus1=BBT1514093.1.2.3.0,bus2=BBT1514100.1.2.3.0,Phases=3,Linecode=BT108_BT107_7_3_1,Length=0.036072000,Units=km
new line.1329398 bus1=BBT1514100.1.2.3.0,bus2=BBT1514107.1.2.3.0,Phases=3,Linecode=BT108_BT107_7_3_1,Length=0.033944000,Units=km
new line.1329405 bus1=BBT1514114.1.2.3.0,bus2=BBT106213559.1.2.3.0,Phases=3,Linecode=BT803_BT803_4_3_4,Length=0.034658000,Units=km
new line.1329412 bus1=BBT1514121.1.2.3.0,bus2=BBT1514114.1.2.3.0,Phases=3,Linecode=BT803_BT803_4_3_4,Length=0.036072000,Units=km
new line.1329419 bus1=BBT1514128.1.2.3.0,bus2=BBT1514121.1.2.3.0,Phases=3,Linecode=BT803_BT803_4_3_4,Length=0.033944000,Units=km
new line.1329426 bus1=BBT1514149.1.2.3.0,bus2=BBT1514142.1.2.3.0,Phases=3,Linecode=BT107_BT107_7_3_1,Length=0.032018000,Units=km
new line.1329433 bus1=BBT1514163.1.2.3.0,bus2=BBT1514149.1.2.3.0,Phases=3,Linecode=BT108_BT107_7_3_1,Length=0.037205000,Units=km
new line.1329440 bus1=BBT1514170.1.2.3.0,bus2=BBT1514156.1.2.3.0,Phases=3,Linecode=BT107_BT107_7_3_1,Length=0.027588000,Units=km
new line.1329447 bus1=BBT1514170.1.2.3.0,bus2=BBT1514163.1.2.3.0,Phases=3,Linecode=BT107_BT107_7_3_1,Length=0.028603000,Units=km
new line.1329454 bus1=BBT1514177.1.2.3.0,bus2=BBT1514170.1.2.3.0,Phases=3,Linecode=BT108_BT107_7_3_1,Length=0.031767000,Units=km
new line.1329461 bus1=BBT1514135.1.2.3.0,bus2=BBT1514177.1.2.3.0,Phases=3,Linecode=BT518_BT518_7_3_1,Length=0.000501000,Units=km
new line.1329468 bus1=BBT1514177.1.2.3.0,bus2=BBT1514184.1.2.3.0,Phases=3,Linecode=BT108_BT107_7_3_1,Length=0.030416000,Units=km
new line.1329475 bus1=BBT1514184.1.2.3.0,bus2=BBT1514191.1.2.3.0,Phases=3,Linecode=BT108_BT107_7_3_1,Length=0.031767000,Units=km
new line.1329482 bus1=BBT1514191.1.2.3.0,bus2=BBT1514198.1.2.3.0,Phases=3,Linecode=BT108_BT107_7_3_1,Length=0.038473000,Units=km
new line.1329496 bus1=BBT1515731.1.2.3.0,bus2=BBT1515724.1.2.3.0,Phases=3,Linecode=BT803_BT803_4_3_4,Length=0.026928000,Units=km
new line.1329510 bus1=BBT1514212.1.2.0,bus2=BBT1514219.1.2.0,Phases=2,Linecode=BT317_BT317_7_2_1,Length=0.000501000,Units=km
new line.1329524 bus1=BBT1514233.1.2.3.0,bus2=BBT1514352.1.2.3.0,Phases=3,Linecode=BT809_BT809_4_3_4,Length=0.034988000,Units=km
new line.1329531 bus1=BBT1514240.1.2.3.0,bus2=BBT1514233.1.2.3.0,Phases=3,Linecode=BT803_BT803_4_3_4,Length=0.036772000,Units=km
new line.1329538 bus1=BBT1514247.1.2.3.0,bus2=BBT1514240.1.2.3.0,Phases=3,Linecode=BT803_BT803_4_3_4,Length=0.030416000,Units=km
new line.1329545 bus1=BBT1514254.1.2.3.0,bus2=BBT1514247.1.2.3.0,Phases=3,Linecode=BT803_BT803_4_3_4,Length=0.037539000,Units=km
new line.1329552 bus1=BBT1514261.1.2.3.0,bus2=BBT1514254.1.2.3.0,Phases=3,Linecode=BT108_BT108_7_3_1,Length=0.038213000,Units=km
new line.1329559 bus1=BBT1514268.1.2.3.0,bus2=BBT1514261.1.2.3.0,Phases=3,Linecode=BT108_BT108_7_3_1,Length=0.033244000,Units=km
new line.1329566 bus1=BBT1514275.1.2.3.0,bus2=BBT1514268.1.2.3.0,Phases=3,Linecode=BT108_BT108_7_3_1,Length=0.039601000,Units=km
new line.1329573 bus1=BBT1514226.1.2.3.0,bus2=BBT1514275.1.2.3.0,Phases=3,Linecode=BT518_BT518_7_3_1,Length=0.000501000,Units=km
new line.1329580 bus1=BBT1514275.1.2.3.0,bus2=BBT1514289.1.2.3.0,Phases=3,Linecode=BT108_BT108_7_3_1,Length=0.038186000,Units=km
new line.1329587 bus1=BBT1514289.1.2.3.0,bus2=BBT1514303.1.2.3.0,Phases=3,Linecode=BT108_BT108_7_3_1,Length=0.023433000,Units=km
new line.1329594 bus1=BBT1514296.1.2.3.0,bus2=BBT1514282.1.2.3.0,Phases=3,Linecode=BT107_BT107_7_3_1,Length=0.027588000,Units=km
new line.1329601 bus1=BBT1514303.1.2.3.0,bus2=BBT1514296.1.2.3.0,Phases=3,Linecode=BT107_BT107_7_3_1,Length=0.021215000,Units=km
new line.1329608 bus1=BBT1514303.1.2.3.0,bus2=BBT1514310.1.2.3.0,Phases=3,Linecode=BT108_BT108_7_3_1,Length=0.015622000,Units=km
new line.1329615 bus1=BBT1514303.1.2.3.0,bus2=BBT1514317.1.2.3.0,Phases=3,Linecode=BT107_BT107_7_3_1,Length=0.020617000,Units=km
new line.1329622 bus1=BBT1514310.1.2.3.0,bus2=BBT1514331.1.2.3.0,Phases=3,Linecode=BT107_BT107_7_3_1,Length=0.034658000,Units=km
new line.1329629 bus1=BBT1514317.1.2.3.0,bus2=BBT1514324.1.2.3.0,Phases=3,Linecode=BT107_BT107_7_3_1,Length=0.035358000,Units=km
new line.1329636 bus1=BBT1514331.1.2.3.0,bus2=BBT1514338.1.2.3.0,Phases=3,Linecode=BT809_BT809_4_3_4,Length=0.034658000,Units=km
new line.1324365 bus1=BBT1508843.1.2.0,bus2=BBT1508850.1.2.0,Phases=2,Linecode=BT304_BT304_7_2_1,Length=0.000501000,Units=km
new line.1324372 bus1=BBT1508857.1.2.0,bus2=BBT1508864.1.2.0,Phases=2,Linecode=BT317_BT317_7_2_1,Length=0.000501000,Units=km
new line.1324379 bus1=BBT1508871.1.2.0,bus2=BBT1508878.1.2.0,Phases=2,Linecode=BT307_BT307_7_2_1,Length=0.000501000,Units=km
new line.1324393 bus1=BBT1508899.1.2.0,bus2=BBT1508906.1.2.0,Phases=2,Linecode=BT307_BT307_7_2_1,Length=0.000501000,Units=km
new line.1324400 bus1=BBT1508913.1.2.0,bus2=BBT1508920.1.2.0,Phases=2,Linecode=BT307_BT307_7_2_1,Length=0.000501000,Units=km
new line.1324407 bus1=BBT1508927.1.2.0,bus2=BBT1508934.1.2.0,Phases=2,Linecode=BT304_BT304_7_2_1,Length=0.000501000,Units=km
new line.1324414 bus1=BBT1508941.1.2.0,bus2=BBT1508948.1.2.0,Phases=2,Linecode=BT304_BT304_7_2_1,Length=0.000501000,Units=km
new line.1324421 bus1=BBT1508955.1.2.3.0,bus2=BBT1508962.1.2.3.0,Phases=3,Linecode=BT302_BT304_7_3_1,Length=0.000501000,Units=km
new line.1324428 bus1=BBT1508969.1.2.0,bus2=BBT1508976.1.2.0,Phases=2,Linecode=BT307_BT307_7_2_1,Length=0.000501000,Units=km
new line.1324456 bus1=BBT1508990.1.2.0,bus2=BBT1508997.1.2.0,Phases=2,Linecode=BT304_BT304_7_2_1,Length=0.000501000,Units=km
new line.1324463 bus1=BBT1509004.1.2.0,bus2=BBT1509011.1.2.0,Phases=2,Linecode=BT304_BT304_7_2_1,Length=0.000501000,Units=km
new line.1324477 bus1=BBT1509032.1.2.3.0,bus2=BBT1509039.1.2.3.0,Phases=3,Linecode=BT503_BT503_7_3_1,Length=0.000501000,Units=km
new line.1324484 bus1=BBT1509046.1.2.0,bus2=BBT1509053.1.2.0,Phases=2,Linecode=BT206_BT206_7_2_1,Length=0.000501000,Units=km
new line.1324491 bus1=BBT1509060.1.2.0,bus2=BBT1509067.1.2.0,Phases=2,Linecode=BT206_BT206_7_2_1,Length=0.000501000,Units=km
new line.1324505 bus1=BBT1509088.1.2.0,bus2=BBT1509095.1.2.0,Phases=2,Linecode=BT307_BT307_7_2_1,Length=0.000501000,Units=km
new line.1324512 bus1=BBT1509102.1.2.0,bus2=BBT1509109.1.2.0,Phases=2,Linecode=BT304_BT304_7_2_1,Length=0.000501000,Units=km
new line.1324519 bus1=BBT1509116.1.2.0,bus2=BBT1509123.1.2.0,Phases=2,Linecode=BT304_BT304_7_2_1,Length=0.000501000,Units=km
new line.1324526 bus1=BBT1509130.1.2.3.0,bus2=BBT1509137.1.2.3.0,Phases=3,Linecode=BT308_BT308_7_3_1,Length=0.000501000,Units=km
new line.1324533 bus1=BBT1509144.1.2.0,bus2=BBT1509151.1.2.0,Phases=2,Linecode=BT304_BT304_7_2_1,Length=0.000501000,Units=km
new line.1324540 bus1=BBT1509165.1.2.3.0,bus2=BBT1509172.1.2.3.0,Phases=3,Linecode=BT803_BT803_4_3_4,Length=0.021025000,Units=km
new line.1324547 bus1=BBT1509172.1.2.3.0,bus2=BBT1509186.1.2.3.0,Phases=3,Linecode=BT803_BT803_4_3_4,Length=0.006404000,Units=km
new line.1324554 bus1=BBT1509179.1.2.3.0,bus2=BBT1509165.1.2.3.0,Phases=3,Linecode=BT803_BT803_4_3_4,Length=0.006404000,Units=km
new line.1324561 bus1=BBT1509186.1.2.3.0,bus2=BBT1509200.1.2.3.0,Phases=3,Linecode=BT803_BT803_4_3_4,Length=0.035017000,Units=km
new line.1324568 bus1=BBT1509193.1.2.3.0,bus2=BBT1509179.1.2.3.0,Phases=3,Linecode=BT803_BT803_4_3_4,Length=0.027020000,Units=km
new line.1324575 bus1=BBT1509158.1.2.3.0,bus2=BBT1509193.1.2.3.0,Phases=3,Linecode=BT518_BT518_7_3_1,Length=0.000501000,Units=km
new line.1324582 bus1=BBT1509193.1.2.3.0,bus2=BBT1509207.1.2.3.0,Phases=3,Linecode=BT803_BT803_4_3_4,Length=0.030002000,Units=km
new line.1324589 bus1=BBT1509200.1.2.3.0,bus2=BBT1509214.1.2.3.0,Phases=3,Linecode=BT803_BT803_4_3_4,Length=0.033063000,Units=km
new line.1324596 bus1=BBT1509207.1.2.3.0,bus2=BBT1509221.1.2.3.0,Phases=3,Linecode=BT803_BT803_4_3_4,Length=0.028073000,Units=km
new line.1324603 bus1=BBT1509214.1.2.3.0,bus2=BBT1509228.1.2.3.0,Phases=3,Linecode=BT803_BT803_4_3_4,Length=0.034002000,Units=km
new line.1324610 bus1=BBT1509221.1.2.3.0,bus2=BBT1510068.1.2.3.0,Phases=3,Linecode=BT803_BT803_4_3_4,Length=0.032018000,Units=km
new line.1324617 bus1=BBT1509228.1.2.3.0,bus2=BBT1509242.1.2.3.0,Phases=3,Linecode=BT803_BT803_4_3_4,Length=0.033017000,Units=km
new line.1324624 bus1=BBT1509242.1.2.3.0,bus2=BBT1509249.1.2.3.0,Phases=3,Linecode=BT803_BT803_4_3_4,Length=0.040015000,Units=km
new line.1324631 bus1=BBT1509249.1.2.3.0,bus2=BBT1509256.1.2.3.0,Phases=3,Linecode=BT803_BT803_4_3_4,Length=0.028020000,Units=km
new line.1324638 bus1=BBT1509263.1.2.0,bus2=BBT1509270.1.2.0,Phases=2,Linecode=BT304_BT304_7_2_1,Length=0.000501000,Units=km
new line.1324645 bus1=BBT1509284.1.2.0,bus2=BBT4243316.1.2.0,Phases=2,Linecode=BT808_BT808_4_2_3,Length=0.044184000,Units=km
new line.1324652 bus1=BBT1509291.1.2.3.0,bus2=BBT1509284.1.2.3.0,Phases=3,Linecode=BT809_BT809_4_3_4,Length=0.033958000,Units=km
new line.1324659 bus1=BBT57555061.1.2.3.0,bus2=BBT1509291.1.2.3.0,Phases=3,Linecode=BT521_BT521_5_3_1,Length=0.007072000,Units=km
new line.1324673 bus1=BBT1509319.1.2.3.0,bus2=BBT1509298.1.2.3.0,Phases=3,Linecode=BT809_BT809_4_3_4,Length=0.037366000,Units=km
new line.1324680 bus1=BBT1509326.1.2.3.0,bus2=BBT1509312.1.2.3.0,Phases=3,Linecode=BT803_BT803_4_3_4,Length=0.036058000,Units=km
new line.1324687 bus1=BBT1509319.1.2.3.0,bus2=BBT1509333.1.2.3.0,Phases=3,Linecode=BT809_BT809_4_3_4,Length=0.036403000,Units=km
new line.1324694 bus1=BBT1509340.1.2.3.0,bus2=BBT1509326.1.2.3.0,Phases=3,Linecode=BT803_BT803_4_3_4,Length=0.031625000,Units=km
new line.1324701 bus1=BBT1509277.1.2.3.0,bus2=BBT1509340.1.2.3.0,Phases=3,Linecode=BT518_BT518_7_3_1,Length=0.000501000,Units=km
new line.1324708 bus1=BBT1509340.1.2.3.0,bus2=BBT1509354.1.2.3.0,Phases=3,Linecode=BT803_BT803_4_3_4,Length=0.032896000,Units=km
new line.1324715 bus1=BBT1509333.1.2.3.0,bus2=BBT1509347.1.2.3.0,Phases=3,Linecode=BT809_BT809_4_3_4,Length=0.037646000,Units=km
new line.1324722 bus1=BBT1509354.1.2.3.0,bus2=BBT1509368.1.2.3.0,Phases=3,Linecode=BT803_BT803_4_3_4,Length=0.031955000,Units=km
new line.1324729 bus1=BBT1509347.1.2.3.0,bus2=BBT1509361.1.2.3.0,Phases=3,Linecode=BT809_BT809_4_3_4,Length=0.032759000,Units=km
new line.1324736 bus1=BBT1509368.1.2.3.0,bus2=BBT4867331.1.2.3.0,Phases=3,Linecode=BT809_BT809_4_3_4,Length=0.015134000,Units=km
new line.1324750 bus1=BBT1509389.1.2.0,bus2=BBT1509396.1.2.0,Phases=2,Linecode=BT307_BT307_7_2_1,Length=0.000501000,Units=km
new line.1324757 bus1=BBT1509403.1.2.3.0,bus2=BBT1509410.1.2.3.0,Phases=3,Linecode=BT309_BT309_7_3_1,Length=0.000501000,Units=km
new line.1324764 bus1=BBT1509417.1.2.0,bus2=BBT1509424.1.2.0,Phases=2,Linecode=BT317_BT317_7_2_1,Length=0.000501000,Units=km
new line.1324771 bus1=BBT1509431.1.2.0,bus2=BBT1509438.1.2.0,Phases=2,Linecode=BT206_BT206_7_2_1,Length=0.000501000,Units=km
new line.1324778 bus1=BBT1509445.1.2.0,bus2=BBT1509452.1.2.0,Phases=2,Linecode=BT518_BT518_7_2_1,Length=0.000501000,Units=km
new line.1324785 bus1=BBT1509452.1.2.0,bus2=BBT2664599.1.2.0,Phases=2,Linecode=BT801_BT801_4_2_3,Length=0.060004000,Units=km
new line.1324792 bus1=BBT1509473.1.2.3.0,bus2=BBT1509466.1.2.3.0,Phases=3,Linecode=BT803_BT803_4_3_4,Length=0.039462000,Units=km
new line.1324799 bus1=BBT1509473.1.2.3.0,bus2=BBT1509480.1.2.3.0,Phases=3,Linecode=BT803_BT803_4_3_4,Length=0.046393000,Units=km
new line.1324806 bus1=BBT1509480.1.2.3.0,bus2=BBT9315264.1.2.3.0,Phases=3,Linecode=BT803_BT803_4_3_4,Length=0.032391000,Units=km
new line.1324813 bus1=BBT3013465.1.2.3.0,bus2=BBT4135481.1.2.3.0,Phases=3,Linecode=BT518_BT518_7_3_1,Length=0.000501000,Units=km
new line.1324820 bus1=BBT1509494.1.2.3.0,bus2=BBT1509487.1.2.3.0,Phases=3,Linecode=BT803_BT803_4_3_4,Length=0.038016000,Units=km
new line.10002047 bus1=BBT148238930.1.2.0,bus2=BBT148238931.1.2.0,Phases=2,Linecode=BT518_BT518_7_2_1,Length=0.000501000,Units=km
new line.10014423 bus1=BBT145479863.1.2.3.0,bus2=BBT145479870.1.2.3.0,Phases=3,Linecode=BT518_BT518_7_3_1,Length=0.000501000,Units=km
new line.1334130 bus1=BBT1518944.1.2.3.0,bus2=BBT1518930.1.2.3.0,Phases=3,Linecode=BT107_BT107_7_3_1,Length=0.031307000,Units=km
new line.1334137 bus1=BBT1518951.1.2.3.0,bus2=BBT1518944.1.2.3.0,Phases=3,Linecode=BT107_BT107_7_3_1,Length=0.030873000,Units=km
new line.1334144 bus1=BBT1518958.1.2.3.0,bus2=BBT1518937.1.2.3.0,Phases=3,Linecode=BT108_BT107_7_3_1,Length=0.036677000,Units=km
new line.1334151 bus1=BBT1518958.1.2.3.0,bus2=BBT1518951.1.2.3.0,Phases=3,Linecode=BT107_BT107_7_3_1,Length=0.029549000,Units=km
new line.1334158 bus1=BBT1518972.1.2.3.0,bus2=BBT1518958.1.2.3.0,Phases=3,Linecode=BT108_BT107_7_3_1,Length=0.032313000,Units=km
new line.1334165 bus1=BBT1518923.1.2.3.0,bus2=BBT1518972.1.2.3.0,Phases=3,Linecode=BT518_BT518_7_3_1,Length=0.000501000,Units=km
new line.1334172 bus1=BBT1518972.1.2.3.0,bus2=BBT1518993.1.2.3.0,Phases=3,Linecode=BT108_BT107_7_3_1,Length=0.038016000,Units=km
new line.1334179 bus1=BBT1518979.1.2.3.0,bus2=BBT1518965.1.2.3.0,Phases=3,Linecode=BT107_BT107_7_3_1,Length=0.032652000,Units=km
new line.1334186 bus1=BBT1518986.1.2.3.0,bus2=BBT1518979.1.2.3.0,Phases=3,Linecode=BT107_BT107_7_3_1,Length=0.029071000,Units=km
new line.1334193 bus1=BBT1518993.1.2.3.0,bus2=BBT1518986.1.2.3.0,Phases=3,Linecode=BT107_BT107_7_3_1,Length=0.031767000,Units=km
new line.1334200 bus1=BBT1518993.1.2.3.0,bus2=BBT1519000.1.2.3.0,Phases=3,Linecode=BT108_BT107_7_3_1,Length=0.024700000,Units=km
new line.1334207 bus1=BBT1519021.1.2.3.0,bus2=BBT1519014.1.2.3.0,Phases=3,Linecode=BT106_BT106_7_3_1,Length=0.026685000,Units=km
new line.1334214 bus1=BBT1519028.1.2.3.0,bus2=BBT1519021.1.2.3.0,Phases=3,Linecode=BT106_BT106_7_3_1,Length=0.024741000,Units=km
new line.1334221 bus1=BBT1519042.1.2.3.0,bus2=BBT1519035.1.2.3.0,Phases=3,Linecode=BT108_BT107_7_3_1,Length=0.024517000,Units=km
new line.1334228 bus1=BBT1519049.1.2.3.0,bus2=BBT1519042.1.2.3.0,Phases=3,Linecode=BT108_BT107_7_3_1,Length=0.028638000,Units=km
new line.1334235 bus1=BBT1519056.1.2.3.0,bus2=BBT1519049.1.2.3.0,Phases=3,Linecode=BT108_BT107_7_3_1,Length=0.022363000,Units=km
new line.1334242 bus1=BBT1519007.1.2.3.0,bus2=BBT1519056.1.2.3.0,Phases=3,Linecode=BT513_BT513_7_3_1,Length=0.000501000,Units=km
new line.1334249 bus1=BBT1519056.1.2.3.0,bus2=BBT1519063.1.2.3.0,Phases=3,Linecode=BT108_BT107_7_3_1,Length=0.026478000,Units=km
new line.1334256 bus1=BBT1519063.1.2.3.0,bus2=BBT1519077.1.2.3.0,Phases=3,Linecode=BT108_BT107_7_3_1,Length=0.028445000,Units=km
new line.1334270 bus1=BBT1519070.1.2.3.0,bus2=BBT1519028.1.2.3.0,Phases=3,Linecode=BT106_BT106_7_3_1,Length=0.028864000,Units=km
new line.1334277 bus1=BBT1519077.1.2.3.0,bus2=BBT1519084.1.2.3.0,Phases=3,Linecode=BT108_BT107_7_3_1,Length=0.008063000,Units=km
new line.1334284 bus1=BBT1519084.1.2.3.0,bus2=BBT1519091.1.2.3.0,Phases=3,Linecode=BT108_BT107_7_3_1,Length=0.013154000,Units=km
new line.1334291 bus1=BBT1519084.1.2.3.0,bus2=BBT1519070.1.2.3.0,Phases=3,Linecode=BT106_BT106_7_3_1,Length=0.006084000,Units=km
new line.1334298 bus1=BBT1519084.1.2.3.0,bus2=BBT1519098.1.2.3.0,Phases=3,Linecode=BT106_BT106_7_3_1,Length=0.024741000,Units=km
new line.1334305 bus1=BBT1519098.1.2.3.0,bus2=BBT1519105.1.2.3.0,Phases=3,Linecode=BT106_BT106_7_3_1,Length=0.036141000,Units=km
new line.1334312 bus1=BBT1519105.1.2.3.0,bus2=BBT1519112.1.2.3.0,Phases=3,Linecode=BT106_BT106_7_3_1,Length=0.030808000,Units=km
new line.1334319 bus1=BBT1519119.1.2.3.0,bus2=BBT1519126.1.2.3.0,Phases=3,Linecode=BT308_BT308_7_3_1,Length=0.000501000,Units=km
new line.1334333 bus1=BBT1519161.1.2.3.0,bus2=BBT1519154.1.2.3.0,Phases=3,Linecode=BT803_BT803_4_3_4,Length=0.034208000,Units=km
new line.1334340 bus1=BBT1519168.1.2.3.0,bus2=BBT1519161.1.2.3.0,Phases=3,Linecode=BT803_BT803_4_3_4,Length=0.027021000,Units=km
new line.1334347 bus1=BBT1519175.1.2.3.0,bus2=BBT1519168.1.2.3.0,Phases=3,Linecode=BT803_BT803_4_3_4,Length=0.017806000,Units=km
new line.1334354 bus1=BBT1519182.1.2.3.0,bus2=BBT1519175.1.2.3.0,Phases=3,Linecode=BT803_BT803_4_3_4,Length=0.031893000,Units=km
new line.1334361 bus1=BBT1519189.1.2.3.0,bus2=BBT1519182.1.2.3.0,Phases=3,Linecode=BT108_BT107_7_3_1,Length=0.025497000,Units=km
new line.1334368 bus1=BBT1519189.1.2.3.0,bus2=BBT1519203.1.2.3.0,Phases=3,Linecode=BT803_BT803_4_3_4,Length=0.024044000,Units=km
new line.1334375 bus1=BBT1519196.1.2.3.0,bus2=BBT1519189.1.2.3.0,Phases=3,Linecode=BT803_BT803_4_3_4,Length=0.036881000,Units=km
new line.1334382 bus1=BBT1519147.1.2.3.0,bus2=BBT1519196.1.2.3.0,Phases=3,Linecode=BT518_BT518_7_3_1,Length=0.000501000,Units=km
new line.1334389 bus1=BBT1519196.1.2.3.0,bus2=BBT1519210.1.2.3.0,Phases=3,Linecode=BT803_BT803_4_3_4,Length=0.046014000,Units=km
new line.1334396 bus1=BBT1519203.1.2.3.0,bus2=BBT1519217.1.2.3.0,Phases=3,Linecode=BT803_BT803_4_3_4,Length=0.045280000,Units=km
new line.1334403 bus1=BBT1519203.1.2.3.0,bus2=BBT1519294.1.2.3.0,Phases=3,Linecode=BT809_BT809_4_3_4,Length=0.045258000,Units=km
new line.1334410 bus1=BBT1519210.1.2.3.0,bus2=BBT1519224.1.2.3.0,Phases=3,Linecode=BT803_BT803_4_3_4,Length=0.030482000,Units=km
new line.1334417 bus1=BBT1519217.1.2.3.0,bus2=BBT1519238.1.2.3.0,Phases=3,Linecode=BT803_BT803_4_3_4,Length=0.039322000,Units=km
new line.1334424 bus1=BBT1519224.1.2.3.0,bus2=BBT1519231.1.2.3.0,Phases=3,Linecode=BT803_BT803_4_3_4,Length=0.031147000,Units=km
new line.1334431 bus1=BBT1519231.1.2.3.0,bus2=BBT1519245.1.2.3.0,Phases=3,Linecode=BT803_BT803_4_3_4,Length=0.034061000,Units=km
new line.1334438 bus1=BBT1519238.1.2.3.0,bus2=BBT1519252.1.2.3.0,Phases=3,Linecode=BT803_BT803_4_3_4,Length=0.031767000,Units=km
new line.1334445 bus1=BBT1519245.1.2.3.0,bus2=BBT1519259.1.2.3.0,Phases=3,Linecode=BT803_BT803_4_3_4,Length=0.031893000,Units=km
new line.1334452 bus1=BBT1519266.1.2.3.0,bus2=BBT168866687.1.2.3.0,Phases=3,Linecode=BT803_BT803_4_3_4,Length=0.038278000,Units=km
new line.1334459 bus1=BBT1519259.1.2.3.0,bus2=BBT1519273.1.2.3.0,Phases=3,Linecode=BT803_BT803_4_3_4,Length=0.029734000,Units=km
new line.1334466 bus1=BBT1519273.1.2.3.0,bus2=BBT1519280.1.2.3.0,Phases=3,Linecode=BT803_BT803_4_3_4,Length=0.034061000,Units=km
new line.1334473 bus1=BBT1519280.1.2.3.0,bus2=BBT1519287.1.2.3.0,Phases=3,Linecode=BT803_BT803_4_3_4,Length=0.035230000,Units=km
new line.1334480 bus1=BBT1519294.1.2.3.0,bus2=BBT1519301.1.2.3.0,Phases=3,Linecode=BT809_BT809_4_3_4,Length=0.032652000,Units=km
new line.1334487 bus1=BBT1519301.1.2.3.0,bus2=BBT1519308.1.2.3.0,Phases=3,Linecode=BT809_BT809_4_3_4,Length=0.030613000,Units=km
new line.1334494 bus1=BBT1519308.1.2.3.0,bus2=BBT1519315.1.2.3.0,Phases=3,Linecode=BT809_BT809_4_3_4,Length=0.034208000,Units=km
new line.1334501 bus1=BBT1519329.1.2.3.0,bus2=BBT166754616.1.2.3.0,Phases=3,Linecode=BT803_BT803_4_3_4,Length=0.028286000,Units=km
new line.1334508 bus1=BBT1519343.1.2.3.0,bus2=BBT2897342.1.2.3.0,Phases=3,Linecode=BT108_BT107_7_3_1,Length=0.015233000,Units=km
new line.1334515 bus1=BBT1519350.1.2.3.0,bus2=BBT1519371.1.2.3.0,Phases=3,Linecode=BT803_BT803_4_3_4,Length=0.028428000,Units=km
new line.1334522 bus1=BBT1519357.1.2.3.0,bus2=BBT1519343.1.2.3.0,Phases=3,Linecode=BT108_BT107_7_3_1,Length=0.034017000,Units=km
new line.10084815 bus1=BBT1769075.1.2.3.0,bus2=BBT147451343.1.2.3.0,Phases=3,Linecode=BT803_BT803_4_3_4,Length=0.025082000,Units=km
new line.1339233 bus1=BBT1524355.1.2.0,bus2=BBT1524362.1.2.0,Phases=2,Linecode=BT304_BT304_7_2_1,Length=0.000501000,Units=km