new line.RML10031954 bus1=BBT1525398.1.2.0,bus2=RML1060031954.1.2.0,Phases=2,Linecode=CABBTG05_4_2,Length=0.017000000,Units=km
new line.RML10031958 bus1=BBT4032896.1.2.0,bus2=RML1060031958.1.2.0,Phases=2,Linecode=CABBTG05_4_2,Length=0.017000000,Units=km
new line.RML10031959 bus1=BBT1525244.1.2.0,bus2=RML1060031959.1.2.0,Phases=2,Linecode=CABBTG05_4_2,Length=0.017000000,Units=km
new line.RML10031964 bus1=BBT1525104.1.2.0,bus2=RML1060031964.1.2.0,Phases=2,Linecode=CABBTG05_4_2,Length=0.017000000,Units=km
new line.RML10031967 bus1=BBT2807686.1.2.0,bus2=RML1060031967.1.2.0,Phases=2,Linecode=CABBTG05_4_2,Length=0.017000000,Units=km
new line.RML10031971 bus1=BBT104864666.1.2.0,bus2=RML1060031971.1.2.0,Phases=2,Linecode=CABBTG05_4_2,Length=0.017000000,Units=km
new line.RML10031973 bus1=BBT104861117.1.2.0,bus2=RML1060031973.1.2.0,Phases=2,Linecode=CABBTG05_4_2,Length=0.017000000,Units=km
new line.RML10031980 bus1=BBT60426475.1.2.3.0,bus2=RML1060031980.1.2.3.0,Phases=3,Linecode=CABBTG06_4_3,Length=0.017000000,Units=km
new line.RML10032016 bus1=BBT104857428.1.2.0,bus2=RML1060032016.1.2.0,Phases=2,Linecode=CABBTG05_4_2,Length=0.017000000,Units=km
new line.RML10032023 bus1=BBT1509039.1.2.0,bus2=RML1060032023.1.2.0,Phases=2,Linecode=CABBTG05_4_2,Length=0.017000000,Units=km
new line.RML10032024 bus1=BBT104858296.1.2.0,bus2=RML1060032024.1.2.0,Phases=2,Linecode=CABBTG05_4_2,Length=0.017000000,Units=km
new line.RML10032028 bus1=BBT104858296.1.2.0,bus2=RML1060032028.1.2.0,Phases=2,Linecode=CABBTG05_4_2,Length=0.017000000,Units=km
new line.RML10032030 bus1=BBT4860114.1.2.0,bus2=RML1060032030.1.2.0,Phases=2,Linecode=CABBTG05_4_2,Length=0.017000000,Units=km
new line.RML10032034 bus1=BBT4860114.1.2.0,bus2=RML1060032034.1.2.0,Phases=2,Linecode=CABBTG05_4_2,Length=0.017000000,Units=km
new line.RML10032036 bus1=BBT2674364.1.2.0,bus2=RML1060032036.1.2.0,Phases=2,Linecode=CABBTG05_4_2,Length=0.017000000,Units=km
new line.RML10032038 bus1=BBT1767178.1.2.0,bus2=RML1060032038.1.2.0,Phases=2,Linecode=CABBTG05_4_2,Length=0.017000000,Units=km
new line.RML10032040 bus1=BBT1767143.1.2.0,bus2=RML1060032040.1.2.0,Phases=2,Linecode=CABBTG05_4_2,Length=0.017000000,Units=km
new line.RML10032041 bus1=BBT1767143.1.2.0,bus2=RML1060032041.1.2.0,Phases=2,Linecode=CABBTG05_4_2,Length=0.017000000,Units=km
new line.RML10032043 bus1=BBT1767136.1.2.0,bus2=RML1060032043.1.2.0,Phases=2,Linecode=CABBTG05_4_2,Length=0.017000000,Units=km
new line.RML10032045 bus1=BBT1508486.1.2.0,bus2=RML1060032045.1.2.0,Phases=2,Linecode=CABBTG05_4_2,Length=0.017000000,Units=km
new line.RML10032048 bus1=BBT1767087.1.2.0,bus2=RML1060032048.1.2.0,Phases=2,Linecode=CABBTG05_4_2,Length=0.017000000,Units=km
new line.RML10032061 bus1=BBT1696380.1.2.0,bus2=RML1060032061.1.2.0,Phases=2,Linecode=CABBTG05_4_2,Length=0.017000000,Units=km
new line.RML10032069 bus1=BBT1507975.1.2.0,bus2=RML1060032069.1.2.0,Phases=2,Linecode=CABBTG05_4_2,Length=0.017000000,Units=km
new line.RML10032074 bus1=BBT1766982.1.2.0,bus2=RML1060032074.1.2.0,Phases=2,Linecode=CABBTG05_4_2,Length=0.017000000,Units=km
new line.RML10032080 bus1=BBT1766989.1.2.0,bus2=RML1060032080.1.2.0,Phases=2,Linecode=CABBTG05_4_2,Length=0.017000000,Units=km
new line.RML10032083 bus1=BBT1766989.1.2.0,bus2=RML1060032083.1.2.0,Phases=2,Linecode=CABBTG05_4_2,Length=0.017000000,Units=km
new line.RML10032085 bus1=BBT2676065.1.2.0,bus2=RML1060032085.1.2.0,Phases=2,Linecode=CABBTG05_4_2,Length=0.017000000,Units=km
new line.RML10032087 bus1=BBT1766751.1.2.0,bus2=RML1060032087.1.2.0,Phases=2,Linecode=CABBTG05_4_2,Length=0.017000000,Units=km
new line.RML10032088 bus1=BBT1766730.1.2.0,bus2=RML1060032088.1.2.0,Phases=2,Linecode=CABBTG05_4_2,Length=0.017000000,Units=km
new line.RML10032102 bus1=BBT1766695.1.2.0,bus2=RML1060032102.1.2.0,Phases=2,Linecode=CABBTG05_4_2,Length=0.017000000,Units=km
new line.RML10032117 bus1=BBT3987109.1.2.0,bus2=RML1060032117.1.2.0,Phases=2,Linecode=CABBTG05_4_2,Length=0.017000000,Units=km
new line.RML10032122 bus1=BBT3987109.2.0,bus2=RML1060032122.2.0,Phases=1,Linecode=CABBTG02_4_1,Length=0.017000000,Units=km
new line.RML10032124 bus1=BBT1766828.2.0,bus2=RML1060032124.2.0,Phases=1,Linecode=CABBTG02_4_1,Length=0.017000000,Units=km
new line.RML10032125 bus1=BBT102745619.2.0,bus2=RML1060032125.2.0,Phases=1,Linecode=CABBTG02_4_1,Length=0.017000000,Units=km
new line.RML10032129 bus1=BBT4299974.1.2.0,bus2=RML1060032129.1.2.0,Phases=2,Linecode=CABBTG05_4_2,Length=0.017000000,Units=km
new line.RML10032131 bus1=BBT5421857.1.2.0,bus2=RML1060032131.1.2.0,Phases=2,Linecode=CABBTG05_4_2,Length=0.017000000,Units=km
new line.RML10032137 bus1=BBT1766814.1.2.0,bus2=RML1060032137.1.2.0,Phases=2,Linecode=CABBTG05_4_2,Length=0.017000000,Units=km
new line.RML10032138 bus1=BBT1766870.2.3.0,bus2=RML1060032138.2.3.0,Phases=2,Linecode=CABBTG05_4_2,Length=0.010000000,Units=km
new line.RML10032140 bus1=BBT5421843.1.2.0,bus2=RML1060032140.1.2.0,Phases=2,Linecode=CABBTG05_4_2,Length=0.017000000,Units=km
new line.RML10032143 bus1=BBT5421843.1.2.0,bus2=RML1060032143.1.2.0,Phases=2,Linecode=CABBTG05_4_2,Length=0.017000000,Units=km
new line.RML10032144 bus1=BBT1766653.1.2.0,bus2=RML1060032144.1.2.0,Phases=2,Linecode=CABBTG05_4_2,Length=0.017000000,Units=km
new line.RML10032145 bus1=BBT5421843.1.2.0,bus2=RML1060032145.1.2.0,Phases=2,Linecode=CABBTG05_4_2,Length=0.017000000,Units=km
new line.RML10032147 bus1=BBT93002977.1.2.0,bus2=RML1060032147.1.2.0,Phases=2,Linecode=CABBTG05_4_2,Length=0.017000000,Units=km
new line.RML10032148 bus1=BBT2995944.1.2.0,bus2=RML1060032148.1.2.0,Phases=2,Linecode=CABBTG05_4_2,Length=0.017000000,Units=km
new line.RML10032151 bus1=BBT2936045.1.2.0,bus2=RML1060032151.1.2.0,Phases=2,Linecode=CABBTG05_4_2,Length=0.017000000,Units=km
new line.RML10032152 bus1=BBT1766639.1.2.0,bus2=RML1060032152.1.2.0,Phases=2,Linecode=CABBTG05_4_2,Length=0.017000000,Units=km
new line.RML10032153 bus1=BBT2995832.1.2.0,bus2=RML1060032153.1.2.0,Phases=2,Linecode=CABBTG05_4_2,Length=0.017000000,Units=km
new line.RML10032155 bus1=BBT1766660.1.2.0,bus2=RML1060032155.1.2.0,Phases=2,Linecode=CABBTG05_4_2,Length=0.017000000,Units=km
new line.RML10032156 bus1=BBT2936052.1.2.0,bus2=RML1060032156.1.2.0,Phases=2,Linecode=CABBTG05_4_2,Length=0.017000000,Units=km
new line.RML10032158 bus1=BBT1766660.1.2.0,bus2=RML1060032158.1.2.0,Phases=2,Linecode=CABBTG05_4_2,Length=0.017000000,Units=km
new line.RML10032160 bus1=BBT2995937.1.2.0,bus2=RML1060032160.1.2.0,Phases=2,Linecode=CABBTG05_4_2,Length=0.017000000,Units=km
new line.RML10032162 bus1=BBT1766534.1.2.0,bus2=RML1060032162.1.2.0,Phases=2,Linecode=CABBTG05_4_2,Length=0.017000000,Units=km
new line.RML10032163 bus1=BBT1766604.1.2.0,bus2=RML1060032163.1.2.0,Phases=2,Linecode=CABBTG05_4_2,Length=0.017000000,Units=km
new line.RML10032165 bus1=BBT1766632.1.2.0,bus2=RML1060032165.1.2.0,Phases=2,Linecode=CABBTG05_4_2,Length=0.017000000,Units=km
new line.RML10032166 bus1=BBT1766604.1.2.0,bus2=RML1060032166.1.2.0,Phases=2,Linecode=CABBTG05_4_2,Length=0.017000000,Units=km
new line.RML10032169 bus1=BBT1766527.1.2.0,bus2=RML1060032169.1.2.0,Phases=2,Linecode=CABBTG05_4_2,Length=0.017000000,Units=km
new line.RML10032170 bus1=BBT2996000.1.2.0,bus2=RML1060032170.1.2.0,Phases=2,Linecode=CABBTG05_4_2,Length=0.017000000,Units=km
new line.RML10032172 bus1=BBT2995986.1.2.0,bus2=RML1060032172.1.2.0,Phases=2,Linecode=CABBTG05_4_2,Length=0.017000000,Units=km
new line.RML10032173 bus1=BBT2995986.1.2.0,bus2=RML1060032173.1.2.0,Phases=2,Linecode=CABBTG05_4_2,Length=0.017000000,Units=km
new line.RML10032174 bus1=BBT1766513.1.2.0,bus2=RML1060032174.1.2.0,Phases=2,Linecode=CABBTG05_4_2,Length=0.017000000,Units=km
new line.RML10032178 bus1=BBT2995909.1.2.0,bus2=RML1060032178.1.2.0,Phases=2,Linecode=CABBTG05_4_2,Length=0.017000000,Units=km
new line.RML10032180 bus1=BBT2995902.1.2.0,bus2=RML1060032180.1.2.0,Phases=2,Linecode=CABBTG05_4_2,Length=0.017000000,Units=km
new line.RML10032181 bus1=BBT2995902.1.2.0,bus2=RML1060032181.1.2.0,Phases=2,Linecode=CABBTG05_4_2,Length=0.017000000,Units=km
new line.RML10032183 bus1=BBT1766583.1.2.0,bus2=RML1060032183.1.2.0,Phases=2,Linecode=CABBTG05_4_2,Length=0.017000000,Units=km
new line.RML10032239 bus1=BBT1766492.1.2.0,bus2=RML1060032239.1.2.0,Phases=2,Linecode=CABBTG05_4_2,Length=0.017000000,Units=km
new line.RML10032240 bus1=BBT1729490.1.2.0,bus2=RML1060032240.1.2.0,Phases=2,Linecode=CABBTG05_4_2,Length=0.017000000,Units=km
new line.RML10032243 bus1=BBT1766548.1.2.0,bus2=RML1060032243.1.2.0,Phases=2,Linecode=CABBTG05_4_2,Length=0.017000000,Units=km
new line.RML10032244 bus1=BBT1766555.1.2.0,bus2=RML1060032244.1.2.0,Phases=2,Linecode=CABBTG05_4_2,Length=0.017000000,Units=km
new line.RML10032245 bus1=BBT1766569.1.2.0,bus2=RML1060032245.1.2.0,Phases=2,Linecode=CABBTG05_4_2,Length=0.017000000,Units=km
new line.RML10032249 bus1=BBT1509564.1.2.0,bus2=RML1060032249.1.2.0,Phases=2,Linecode=CABBTG05_4_2,Length=0.017000000,Units=km
new line.RML10032250 bus1=BBT4526067.1.2.0,bus2=RML1060032250.1.2.0,Phases=2,Linecode=CABBTG05_4_2,Length=0.017000000,Units=km
new line.RML10032253 bus1=BBT4526067.1.2.0,bus2=RML1060032253.1.2.0,Phases=2,Linecode=CABBTG05_4_2,Length=0.017000000,Units=km
new line.RML10032255 bus1=BBT4526067.1.2.0,bus2=RML1060032255.1.2.0,Phases=2,Linecode=CABBTG05_4_2,Length=0.017000000,Units=km
new line.RML10032258 bus1=BBT1506799.1.2.0,bus2=RML1060032258.1.2.0,Phases=2,Linecode=CABBTG05_4_2,Length=0.017000000,Units=km
new line.RML10032259 bus1=BBT1506799.1.2.0,bus2=RML1060032259.1.2.0,Phases=2,Linecode=CABBTG05_4_2,Length=0.017000000,Units=km
new line.RML10032262 bus1=BBT1506841.1.2.0,bus2=RML1060032262.1.2.0,Phases=2,Linecode=CABBTG05_4_2,Length=0.017000000,Units=km
new line.RML10032264 bus1=BBT1506841.1.2.0,bus2=RML1060032264.1.2.0,Phases=2,Linecode=CABBTG05_4_2,Length=0.017000000,Units=km
new line.RML10032266 bus1=BBT1508500.1.2.0,bus2=RML1060032266.1.2.0,Phases=2,Linecode=CABBTG05_4_2,Length=0.017000000,Units=km
new line.RML10032268 bus1=BBT2703176.1.2.0,bus2=RML1060032268.1.2.0,Phases=2,Linecode=CABBTG05_4_2,Length=0.017000000,Units=km
new line.RML10032271 bus1=BBT2856749.1.2.0,bus2=RML1060032271.1.2.0,Phases=2,Linecode=CABBTG05_4_2,Length=0.017000000,Units=km
new line.RML10032272 bus1=BBT1524348.1.2.0,bus2=RML1060032272.1.2.0,Phases=2,Linecode=CABBTG05_4_2,Length=0.017000000,Units=km
new line.RML10032274 bus1=BBT1509123.1.2.0,bus2=RML1060032274.1.2.0,Phases=2,Linecode=CABBTG05_4_2,Length=0.017000000,Units=km
new line.RML10032275 bus1=BBT2816933.1.2.0,bus2=RML1060032275.1.2.0,Phases=2,Linecode=CABBTG05_4_2,Length=0.017000000,Units=km
new line.RML10032276 bus1=BBT2999171.1.2.0,bus2=RML1060032276.1.2.0,Phases=2,Linecode=CABBTG05_4_2,Length=0.017000000,Units=km
new line.RML10032278 bus1=BBT88791322.1.2.0,bus2=RML1060032278.1.2.0,Phases=2,Linecode=CABBTG05_4_2,Length=0.017000000,Units=km
new line.RML10032279 bus1=BBT1524488.1.2.0,bus2=RML1060032279.1.2.0,Phases=2,Linecode=CABBTG05_4_2,Length=0.017000000,Units=km
new line.RML10032283 bus1=BBT1524544.1.2.0,bus2=RML1060032283.1.2.0,Phases=2,Linecode=CABBTG05_4_2,Length=0.017000000,Units=km
new line.RML10032285 bus1=BBT1524670.1.2.0,bus2=RML1060032285.1.2.0,Phases=2,Linecode=CABBTG05_4_2,Length=0.017000000,Units=km
new line.RML10032287 bus1=BBT1525048.1.2.0,bus2=RML1060032287.1.2.0,Phases=2,Linecode=CABBTG05_4_2,Length=0.017000000,Units=km
new line.RML10032297 bus1=BBT1507457.1.2.0,bus2=RML1060032297.1.2.0,Phases=2,Linecode=CABBTG05_4_2,Length=0.017000000,Units=km
new line.RML10032607 bus1=BBT2882817.1.2.3.0,bus2=RML1060032607.1.2.3.0,Phases=3,Linecode=CABBTG06_4_3,Length=0.017000000,Units=km
new line.RML10032608 bus1=BBT1731828.1.2.0,bus2=RML1060032608.1.2.0,Phases=2,Linecode=CABBTG05_4_2,Length=0.017000000,Units=km
new line.RML10032609 bus1=BBT5270125.1.2.0,bus2=RML1060032609.1.2.0,Phases=2,Linecode=CABBTG05_4_2,Length=0.017000000,Units=km
new line.RML10032610 bus1=BBT1508612.1.2.0,bus2=RML1060032610.1.2.0,Phases=2,Linecode=CABBTG05_4_2,Length=0.017000000,Units=km
new line.RML10032611 bus1=BBT2622781.1.2.0,bus2=RML1060032611.1.2.0,Phases=2,Linecode=CABBTG05_4_2,Length=0.017000000,Units=km
new line.RML10032612 bus1=BBT2622781.1.2.0,bus2=RML1060032612.1.2.0,Phases=2,Linecode=CABBTG05_4_2,Length=0.017000000,Units=km
new line.RML10032613 bus1=BBT2622781.1.2.0,bus2=RML1060032613.1.2.0,Phases=2,Linecode=CABBTG05_4_2,Length=0.017000000,Units=km
new line.RML10032614 bus1=BBT4471201.1.2.0,bus2=RML1060032614.1.2.0,Phases=2,Linecode=CABBTG05_4_2,Length=0.017000000,Units=km
new line.RML10032615 bus1=BBT134722347.1.2.0,bus2=RML1060032615.1.2.0,Phases=2,Linecode=CABBTG05_4_2,Length=0.017000000,Units=km
new line.RML10032616 bus1=BBT134722347.1.2.0,bus2=RML1060032616.1.2.0,Phases=2,Linecode=CABBTG05_4_2,Length=0.017000000,Units=km
new line.RML10032649 bus1=BBT9596391.1.2.0,bus2=RML1060032649.1.2.0,Phases=2,Linecode=CABBTG05_4_2,Length=0.017000000,Units=km
new line.RML10032664 bus1=BBT9595103.1.2.0,bus2=RML1060032664.1.2.0,Phases=2,Linecode=CABBTG05_4_2,Length=0.017000000,Units=km
new line.RML10032665 bus1=BBT104967986.1.2.3.0,bus2=RML1060032665.1.2.3.0,Phases=3,Linecode=CABBTG06_4_3,Length=0.017000000,Units=km
new line.RML10032671 bus1=BBT4299512.1.2.3.0,bus2=RML1060032671.1.2.3.0,Phases=3,Linecode=CABBTG06_4_3,Length=0.017000000,Units=km
new line.RML10032673 bus1=BBT104596923.1.2.0,bus2=RML1060032673.1.2.0,Phases=2,Linecode=CABBTG05_4_2,Length=0.017000000,Units=km
new line.RML10032676 bus1=BBT2681756.1.2.0,bus2=RML1060032676.1.2.0,Phases=2,Linecode=CABBTG05_4_2,Length=0.017000000,Units=km
new line.RML10032679 bus1=BBT1525146.1.2.0,bus2=RML1060032679.1.2.0,Phases=2,Linecode=CABBTG05_4_2,Length=0.017000000,Units=km
new line.RML10106799 bus1=BBT147283994.1.3.0,bus2=RML1060106799.1.3.0,Phases=2,Linecode=CABBTG05_4_2,Length=0.017000000,Units=km
new line.RML10106803 bus1=BBT1769068.1.2.0,bus2=RML1060106803.1.2.0,Phases=2,Linecode=CABBTG05_4_2,Length=0.017000000,Units=km
new line.RML10107108 bus1=BBT1769068.1.3.0,bus2=RML1060107108.1.3.0,Phases=2,Linecode=CABBT811_4_2,Length=0.017000000,Units=km
new line.RML10107175 bus1=BBT147280921.1.2.0,bus2=RML1060107175.1.2.0,Phases=2,Linecode=CABBT811_4_2,Length=0.017000000,Units=km
new line.RML10107195 bus1=BBT147282517.1.3.0,bus2=RML1060107195.1.3.0,Phases=2,Linecode=CABBT811_4_2,Length=0.017000000,Units=km
new line.RML10107543 bus1=BBT1517761.3.0,bus2=RML1060107543.3.0,Phases=1,Linecode=CABBTG02_4_1,Length=0.017000000,Units=km
new line.RML10107550 bus1=BBT1519378.1.3.0,bus2=RML1060107550.1.3.0,Phases=2,Linecode=CABBTG05_4_2,Length=0.017000000,Units=km
new line.RML10107572 bus1=BBT1517565.1.3.0,bus2=RML1060107572.1.3.0,Phases=2,Linecode=CABBTG04_4_2,Length=0.017000000,Units=km
new line.RML10107578 bus1=BBT1517558.1.2.0,bus2=RML1060107578.1.2.0,Phases=2,Linecode=CABBTG05_4_2,Length=0.017000000,Units=km
new line.RML10107583 bus1=BBT1517740.1.2.0,bus2=RML1060107583.1.2.0,Phases=2,Linecode=CABBTG04_4_2,Length=0.017000000,Units=km
new line.RML10107588 bus1=BBT1516921.1.2.0,bus2=RML1060107588.1.2.0,Phases=2,Linecode=CABBTG05_4_2,Length=0.017000000,Units=km
new line.RML10107590 bus1=BBT1769376.3.0,bus2=RML1060107590.3.0,Phases=1,Linecode=CABBTG02_4_1,Length=0.017000000,Units=km
new line.RML10107594 bus1=BBT1517936.3.0,bus2=RML1060107594.3.0,Phases=1,Linecode=CABBTG02_4_1,Length=0.017000000,Units=km
new line.RML10107598 bus1=BBT1517936.3.0,bus2=RML1060107598.3.0,Phases=1,Linecode=CABBTG02_4_1,Length=0.017000000,Units=km
new line.RML10107959 bus1=BBT147283595.1.3.0,bus2=RML1060107959.1.3.0,Phases=2,Linecode=CABBTG04_4_2,Length=0.017000000,Units=km
new line.RML10108112 bus1=BBT4540256.1.2.0,bus2=RML1060108112.1.2.0,Phases=2,Linecode=CABBTG04_4_2,Length=0.017000000,Units=km
new line.RML10108118 bus1=BBT1512490.1.2.3.0,bus2=RML1060108118.1.2.3.0,Phases=3,Linecode=CABBTG06_4_3,Length=0.017000000,Units=km
new line.RML10108139 bus1=BBT3067708.1.0,bus2=RML1060108139.1.0,Phases=1,Linecode=CABBTG02_4_1,Length=0.017000000,Units=km
new line.RML10108275 bus1=BBT2995853.1.2.0,bus2=RML1060108275.1.2.0,Phases=2,Linecode=CABBTG05_4_2,Length=0.017000000,Units=km
new line.RML10108285 bus1=BBT2995853.1.0,bus2=RML1060108285.1.0,Phases=1,Linecode=CABBTG02_4_1,Length=0.017000000,Units=km
new line.RML10108316 bus1=BBT147280921.2.0,bus2=RML1060108316.2.0,Phases=1,Linecode=CABBTG02_4_1,Length=0.017000000,Units=km
new line.RML10108454 bus1=BBT1523858.2.0,bus2=RML1060108454.2.0,Phases=1,Linecode=CABBTG01_4_1,Length=0.017000000,Units=km
new line.RML10108687 bus1=BBT147282664.1.0,bus2=RML1060108687.1.0,Phases=1,Linecode=CABBTG01_4_1,Length=0.017000000,Units=km
new line.RML10108888 bus1=BBT147282678.1.2.0,bus2=RML1060108888.1.2.0,Phases=2,Linecode=CABBTG05_4_2,Length=0.017000000,Units=km
new line.RML10108955 bus1=BBT1518615.1.0,bus2=RML1060108955.1.0,Phases=1,Linecode=CABBTG02_4_1,Length=0.017000000,Units=km
new line.RML10109049 bus1=BBT147281859.1.2.0,bus2=RML1060109049.1.2.0,Phases=2,Linecode=CABBTG04_4_2,Length=0.017000000,Units=km
new line.RML10109253 bus1=BBT147282524.2.0,bus2=RML1060109253.2.0,Phases=1,Linecode=CABBTG02_4_1,Length=0.017000000,Units=km
new line.RML10109254 bus1=BBT4883802.1.2.0,bus2=RML1060109254.1.2.0,Phases=2,Linecode=CABBTG05_4_2,Length=0.017000000,Units=km
new line.RML10109255 bus1=BBT4883935.2.3.0,bus2=RML1060109255.2.3.0,Phases=2,Linecode=CABBTG05_4_2,Length=0.017000000,Units=km
new line.RML10112624 bus1=BBT4540256.1.0,bus2=RML1060112624.1.0,Phases=1,Linecode=CABBTG02_4_1,Length=0.017000000,Units=km
new line.RML10113226 bus1=BBT1519371.1.0,bus2=RML1060113226.1.0,Phases=1,Linecode=CABBTG02_4_1,Length=0.017000000,Units=km
new line.RML10114262 bus1=BBT1522346.1.3.0,bus2=RML1060114262.1.3.0,Phases=2,Linecode=CABBTG05_4_2,Length=0.017000000,Units=km
new line.RML10168384 bus1=BBT2765042.2.0,bus2=RML1060168384.2.0,Phases=1,Linecode=CABBTG02_4_1,Length=0.017000000,Units=km
new line.RML10168846 bus1=BBT150041041.1.0,bus2=RML1060168846.1.0,Phases=1,Linecode=CABBTG02_4_1,Length=0.017000000,Units=km
new line.RML10169004 bus1=BBT1528303.1.2.3.0,bus2=RML1060169004.1.2.3.0,Phases=3,Linecode=CABBTG06_4_3,Length=0.017000000,Units=km
new line.RML10169010 bus1=BBT1529073.1.2.0,bus2=RML1060169010.1.2.0,Phases=2,Linecode=CABBTG05_4_2,Length=0.017000000,Units=km
new line.RML10169015 bus1=BBT3861032.1.0,bus2=RML1060169015.1.0,Phases=1,Linecode=CABBTG02_4_1,Length=0.017000000,Units=km
new line.RML10169023 bus1=BBT3861025.1.0,bus2=RML1060169023.1.0,Phases=1,Linecode=CABBTG02_4_1,Length=0.017000000,Units=km
new line.RML10169033 bus1=BBT3861025.1.2.0,bus2=RML1060169033.1.2.0,Phases=2,Linecode=CABBTG05_4_2,Length=0.017000000,Units=km
new line.RML10169037 bus1=BBT4192622.1.2.0,bus2=RML1060169037.1.2.0,Phases=2,Linecode=CABBTG05_4_2,Length=0.017000000,Units=km
new line.RML10169039 bus1=BBT3861032.1.0,bus2=RML1060169039.1.0,Phases=1,Linecode=CABBTG02_4_1,Length=0.017000000,Units=km
new line.RML10169043 bus1=BBT1528569.2.0,bus2=RML1060169043.2.0,Phases=1,Linecode=CABBTG02_4_1,Length=0.017000000,Units=km
new line.RML10169044 bus1=BBT1528569.2.0,bus2=RML1060169044.2.0,Phases=1,Linecode=CABBTG02_4_1,Length=0.017000000,Units=km
new line.RML10169047 bus1=BBT1528569.3.0,bus2=RML1060169047.3.0,Phases=1,Linecode=CABBTG02_4_1,Length=0.017000000,Units=km
new line.RML10169050 bus1=BBT1732976.1.0,bus2=RML1060169050.1.0,Phases=1,Linecode=CABBTG02_4_1,Length=0.017000000,Units=km
new line.RML10169065 bus1=BBT4540466.1.0,bus2=RML1060169065.1.0,Phases=1,Linecode=CABBTG02_4_1,Length=0.017000000,Units=km
new line.RML10169071 bus1=BBT4540466.2.0,bus2=RML1060169071.2.0,Phases=1,Linecode=CABBTG01_4_1,Length=0.017000000,Units=km
new line.RML10169073 bus1=BBT4883123.2.0,bus2=RML1060169073.2.0,Phases=1,Linecode=CABBTG02_4_1,Length=0.017000000,Units=km
new line.RML10169075 bus1=BBT4540452.2.0,bus2=RML1060169075.2.0,Phases=1,Linecode=CABBTG02_4_1,Length=0.017000000,Units=km
new line.RML10169079 bus1=BBT3861025.1.0,bus2=RML1060169079.1.0,Phases=1,Linecode=CABBTG02_4_1,Length=0.017000000,Units=km
new line.RML10169080 bus1=BBT4883109.1.2.3.0,bus2=RML1060169080.1.2.3.0,Phases=3,Linecode=CABBTG06_4_3,Length=0.017000000,Units=km
new line.RML10169089 bus1=BBT3861025.1.2.0,bus2=RML1060169089.1.2.0,Phases=2,Linecode=CABBTG05_4_2,Length=0.017000000,Units=km
new line.RML10169090 bus1=BBT1527729.2.3.0,bus2=RML1060169090.2.3.0,Phases=2,Linecode=CABBTG05_4_2,Length=0.017000000,Units=km
new line.RML10169096 bus1=BBT1529087.1.2.0,bus2=RML1060169096.1.2.0,Phases=2,Linecode=CABBTG05_4_2,Length=0.017000000,Units=km
new line.RML10169099 bus1=BBT4483045.2.3.0,bus2=RML1060169099.2.3.0,Phases=2,Linecode=CABBTG05_4_2,Length=0.017000000,Units=km
new line.RML10169102 bus1=BBT4540480.1.2.0,bus2=RML1060169102.1.2.0,Phases=2,Linecode=CABBTG05_4_2,Length=0.017000000,Units=km
new line.RML10169105 bus1=BBT4540466.2.0,bus2=RML1060169105.2.0,Phases=1,Linecode=CABBTG02_4_1,Length=0.017000000,Units=km
new line.RML10169109 bus1=BBT4540508.1.0,bus2=RML1060169109.1.0,Phases=1,Linecode=CABBTG02_4_1,Length=0.017000000,Units=km
new line.RML10169111 bus1=BBT4540515.1.2.0,bus2=RML1060169111.1.2.0,Phases=2,Linecode=CABBTG05_4_2,Length=0.017000000,Units=km
new line.RML10169113 bus1=BBT4540480.1.0,bus2=RML1060169113.1.0,Phases=1,Linecode=CABBTG02_4_1,Length=0.017000000,Units=km
new line.RML10169119 bus1=BBT4540480.2.0,bus2=RML1060169119.2.0,Phases=1,Linecode=CABBTG02_4_1,Length=0.017000000,Units=km
new line.RML10169123 bus1=BBT4540501.1.0,bus2=RML1060169123.1.0,Phases=1,Linecode=CABBTG01_4_1,Length=0.017000000,Units=km
new line.RML10169128 bus1=BBT4540501.2.0,bus2=RML1060169128.2.0,Phases=1,Linecode=CABBTG02_4_1,Length=0.017000000,Units=km
new line.RML10169134 bus1=BBT4540508.1.0,bus2=RML1060169134.1.0,Phases=1,Linecode=CABBTG02_4_1,Length=0.017000000,Units=km
new line.RML10169140 bus1=BBT4540501.2.0,bus2=RML1060169140.2.0,Phases=1,Linecode=CABBTG02_4_1,Length=0.017000000,Units=km
new line.RML10169145 bus1=BBT4540263.2.0,bus2=RML1060169145.2.0,Phases=1,Linecode=CABBTG02_4_1,Length=0.017000000,Units=km
new line.RML10169150 bus1=BBT4540508.2.0,bus2=RML1060169150.2.0,Phases=1,Linecode=CABBTG02_4_1,Length=0.017000000,Units=km
new line.RML10169154 bus1=BBT4540459.2.0,bus2=RML1060169154.2.0,Phases=1,Linecode=CABBTG02_4_1,Length=0.017000000,Units=km
new line.RML10169158 bus1=BBT4540508.1.0,bus2=RML1060169158.1.0,Phases=1,Linecode=CABBTG02_4_1,Length=0.017000000,Units=km
new line.RML10169161 bus1=BBT4540515.1.0,bus2=RML1060169161.1.0,Phases=1,Linecode=CABBTG02_4_1,Length=0.017000000,Units=km
new line.RML10169181 bus1=BBT4540298.1.0,bus2=RML1060169181.1.0,Phases=1,Linecode=CABBTG02_4_1,Length=0.017000000,Units=km
new line.RML10169187 bus1=BBT4540263.1.0,bus2=RML1060169187.1.0,Phases=1,Linecode=CABBTG02_4_1,Length=0.017000000,Units=km
new line.RML10169194 bus1=BBT4540508.1.0,bus2=RML1060169194.1.0,Phases=1,Linecode=CABBTG02_4_1,Length=0.017000000,Units=km
new line.RML10169199 bus1=BBT4540515.1.0,bus2=RML1060169199.1.0,Phases=1,Linecode=CABBTG02_4_1,Length=0.017000000,Units=km
new line.RML10169206 bus1=BBT4540501.1.0,bus2=RML1060169206.1.0,Phases=1,Linecode=CABBTG02_4_1,Length=0.017000000,Units=km
new line.RML10169210 bus1=BBT4540508.2.0,bus2=RML1060169210.2.0,Phases=1,Linecode=CABBTG02_4_1,Length=0.017000000,Units=km
new line.RML10169213 bus1=BBT4540501.2.0,bus2=RML1060169213.2.0,Phases=1,Linecode=CABBTG02_4_1,Length=0.017000000,Units=km
new line.RML10169217 bus1=BBT4540501.2.0,bus2=RML1060169217.2.0,Phases=1,Linecode=CABBTG02_4_1,Length=0.017000000,Units=km
new line.RML10169223 bus1=BBT4540256.1.0,bus2=RML1060169223.1.0,Phases=1,Linecode=CABBTG02_4_1,Length=0.017000000,Units=km
new line.RML10169227 bus1=BBT3143952.1.2.0,bus2=RML1060169227.1.2.0,Phases=2,Linecode=CABBTG05_4_2,Length=0.017000000,Units=km
new line.RML10169230 bus1=BBT4540263.1.0,bus2=RML1060169230.1.0,Phases=1,Linecode=CABBTG02_4_1,Length=0.017000000,Units=km
new line.RML10169232 bus1=BBT4540298.1.0,bus2=RML1060169232.1.0,Phases=1,Linecode=CABBTG02_4_1,Length=0.017000000,Units=km
new line.RML10169233 bus1=BBT4883144.2.0,bus2=RML1060169233.2.0,Phases=1,Linecode=CABBTG02_4_1,Length=0.017000000,Units=km
new line.RML10169238 bus1=BBT4540487.1.0,bus2=RML1060169238.1.0,Phases=1,Linecode=CABBTG02_4_1,Length=0.017000000,Units=km
new line.RML10169240 bus1=BBT1528009.2.3.0,bus2=RML1060169240.2.3.0,Phases=2,Linecode=CABBTG05_4_2,Length=0.017000000,Units=km
new line.RML10169245 bus1=BBT149311209.1.3.0,bus2=RML1060169245.1.3.0,Phases=2,Linecode=CABBTG05_4_2,Length=0.017000000,Units=km
new line.RML10169259 bus1=BBT4883116.1.3.0,bus2=RML1060169259.1.3.0,Phases=2,Linecode=CABBTG05_4_2,Length=0.017000000,Units=km
new line.RML10212013 bus1=BBT1755257.2.3.0,bus2=RML1060212013.2.3.0,Phases=2,Linecode=CABBTG05_4_2,Length=0.017000000,Units=km
new line.RML10212016 bus1=BBT2626799.1.3.0,bus2=RML1060212016.1.3.0,Phases=2,Linecode=CABBTG05_4_2,Length=0.017000000,Units=km
new line.RML10212024 bus1=BBT4883774.1.2.0,bus2=RML1060212024.1.2.0,Phases=2,Linecode=CABBTG05_4_2,Length=0.017000000,Units=km
new line.RML10212027 bus1=BBT4883802.2.3.0,bus2=RML1060212027.2.3.0,Phases=2,Linecode=CABBTG05_4_2,Length=0.017000000,Units=km
new line.RML10212030 bus1=BBT4883865.2.3.0,bus2=RML1060212030.2.3.0,Phases=2,Linecode=CABBTG05_4_2,Length=0.017000000,Units=km
new line.RML10212035 bus1=BBT2929836.1.2.0,bus2=RML1060212035.1.2.0,Phases=2,Linecode=CABBTG05_4_2,Length=0.017000000,Units=km
new line.RML10212038 bus1=BBT1516424.2.3.0,bus2=RML1060212038.2.3.0,Phases=2,Linecode=CABBTG04_4_2,Length=0.017000000,Units=km
new line.RML10212043 bus1=BBT2618336.1.2.0,bus2=RML1060212043.1.2.0,Phases=2,Linecode=CABBTG05_4_2,Length=0.017000000,Units=km
new line.RML10212047 bus1=BBT4883928.1.2.0,bus2=RML1060212047.1.2.0,Phases=2,Linecode=CABBTG05_4_2,Length=0.017000000,Units=km
new line.RML10212050 bus1=BBT1509879.1.2.0,bus2=RML1060212050.1.2.0,Phases=2,Linecode=CABBTG04_4_2,Length=0.017000000,Units=km
new line.RML10212054 bus1=BBT1783733.2.3.0,bus2=RML1060212054.2.3.0,Phases=2,Linecode=CABBTG05_4_2,Length=0.017000000,Units=km
new line.RML10212057 bus1=BBT4883690.1.2.0,bus2=RML1060212057.1.2.0,Phases=2,Linecode=CABBTG05_4_2,Length=0.017000000,Units=km
new line.RML10212063 bus1=BBT3067316.2.0,bus2=RML1060212063.2.0,Phases=1,Linecode=CABBTG02_4_1,Length=0.017000000,Units=km
new line.RML10212067 bus1=BBT4883809.1.2.0,bus2=RML1060212067.1.2.0,Phases=2,Linecode=CABBTG05_4_2,Length=0.017000000,Units=km
new line.RML10212069 bus1=BBT1523844.2.0,bus2=RML1060212069.2.0,Phases=1,Linecode=CABBTG01_4_1,Length=0.017000000,Units=km
new line.RML10212073 bus1=BBT1516795.2.3.0,bus2=RML1060212073.2.3.0,Phases=2,Linecode=CABBTG05_4_2,Length=0.017000000,Units=km
new line.RML10212075 bus1=BBT1517012.1.3.0,bus2=RML1060212075.1.3.0,Phases=2,Linecode=CABBTG05_4_2,Length=0.017000000,Units=km
new line.RML10212078 bus1=BBT1517012.1.3.0,bus2=RML1060212078.1.3.0,Phases=2,Linecode=CABBTG05_4_2,Length=0.017000000,Units=km
new line.RML10212080 bus1=BBT4883515.1.2.0,bus2=RML1060212080.1.2.0,Phases=2,Linecode=CABBTG05_4_2,Length=0.017000000,Units=km
new line.RML10212082 bus1=BBT1509319.1.2.0,bus2=RML1060212082.1.2.0,Phases=2,Linecode=CABBTG05_4_2,Length=0.017000000,Units=km
new line.RML10212085 bus1=BBT1520869.1.3.0,bus2=RML1060212085.1.3.0,Phases=2,Linecode=CABBTG05_4_2,Length=0.017000000,Units=km
new line.RML10212087 bus1=BBT1697815.1.2.0,bus2=RML1060212087.1.2.0,Phases=2,Linecode=CABBTG05_4_2,Length=0.017000000,Units=km
new line.RML10212089 bus1=BBT1521730.1.2.0,bus2=RML1060212089.1.2.0,Phases=2,Linecode=CABBTG05_4_2,Length=0.017000000,Units=km
new line.RML10212091 bus1=BBT1510551.1.3.0,bus2=RML1060212091.1.3.0,Phases=2,Linecode=CABBTG05_4_2,Length=0.017000000,Units=km
new line.RML10212508 bus1=BBT1521625.2.0,bus2=RML1060212508.2.0,Phases=1,Linecode=CABBTG02_4_1,Length=0.017000000,Units=km
new line.RML10212986 bus1=BBT4883865.1.2.0,bus2=RML1060212986.1.2.0,Phases=2,Linecode=CABBTG13_4_2,Length=0.017000000,Units=km
new line.RML10213037 bus1=BBT1526154.1.0,bus2=RML1060213037.1.0,Phases=1,Linecode=CABBTG02_4_1,Length=0.017000000,Units=km
new line.RML10213042 bus1=BBT1508304.3.0,bus2=RML1060213042.3.0,Phases=1,Linecode=CABBTG02_4_1,Length=0.017000000,Units=km
new line.RML10213065 bus1=BBT146495633.1.2.0,bus2=RML1060213065.1.2.0,Phases=2,Linecode=CABBTG05_4_2,Length=0.017000000,Units=km
new line.RML10213183 bus1=BBT1513022.1.2.0,bus2=RML1060213183.1.2.0,Phases=2,Linecode=CABBTG13_4_2,Length=0.017000000,Units=km
new line.RML10215924 bus1=BBT1513162.1.2.0,bus2=RML1060215924.1.2.0,Phases=2,Linecode=CABBTG13_4_2,Length=0.017000000,Units=km
new line.RML10215931 bus1=BBT147283616.1.2.0,bus2=RML1060215931.1.2.0,Phases=2,Linecode=CABBTG05_4_2,Length=0.017000000,Units=km
new line.RML10044544 bus1=BBT4883823.1.2.0,bus2=RML1060044544.1.2.0,Phases=2,Linecode=CABBTG04_4_2,Length=0.017000000,Units=km
new line.RML10044546 bus1=BBT4883823.1.2.0,bus2=RML1060044546.1.2.0,Phases=2,Linecode=CABBTG04_4_2,Length=0.017000000,Units=km
new line.RML10044550 bus1=BBT4883816.1.2.0,bus2=RML1060044550.1.2.0,Phases=2,Linecode=CABBTG04_4_2,Length=0.017000000,Units=km
new line.RML10044553 bus1=BBT4883816.1.2.0,bus2=RML1060044553.1.2.0,Phases=2,Linecode=CABBTG04_4_2,Length=0.017000000,Units=km
new line.RML10044555 bus1=BBT4883823.1.2.0,bus2=RML1060044555.1.2.0,Phases=2,Linecode=CABBTG04_4_2,Length=0.017000000,Units=km
new line.RML10044906 bus1=BBT2892953.1.2.0,bus2=RML1060044906.1.2.0,Phases=2,Linecode=CABBTG05_4_2,Length=0.017000000,Units=km
new line.RML10046415 bus1=BBT4540459.1.0,bus2=RML1060046415.1.0,Phases=1,Linecode=CABBTG01_4_1,Length=0.017000000,Units=km
new line.RML10046936 bus1=BBT3444980.1.2.0,bus2=RML1060046936.1.2.0,Phases=2,Linecode=CABBTG05_4_2,Length=0.017000000,Units=km
new line.RML10046937 bus1=BBT3444980.1.2.0,bus2=RML1060046937.1.2.0,Phases=2,Linecode=CABBTG05_4_2,Length=0.017000000,Units=km
new line.RML10046938 bus1=BBT3444931.1.2.0,bus2=RML1060046938.1.2.0,Phases=2,Linecode=CABBTG05_4_2,Length=0.017000000,Units=km
new line.RML10048381 bus1=BBT4540466.2.0,bus2=RML1060048381.2.0,Phases=1,Linecode=CABBTG02_4_1,Length=0.017000000,Units=km