new transformer.1040003 Phases=3,Windings=2,Buses=[BMT122546316.1.2.3 BBT104595327.1.2.3.0],Conns=[delta wye],kvs=[13.8 0.22],kvas=[45.000000000 45.000000000],Taps=[1,1.000000000],%loadloss=1.522000000,%noloadloss=0.377777000
new transformer.1056817 Phases=3,Windings=2,Buses=[BMT161681926.1.2.3 BBT137233247.1.2.3.0],Conns=[delta wye],kvs=[13.8 0.22],kvas=[45.000000000 45.000000000],Taps=[1,1.000000000],%loadloss=1.522000000,%noloadloss=0.377777000
new transformer.1056824 Phases=3,Windings=2,Buses=[BMT161681928.1.2.3 BBT137233842.1.2.3.0],Conns=[delta wye],kvs=[13.8 0.22],kvas=[45.000000000 45.000000000],Taps=[1,1.000000000],%loadloss=1.522000000,%noloadloss=0.377777000
new transformer.1056873 Phases=3,Windings=2,Buses=[BMT161681929.1.2.3 BBT137234612.1.2.3.0],Conns=[delta wye],kvs=[13.8 0.22],kvas=[45.000000000 45.000000000],Taps=[1,1.000000000],%loadloss=1.522000000,%noloadloss=0.377777000
new transformer.1106748 Phases=1,Windings=3,Buses=[BMT163150470.1 BBT143777015.1.0 BBT143777015.0.2],Conns=[wye wye wye],kvs=[7.967 0.12 0.12],kvas=[15.000000000 15.000000000 15.000000000],Taps=[1,1.000000000,1.000000000],%loadloss=1.600000000,%noloadloss=0.400000000
new transformer.1403179 Phases=1,Windings=3,Buses=[BMT151206256.1 BBT151198330.1.0 BBT151198330.0.2],Conns=[wye wye wye],kvs=[7.967 0.12 0.12],kvas=[10.000000000 10.000000000 10.000000000],Taps=[1,1.000000000,1.000000000],%loadloss=1.800000000,%noloadloss=0.450000000
new transformer.1408924 Phases=3,Windings=2,Buses=[BMT152592840.1.2.3 BBT152592817.1.2.3.0],Conns=[delta wye],kvs=[13.8 0.22],kvas=[45.000000000 45.000000000],Taps=[1,1.000000000],%loadloss=1.522000000,%noloadloss=0.377777000
new transformer.1414993 Phases=1,Windings=3,Buses=[BMT165891197.1 BBT153870390.1.0 BBT153870390.0.2],Conns=[wye wye wye],kvs=[7.967 0.12 0.12],kvas=[10.000000000 10.000000000 10.000000000],Taps=[1,1.000000000,1.000000000],%loadloss=1.800000000,%noloadloss=0.450000000
new transformer.1426969 Phases=1,Windings=3,Buses=[BMT170752428.3 BBT156564996.1.0 BBT156564996.0.2],Conns=[wye wye wye],kvs=[7.967 0.12 0.12],kvas=[35.000000000 35.000000000 35.000000000],Taps=[1,1.000000000,1.000000000],%loadloss=1.293000000,%noloadloss=0.342857000
new transformer.1426972 Phases=1,Windings=3,Buses=[BMT170752426.1 BBT156565938.1.0 BBT156565938.0.2],Conns=[wye wye wye],kvs=[7.967 0.12 0.12],kvas=[10.000000000 10.000000000 10.000000000],Taps=[1,1.000000000,1.000000000],%loadloss=1.800000000,%noloadloss=0.450000000
new transformer.1426975 Phases=3,Windings=2,Buses=[BMT170752411.1.2.3 BBT156566913.1.2.3.0],Conns=[delta wye],kvs=[13.8 0.22],kvas=[75.000000000 75.000000000],Taps=[1,1.000000000],%loadloss=1.340000000,%noloadloss=0.340000000
new transformer.1426979 Phases=3,Windings=2,Buses=[BMT170752413.1.2.3 BBT156567443.1.2.3.0],Conns=[delta wye],kvs=[13.8 0.22],kvas=[75.000000000 75.000000000],Taps=[1,1.000000000],%loadloss=1.340000000,%noloadloss=0.340000000
new transformer.1426982 Phases=3,Windings=2,Buses=[BMT170752417.1.2.3 BBT156568339.1.2.3.0],Conns=[delta wye],kvs=[13.8 0.22],kvas=[75.000000000 75.000000000],Taps=[1,1.000000000],%loadloss=1.340000000,%noloadloss=0.340000000
new transformer.1426986 Phases=3,Windings=2,Buses=[BMT170752013.1.2.3 BBT156569593.1.2.3.0],Conns=[delta wye],kvs=[13.8 0.22],kvas=[75.000000000 75.000000000],Taps=[1,1.000000000],%loadloss=1.340000000,%noloadloss=0.340000000
new transformer.1426987 Phases=3,Windings=2,Buses=[BMT170752420.1.2.3 BBT156569685.1.2.3.0],Conns=[delta wye],kvs=[13.8 0.22],kvas=[75.000000000 75.000000000],Taps=[1,1.000000000],%loadloss=1.340000000,%noloadloss=0.340000000
new transformer.1426991 Phases=3,Windings=2,Buses=[BMT170752015.1.2.3 BBT156570410.1.2.3.0],Conns=[delta wye],kvs=[13.8 0.22],kvas=[45.000000000 45.000000000],Taps=[1,1.000000000],%loadloss=1.522000000,%noloadloss=0.377777000
new transformer.1426992 Phases=3,Windings=2,Buses=[BMT170752016.1.2.3 BBT156570425.1.2.3.0],Conns=[delta wye],kvs=[13.8 0.22],kvas=[45.000000000 45.000000000],Taps=[1,1.000000000],%loadloss=1.522000000,%noloadloss=0.377777000
new transformer.1426998 Phases=3,Windings=2,Buses=[BMT170752418.1.2.3 BBT156571203.1.2.3.0],Conns=[delta wye],kvs=[13.8 0.22],kvas=[75.000000000 75.000000000],Taps=[1,1.000000000],%loadloss=1.340000000,%noloadloss=0.340000000
new transformer.1427000 Phases=3,Windings=2,Buses=[BMT170752415.1.2.3 BBT156571315.1.2.3.0],Conns=[delta wye],kvs=[13.8 0.22],kvas=[75.000000000 75.000000000],Taps=[1,1.000000000],%loadloss=1.340000000,%noloadloss=0.340000000
new transformer.1427006 Phases=3,Windings=2,Buses=[BMT170751410.1.2.3 BBT156573020.1.2.3.0],Conns=[delta wye],kvs=[13.8 0.22],kvas=[75.000000000 75.000000000],Taps=[1,1.000000000],%loadloss=1.340000000,%noloadloss=0.340000000
new transformer.1427009 Phases=3,Windings=2,Buses=[BMT170751411.1.2.3 BBT156573138.1.2.3.0],Conns=[delta wye],kvs=[13.8 0.22],kvas=[45.000000000 45.000000000],Taps=[1,1.000000000],%loadloss=1.522000000,%noloadloss=0.377777000
new transformer.1427101 Phases=1,Windings=3,Buses=[BMT159544333.2 BBT156595119.1.0 BBT156595119.0.2],Conns=[wye wye wye],kvs=[7.967 0.12 0.12],kvas=[15.000000000 15.000000000 15.000000000],Taps=[1,1.000000000,1.000000000],%loadloss=1.600000000,%noloadloss=0.400000000
new transformer.1427114 Phases=3,Windings=2,Buses=[BMT170772845.1.2.3 BBT156598338.1.2.3.0],Conns=[delta wye],kvs=[13.8 0.22],kvas=[45.000000000 45.000000000],Taps=[1,1.000000000],%loadloss=1.522000000,%noloadloss=0.377777000
new transformer.1427116 Phases=3,Windings=2,Buses=[BMT170772847.1.2.3 BBT156598369.1.2.3.0],Conns=[delta wye],kvs=[13.8 0.22],kvas=[45.000000000 45.000000000],Taps=[1,1.000000000],%loadloss=1.522000000,%noloadloss=0.377777000
new transformer.1427119 Phases=3,Windings=2,Buses=[BMT170772846.1.2.3 BBT156599490.1.2.3.0],Conns=[delta wye],kvs=[13.8 0.22],kvas=[45.000000000 45.000000000],Taps=[1,1.000000000],%loadloss=1.522000000,%noloadloss=0.377777000
new transformer.1427123 Phases=3,Windings=2,Buses=[BMT170772844.1.2.3 BBT156599986.1.2.3.0],Conns=[delta wye],kvs=[13.8 0.22],kvas=[45.000000000 45.000000000],Taps=[1,1.000000000],%loadloss=1.522000000,%noloadloss=0.377777000
new transformer.1427124 Phases=3,Windings=2,Buses=[BMT170772839.1.2.3 BBT156600387.1.2.3.0],Conns=[delta wye],kvs=[13.8 0.22],kvas=[45.000000000 45.000000000],Taps=[1,1.000000000],%loadloss=1.522000000,%noloadloss=0.377777000
new transformer.1427129 Phases=3,Windings=2,Buses=[BMT170772856.1.2.3 BBT156600789.1.2.3.0],Conns=[delta wye],kvs=[13.8 0.22],kvas=[45.000000000 45.000000000],Taps=[1,1.000000000],%loadloss=1.522000000,%noloadloss=0.377777000
new transformer.1432407 Phases=1,Windings=3,Buses=[BMT166573626.1 BBT157688660.1.0 BBT157688660.0.2],Conns=[wye wye wye],kvs=[7.967 0.12 0.12],kvas=[10.000000000 10.000000000 10.000000000],Taps=[1,1.000000000,1.000000000],%loadloss=1.800000000,%noloadloss=0.450000000
new transformer.1001125 Phases=3,Windings=2,Buses=[BMT128462611.1.2.3 BBT104967979.1.2.3.0],Conns=[delta wye],kvs=[13.8 0.22],kvas=[75.000000000 75.000000000],Taps=[1,1.000000000],%loadloss=1.340000000,%noloadloss=0.340000000
new transformer.1017414 Phases=1,Windings=3,Buses=[BMT155912662.2 BBT102408576.1.0 BBT102408576.0.2],Conns=[wye wye wye],kvs=[7.967 0.12 0.12],kvas=[5.000000000 5.000000000 5.000000000],Taps=[1,1.000000000,1.000000000],%loadloss=1.900000000,%noloadloss=0.600000000
new transformer.1034396 Phases=1,Windings=3,Buses=[BMT166218327.2 BBT100709795.1.0 BBT100709795.0.2],Conns=[wye wye wye],kvs=[7.967 0.12 0.12],kvas=[5.000000000 5.000000000 5.000000000],Taps=[1,1.000000000,1.000000000],%loadloss=1.900000000,%noloadloss=0.600000000
new transformer.1034522 Phases=1,Windings=3,Buses=[BMT165891196.1 BBT100793025.1.0 BBT100793025.0.2],Conns=[wye wye wye],kvs=[7.967 0.12 0.12],kvas=[5.000000000 5.000000000 5.000000000],Taps=[1,1.000000000,1.000000000],%loadloss=1.900000000,%noloadloss=0.600000000
new transformer.1034774 Phases=3,Windings=2,Buses=[BMT170775697.1.2.3 BBT146427418.1.2.3.0],Conns=[delta wye],kvs=[13.8 0.22],kvas=[45.000000000 45.000000000],Taps=[1,1.000000000],%loadloss=1.522000000,%noloadloss=0.377777000
new transformer.1034788 Phases=3,Windings=2,Buses=[BMT170775696.1.2.3 BBT146427530.1.2.3.0],Conns=[delta wye],kvs=[13.8 0.22],kvas=[45.000000000 45.000000000],Taps=[1,1.000000000],%loadloss=1.522000000,%noloadloss=0.377777000
new transformer.1034809 Phases=3,Windings=2,Buses=[BMT170775699.1.2.3 BBT146427957.1.2.3.0],Conns=[delta wye],kvs=[13.8 0.22],kvas=[45.000000000 45.000000000],Taps=[1,1.000000000],%loadloss=1.522000000,%noloadloss=0.377777000
new transformer.1034823 Phases=3,Windings=2,Buses=[BMT170775589.1.2.3 BBT146428454.1.2.3.0],Conns=[delta wye],kvs=[13.8 0.22],kvas=[45.000000000 45.000000000],Taps=[1,1.000000000],%loadloss=1.522000000,%noloadloss=0.377777000
new transformer.1034837 Phases=3,Windings=2,Buses=[BMT170775590.1.2.3 BBT146428734.1.2.3.0],Conns=[delta wye],kvs=[13.8 0.22],kvas=[45.000000000 45.000000000],Taps=[1,1.000000000],%loadloss=1.522000000,%noloadloss=0.377777000
new transformer.1034858 Phases=3,Windings=2,Buses=[BMT170775708.1.2.3 BBT146429378.1.2.3.0],Conns=[delta wye],kvs=[13.8 0.22],kvas=[45.000000000 45.000000000],Taps=[1,1.000000000],%loadloss=1.522000000,%noloadloss=0.377777000
new transformer.1034865 Phases=3,Windings=2,Buses=[BMT170775709.1.2.3 BBT146429658.1.2.3.0],Conns=[delta wye],kvs=[13.8 0.22],kvas=[45.000000000 45.000000000],Taps=[1,1.000000000],%loadloss=1.522000000,%noloadloss=0.377777000
new transformer.1034872 Phases=3,Windings=2,Buses=[BMT170775707.1.2.3 BBT146430015.1.2.3.0],Conns=[delta wye],kvs=[13.8 0.22],kvas=[45.000000000 45.000000000],Taps=[1,1.000000000],%loadloss=1.522000000,%noloadloss=0.377777000
new transformer.1034893 Phases=3,Windings=2,Buses=[BMT170775705.1.2.3 BBT146430386.1.2.3.0],Conns=[delta wye],kvs=[13.8 0.22],kvas=[45.000000000 45.000000000],Taps=[1,1.000000000],%loadloss=1.522000000,%noloadloss=0.377777000
new transformer.1034907 Phases=3,Windings=2,Buses=[BMT170775702.1.2.3 BBT146430883.1.2.3.0],Conns=[delta wye],kvs=[13.8 0.22],kvas=[45.000000000 45.000000000],Taps=[1,1.000000000],%loadloss=1.522000000,%noloadloss=0.377777000
new transformer.1035040 Phases=3,Windings=2,Buses=[BMT170775712.1.2.3 BBT146431191.1.2.3.0],Conns=[delta wye],kvs=[13.8 0.22],kvas=[45.000000000 45.000000000],Taps=[1,1.000000000],%loadloss=1.522000000,%noloadloss=0.377777000
new transformer.1035054 Phases=3,Windings=2,Buses=[BMT170775713.1.2.3 BBT146432213.1.2.3.0],Conns=[delta wye],kvs=[13.8 0.22],kvas=[30.000000000 30.000000000],Taps=[1,1.000000000],%loadloss=1.667000000,%noloadloss=0.433333000
new transformer.1035061 Phases=3,Windings=2,Buses=[BMT170775710.1.2.3 BBT146432885.1.2.3.0],Conns=[delta wye],kvs=[13.8 0.22],kvas=[45.000000000 45.000000000],Taps=[1,1.000000000],%loadloss=1.522000000,%noloadloss=0.377777000
new transformer.1103577 Phases=1,Windings=3,Buses=[BMT160583257.3 BBT147537968.1.0 BBT147537968.0.2],Conns=[wye wye wye],kvs=[7.967 0.12 0.12],kvas=[35.000000000 35.000000000 35.000000000],Taps=[1,1.000000000,1.000000000],%loadloss=1.293000000,%noloadloss=0.342857000
new transformer.1104753 Phases=1,Windings=3,Buses=[BMT159926954.3 BBT146938229.1.0 BBT146938229.0.2],Conns=[wye wye wye],kvs=[7.967 0.12 0.12],kvas=[15.000000000 15.000000000 15.000000000],Taps=[1,1.000000000,1.000000000],%loadloss=1.600000000,%noloadloss=0.400000000
new transformer.1119047 Phases=1,Windings=3,Buses=[BMT158286629.3 BBT146568209.1.0 BBT146568209.0.2],Conns=[wye wye wye],kvs=[7.967 0.12 0.12],kvas=[15.000000000 15.000000000 15.000000000],Taps=[1,1.000000000,1.000000000],%loadloss=1.600000000,%noloadloss=0.400000000
new transformer.1119537 Phases=1,Windings=3,Buses=[BMT171425900.3 BBT148436462.1.0 BBT148436462.0.2],Conns=[wye wye wye],kvs=[7.967 0.12 0.12],kvas=[15.000000000 15.000000000 15.000000000],Taps=[1,1.000000000,1.000000000],%loadloss=1.600000000,%noloadloss=0.400000000
new transformer.1393784 Phases=3,Windings=2,Buses=[BMT148901365.1.2.3 BBT148901298.1.2.3.0],Conns=[delta wye],kvs=[13.8 0.22],kvas=[45.000000000 45.000000000],Taps=[1,1.000000000],%loadloss=1.522000000,%noloadloss=0.377777000
new transformer.1394225 Phases=3,Windings=2,Buses=[BMT150349896.1.2.3 BBT149713674.1.2.3.0],Conns=[delta wye],kvs=[13.8 0.22],kvas=[500.000000000 500.000000000],Taps=[1,1.000000000],%loadloss=1.020000000,%noloadloss=0.260000000
new transformer.1401697 Phases=1,Windings=3,Buses=[BMT159235090.1 BBT150886184.1.0 BBT150886184.0.2],Conns=[wye wye wye],kvs=[7.967 0.12 0.12],kvas=[15.000000000 15.000000000 15.000000000],Taps=[1,1.000000000,1.000000000],%loadloss=1.600000000,%noloadloss=0.400000000
new transformer.1413033 Phases=1,Windings=3,Buses=[BMT165320557.3 BBT153432667.1.0 BBT153432667.0.2],Conns=[wye wye wye],kvs=[7.967 0.12 0.12],kvas=[35.000000000 35.000000000 35.000000000],Taps=[1,1.000000000,1.000000000],%loadloss=1.293000000,%noloadloss=0.342857000
new transformer.1425229 Phases=1,Windings=3,Buses=[BMT169714787.2 BBT156156537.1.0 BBT156156537.0.2],Conns=[wye wye wye],kvs=[7.967 0.12 0.12],kvas=[10.000000000 10.000000000 10.000000000],Taps=[1,1.000000000,1.000000000],%loadloss=1.800000000,%noloadloss=0.450000000
new transformer.1431530 Phases=3,Windings=2,Buses=[BMT157553171.1.2.3 BBT157553172.1.2.3.0],Conns=[delta wye],kvs=[13.8 0.22],kvas=[45.000000000 45.000000000],Taps=[1,1.000000000],%loadloss=1.522000000,%noloadloss=0.377777000
new transformer.1438045 Phases=3,Windings=2,Buses=[BMT164240786.1.2.3 BBT158755527.1.2.3.0],Conns=[delta wye],kvs=[13.8 0.22],kvas=[150.000000000 150.000000000],Taps=[1,1.000000000],%loadloss=1.127000000,%noloadloss=0.280000000
new transformer.1443262 Phases=3,Windings=2,Buses=[BMT159829104.1.2.3 BBT159828886.1.2.3.0],Conns=[delta wye],kvs=[13.8 0.22],kvas=[45.000000000 45.000000000],Taps=[1,1.000000000],%loadloss=1.522000000,%noloadloss=0.377777000
new transformer.1449658 Phases=1,Windings=3,Buses=[BMT165320575.3 BBT161565659.1.0 BBT161565659.0.2],Conns=[wye wye wye],kvs=[7.967 0.12 0.12],kvas=[10.000000000 10.000000000 10.000000000],Taps=[1,1.000000000,1.000000000],%loadloss=1.800000000,%noloadloss=0.450000000
new transformer.1009651 Phases=1,Windings=3,Buses=[BMT122557467.1 BBT104596916.1.0 BBT104596916.0.2],Conns=[wye wye wye],kvs=[7.967 0.12 0.12],kvas=[35.000000000 35.000000000 35.000000000],Taps=[1,1.000000000,1.000000000],%loadloss=1.293000000,%noloadloss=0.342857000
new transformer.1024862 Phases=1,Windings=3,Buses=[BMT169896379.2 BBT93849186.1.0 BBT93849186.0.2],Conns=[wye wye wye],kvs=[7.967 0.12 0.12],kvas=[5.000000000 5.000000000 5.000000000],Taps=[1,1.000000000,1.000000000],%loadloss=1.900000000,%noloadloss=0.600000000
new transformer.1040283 Phases=1,Windings=3,Buses=[BMT122555367.1 BBT104857421.1.0 BBT104857421.0.2],Conns=[wye wye wye],kvs=[7.967 0.12 0.12],kvas=[15.000000000 15.000000000 15.000000000],Taps=[1,1.000000000,1.000000000],%loadloss=1.600000000,%noloadloss=0.400000000
new transformer.1099874 Phases=3,Windings=2,Buses=[BMT168892391.1.2.3 BBT147280732.1.2.3.0],Conns=[delta wye],kvs=[13.8 0.22],kvas=[45.000000000 45.000000000],Taps=[1,1.000000000],%loadloss=1.522000000,%noloadloss=0.377777000
new transformer.1099881 Phases=3,Windings=2,Buses=[BMT168892392.1.2.3 BBT147280914.1.2.3.0],Conns=[delta wye],kvs=[13.8 0.22],kvas=[75.000000000 75.000000000],Taps=[1,1.000000000],%loadloss=1.340000000,%noloadloss=0.340000000
new transformer.1099895 Phases=3,Windings=2,Buses=[BMT168892393.1.2.3 BBT147281229.1.2.3.0],Conns=[delta wye],kvs=[13.8 0.22],kvas=[45.000000000 45.000000000],Taps=[1,1.000000000],%loadloss=1.522000000,%noloadloss=0.377777000
new transformer.1099902 Phases=3,Windings=2,Buses=[BMT147448487.1.2.3 BBT147281852.1.2.3.0],Conns=[delta wye],kvs=[13.8 0.22],kvas=[45.000000000 45.000000000],Taps=[1,1.000000000],%loadloss=1.522000000,%noloadloss=0.377777000
new transformer.1099909 Phases=3,Windings=2,Buses=[BMT147448501.1.2.3 BBT147282090.1.2.3.0],Conns=[delta wye],kvs=[13.8 0.22],kvas=[45.000000000 45.000000000],Taps=[1,1.000000000],%loadloss=1.522000000,%noloadloss=0.377777000
new transformer.1099916 Phases=3,Windings=2,Buses=[BMT147448494.1.2.3 BBT147282510.1.2.3.0],Conns=[delta wye],kvs=[13.8 0.22],kvas=[45.000000000 45.000000000],Taps=[1,1.000000000],%loadloss=1.522000000,%noloadloss=0.377777000
new transformer.1117136 Phases=1,Windings=3,Buses=[BMT165320577.3 BBT148892391.1.0 BBT148892391.0.2],Conns=[wye wye wye],kvs=[7.967 0.12 0.12],kvas=[15.000000000 15.000000000 15.000000000],Taps=[1,1.000000000,1.000000000],%loadloss=1.600000000,%noloadloss=0.400000000
new transformer.1411178 Phases=3,Windings=2,Buses=[BMT153093073.1.2.3 BBT153093014.1.2.3.0],Conns=[delta wye],kvs=[13.8 0.22],kvas=[45.000000000 45.000000000],Taps=[1,1.000000000],%loadloss=1.522000000,%noloadloss=0.377777000
new transformer.1416915 Phases=1,Windings=3,Buses=[BMT172254972.3 BBT154382254.1.0 BBT154382254.0.2],Conns=[wye wye wye],kvs=[7.967 0.12 0.12],kvas=[15.000000000 15.000000000 15.000000000],Taps=[1,1.000000000,1.000000000],%loadloss=1.600000000,%noloadloss=0.400000000
new transformer.1422831 Phases=1,Windings=3,Buses=[BMT172254994.3 BBT155669010.1.0 BBT155669010.0.2],Conns=[wye wye wye],kvs=[7.967 0.12 0.12],kvas=[10.000000000 10.000000000 10.000000000],Taps=[1,1.000000000,1.000000000],%loadloss=1.800000000,%noloadloss=0.450000000
new transformer.1428252 Phases=1,Windings=3,Buses=[BMT159240468.2 BBT156846483.1.0 BBT156846483.0.2],Conns=[wye wye wye],kvs=[7.967 0.12 0.12],kvas=[15.000000000 15.000000000 15.000000000],Taps=[1,1.000000000,1.000000000],%loadloss=1.600000000,%noloadloss=0.400000000
new transformer.1434585 Phases=1,Windings=3,Buses=[BMT166218325.2 BBT158113365.1.0 BBT158113365.0.2],Conns=[wye wye wye],kvs=[7.967 0.12 0.12],kvas=[35.000000000 35.000000000 35.000000000],Taps=[1,1.000000000,1.000000000],%loadloss=1.293000000,%noloadloss=0.342857000
new transformer.1451940 Phases=1,Windings=3,Buses=[BMT163151025.1 BBT162164863.1.0 BBT162164863.0.2],Conns=[wye wye wye],kvs=[7.967 0.12 0.12],kvas=[10.000000000 10.000000000 10.000000000],Taps=[1,1.000000000,1.000000000],%loadloss=1.800000000,%noloadloss=0.450000000
new transformer.1462652 Phases=3,Windings=2,Buses=[BMT165235675.1.2.3 BBT164866040.1.2.3.0],Conns=[delta wye],kvs=[13.8 0.22],kvas=[45.000000000 45.000000000],Taps=[1,1.000000000],%loadloss=1.522000000,%noloadloss=0.377777000
new transformer.1486050 Phases=1,Windings=3,Buses=[BMT169209540.3 BBT169209543.1.0 BBT169209543.0.2],Conns=[wye wye wye],kvs=[7.967 0.12 0.12],kvas=[10.000000000 10.000000000 10.000000000],Taps=[1,1.000000000,1.000000000],%loadloss=1.800000000,%noloadloss=0.450000000
new transformer.1486342 Phases=3,Windings=2,Buses=[BMT173238093.1.2.3 BBT169255396.1.2.3.0],Conns=[delta wye],kvs=[13.8 0.22],kvas=[45.000000000 45.000000000],Taps=[1,1.000000000],%loadloss=1.522000000,%noloadloss=0.377777000
new transformer.1497229 Phases=1,Windings=3,Buses=[BMT171442444.1 BBT171442317.1.0 BBT171442317.0.2],Conns=[wye wye wye],kvs=[7.967 0.12 0.12],kvas=[10.000000000 10.000000000 10.000000000],Taps=[1,1.000000000,1.000000000],%loadloss=1.800000000,%noloadloss=0.450000000
new transformer.333942 Phases=1,Windings=3,Buses=[BMT158070424.2 BBT1506428.1.0 BBT1506428.0.2],Conns=[wye wye wye],kvs=[7.967 0.12 0.12],kvas=[10.000000000 10.000000000 10.000000000],Taps=[1,1.000000000,1.000000000],%loadloss=1.800000000,%noloadloss=0.450000000
new transformer.333949 Phases=1,Windings=3,Buses=[BMT158070423.2 BBT1506442.1.0 BBT1506442.0.2],Conns=[wye wye wye],kvs=[7.967 0.12 0.12],kvas=[10.000000000 10.000000000 10.000000000],Taps=[1,1.000000000,1.000000000],%loadloss=1.800000000,%noloadloss=0.450000000
new transformer.333956 Phases=1,Windings=3,Buses=[BMT158070418.2 BBT1506456.1.0 BBT1506456.0.2],Conns=[wye wye wye],kvs=[7.967 0.12 0.12],kvas=[10.000000000 10.000000000 10.000000000],Taps=[1,1.000000000,1.000000000],%loadloss=1.800000000,%noloadloss=0.450000000
new transformer.333963 Phases=1,Windings=3,Buses=[BMT158070419.2 BBT1506470.1.0 BBT1506470.0.2],Conns=[wye wye wye],kvs=[7.967 0.12 0.12],kvas=[10.000000000 10.000000000 10.000000000],Taps=[1,1.000000000,1.000000000],%loadloss=1.800000000,%noloadloss=0.450000000
new transformer.333984 Phases=1,Windings=3,Buses=[BMT158070415.2 BBT1506512.1.0 BBT1506512.0.2],Conns=[wye wye wye],kvs=[7.967 0.12 0.12],kvas=[15.000000000 15.000000000 15.000000000],Taps=[1,1.000000000,1.000000000],%loadloss=1.600000000,%noloadloss=0.400000000
new transformer.333998 Phases=3,Windings=2,Buses=[BMT165925583.1.2.3 BBT1506533.1.2.3.0],Conns=[delta wye],kvs=[13.8 0.22],kvas=[75.000000000 75.000000000],Taps=[1,1.000000000],%loadloss=1.340000000,%noloadloss=0.340000000
new transformer.334005 Phases=1,Windings=3,Buses=[BMT158070412.2 BBT1506547.1.0 BBT1506547.0.2],Conns=[wye wye wye],kvs=[7.967 0.12 0.12],kvas=[35.000000000 35.000000000 35.000000000],Taps=[1,1.000000000,1.000000000],%loadloss=1.293000000,%noloadloss=0.342857000
new transformer.334012 Phases=1,Windings=3,Buses=[BMT158070428.2 BBT1506561.1.0 BBT1506561.0.2],Conns=[wye wye wye],kvs=[7.967 0.12 0.12],kvas=[10.000000000 10.000000000 10.000000000],Taps=[1,1.000000000,1.000000000],%loadloss=1.800000000,%noloadloss=0.450000000
new transformer.334019 Phases=1,Windings=3,Buses=[BMT165320554.3 BBT1506575.1.0 BBT1506575.0.2],Conns=[wye wye wye],kvs=[7.967 0.12 0.12],kvas=[10.000000000 10.000000000 10.000000000],Taps=[1,1.000000000,1.000000000],%loadloss=1.800000000,%noloadloss=0.450000000
new transformer.334033 Phases=1,Windings=3,Buses=[BMT158070413.2 BBT1506596.1.0 BBT1506596.0.2],Conns=[wye wye wye],kvs=[7.967 0.12 0.12],kvas=[10.000000000 10.000000000 10.000000000],Taps=[1,1.000000000,1.000000000],%loadloss=1.800000000,%noloadloss=0.450000000
new transformer.1432867 Phases=1,Windings=3,Buses=[BMT169209542.3 BBT157782296.1.0 BBT157782296.0.2],Conns=[wye wye wye],kvs=[7.967 0.12 0.12],kvas=[15.000000000 15.000000000 15.000000000],Taps=[1,1.000000000,1.000000000],%loadloss=1.600000000,%noloadloss=0.400000000
new transformer.1432915 Phases=3,Windings=2,Buses=[BMT172122986.1.2.3 BBT157787679.1.2.3.0],Conns=[delta wye],kvs=[13.8 0.22],kvas=[30.000000000 30.000000000],Taps=[1,1.000000000],%loadloss=1.667000000,%noloadloss=0.433333000
new transformer.1438278 Phases=1,Windings=3,Buses=[BMT158800452.1 BBT158800364.1.0 BBT158800364.0.2],Conns=[wye wye wye],kvs=[7.967 0.12 0.12],kvas=[10.000000000 10.000000000 10.000000000],Taps=[1,1.000000000,1.000000000],%loadloss=1.800000000,%noloadloss=0.450000000
new transformer.1451023 Phases=1,Windings=3,Buses=[BMT163086030.1 BBT161891642.1.0 BBT161891642.0.2],Conns=[wye wye wye],kvs=[7.967 0.12 0.12],kvas=[10.000000000 10.000000000 10.000000000],Taps=[1,1.000000000,1.000000000],%loadloss=1.800000000,%noloadloss=0.450000000
new transformer.1457563 Phases=1,Windings=3,Buses=[BMT163812613.1 BBT163812614.1.0 BBT163812614.0.2],Conns=[wye wye wye],kvs=[7.967 0.12 0.12],kvas=[25.000000000 25.000000000 25.000000000],Taps=[1,1.000000000,1.000000000],%loadloss=1.420000000,%noloadloss=0.320000000
new transformer.1468552 Phases=1,Windings=3,Buses=[BMT168658560.2 BBT166218899.1.0 BBT166218899.0.2],Conns=[wye wye wye],kvs=[7.967 0.12 0.12],kvas=[35.000000000 35.000000000 35.000000000],Taps=[1,1.000000000,1.000000000],%loadloss=1.293000000,%noloadloss=0.342857000
new transformer.1474238 Phases=1,Windings=3,Buses=[BMT172450001.1 BBT167111902.1.0 BBT167111902.0.2],Conns=[wye wye wye],kvs=[7.967 0.12 0.12],kvas=[35.000000000 35.000000000 35.000000000],Taps=[1,1.000000000,1.000000000],%loadloss=1.293000000,%noloadloss=0.342857000
new transformer.1485644 Phases=3,Windings=2,Buses=[BMT169149098.1.2.3 BBT169148103.1.2.3.0],Conns=[delta wye],kvs=[13.8 0.22],kvas=[45.000000000 45.000000000],Taps=[1,1.000000000],%loadloss=1.522000000,%noloadloss=0.377777000
new transformer.1485649 Phases=3,Windings=2,Buses=[BMT169149101.1.2.3 BBT169148418.1.2.3.0],Conns=[delta wye],kvs=[13.8 0.22],kvas=[45.000000000 45.000000000],Taps=[1,1.000000000],%loadloss=1.522000000,%noloadloss=0.377777000
new transformer.1485651 Phases=3,Windings=2,Buses=[BMT169149100.1.2.3 BBT169149102.1.2.3.0],Conns=[delta wye],kvs=[13.8 0.22],kvas=[45.000000000 45.000000000],Taps=[1,1.000000000],%loadloss=1.522000000,%noloadloss=0.377777000
new transformer.334600 Phases=1,Windings=3,Buses=[BMT122558538.2 BBT1507730.1.0 BBT1507730.0.2],Conns=[wye wye wye],kvs=[7.967 0.12 0.12],kvas=[10.000000000 10.000000000 10.000000000],Taps=[1,1.000000000,1.000000000],%loadloss=1.800000000,%noloadloss=0.450000000
new transformer.334607 Phases=1,Windings=3,Buses=[BMT160383419.2 BBT1507744.1.0 BBT1507744.0.2],Conns=[wye wye wye],kvs=[7.967 0.12 0.12],kvas=[15.000000000 15.000000000 15.000000000],Taps=[1,1.000000000,1.000000000],%loadloss=1.600000000,%noloadloss=0.400000000
new transformer.334614 Phases=3,Windings=2,Buses=[BMT122558489.1.2.3 BBT1507758.1.2.3.0],Conns=[delta wye],kvs=[13.8 0.22],kvas=[45.000000000 45.000000000],Taps=[1,1.000000000],%loadloss=1.522000000,%noloadloss=0.377777000
new transformer.334621 Phases=1,Windings=3,Buses=[BMT122544832.1 BBT1507772.1.0 BBT1507772.0.2],Conns=[wye wye wye],kvs=[7.967 0.12 0.12],kvas=[10.000000000 10.000000000 10.000000000],Taps=[1,1.000000000,1.000000000],%loadloss=1.800000000,%noloadloss=0.450000000
new transformer.334628 Phases=1,Windings=3,Buses=[BMT160383416.2 BBT1507786.1.0 BBT1507786.0.2],Conns=[wye wye wye],kvs=[7.967 0.12 0.12],kvas=[10.000000000 10.000000000 10.000000000],Taps=[1,1.000000000,1.000000000],%loadloss=1.800000000,%noloadloss=0.450000000
new transformer.334635 Phases=1,Windings=3,Buses=[BMT160383421.2 BBT1507800.1.0 BBT1507800.0.2],Conns=[wye wye wye],kvs=[7.967 0.12 0.12],kvas=[15.000000000 15.000000000 15.000000000],Taps=[1,1.000000000,1.000000000],%loadloss=1.600000000,%noloadloss=0.400000000
new transformer.334642 Phases=1,Windings=3,Buses=[BMT169896353.2 BBT1507814.1.0 BBT1507814.0.2],Conns=[wye wye wye],kvs=[7.967 0.12 0.12],kvas=[15.000000000 15.000000000 15.000000000],Taps=[1,1.000000000,1.000000000],%loadloss=1.600000000,%noloadloss=0.400000000
new transformer.334649 Phases=1,Windings=3,Buses=[BMT128462576.2 BBT1507828.1.0 BBT1507828.0.2],Conns=[wye wye wye],kvs=[7.967 0.12 0.12],kvas=[15.000000000 15.000000000 15.000000000],Taps=[1,1.000000000,1.000000000],%loadloss=1.600000000,%noloadloss=0.400000000
new transformer.334656 Phases=1,Windings=3,Buses=[BMT122544804.2 BBT1507842.1.0 BBT1507842.0.2],Conns=[wye wye wye],kvs=[7.967 0.12 0.12],kvas=[10.000000000 10.000000000 10.000000000],Taps=[1,1.000000000,1.000000000],%loadloss=1.800000000,%noloadloss=0.450000000
new transformer.334663 Phases=1,Windings=3,Buses=[BMT122544706.2 BBT1507856.1.0 BBT1507856.0.2],Conns=[wye wye wye],kvs=[7.967 0.12 0.12],kvas=[25.000000000 25.000000000 25.000000000],Taps=[1,1.000000000,1.000000000],%loadloss=1.420000000,%noloadloss=0.320000000
new transformer.334670 Phases=1,Windings=3,Buses=[BMT160383425.2 BBT1507870.1.0 BBT1507870.0.2],Conns=[wye wye wye],kvs=[7.967 0.12 0.12],kvas=[10.000000000 10.000000000 10.000000000],Taps=[1,1.000000000,1.000000000],%loadloss=1.800000000,%noloadloss=0.450000000
new transformer.334677 Phases=1,Windings=3,Buses=[BMT147239838.2 BBT1507884.1.0 BBT1507884.0.2],Conns=[wye wye wye],kvs=[7.967 0.12 0.12],kvas=[10.000000000 10.000000000 10.000000000],Taps=[1,1.000000000,1.000000000],%loadloss=1.800000000,%noloadloss=0.450000000
new transformer.334684 Phases=1,Windings=3,Buses=[BMT147239852.1 BBT1507898.1.0 BBT1507898.0.2],Conns=[wye wye wye],kvs=[7.967 0.12 0.12],kvas=[10.000000000 10.000000000 10.000000000],Taps=[1,1.000000000,1.000000000],%loadloss=1.800000000,%noloadloss=0.450000000
new transformer.334691 Phases=1,Windings=3,Buses=[BMT122544811.2 BBT1507912.1.0 BBT1507912.0.2],Conns=[wye wye wye],kvs=[7.967 0.12 0.12],kvas=[15.000000000 15.000000000 15.000000000],Taps=[1,1.000000000,1.000000000],%loadloss=1.600000000,%noloadloss=0.400000000
new transformer.334698 Phases=1,Windings=3,Buses=[BMT122544650.1 BBT1507926.1.0 BBT1507926.0.2],Conns=[wye wye wye],kvs=[7.967 0.12 0.12],kvas=[10.000000000 10.000000000 10.000000000],Taps=[1,1.000000000,1.000000000],%loadloss=1.800000000,%noloadloss=0.450000000
new transformer.334705 Phases=1,Windings=3,Buses=[BMT147239859.3 BBT1507940.1.0 BBT1507940.0.2],Conns=[wye wye wye],kvs=[7.967 0.12 0.12],kvas=[10.000000000 10.000000000 10.000000000],Taps=[1,1.000000000,1.000000000],%loadloss=1.800000000,%noloadloss=0.450000000
new transformer.334712 Phases=1,Windings=3,Buses=[BMT147239824.2 BBT1507954.1.0 BBT1507954.0.2],Conns=[wye wye wye],kvs=[7.967 0.12 0.12],kvas=[10.000000000 10.000000000 10.000000000],Taps=[1,1.000000000,1.000000000],%loadloss=1.800000000,%noloadloss=0.450000000
new transformer.334719 Phases=1,Windings=3,Buses=[BMT122544671.2 BBT1507968.1.0 BBT1507968.0.2],Conns=[wye wye wye],kvs=[7.967 0.12 0.12],kvas=[15.000000000 15.000000000 15.000000000],Taps=[1,1.000000000,1.000000000],%loadloss=1.600000000,%noloadloss=0.400000000
new transformer.334726 Phases=1,Windings=3,Buses=[BMT169896801.2 BBT1507982.1.0 BBT1507982.0.2],Conns=[wye wye wye],kvs=[7.967 0.12 0.12],kvas=[10.000000000 10.000000000 10.000000000],Taps=[1,1.000000000,1.000000000],%loadloss=1.800000000,%noloadloss=0.450000000
new transformer.334733 Phases=3,Windings=2,Buses=[BMT122557446.1.2.3 BBT1507996.1.2.3.0],Conns=[delta wye],kvs=[13.8 0.22],kvas=[45.000000000 45.000000000],Taps=[1,1.000000000],%loadloss=1.522000000,%noloadloss=0.377777000
new transformer.1078629 Phases=1,Windings=3,Buses=[BMT160172095.1 BBT141313071.1.0 BBT141313071.0.2],Conns=[wye wye wye],kvs=[7.967 0.12 0.12],kvas=[35.000000000 35.000000000 35.000000000],Taps=[1,1.000000000,1.000000000],%loadloss=1.293000000,%noloadloss=0.342857000
new transformer.1093903 Phases=1,Windings=3,Buses=[BMT160317164.3 BBT141488645.1.0 BBT141488645.0.2],Conns=[wye wye wye],kvs=[7.967 0.12 0.12],kvas=[10.000000000 10.000000000 10.000000000],Taps=[1,1.000000000,1.000000000],%loadloss=1.800000000,%noloadloss=0.450000000