new line.TR10217187 bus1=BMT6387719B.1.2.3,bus2=BMT148825026.1.2.3,Phases=3,Linecode=CAB108_3_3,Length=0.017469000,Units=km
new line.TR12460452 bus1=BMT163344989.1.2.3,bus2=BMT2035538B.1.2.3,Phases=3,Linecode=CABA08_3_3,Length=0.025087000,Units=km
new line.TR12460553 bus1=BMT2031254B.1.2.3,bus2=BMT2027509B.1.2.3,Phases=3,Linecode=CABA08_3_3,Length=0.037653000,Units=km
new line.TR12460581 bus1=BMT2035538B.1.2.3,bus2=BMT2050903B.1.2.3,Phases=3,Linecode=CABA08_3_3,Length=0.039457000,Units=km
new line.TR12460582 bus1=BMT165594540.1.2.3,bus2=BMT2050903B.1.2.3,Phases=3,Linecode=CABA08_3_3,Length=0.030025000,Units=km
new line.TR12572203 bus1=BMT165866097.1.2.3,bus2=BMT165395814.1.2.3,Phases=3,Linecode=CAB108_3_3,Length=0.016406000,Units=km
new line.TR12573790 bus1=BMT165595698.1.2.3,bus2=BMT9182835B.1.2.3,Phases=3,Linecode=CAB103_3_3,Length=0.016129000,Units=km
new line.TR12573793 bus1=BMT9182835B.1.2.3,bus2=BMT2064735B.1.2.3,Phases=3,Linecode=CAB103_3_3,Length=0.025246000,Units=km
new line.TR12574190 bus1=BMT165589022.1.2.3,bus2=BMT165589025.1.2.3,Phases=3,Linecode=CABA08_3_3,Length=0.037064000,Units=km
new line.TR12574192 bus1=BMT165478966.1.2.3,bus2=BMT2002176B.1.2.3,Phases=3,Linecode=CABA08_3_3,Length=0.027026000,Units=km
new line.TR3419011 bus1=BMT154671253.1.2.3,bus2=BMT154671254.1.2.3,Phases=3,Linecode=CABA08_3_3,Length=0.028239000,Units=km
new line.TR3419018 bus1=BMT154671253.1.2.3,bus2=BMT1953099B.1.2.3,Phases=3,Linecode=CABA08_3_3,Length=0.028800000,Units=km
new line.TR3419669 bus1=BMT1951706B.1.2.3,bus2=BMT154671258.1.2.3,Phases=3,Linecode=CAB103_3_3,Length=0.034549000,Units=km
new line.TR3421293 bus1=BMT162451213.1.2.3,bus2=BMT2789991B.1.2.3,Phases=3,Linecode=CABA08_3_3,Length=0.026180000,Units=km
new line.TR3422567 bus1=BMT154671255.1.2.3,bus2=BMT154671256.1.2.3,Phases=3,Linecode=CAB108_3_3,Length=0.030895000,Units=km
new line.TR3422595 bus1=BMT1953064B.1.2.3,bus2=BMT154671255.1.2.3,Phases=3,Linecode=CABA08_3_3,Length=0.032397000,Units=km
new line.TR3422616 bus1=BMT154671254.1.2.3,bus2=BMT1953064B.1.2.3,Phases=3,Linecode=CABA08_3_3,Length=0.035520000,Units=km
new line.TR3422672 bus1=BMT1953092B.1.2.3,bus2=BMT154671253.1.2.3,Phases=3,Linecode=CAB108_3_3,Length=0.033024000,Units=km
new line.TR3422693 bus1=BMT1953099B.1.2.3,bus2=BMT3802408.1.2.3,Phases=3,Linecode=CABA08_3_3,Length=0.028643000,Units=km
new line.TR3486757 bus1=BMT169961045.1.2.3,bus2=BMT2862658B.1.2.3,Phases=3,Linecode=CAB103_3_3,Length=0.030895000,Units=km
new line.TR3552739 bus1=BMT154706631.1.2.3,bus2=BMT154706633.1.2.3,Phases=3,Linecode=CAB108_3_3,Length=0.014146000,Units=km
new line.TR3622872 bus1=BMT165589021.1.2.3,bus2=BMT165589022.1.2.3,Phases=3,Linecode=CAB108_3_3,Length=0.025246000,Units=km
new line.TR3622907 bus1=BMT165589020.1.2.3,bus2=BMT165589021.1.2.3,Phases=3,Linecode=CABA08_3_3,Length=0.035009000,Units=km
new line.TR3623670 bus1=BMT165581063.1.2.3,bus2=BMT165581065.1.2.3,Phases=3,Linecode=CABA06_3_3,Length=0.031329000,Units=km
new line.TR3623677 bus1=BMT165581063.1.2.3,bus2=BMT2014713B.1.2.3,Phases=3,Linecode=CABA08_3_3,Length=0.032994000,Units=km
new line.TR3623803 bus1=BMT2014713B.1.2.3,bus2=BMT165581062.1.2.3,Phases=3,Linecode=CABA08_3_3,Length=0.037118000,Units=km
new line.TR3691913 bus1=BMT164344331.1.2.3,bus2=BMT2008595B.1.2.3,Phases=3,Linecode=CABA08_3_3,Length=0.033847000,Units=km
new line.TR3693124 bus1=BMT2031303B.1.2.3,bus2=BMT165581061.1.2.3,Phases=3,Linecode=CABA08_3_3,Length=0.038338000,Units=km
new line.TR3693131 bus1=BMT2031303B.1.2.3,bus2=BMT2043560B.1.2.3,Phases=3,Linecode=CABA08_3_3,Length=0.033743000,Units=km
new line.TR3698871 bus1=BMT2032605B.1.2.3,bus2=BMT2032612B.1.2.3,Phases=3,Linecode=CAB103_3_3,Length=0.037118000,Units=km
new line.TR3698899 bus1=BMT2032612B.1.2.3,bus2=BMT165044197.1.2.3,Phases=3,Linecode=CAB103_3_3,Length=0.037118000,Units=km
new line.TR3771335 bus1=BMT99029653.1.2.3,bus2=BMT99029660.1.2.3,Phases=3,Linecode=CABA06_3_3,Length=0.037131000,Units=km
new line.TR3771342 bus1=BMT150339734.1.2.3,bus2=BMT3970436B.1.2.3,Phases=3,Linecode=CAB606_3_3,Length=0.015529000,Units=km
new line.TR3771370 bus1=BMT99029667.1.2.3,bus2=BMT99029674.1.2.3,Phases=3,Linecode=CABA06_3_3,Length=0.012004000,Units=km
new line.TR3771440 bus1=BMT2050924B.1.2.3,bus2=BMT2050917B.1.2.3,Phases=3,Linecode=CABA08_3_3,Length=0.031393000,Units=km
new line.TR4684002 bus1=BMT99029471.1.2.3,bus2=BMT99029478.1.2.3,Phases=3,Linecode=CAB103_3_3,Length=0.033130000,Units=km
new line.TR4684030 bus1=BMT163742233.3,bus2=BMT2356369B.3,Phases=1,Linecode=CAB103_3_1,Length=0.025949000,Units=km
new line.TR4684037 bus1=BMT163742233.1.2.3,bus2=BMT2753990B.1.2.3,Phases=3,Linecode=CABA08_3_3,Length=0.007618000,Units=km
new line.TR4684051 bus1=BMT155000982.1.2.3,bus2=BMT2872815B.1.2.3,Phases=3,Linecode=CAB103_3_3,Length=0.031915000,Units=km
new line.TR4684079 bus1=BMT2356348B.1.2.3,bus2=BMT2356355B.1.2.3,Phases=3,Linecode=CAB103_3_3,Length=0.031789000,Units=km
new line.TR4684093 bus1=BMT2356355B.1.2.3,bus2=BMT2872801B.1.2.3,Phases=3,Linecode=CAB103_3_3,Length=0.025186000,Units=km
new line.TR4684121 bus1=BMT2356362B.1.2.3,bus2=BMT2873102B.1.2.3,Phases=3,Linecode=CABA08_3_3,Length=0.030422000,Units=km
new line.TR4684135 bus1=BMT2356369B.3,bus2=BMT163742234.3,Phases=1,Linecode=CAB103_3_1,Length=0.026256000,Units=km
new line.TR4684184 bus1=BMT154794830.1.2.3,bus2=BMT154794832.1.2.3,Phases=3,Linecode=CAB103_3_3,Length=0.031773000,Units=km
new line.TR4684191 bus1=BMT154794830.1.2.3,bus2=BMT2356397B.1.2.3,Phases=3,Linecode=CAB103_3_3,Length=0.031314000,Units=km
new line.TR4684205 bus1=BMT2356397B.1.2.3,bus2=BMT2754620B.1.2.3,Phases=3,Linecode=CAB103_3_3,Length=0.025502000,Units=km
new line.TR4684219 bus1=BMT163741734.1.2.3,bus2=BMT163741733.1.2.3,Phases=3,Linecode=CABA08_3_3,Length=0.034895000,Units=km
new line.TR4684247 bus1=BMT172480660.1.2.3,bus2=BMT2356425B.1.2.3,Phases=3,Linecode=CAB103_3_3,Length=0.031773000,Units=km
new line.TR4684254 bus1=BMT172480660.1.2.3,bus2=BMT172428402.1.2.3,Phases=3,Linecode=CAB103_3_3,Length=0.027793000,Units=km
new line.TR4684268 bus1=BMT2356418B.1.2.3,bus2=BMT2718003B.1.2.3,Phases=3,Linecode=CAB103_3_3,Length=0.038089000,Units=km
new line.TR4684289 bus1=BMT2356425B.1.2.3,bus2=BMT172480661.1.2.3,Phases=3,Linecode=CAB103_3_3,Length=0.031773000,Units=km
new line.TR4684303 bus1=BMT2356432B.1.2.3,bus2=BMT2753010B.1.2.3,Phases=3,Linecode=CAB103_3_3,Length=0.035365000,Units=km
new line.TR4684324 bus1=BMT2356439B.1.2.3,bus2=BMT172480662.1.2.3,Phases=3,Linecode=CAB103_3_3,Length=0.028661000,Units=km
new line.TR4684352 bus1=BMT2356446B.1.2.3,bus2=BMT2717996B.1.2.3,Phases=3,Linecode=CAB103_3_3,Length=0.032009000,Units=km
new line.TR4684366 bus1=BMT2356453B.1.2.3,bus2=BMT2356460B.1.2.3,Phases=3,Linecode=CAB103_3_3,Length=0.033296000,Units=km
new line.TR4684373 bus1=BMT2356453B.1.2.3,bus2=BMT172480705.1.2.3,Phases=3,Linecode=CAB103_3_3,Length=0.018033000,Units=km
new line.TR4684387 bus1=BMT2356460B.1.2.3,bus2=BMT172480706.1.2.3,Phases=3,Linecode=CAB103_3_3,Length=0.033311000,Units=km
new line.TR4684408 bus1=BMT150963599.1.2.3,bus2=BMT150963600.1.2.3,Phases=3,Linecode=CAB103_3_3,Length=0.034009000,Units=km
new line.TR4684415 bus1=BMT150963599.1.2.3,bus2=BMT2853453B.1.2.3,Phases=3,Linecode=CAB103_3_3,Length=0.032258000,Units=km
new line.TR4684422 bus1=BMT150963599.1.2.3,bus2=BMT2853481B.1.2.3,Phases=3,Linecode=CAB103_3_3,Length=0.026933000,Units=km
new line.TR4684443 bus1=BMT150963603.1.2.3,bus2=BMT2860040B.1.2.3,Phases=3,Linecode=CAB103_3_3,Length=0.027302000,Units=km
new line.TR4684450 bus1=BMT150963603.1.2.3,bus2=BMT2860054B.1.2.3,Phases=3,Linecode=CAB103_3_3,Length=0.028186000,Units=km
new line.TR4684457 bus1=BMT150963603.1.2.3,bus2=BMT2860103B.1.2.3,Phases=3,Linecode=CAB103_3_3,Length=0.028661000,Units=km
new line.TR4684471 bus1=BMT2356481B.1.2.3,bus2=BMT2850016B.1.2.3,Phases=3,Linecode=CAB103_3_3,Length=0.014146000,Units=km
new line.TR4684485 bus1=BMT2356488B.1.2.3,bus2=BMT99029044.1.2.3,Phases=3,Linecode=CAB103_3_3,Length=0.035365000,Units=km
new line.TR4684506 bus1=BMT99028456.1.2.3,bus2=BMT99028463.1.2.3,Phases=3,Linecode=CAB103_3_3,Length=0.026933000,Units=km
new line.TR4684513 bus1=BMT99028456.1.2.3,bus2=BMT2356509B.1.2.3,Phases=3,Linecode=CAB108_3_3,Length=0.031962000,Units=km
new line.TR4684527 bus1=BMT154363320.1.2.3,bus2=BMT2658132B.1.2.3,Phases=3,Linecode=CAB103_3_3,Length=0.030422000,Units=km
new line.TR4684548 bus1=BMT2356509B.1.2.3,bus2=BMT99028470.1.2.3,Phases=3,Linecode=CAB108_3_3,Length=0.031330000,Units=km
new line.TR4684562 bus1=BMT118189220.1.2.3,bus2=BMT99028540.1.2.3,Phases=3,Linecode=CAB103_3_3,Length=0.027900000,Units=km
new line.TR4684569 bus1=BMT118189220.1.2.3,bus2=BMT2529087B.1.2.3,Phases=3,Linecode=CAB108_3_3,Length=0.025007000,Units=km
new line.TR4684576 bus1=BMT118189220.1.2.3,bus2=BMT99028477.1.2.3,Phases=3,Linecode=CAB108_3_3,Length=0.030814000,Units=km
new line.TR4684590 bus1=BMT154589058.1.2.3,bus2=BMT154589059.1.2.3,Phases=3,Linecode=CAB103_3_3,Length=0.029841000,Units=km
new line.TR4684604 bus1=BMT2356530B.1.2.3,bus2=BMT118189227.1.2.3,Phases=3,Linecode=CAB108_3_3,Length=0.029622000,Units=km
new line.TR4684611 bus1=BMT2356530B.1.2.3,bus2=BMT2529080B.1.2.3,Phases=3,Linecode=CAB108_3_3,Length=0.028168000,Units=km
new line.TR4684625 bus1=BMT118189234.1.2.3,bus2=BMT118189241.1.2.3,Phases=3,Linecode=CAB103_3_3,Length=0.029841000,Units=km
new line.TR4684632 bus1=BMT118189234.1.2.3,bus2=BMT2765491B.1.2.3,Phases=3,Linecode=CAB108_3_3,Length=0.031789000,Units=km
new line.TR4684653 bus1=BMT99028568.1.2.3,bus2=BMT99028575.1.2.3,Phases=3,Linecode=CAB108_3_3,Length=0.032071000,Units=km
new line.TR4684660 bus1=BMT99028981.1.2.3,bus2=BMT2750630B.1.2.3,Phases=3,Linecode=CAB103_3_3,Length=0.031057000,Units=km
new line.TR4684695 bus1=BMT163442621.1.2.3,bus2=BMT2356558B.1.2.3,Phases=3,Linecode=CAB108_3_3,Length=0.032659000,Units=km
new line.TR4684716 bus1=BMT2356558B.1.2.3,bus2=BMT163442622.1.2.3,Phases=3,Linecode=CAB108_3_3,Length=0.035365000,Units=km
new line.TR4684730 bus1=BMT2356565B.1.2.3,bus2=BMT154785781.1.2.3,Phases=3,Linecode=CAB108_3_3,Length=0.020815000,Units=km
new line.TR4684751 bus1=BMT158869708.1.2.3,bus2=BMT2714118B.1.2.3,Phases=3,Linecode=CAB108_3_3,Length=0.026933000,Units=km
new line.TR4684800 bus1=BMT172480708.1.2.3,bus2=BMT2356593B.1.2.3,Phases=3,Linecode=CABA06_3_3,Length=0.023776000,Units=km
new line.TR4684821 bus1=BMT2356593B.1.2.3,bus2=BMT172480707.1.2.3,Phases=3,Linecode=CABA06_3_3,Length=0.006710000,Units=km
new line.TR4684842 bus1=BMT172480709.1.2.3,bus2=BMT2356607B.1.2.3,Phases=3,Linecode=CAB103_3_3,Length=0.041629000,Units=km
new line.TR4684863 bus1=BMT2356607B.1.2.3,bus2=BMT2714671B.1.2.3,Phases=3,Linecode=CAB103_3_3,Length=0.035478000,Units=km
new line.TR4684884 bus1=BMT158869709.1.2.3,bus2=BMT2707419B.1.2.3,Phases=3,Linecode=CAB108_3_3,Length=0.024214000,Units=km
new line.TR4684891 bus1=BMT158869709.1.2.3,bus2=BMT2707461B.1.2.3,Phases=3,Linecode=CAB103_3_3,Length=0.013458000,Units=km
new line.TR4684905 bus1=BMT116389597.1.2.3,bus2=BMT2709162B.1.2.3,Phases=3,Linecode=CAB103_3_3,Length=0.036245000,Units=km
new line.TR4684919 bus1=BMT2356628B.1.2.3,bus2=BMT116389604.1.2.3,Phases=3,Linecode=CAB103_3_3,Length=0.034068000,Units=km
new line.TR4684947 bus1=BMT2356635B.1.2.3,bus2=BMT2732262B.1.2.3,Phases=3,Linecode=CAB103_3_3,Length=0.028644000,Units=km
new line.TR4684968 bus1=BMT2356642B.1.2.3,bus2=BMT2728615B.1.2.3,Phases=3,Linecode=CAB108_3_3,Length=0.039215000,Units=km
new line.TR4684989 bus1=BMT158869711.1.2.3,bus2=BMT2728601B.1.2.3,Phases=3,Linecode=CAB103_3_3,Length=0.037746000,Units=km
new line.TR4684996 bus1=BMT158869711.1.2.3,bus2=BMT2728629B.1.2.3,Phases=3,Linecode=CAB108_3_3,Length=0.031631000,Units=km
new line.TR4685017 bus1=BMT2356656B.1.2.3,bus2=BMT158869713.1.2.3,Phases=3,Linecode=CAB108_3_3,Length=0.015529000,Units=km
new line.TR4685038 bus1=BMT2356663B.1.2.3,bus2=BMT2737022B.1.2.3,Phases=3,Linecode=CAB108_3_3,Length=0.022810000,Units=km
new line.TR4685052 bus1=BMT158869715.1.2.3,bus2=BMT2737085B.1.2.3,Phases=3,Linecode=CAB108_3_3,Length=0.031631000,Units=km
new line.TR4685066 bus1=BMT2356677B.1.2.3,bus2=BMT158869719.1.2.3,Phases=3,Linecode=CAB108_3_3,Length=0.007282000,Units=km
new line.TR4685094 bus1=BMT158869719.1.2.3,bus2=BMT120897128.1.2.3,Phases=3,Linecode=CAB108_3_3,Length=0.029841000,Units=km
new line.TR4685101 bus1=BMT158869719.1.2.3,bus2=BMT2356698B.1.2.3,Phases=3,Linecode=CAB103_3_3,Length=0.032397000,Units=km
new line.TR4685122 bus1=BMT165866095.1.2.3,bus2=BMT165866096.1.2.3,Phases=3,Linecode=CAB108_3_3,Length=0.027210000,Units=km
new line.TR4685136 bus1=BMT2356698B.1.2.3,bus2=BMT158869720.1.2.3,Phases=3,Linecode=CAB103_3_3,Length=0.032397000,Units=km
new line.TR4685164 bus1=BMT165866097.1.2.3,bus2=BMT2356726B.1.2.3,Phases=3,Linecode=CABA08_3_3,Length=0.029841000,Units=km
new line.TR4685171 bus1=BMT165866097.1.2.3,bus2=BMT2784090B.1.2.3,Phases=3,Linecode=CABA08_3_3,Length=0.034838000,Units=km
new line.TR4685192 bus1=BMT157468966.1.2.3,bus2=BMT2356810B.1.2.3,Phases=3,Linecode=CAB103_3_3,Length=0.039672000,Units=km
new line.TR4685220 bus1=BMT2356726B.1.2.3,bus2=BMT2789620B.1.2.3,Phases=3,Linecode=CABA08_3_3,Length=0.034535000,Units=km
new line.TR4685255 bus1=BMT162451211.3,bus2=BMT162451212.3,Phases=1,Linecode=CABA06_3_1,Length=0.020006000,Units=km
new line.TR4685262 bus1=BMT162451211.1.2.3,bus2=BMT2789984B.1.2.3,Phases=3,Linecode=CABA08_3_3,Length=0.018116000,Units=km
new line.TR4685276 bus1=BMT162451212.3,bus2=BMT2356803B.3,Phases=1,Linecode=CAB103_3_1,Length=0.030025000,Units=km
new line.TR11761702 bus1=BMT118189234.1.2.3,bus2=BMT2529094B.1.2.3,Phases=3,Linecode=CAB902_4_3,Length=0.035181000,Units=km
new line.TR11761730 bus1=BMT2529094B.1.2.3,bus2=BMT2529101B.1.2.3,Phases=3,Linecode=CAB902_4_3,Length=0.027900000,Units=km
new line.TR11761786 bus1=BMT2529101B.1.2.3,bus2=BMT2529115B.1.2.3,Phases=3,Linecode=CAB902_4_3,Length=0.040273000,Units=km
new line.TR11761849 bus1=BMT2529115B.1.2.3,bus2=BMT118189248.1.2.3,Phases=3,Linecode=CAB902_4_3,Length=0.030895000,Units=km
new line.TR12299667 bus1=BMT163742231.1.2.3,bus2=BMT8901395B.1.2.3,Phases=3,Linecode=CABA08_3_3,Length=0.022479000,Units=km
new line.TR12299668 bus1=BMT8901395B.1.2.3,bus2=BMT4117310B.1.2.3,Phases=3,Linecode=CABA08_3_3,Length=0.021477000,Units=km
new line.TR12299672 bus1=BMT4117310B.1.2.3,bus2=BMT2754578B.1.2.3,Phases=3,Linecode=CABA08_3_3,Length=0.039835000,Units=km
new line.TR12299680 bus1=BMT2754578B.1.2.3,bus2=BMT154793980.1.2.3,Phases=3,Linecode=CABA08_3_3,Length=0.027666000,Units=km
new line.TR12299681 bus1=BMT163741737.1.2.3,bus2=BMT8895226B.1.2.3,Phases=3,Linecode=CABA08_3_3,Length=0.020524000,Units=km
new line.TR12299686 bus1=BMT8895226B.1.2.3,bus2=BMT7632648B.1.2.3,Phases=3,Linecode=CABA08_3_3,Length=0.018116000,Units=km
new line.TR12299687 bus1=BMT7632648B.1.2.3,bus2=BMT3371292B.1.2.3,Phases=3,Linecode=CABA08_3_3,Length=0.016036000,Units=km
new line.TR12299773 bus1=BMT163741730.1.2.3,bus2=BMT163741731.1.2.3,Phases=3,Linecode=CABA08_3_3,Length=0.009490000,Units=km
new line.TR12299776 bus1=BMT163741731.1.2.3,bus2=BMT3090837B.1.2.3,Phases=3,Linecode=CAB907_4_3,Length=0.023416000,Units=km
new line.TR12302852 bus1=BMT172480658.1.2.3,bus2=BMT172480659.1.2.3,Phases=3,Linecode=CAB902_4_3,Length=0.038481000,Units=km
new line.TR12488902 bus1=BMT2050917B.1.2.3,bus2=BMT165595547.1.2.3,Phases=3,Linecode=CABA08_3_3,Length=0.024193000,Units=km
new line.TR12488903 bus1=BMT161871565.1.2.3,bus2=BMT165594540.1.2.3,Phases=3,Linecode=CABA08_3_3,Length=0.010299000,Units=km
new line.TR12489042 bus1=BMT165595546.1.2.3,bus2=BMT9099097B.1.2.3,Phases=3,Linecode=CABA08_3_3,Length=0.009852000,Units=km
new line.TR12489045 bus1=BMT9099097B.1.2.3,bus2=BMT2805685B.1.2.3,Phases=3,Linecode=CABA08_3_3,Length=0.020524000,Units=km
new line.TR12489060 bus1=BMT2805685B.1.2.3,bus2=BMT161875230.1.2.3,Phases=3,Linecode=CABA08_3_3,Length=0.030488000,Units=km
new line.TR12489061 bus1=BMT2805699B.1.2.3,bus2=BMT165595702.1.2.3,Phases=3,Linecode=CABA08_3_3,Length=0.036135000,Units=km
new line.TR12489064 bus1=BMT165595699.1.2.3,bus2=BMT2805699B.1.2.3,Phases=3,Linecode=CABA08_3_3,Length=0.027792000,Units=km
new line.TR12489074 bus1=BMT165595699.1.2.3,bus2=BMT165595698.1.2.3,Phases=3,Linecode=CABA08_3_3,Length=0.021547000,Units=km
new line.TR12489077 bus1=BMT165595698.1.2.3,bus2=BMT161879114.1.2.3,Phases=3,Linecode=CABA08_3_3,Length=0.012210000,Units=km
new line.TR12489082 bus1=BMT160511230.1.2.3,bus2=BMT165595718.1.2.3,Phases=3,Linecode=CABA08_3_3,Length=0.015561000,Units=km
new line.TR12489095 bus1=BMT165595698.1.2.3,bus2=BMT3807588.1.2.3,Phases=3,Linecode=CAB103_3_3,Length=0.012810000,Units=km
new line.TR3428405 bus1=BMT154589059.1.2.3,bus2=BMT154589060.1.2.3,Phases=3,Linecode=CAB103_3_3,Length=0.030603000,Units=km
new line.TR3494058 bus1=BMT1980581B.1.2.3,bus2=BMT3360274B.1.2.3,Phases=3,Linecode=CAB108_3_3,Length=0.029841000,Units=km
new line.TR3494114 bus1=BMT1980602B.1.2.3,bus2=BMT1980581B.1.2.3,Phases=3,Linecode=CAB108_3_3,Length=0.007618000,Units=km
new line.TR3494128 bus1=BMT148825026.1.2.3,bus2=BMT1980602B.1.2.3,Phases=3,Linecode=CAB108_3_3,Length=0.032994000,Units=km
new line.TR3494170 bus1=BMT148825025.1.2.3,bus2=BMT6387719B.1.2.3,Phases=3,Linecode=CAB108_3_3,Length=0.020886000,Units=km
new line.TR3499560 bus1=BMT154706639.1.2.3,bus2=BMT2780989B.1.2.3,Phases=3,Linecode=CAB108_3_3,Length=0.029077000,Units=km
new line.TR3561881 bus1=BMT165589026.1.2.3,bus2=BMT99028225.1.2.3,Phases=3,Linecode=CAB108_3_3,Length=0.024705000,Units=km
new line.TR3563288 bus1=BMT150963604.1.2.3,bus2=BMT2638245B.1.2.3,Phases=3,Linecode=CABA06_3_3,Length=0.051014000,Units=km
new line.TR3568209 bus1=BMT99029485.2,bus2=BMT2765848B.2,Phases=1,Linecode=CAB103_3_1,Length=0.031773000,Units=km
new line.TR3628465 bus1=BMT99028113.1.2.3,bus2=BMT2009862B.1.2.3,Phases=3,Linecode=CAB108_3_3,Length=0.025969000,Units=km
new line.TR3628528 bus1=BMT163346855.1.2.3,bus2=BMT163346856.1.2.3,Phases=3,Linecode=CABA06_3_3,Length=0.026933000,Units=km
new line.TR3628563 bus1=BMT163346851.1.2.3,bus2=BMT163346854.1.2.3,Phases=3,Linecode=CAB108_3_3,Length=0.027793000,Units=km
new line.TR3628570 bus1=BMT163346851.1.2.3,bus2=BMT163346855.1.2.3,Phases=3,Linecode=CAB108_3_3,Length=0.027666000,Units=km
new line.TR3628605 bus1=BMT2015854B.1.2.3,bus2=BMT163346851.1.2.3,Phases=3,Linecode=CAB108_3_3,Length=0.036259000,Units=km
new line.TR3628633 bus1=BMT2015861B.1.2.3,bus2=BMT2015854B.1.2.3,Phases=3,Linecode=CAB108_3_3,Length=0.019652000,Units=km
new line.TR3771888 bus1=BMT162361147.1.2.3,bus2=BMT162361148.1.2.3,Phases=3,Linecode=CAB103_3_3,Length=0.028661000,Units=km
new line.TR3779427 bus1=BMT2053451B.1.2.3,bus2=BMT2041845B.1.2.3,Phases=3,Linecode=CABA08_3_3,Length=0.028870000,Units=km
new line.TR3779455 bus1=BMT164185046.1.2.3,bus2=BMT2053451B.1.2.3,Phases=3,Linecode=CABA08_3_3,Length=0.028870000,Units=km
new line.TR3779483 bus1=BMT2053465B.1.2.3,bus2=BMT164185046.1.2.3,Phases=3,Linecode=CABA08_3_3,Length=0.029622000,Units=km
new line.TR3779504 bus1=BMT2053472B.1.2.3,bus2=BMT2053465B.1.2.3,Phases=3,Linecode=CABA08_3_3,Length=0.026933000,Units=km
new line.TR3779532 bus1=BMT162361146.1.2.3,bus2=BMT162361147.1.2.3,Phases=3,Linecode=CAB103_3_3,Length=0.035912000,Units=km
new line.TR3779539 bus1=BMT99028001.1.2.3,bus2=BMT2053472B.1.2.3,Phases=3,Linecode=CABA08_3_3,Length=0.038128000,Units=km
new line.TR3779560 bus1=BMT99027994.1.2.3,bus2=BMT99028001.1.2.3,Phases=3,Linecode=CABA08_3_3,Length=0.017810000,Units=km
new line.TR4678073 bus1=BMT2354661B.1.2.3,bus2=BMT2008518B.1.2.3,Phases=3,Linecode=CABA08_3_3,Length=0.032704000,Units=km
new line.TR4683099 bus1=BMT99027784.1.2.3,bus2=BMT99027791.1.2.3,Phases=3,Linecode=CAB608_3_3,Length=0.053155000,Units=km
new line.TR4683120 bus1=BMT154706629.1.2.3,bus2=BMT154706630.1.2.3,Phases=3,Linecode=CAB108_3_3,Length=0.037131000,Units=km
new line.TR4683148 bus1=BMT2356068B.1.2.3,bus2=BMT2356075B.1.2.3,Phases=3,Linecode=CAB103_3_3,Length=0.038286000,Units=km
new line.TR4683176 bus1=BMT2356075B.1.2.3,bus2=BMT154706632.1.2.3,Phases=3,Linecode=CAB103_3_3,Length=0.040864000,Units=km
new line.TR4683204 bus1=BMT154706634.1.2.3,bus2=BMT2356089B.1.2.3,Phases=3,Linecode=CAB108_3_3,Length=0.013420000,Units=km
new line.TR4683211 bus1=BMT154706634.1.2.3,bus2=BMT99028323.1.2.3,Phases=3,Linecode=CAB103_3_3,Length=0.022367000,Units=km
new line.TR12066692 bus1=BMT163346847.1.2.3,bus2=BMT163346849.1.2.3,Phases=3,Linecode=CAB108_3_3,Length=0.019930000,Units=km
new line.TR12066699 bus1=BMT2025549B.1.2.3,bus2=BMT163346849.1.2.3,Phases=3,Linecode=CAB108_3_3,Length=0.014870000,Units=km
new line.TR12287877 bus1=BMT155392919.1.2.3,bus2=BMT1781501B.1.2.3,Phases=3,Linecode=CABA08_3_3,Length=0.027302000,Units=km
new line.TR3417891 bus1=BMT163442622.1.2.3,bus2=BMT163442623.1.2.3,Phases=3,Linecode=CAB108_3_3,Length=0.031393000,Units=km
new line.TR3470020 bus1=BMT1971460B.1.2.3,bus2=BMT148825028.1.2.3,Phases=3,Linecode=CAB108_3_3,Length=0.026933000,Units=km
new line.TR3470034 bus1=BMT148825027.1.2.3,bus2=BMT1971460B.1.2.3,Phases=3,Linecode=CAB108_3_3,Length=0.018687000,Units=km
new line.TR3470041 bus1=BMT148825027.1.2.3,bus2=BMT148825029.1.2.3,Phases=3,Linecode=CAB108_3_3,Length=0.017725000,Units=km
new line.TR3470083 bus1=BMT1971481B.1.2.3,bus2=BMT148825027.1.2.3,Phases=3,Linecode=CAB108_3_3,Length=0.005833000,Units=km
new line.TR3470104 bus1=BMT148825029.1.2.3,bus2=BMT3814119.1.2.3,Phases=3,Linecode=CAB108_3_3,Length=0.033251000,Units=km
new line.TR3474059 bus1=BMT163741729.1.2.3,bus2=BMT2356782B.1.2.3,Phases=3,Linecode=CABA08_3_3,Length=0.021547000,Units=km
new line.TR3475816 bus1=BMT154671252.1.2.3,bus2=BMT1953092B.1.2.3,Phases=3,Linecode=CAB108_3_3,Length=0.030814000,Units=km
new line.TR3475823 bus1=BMT99027868.1.2.3,bus2=BMT99027861.1.2.3,Phases=3,Linecode=CAB108_3_3,Length=0.016768000,Units=km
new line.TR3475837 bus1=BMT99027840.1.2.3,bus2=BMT99027847.1.2.3,Phases=3,Linecode=CAB108_3_3,Length=0.038089000,Units=km
new line.TR3475858 bus1=BMT148825028.1.2.3,bus2=BMT99027833.1.2.3,Phases=3,Linecode=CAB108_3_3,Length=0.038611000,Units=km
new line.TR3535526 bus1=BMT154706635.1.2.3,bus2=BMT154706636.1.2.3,Phases=3,Linecode=CAB108_3_3,Length=0.029077000,Units=km
new line.TR3537206 bus1=BMT99029478.1.2.3,bus2=BMT2860145B.1.2.3,Phases=3,Linecode=CAB103_3_3,Length=0.035365000,Units=km
new line.TR3541931 bus1=BMT169256016.1.2.3,bus2=BMT169256017.1.2.3,Phases=3,Linecode=CABA08_3_3,Length=0.026427000,Units=km
new line.TR3604217 bus1=BMT165589016.1.2.3,bus2=BMT165589017.1.2.3,Phases=3,Linecode=CAB108_3_3,Length=0.029841000,Units=km
new line.TR3604224 bus1=BMT165589016.1.2.3,bus2=BMT2009848B.1.2.3,Phases=3,Linecode=CAB108_3_3,Length=0.031631000,Units=km
new line.TR3604231 bus1=BMT165589016.1.2.3,bus2=BMT165589018.1.2.3,Phases=3,Linecode=CAB108_3_3,Length=0.036888000,Units=km
new line.TR3604308 bus1=BMT2009862B.1.2.3,bus2=BMT165589016.1.2.3,Phases=3,Linecode=CAB108_3_3,Length=0.025007000,Units=km
new line.TR3608186 bus1=BMT2010856B.1.2.3,bus2=BMT165589020.1.2.3,Phases=3,Linecode=CABA08_3_3,Length=0.033431000,Units=km
new line.TR3608214 bus1=BMT165589019.1.2.3,bus2=BMT2010856B.1.2.3,Phases=3,Linecode=CABA08_3_3,Length=0.035520000,Units=km
new line.TR3608242 bus1=BMT165589018.1.2.3,bus2=BMT165589019.1.2.3,Phases=3,Linecode=CABA08_3_3,Length=0.033743000,Units=km
new line.TR3676618 bus1=BMT165581062.1.2.3,bus2=BMT165581064.1.2.3,Phases=3,Linecode=CABA06_3_3,Length=0.027666000,Units=km
new line.TR3676632 bus1=BMT165581062.1.2.3,bus2=BMT2027509B.1.2.3,Phases=3,Linecode=CABA08_3_3,Length=0.032566000,Units=km
new line.TR3676660 bus1=BMT165044196.1.2.3,bus2=BMT2027502B.1.2.3,Phases=3,Linecode=CAB103_3_3,Length=0.040272000,Units=km
new line.TR3676695 bus1=BMT2027502B.1.2.3,bus2=BMT2032605B.1.2.3,Phases=3,Linecode=CAB103_3_3,Length=0.039062000,Units=km
new line.TR3678340 bus1=BMT2027922B.1.2.3,bus2=BMT2027929B.1.2.3,Phases=3,Linecode=CAB108_3_3,Length=0.033311000,Units=km
new line.TR3678375 bus1=BMT2027929B.1.2.3,bus2=BMT163346845.1.2.3,Phases=3,Linecode=CAB108_3_3,Length=0.029707000,Units=km
new line.TR3678403 bus1=BMT163346845.1.2.3,bus2=BMT2027943B.1.2.3,Phases=3,Linecode=CAB108_3_3,Length=0.032566000,Units=km
new line.TR3678438 bus1=BMT2027943B.1.2.3,bus2=BMT2027950B.1.2.3,Phases=3,Linecode=CAB108_3_3,Length=0.031836000,Units=km
new line.TR3678473 bus1=BMT2027950B.1.2.3,bus2=BMT163346846.1.2.3,Phases=3,Linecode=CAB108_3_3,Length=0.031153000,Units=km
new line.TR3678494 bus1=BMT163346846.1.2.3,bus2=BMT163346847.1.2.3,Phases=3,Linecode=CAB108_3_3,Length=0.031962000,Units=km
new line.TR3678501 bus1=BMT163346846.1.2.3,bus2=BMT163346848.1.2.3,Phases=3,Linecode=CAB108_3_3,Length=0.044834000,Units=km
new line.TR5708970 bus1=BMT2638245B.1.2.3,bus2=BMT2638252B.1.2.3,Phases=3,Linecode=CABA06_3_3,Length=0.029008000,Units=km
new line.TR5708991 bus1=BMT2638252B.1.2.3,bus2=BMT150963607.1.2.3,Phases=3,Linecode=CABA06_3_3,Length=0.028852000,Units=km
new line.TR5803491 bus1=BMT164286912.1.2.3,bus2=BMT166139126.1.2.3,Phases=3,Linecode=CABA08_3_3,Length=0.030895000,Units=km
new line.TR5803561 bus1=BMT2670949B.1.2.3,bus2=BMT164287705.1.2.3,Phases=3,Linecode=CABA06_3_3,Length=0.040717000,Units=km
new line.TR5911221 bus1=BMT2707321B.1.2.3,bus2=BMT2707335B.1.2.3,Phases=3,Linecode=CAB108_3_3,Length=0.036410000,Units=km
new line.TR5911249 bus1=BMT2707335B.1.2.3,bus2=BMT2356642B.1.2.3,Phases=3,Linecode=CAB108_3_3,Length=0.035010000,Units=km
new line.TR5911410 bus1=BMT2707419B.1.2.3,bus2=BMT158869710.1.2.3,Phases=3,Linecode=CAB108_3_3,Length=0.040619000,Units=km
new line.TR5911543 bus1=BMT2707461B.1.2.3,bus2=BMT99028701.1.2.3,Phases=3,Linecode=CAB103_3_3,Length=0.009437000,Units=km
new line.TR5911704 bus1=BMT2707517B.1.2.3,bus2=BMT158869709.1.2.3,Phases=3,Linecode=CAB108_3_3,Length=0.045267000,Units=km
new line.TR5916205 bus1=BMT2709099B.1.2.3,bus2=BMT2356635B.1.2.3,Phases=3,Linecode=CAB103_3_3,Length=0.032659000,Units=km
new line.TR5916233 bus1=BMT2709113B.1.2.3,bus2=BMT2709099B.1.2.3,Phases=3,Linecode=CAB103_3_3,Length=0.030619000,Units=km
new line.TR5916289 bus1=BMT2709141B.1.2.3,bus2=BMT2356628B.1.2.3,Phases=3,Linecode=CAB103_3_3,Length=0.030619000,Units=km
new line.TR5916331 bus1=BMT2709155B.1.2.3,bus2=BMT2709141B.1.2.3,Phases=3,Linecode=CAB103_3_3,Length=0.029214000,Units=km
new line.TR5916352 bus1=BMT2709162B.1.2.3,bus2=BMT2709155B.1.2.3,Phases=3,Linecode=CAB103_3_3,Length=0.029214000,Units=km
new line.TR6029157 bus1=BMT2750056B.1.2.3,bus2=BMT154589064.1.2.3,Phases=3,Linecode=CAB103_3_3,Length=0.037118000,Units=km
new line.TR6029220 bus1=BMT2750077B.1.2.3,bus2=BMT154589061.1.2.3,Phases=3,Linecode=CAB103_3_3,Length=0.028870000,Units=km
new line.TR6029248 bus1=BMT2750084B.1.2.3,bus2=BMT154589065.1.2.3,Phases=3,Linecode=CAB103_3_3,Length=0.038089000,Units=km
new line.TR6030585 bus1=BMT2750588B.1.2.3,bus2=BMT99028988.1.2.3,Phases=3,Linecode=CAB103_3_3,Length=0.028644000,Units=km
new line.TR6030725 bus1=BMT2750630B.1.2.3,bus2=BMT2750588B.1.2.3,Phases=3,Linecode=CAB103_3_3,Length=0.034938000,Units=km
new line.TR6030837 bus1=BMT2750665B.1.2.3,bus2=BMT99028568.1.2.3,Phases=3,Linecode=CAB108_3_3,Length=0.037865000,Units=km
new line.TR4683239 bus1=BMT2356089B.1.2.3,bus2=BMT154706635.1.2.3,Phases=3,Linecode=CAB108_3_3,Length=0.032211000,Units=km
new line.TR4683295 bus1=BMT154706640.1.2.3,bus2=BMT154706643.1.2.3,Phases=3,Linecode=CAB103_3_3,Length=0.038089000,Units=km
new line.TR4683323 bus1=BMT99028407.1.2.3,bus2=BMT99028414.1.2.3,Phases=3,Linecode=CAB108_3_3,Length=0.020130000,Units=km
new line.TR4683351 bus1=BMT99028414.1.2.3,bus2=BMT99028421.1.2.3,Phases=3,Linecode=CAB103_3_3,Length=0.033130000,Units=km
new line.TR4683358 bus1=BMT99028414.1.2.3,bus2=BMT99028428.1.2.3,Phases=3,Linecode=CAB108_3_3,Length=0.024194000,Units=km
new line.TR4683365 bus1=BMT99028414.1.2.3,bus2=BMT99028435.1.2.3,Phases=3,Linecode=CAB103_3_3,Length=0.035857000,Units=km
new line.TR4683407 bus1=BMT99028442.1.2.3,bus2=BMT99028449.1.2.3,Phases=3,Linecode=CAB108_3_3,Length=0.025949000,Units=km
new line.TR4683428 bus1=BMT99029009.1.2.3,bus2=BMT2766303B.1.2.3,Phases=3,Linecode=CAB103_3_3,Length=0.034009000,Units=km
new line.TR4683442 bus1=BMT2356152B.1.2.3,bus2=BMT99029016.1.2.3,Phases=3,Linecode=CAB103_3_3,Length=0.028661000,Units=km
new line.TR4683470 bus1=BMT2356159B.1.2.3,bus2=BMT99029023.1.2.3,Phases=3,Linecode=CAB103_3_3,Length=0.006710000,Units=km
new line.TR4683491 bus1=BMT2356166B.1.2.3,bus2=BMT2356488B.1.2.3,Phases=3,Linecode=CAB103_3_3,Length=0.008065000,Units=km
new line.TR4683512 bus1=BMT150963598.1.2.3,bus2=BMT2766254B.1.2.3,Phases=3,Linecode=CAB103_3_3,Length=0.036369000,Units=km
new line.TR4683533 bus1=BMT2356180B.1.2.3,bus2=BMT99029037.1.2.3,Phases=3,Linecode=CAB103_3_3,Length=0.032258000,Units=km
new line.TR4683561 bus1=BMT2356187B.1.2.3,bus2=BMT155013396.1.2.3,Phases=3,Linecode=CAB103_3_3,Length=0.038089000,Units=km
new line.TR4683568 bus1=BMT2356187B.1.2.3,bus2=BMT169961046.1.2.3,Phases=3,Linecode=CAB103_3_3,Length=0.005387000,Units=km
new line.TR4683617 bus1=BMT2356201B.1.2.3,bus2=BMT2862700B.1.2.3,Phases=3,Linecode=CAB103_3_3,Length=0.034491000,Units=km
new line.TR4683638 bus1=BMT169961051.1.2.3,bus2=BMT169961052.1.2.3,Phases=3,Linecode=CABA06_3_3,Length=0.029538000,Units=km
new line.TR4683659 bus1=BMT169961052.1.2.3,bus2=BMT166136315.1.2.3,Phases=3,Linecode=CABA08_3_3,Length=0.023713000,Units=km
new line.TR4683666 bus1=BMT169961052.1.2.3,bus2=BMT2860096B.1.2.3,Phases=3,Linecode=CABA08_3_3,Length=0.040322000,Units=km
new line.TR4683687 bus1=BMT166138883.1.2.3,bus2=BMT166138884.1.2.3,Phases=3,Linecode=CABA06_3_3,Length=0.034491000,Units=km
new line.TR4683694 bus1=BMT166138883.1.2.3,bus2=BMT2866977B.1.2.3,Phases=3,Linecode=CABA08_3_3,Length=0.032258000,Units=km
new line.TR4683715 bus1=BMT166138885.1.2.3,bus2=BMT166138886.1.2.3,Phases=3,Linecode=CABA06_3_3,Length=0.038089000,Units=km
new line.TR4683722 bus1=BMT166138885.1.2.3,bus2=BMT2853551B.1.2.3,Phases=3,Linecode=CABA08_3_3,Length=0.026840000,Units=km
new line.TR4683757 bus1=BMT166139126.1.2.3,bus2=BMT166139127.1.2.3,Phases=3,Linecode=CABA06_3_3,Length=0.034009000,Units=km