! manter este comentario para compatibilidade do C#
new circuit.alimBHGT19 bus1=BMT99027784.1.2.3,basekv=13.800000000,pu=1.040000000