new line.10278171 bus1=BBT2991192.1.2.3.0,bus2=BBT2991199.1.2.3.0,Phases=3,Linecode=BT805_BT805_4_3_4,Length=0.024214000,Units=km
new line.10284044 bus1=BBT2993978.1.2.3.0,bus2=BBT2993985.1.2.3.0,Phases=3,Linecode=BT107_BT107_7_3_1,Length=0.032659000,Units=km
new line.10284093 bus1=BBT2993971.1.2.3.0,bus2=BBT2993978.1.2.3.0,Phases=3,Linecode=BT107_BT107_7_3_1,Length=0.030619000,Units=km
new line.10284163 bus1=BBT2993887.1.2.3.0,bus2=BBT2993929.1.2.3.0,Phases=3,Linecode=BT108_BT108_7_3_1,Length=0.029214000,Units=km
new line.10284212 bus1=BBT2993929.1.2.3.0,bus2=BBT2993936.1.2.3.0,Phases=3,Linecode=BT107_BT107_7_3_1,Length=0.029214000,Units=km
new line.10284233 bus1=BBT2993936.1.2.3.0,bus2=BBT2993943.1.2.3.0,Phases=3,Linecode=BT107_BT107_7_3_1,Length=0.036245000,Units=km
new line.10284261 bus1=BBT2993957.1.2.0,bus2=BBT2993964.1.2.0,Phases=2,Linecode=BT801_BT801_4_2_3,Length=0.027666000,Units=km
new line.10284296 bus1=BBT2993992.1.2.3.0,bus2=BBT2993999.1.2.3.0,Phases=3,Linecode=BT805_BT805_4_3_4,Length=0.034838000,Units=km
new line.10284303 bus1=BBT2993992.1.2.3.0,bus2=BBT5084598.1.2.3.0,Phases=3,Linecode=BT514_BT514_5_3_1,Length=0.010444000,Units=km
new line.10284338 bus1=BBT2993999.1.2.3.0,bus2=BBT2994006.1.2.3.0,Phases=3,Linecode=BT803_BT803_4_3_4,Length=0.034723000,Units=km
new line.10284359 bus1=BBT2994006.1.2.3.0,bus2=BBT2994013.1.2.3.0,Phases=3,Linecode=BT803_BT803_4_3_4,Length=0.033980000,Units=km
new line.10301264 bus1=BBT3000705.1.2.3.0,bus2=BBT3000712.1.2.3.0,Phases=3,Linecode=BT803_BT803_4_3_4,Length=0.028644000,Units=km
new line.10301537 bus1=BBT4329466.1.2.3.0,bus2=BBT4329508.1.2.3.0,Phases=3,Linecode=BT810_BT810_4_3_4,Length=0.026484000,Units=km
new line.10301796 bus1=BBT3000565.1.2.3.0,bus2=BBT3000572.1.2.3.0,Phases=3,Linecode=BT805_BT805_4_3_4,Length=0.007002000,Units=km
new line.10301803 bus1=BBT3000565.1.2.3.0,bus2=BBT3000691.1.2.3.0,Phases=3,Linecode=BT803_BT803_4_3_4,Length=0.008947000,Units=km
new line.10301810 bus1=BBT3000565.1.2.3.0,bus2=BBT3000656.1.2.3.0,Phases=3,Linecode=BT803_BT803_4_3_4,Length=0.027302000,Units=km
new line.10303049 bus1=BBT3001307.1.2.3.0,bus2=BBT3001314.1.2.3.0,Phases=3,Linecode=BT809_BT809_4_3_4,Length=0.035478000,Units=km
new line.10303070 bus1=BBT3001300.1.2.3.0,bus2=BBT3001307.1.2.3.0,Phases=3,Linecode=BT803_BT803_4_3_4,Length=0.036245000,Units=km
new line.10303105 bus1=BBT3001244.1.2.3.0,bus2=BBT3001265.1.2.3.0,Phases=3,Linecode=BT803_BT803_4_3_4,Length=0.031314000,Units=km
new line.10303133 bus1=BBT3001265.1.2.3.0,bus2=BBT3001272.1.2.3.0,Phases=3,Linecode=BT803_BT803_4_3_4,Length=0.029128000,Units=km
new line.10303161 bus1=BBT3001272.1.2.3.0,bus2=BBT3001279.1.2.3.0,Phases=3,Linecode=BT803_BT803_4_3_4,Length=0.034024000,Units=km
new line.10303182 bus1=BBT3001279.1.2.3.0,bus2=BBT3001286.1.2.3.0,Phases=3,Linecode=BT809_BT809_4_3_4,Length=0.030814000,Units=km
new line.10303203 bus1=BBT3001286.1.2.3.0,bus2=BBT3001293.1.2.3.0,Phases=3,Linecode=BT809_BT809_4_3_4,Length=0.027521000,Units=km
new line.10303224 bus1=BBT3001293.1.2.0,bus2=BBT5156243.1.2.0,Phases=2,Linecode=BT808_BT808_4_2_3,Length=0.015038000,Units=km
new line.10563764 bus1=BBT3100728.1.2.3.0,bus2=BBT121497770.1.2.3.0,Phases=3,Linecode=BT803_BT803_4_3_4,Length=0.036231000,Units=km
new line.10563967 bus1=BBT3100658.1.2.3.0,bus2=BBT3100742.1.2.3.0,Phases=3,Linecode=BT108_BT107_7_3_1,Length=0.007813000,Units=km
new line.10563974 bus1=BBT3100658.1.2.3.0,bus2=BBT3100714.1.2.3.0,Phases=3,Linecode=BT108_BT107_7_3_1,Length=0.039023000,Units=km
new line.10563981 bus1=BBT3100658.1.2.3.0,bus2=BBT3100672.1.2.3.0,Phases=3,Linecode=BT111_BT108_7_3_1,Length=0.009437000,Units=km
new line.10564009 bus1=BBT3100679.1.2.3.0,bus2=BBT3100693.1.2.3.0,Phases=3,Linecode=BT108_BT107_7_3_1,Length=0.033145000,Units=km
new line.10564037 bus1=BBT3100672.1.2.3.0,bus2=BBT3100679.1.2.3.0,Phases=3,Linecode=BT111_BT108_7_3_1,Length=0.027174000,Units=km
new line.10567166 bus1=BBT3101883.1.2.3.0,bus2=BBT3101897.1.2.3.0,Phases=3,Linecode=BT111_BT108_7_3_1,Length=0.029975000,Units=km
new line.10567635 bus1=BBT3101869.1.2.3.0,bus2=BBT3101904.1.2.3.0,Phases=3,Linecode=BT107_BT107_7_3_1,Length=0.046970000,Units=km
new line.10567642 bus1=BBT3101869.1.2.3.0,bus2=BBT3101876.1.2.3.0,Phases=3,Linecode=BT111_BT108_7_3_1,Length=0.021477000,Units=km
new line.10567684 bus1=BBT3101876.1.2.3.0,bus2=BBT3101883.1.2.3.0,Phases=3,Linecode=BT111_BT108_7_3_1,Length=0.042556000,Units=km
new line.10570729 bus1=BBT3103066.1.2.3.0,bus2=BBT3103073.1.2.3.0,Phases=3,Linecode=BT803_BT803_4_3_4,Length=0.031915000,Units=km
new line.10570750 bus1=BBT3103073.1.2.3.0,bus2=BBT3103080.1.2.3.0,Phases=3,Linecode=BT803_BT803_4_3_4,Length=0.029538000,Units=km
new line.10570778 bus1=BBT3103080.1.2.3.0,bus2=BBT3103101.1.2.3.0,Phases=3,Linecode=BT803_BT803_4_3_4,Length=0.007282000,Units=km
new line.10570820 bus1=BBT3103101.1.2.3.0,bus2=BBT3103115.1.2.3.0,Phases=3,Linecode=BT803_BT803_4_3_4,Length=0.028310000,Units=km
new line.10570827 bus1=BBT3103101.1.2.3.0,bus2=BBT3103143.1.2.3.0,Phases=3,Linecode=BT803_BT803_4_3_4,Length=0.029690000,Units=km
new line.10571016 bus1=BBT3103206.1.2.3.0,bus2=BBT3103227.1.2.3.0,Phases=3,Linecode=BT803_BT803_4_3_4,Length=0.021846000,Units=km
new line.10571128 bus1=BBT3103248.1.2.3.0,bus2=BBT3103269.1.2.3.0,Phases=3,Linecode=BT107_BT107_7_3_1,Length=0.037010000,Units=km
new line.10571688 bus1=BBT3103437.1.2.3.0,bus2=BBT3103444.1.2.3.0,Phases=3,Linecode=BT805_BT805_4_3_4,Length=0.026313000,Units=km
new line.10571849 bus1=BBT3103451.1.2.3.0,bus2=BBT3103458.1.2.3.0,Phases=3,Linecode=BT805_BT805_4_3_4,Length=0.029025000,Units=km
new line.10571905 bus1=BBT3103472.1.2.3.0,bus2=BBT3103514.1.2.3.0,Phases=3,Linecode=BT809_BT809_4_3_4,Length=0.025502000,Units=km
new line.10571954 bus1=BBT3103479.1.2.0,bus2=BBT3103619.1.2.0,Phases=2,Linecode=BT802_BT802_4_2_3,Length=0.025007000,Units=km
new line.10571968 bus1=BBT3103619.1.2.0,bus2=BBT3103633.1.2.0,Phases=2,Linecode=BT802_BT802_4_2_3,Length=0.027302000,Units=km
new line.10582860 bus1=BBT3108036.1.2.3.0,bus2=BBT3108043.1.2.3.0,Phases=3,Linecode=BT108_BT108_7_3_1,Length=0.027864000,Units=km
new line.10582881 bus1=BBT3108043.1.2.3.0,bus2=BBT3108050.1.2.3.0,Phases=3,Linecode=BT108_BT108_7_3_1,Length=0.017894000,Units=km
new line.10582888 bus1=BBT3108043.1.2.3.0,bus2=BBT3108064.1.2.3.0,Phases=3,Linecode=BT107_BT107_7_3_1,Length=0.028644000,Units=km
new line.10582937 bus1=BBT3108050.1.2.3.0,bus2=BBT3108057.1.2.3.0,Phases=3,Linecode=BT108_BT108_7_3_1,Length=0.023713000,Units=km
new line.10582958 bus1=BBT3108064.1.2.3.0,bus2=BBT3108078.1.2.3.0,Phases=3,Linecode=BT107_BT107_7_3_1,Length=0.030895000,Units=km
new line.10583882 bus1=BBT3195893.1.2.3.0,bus2=BBT3195886.1.2.3.0,Phases=3,Linecode=BT107_BT107_7_3_1,Length=0.007073000,Units=km
new line.10786413 bus1=BBT3186751.1.2.3.0,bus2=BBT3186891.1.2.3.0,Phases=3,Linecode=BT809_BT809_4_3_4,Length=0.009490000,Units=km
new line.10786420 bus1=BBT3186751.1.2.3.0,bus2=BBT3619638.1.2.3.0,Phases=3,Linecode=BT803_BT803_4_3_4,Length=0.011665000,Units=km
new line.10786504 bus1=BBT3186772.1.2.3.0,bus2=BBT3186793.1.2.3.0,Phases=3,Linecode=BT813_BT813_4_3_4,Length=0.007618000,Units=km
new line.10786525 bus1=BBT3186793.1.2.3.0,bus2=BBT3186807.1.2.3.0,Phases=3,Linecode=BT813_BT813_4_3_4,Length=0.007073000,Units=km
new line.10786539 bus1=BBT3186807.1.2.3.0,bus2=BBT3186828.1.2.3.0,Phases=3,Linecode=BT813_BT813_4_3_4,Length=0.006405000,Units=km
new line.10786574 bus1=BBT3186828.1.2.3.0,bus2=BBT3186835.1.2.3.0,Phases=3,Linecode=BT813_BT813_4_3_4,Length=0.007213000,Units=km
new line.10104529 bus1=BBT2931202.1.2.3.0,bus2=BBT2931209.1.2.3.0,Phases=3,Linecode=BT809_BT809_4_3_4,Length=0.033610000,Units=km
new line.10104585 bus1=BBT2931174.1.2.3.0,bus2=BBT2931202.1.2.3.0,Phases=3,Linecode=BT803_BT803_4_3_4,Length=0.034723000,Units=km
new line.10104627 bus1=BBT2931167.1.2.3.0,bus2=BBT2931181.1.2.3.0,Phases=3,Linecode=BT803_BT803_4_3_4,Length=0.031025000,Units=km
new line.10104634 bus1=BBT2931167.1.2.3.0,bus2=BBT4063438.1.2.3.0,Phases=3,Linecode=BT810_BT810_4_3_4,Length=0.018794000,Units=km
new line.10104655 bus1=BBT2931181.1.2.3.0,bus2=BBT2931188.1.2.3.0,Phases=3,Linecode=BT803_BT803_4_3_4,Length=0.027739000,Units=km
new line.10104683 bus1=BBT2931188.1.2.3.0,bus2=BBT2931195.1.2.3.0,Phases=3,Linecode=BT803_BT803_4_3_4,Length=0.043841000,Units=km
new line.10105341 bus1=BBT2931503.1.2.3.0,bus2=BBT2931524.1.2.3.0,Phases=3,Linecode=BT111_BT108_7_3_1,Length=0.025561000,Units=km
new line.10105369 bus1=BBT2931496.1.2.3.0,bus2=BBT2931503.1.2.3.0,Phases=3,Linecode=BT111_BT108_7_3_1,Length=0.022832000,Units=km
new line.10105635 bus1=BBT2931433.1.2.3.0,bus2=BBT3075507.1.2.3.0,Phases=3,Linecode=BT107_BT107_7_3_1,Length=0.031584000,Units=km
new line.10105803 bus1=BBT2931475.1.2.3.0,bus2=BBT2931496.1.2.3.0,Phases=3,Linecode=BT111_BT108_7_3_1,Length=0.026427000,Units=km
new line.10105810 bus1=BBT2931475.1.2.3.0,bus2=BBT3098047.1.2.3.0,Phases=3,Linecode=BT108_BT107_7_3_1,Length=0.038598000,Units=km
new line.10105817 bus1=BBT2931475.1.2.3.0,bus2=BBT3098061.1.2.3.0,Phases=3,Linecode=BT803_BT803_4_3_4,Length=0.026427000,Units=km
new line.10105873 bus1=BBT2931482.1.2.3.0,bus2=BBT2931489.1.2.3.0,Phases=3,Linecode=BT111_BT108_7_3_1,Length=0.029077000,Units=km
new line.10105901 bus1=BBT2931489.1.2.3.0,bus2=BBT3098110.1.2.3.0,Phases=3,Linecode=BT107_BT107_7_3_1,Length=0.030814000,Units=km
new line.10105908 bus1=BBT2931489.1.2.3.0,bus2=BBT3098089.1.2.3.0,Phases=3,Linecode=BT111_BT108_7_3_1,Length=0.034491000,Units=km
new line.10105915 bus1=BBT2931489.1.2.3.0,bus2=BBT3098082.1.2.3.0,Phases=3,Linecode=BT111_BT108_7_3_1,Length=0.028186000,Units=km
new line.10350404 bus1=BBT3019724.1.2.3.0,bus2=BBT3019731.1.2.3.0,Phases=3,Linecode=BT805_BT805_4_3_4,Length=0.023860000,Units=km
new line.10350432 bus1=BBT3019731.1.2.3.0,bus2=BBT3019738.1.2.3.0,Phases=3,Linecode=BT107_BT107_7_3_1,Length=0.022479000,Units=km
new line.10350460 bus1=BBT3019738.1.2.3.0,bus2=BBT3024330.1.2.3.0,Phases=3,Linecode=BT107_BT107_7_3_1,Length=0.033296000,Units=km
new line.10350481 bus1=BBT3019689.1.2.3.0,bus2=BBT3019696.1.2.3.0,Phases=3,Linecode=BT803_BT803_4_3_4,Length=0.034419000,Units=km
new line.10350565 bus1=BBT3019696.1.2.3.0,bus2=BBT3019703.1.2.3.0,Phases=3,Linecode=BT803_BT803_4_3_4,Length=0.034419000,Units=km
new line.10350586 bus1=BBT3019703.1.2.3.0,bus2=BBT3019710.1.2.3.0,Phases=3,Linecode=BT803_BT803_4_3_4,Length=0.035619000,Units=km
new line.10350621 bus1=BBT3019710.1.2.3.0,bus2=BBT3019717.1.2.3.0,Phases=3,Linecode=BT803_BT803_4_3_4,Length=0.033610000,Units=km
new line.10350656 bus1=BBT3019745.1.2.3.0,bus2=BBT3019759.1.2.3.0,Phases=3,Linecode=BT107_BT107_7_3_1,Length=0.037746000,Units=km
new line.10362437 bus1=BBT3024330.1.2.3.0,bus2=BBT3024351.1.2.3.0,Phases=3,Linecode=BT809_BT809_4_3_4,Length=0.032459000,Units=km
new line.10362927 bus1=BBT3024708.1.2.3.0,bus2=BBT3024715.1.2.3.0,Phases=3,Linecode=BT805_BT805_4_3_4,Length=0.028644000,Units=km
new line.10363200 bus1=BBT3024722.1.2.3.0,bus2=BBT3024729.1.2.3.0,Phases=3,Linecode=BT803_BT803_4_3_4,Length=0.028168000,Units=km
new line.10363249 bus1=BBT3024729.1.2.3.0,bus2=BBT3024736.1.2.3.0,Phases=3,Linecode=BT803_BT803_4_3_4,Length=0.026180000,Units=km
new line.10363291 bus1=BBT3024736.1.2.3.0,bus2=BBT3024743.1.2.3.0,Phases=3,Linecode=BT803_BT803_4_3_4,Length=0.034141000,Units=km
new line.10363459 bus1=BBT3024757.1.2.3.0,bus2=BBT3024771.1.2.3.0,Phases=3,Linecode=BT805_BT805_4_3_4,Length=0.029740000,Units=km
new line.10363487 bus1=BBT3024771.1.2.3.0,bus2=BBT3024778.1.2.3.0,Phases=3,Linecode=BT805_BT805_4_3_4,Length=0.030422000,Units=km
new line.10363515 bus1=BBT3024778.1.2.3.0,bus2=BBT3024799.1.2.3.0,Phases=3,Linecode=BT803_BT803_4_3_4,Length=0.032567000,Units=km
new line.10363536 bus1=BBT3024799.1.2.3.0,bus2=BBT3024813.1.2.3.0,Phases=3,Linecode=BT803_BT803_4_3_4,Length=0.025502000,Units=km
new line.10363557 bus1=BBT3024813.1.2.3.0,bus2=BBT3024820.1.2.3.0,Phases=3,Linecode=BT803_BT803_4_3_4,Length=0.028186000,Units=km
new line.10370865 bus1=BBT3028187.1.2.3.0,bus2=BBT3028194.1.2.3.0,Phases=3,Linecode=BT107_BT107_7_3_1,Length=0.046337000,Units=km
new line.10371292 bus1=BBT3028201.1.2.3.0,bus2=BBT3028243.1.2.3.0,Phases=3,Linecode=BT107_BT107_7_3_1,Length=0.013004000,Units=km
new line.10371299 bus1=BBT3028201.1.2.3.0,bus2=BBT3028236.1.2.3.0,Phases=3,Linecode=BT107_BT107_7_3_1,Length=0.008249000,Units=km
new line.10371306 bus1=BBT3028201.1.2.3.0,bus2=BBT3028208.1.2.3.0,Phases=3,Linecode=BT108_BT107_7_3_1,Length=0.009437000,Units=km
new line.10371390 bus1=BBT3028208.1.2.3.0,bus2=BBT3028215.1.2.3.0,Phases=3,Linecode=BT107_BT107_7_3_1,Length=0.029690000,Units=km
new line.10611896 bus1=BBT3118312.1.2.3.0,bus2=BBT3195935.1.2.3.0,Phases=3,Linecode=BT809_BT809_4_3_4,Length=0.018390000,Units=km
new line.10611924 bus1=BBT3118284.1.2.3.0,bus2=BBT3118319.1.2.3.0,Phases=3,Linecode=BT809_BT809_4_3_4,Length=0.023352000,Units=km
new line.10611931 bus1=BBT3118284.1.2.3.0,bus2=BBT3118312.1.2.3.0,Phases=3,Linecode=BT809_BT809_4_3_4,Length=0.012534000,Units=km
new line.10840138 bus1=BBT3207821.1.2.3.0,bus2=BBT3207898.1.2.3.0,Phases=3,Linecode=BT107_BT107_7_3_1,Length=0.025186000,Units=km
new line.10840166 bus1=BBT3207919.1.2.0,bus2=BBT3207926.1.2.0,Phases=2,Linecode=BT107_BT107_7_2_1,Length=0.031393000,Units=km
new line.10840194 bus1=BBT3207926.1.2.0,bus2=BBT3207940.1.2.0,Phases=2,Linecode=BT107_BT107_7_2_1,Length=0.031915000,Units=km
new line.10840264 bus1=BBT3207842.1.2.3.0,bus2=BBT3207863.1.2.3.0,Phases=3,Linecode=BT809_BT809_4_3_4,Length=0.020031000,Units=km
new line.10840285 bus1=BBT3207828.1.2.3.0,bus2=BBT3207842.1.2.3.0,Phases=3,Linecode=BT809_BT809_4_3_4,Length=0.005387000,Units=km
new line.10840292 bus1=BBT3207828.1.2.3.0,bus2=BBT3207835.1.2.3.0,Phases=3,Linecode=BT107_BT107_7_3_1,Length=0.035024000,Units=km
new line.10840404 bus1=BBT3207863.1.2.3.0,bus2=BBT3207870.1.2.3.0,Phases=3,Linecode=BT809_BT809_4_3_4,Length=0.014040000,Units=km
new line.10840446 bus1=BBT3207870.1.2.3.0,bus2=BBT3207877.1.2.3.0,Phases=3,Linecode=BT809_BT809_4_3_4,Length=0.021006000,Units=km
new line.10840537 bus1=BBT3207989.1.2.3.0,bus2=BBT3207996.1.2.3.0,Phases=3,Linecode=BT108_BT108_7_3_1,Length=0.031773000,Units=km
new line.10841013 bus1=BBT3208276.1.2.3.0,bus2=BBT3208283.1.2.3.0,Phases=3,Linecode=BT107_BT107_7_3_1,Length=0.040533000,Units=km
new line.10841048 bus1=BBT3208290.1.2.3.0,bus2=BBT3208297.1.2.3.0,Phases=3,Linecode=BT803_BT803_4_3_4,Length=0.028186000,Units=km
new line.10841069 bus1=BBT3208297.1.2.3.0,bus2=BBT3208304.1.2.3.0,Phases=3,Linecode=BT803_BT803_4_3_4,Length=0.026840000,Units=km
new line.10841083 bus1=BBT3208311.1.2.3.0,bus2=BBT3208318.1.2.3.0,Phases=3,Linecode=BT107_BT107_7_3_1,Length=0.029538000,Units=km
new line.10841104 bus1=BBT3208318.1.2.3.0,bus2=BBT3208325.1.2.3.0,Phases=3,Linecode=BT107_BT107_7_3_1,Length=0.029077000,Units=km
new line.10841118 bus1=BBT3208325.1.2.3.0,bus2=BBT4062045.1.2.3.0,Phases=3,Linecode=BT809_BT809_4_3_4,Length=0.028026000,Units=km
new line.10841139 bus1=BBT3208332.1.2.3.0,bus2=BBT3208339.1.2.3.0,Phases=3,Linecode=BT809_BT809_4_3_4,Length=0.035815000,Units=km
new line.10313269 bus1=BBT3005038.1.2.3.0,bus2=BBT3005045.1.2.3.0,Phases=3,Linecode=BT108_BT108_7_3_1,Length=0.033251000,Units=km
new line.10313969 bus1=BBT3007684.1.2.3.0,bus2=BBT4329445.1.2.3.0,Phases=3,Linecode=BT803_BT803_4_3_4,Length=0.049054000,Units=km
new line.10314081 bus1=BBT3005437.1.2.3.0,bus2=BBT5430545.1.2.3.0,Phases=3,Linecode=BT108_BT108_7_3_1,Length=0.015137000,Units=km
new line.10314102 bus1=BBT3007642.1.2.3.0,bus2=BBT3007649.1.2.3.0,Phases=3,Linecode=BT108_BT108_7_3_1,Length=0.038089000,Units=km
new line.10314109 bus1=BBT3007642.1.2.3.0,bus2=BBT3007656.1.2.3.0,Phases=3,Linecode=BT107_BT107_7_3_1,Length=0.015137000,Units=km
new line.10314151 bus1=BBT3007656.1.2.3.0,bus2=BBT3007663.1.2.3.0,Phases=3,Linecode=BT107_BT107_7_3_1,Length=0.029163000,Units=km
new line.10314179 bus1=BBT3007663.1.2.3.0,bus2=BBT3007670.1.2.3.0,Phases=3,Linecode=BT107_BT107_7_3_1,Length=0.030895000,Units=km
new line.10314207 bus1=BBT3007670.1.2.3.0,bus2=BBT3007677.1.2.3.0,Phases=3,Linecode=BT809_BT809_4_3_4,Length=0.028661000,Units=km
new line.10537080 bus1=BBT3091236.1.2.3.0,bus2=BBT3091250.1.2.3.0,Phases=3,Linecode=BT803_BT803_4_3_4,Length=0.032459000,Units=km
new line.10537101 bus1=BBT3091250.1.2.3.0,bus2=BBT3091257.1.2.3.0,Phases=3,Linecode=BT803_BT803_4_3_4,Length=0.026084000,Units=km
new line.10537122 bus1=BBT3091271.1.2.3.0,bus2=BBT3091278.1.2.3.0,Phases=3,Linecode=BT803_BT803_4_3_4,Length=0.029419000,Units=km
new line.10537143 bus1=BBT3091278.1.2.3.0,bus2=BBT157252086.1.2.3.0,Phases=3,Linecode=BT803_BT803_4_3_4,Length=0.026084000,Units=km
new line.10541798 bus1=BBT3095065.1.2.3.0,bus2=BBT3095072.1.2.3.0,Phases=3,Linecode=BT107_BT107_7_3_1,Length=0.028433000,Units=km
new line.10542169 bus1=BBT3095009.1.2.3.0,bus2=BBT3095016.1.2.3.0,Phases=3,Linecode=BT803_BT803_4_3_4,Length=0.033431000,Units=km
new line.10557226 bus1=BBT3098089.1.2.3.0,bus2=BBT3098096.1.2.3.0,Phases=3,Linecode=BT111_BT108_7_3_1,Length=0.030895000,Units=km
new line.10557247 bus1=BBT3098096.1.2.3.0,bus2=BBT3098103.1.2.3.0,Phases=3,Linecode=BT111_BT108_7_3_1,Length=0.030422000,Units=km
new line.10557541 bus1=BBT3098082.1.2.3.0,bus2=BBT3098117.1.2.3.0,Phases=3,Linecode=BT108_BT107_7_3_1,Length=0.029538000,Units=km
new line.10557590 bus1=BBT3098061.1.2.3.0,bus2=BBT3098068.1.2.3.0,Phases=3,Linecode=BT803_BT803_4_3_4,Length=0.030895000,Units=km
new line.10561041 bus1=BBT3099881.1.2.3.0,bus2=BBT3099888.1.2.3.0,Phases=3,Linecode=BT803_BT803_4_3_4,Length=0.028644000,Units=km
new line.10561062 bus1=BBT3099888.1.2.3.0,bus2=BBT3099895.1.2.3.0,Phases=3,Linecode=BT803_BT803_4_3_4,Length=0.033386000,Units=km
new line.10561090 bus1=BBT3099895.1.2.3.0,bus2=BBT3099902.1.2.3.0,Phases=3,Linecode=BT803_BT803_4_3_4,Length=0.034535000,Units=km
new line.10561125 bus1=BBT3099909.1.2.3.0,bus2=BBT3099923.1.2.3.0,Phases=3,Linecode=BT809_BT809_4_3_4,Length=0.033386000,Units=km
new line.10561132 bus1=BBT3099909.1.2.3.0,bus2=BBT3099916.1.2.3.0,Phases=3,Linecode=BT803_BT803_4_3_4,Length=0.039634000,Units=km
new line.10561160 bus1=BBT3099923.1.2.3.0,bus2=BBT3099930.1.2.3.0,Phases=3,Linecode=BT809_BT809_4_3_4,Length=0.032397000,Units=km
new line.10561188 bus1=BBT3099930.1.2.3.0,bus2=BBT3099937.1.2.3.0,Phases=3,Linecode=BT809_BT809_4_3_4,Length=0.032397000,Units=km
new line.10561237 bus1=BBT3099937.1.2.3.0,bus2=BBT3099944.1.2.3.0,Phases=3,Linecode=BT810_BT810_4_3_4,Length=0.032397000,Units=km
new line.10561349 bus1=BBT3099916.1.2.3.0,bus2=BBT3099951.1.2.3.0,Phases=3,Linecode=BT803_BT803_4_3_4,Length=0.035365000,Units=km
new line.10562315 bus1=BBT3100231.1.2.3.0,bus2=BBT3100238.1.2.3.0,Phases=3,Linecode=BT809_BT809_4_3_4,Length=0.038481000,Units=km
new line.10562483 bus1=BBT3100301.1.2.3.0,bus2=BBT3100308.1.2.3.0,Phases=3,Linecode=BT803_BT803_4_3_4,Length=0.024338000,Units=km
new line.10562490 bus1=BBT3100301.1.2.3.0,bus2=BBT3100322.1.2.3.0,Phases=3,Linecode=BT108_BT107_7_3_1,Length=0.034244000,Units=km
new line.10562525 bus1=BBT3100308.1.2.3.0,bus2=BBT3100315.1.2.3.0,Phases=3,Linecode=BT803_BT803_4_3_4,Length=0.018116000,Units=km
new line.10562553 bus1=BBT154742645.1.2.3.0,bus2=BBT3100357.1.2.3.0,Phases=3,Linecode=BT803_BT803_4_3_4,Length=0.020815000,Units=km
new line.10562574 bus1=BBT3100371.1.2.3.0,bus2=BBT3100378.1.2.3.0,Phases=3,Linecode=BT107_BT107_7_3_1,Length=0.030092000,Units=km
new line.10562602 bus1=BBT3100378.1.2.3.0,bus2=BBT3100385.1.2.3.0,Phases=3,Linecode=BT107_BT107_7_3_1,Length=0.027174000,Units=km
new line.10562616 bus1=BBT3100385.1.2.3.0,bus2=BBT3100392.1.2.3.0,Phases=3,Linecode=BT809_BT809_4_3_4,Length=0.035520000,Units=km
new line.10562637 bus1=BBT3100392.1.2.3.0,bus2=BBT3100420.1.2.3.0,Phases=3,Linecode=BT809_BT809_4_3_4,Length=0.032149000,Units=km
new line.10562679 bus1=BBT3100322.1.2.3.0,bus2=BBT3100329.1.2.3.0,Phases=3,Linecode=BT108_BT107_7_3_1,Length=0.034141000,Units=km
new line.10562707 bus1=BBT3100329.1.2.3.0,bus2=BBT3100336.1.2.3.0,Phases=3,Linecode=BT108_BT107_7_3_1,Length=0.032258000,Units=km
new line.10562735 bus1=BBT3100336.1.2.3.0,bus2=BBT3100343.1.2.3.0,Phases=3,Linecode=BT107_BT107_7_3_1,Length=0.033145000,Units=km
new line.10763103 bus1=BBT3176629.1.2.3.0,bus2=BBT3176636.1.2.3.0,Phases=3,Linecode=BT803_BT803_4_3_4,Length=0.040717000,Units=km
new line.10763110 bus1=BBT3176629.1.2.3.0,bus2=BBT3195263.1.2.3.0,Phases=3,Linecode=BT107_BT107_7_3_1,Length=0.036684000,Units=km
new line.10763166 bus1=BBT3176699.1.2.3.0,bus2=BBT3176713.1.2.3.0,Phases=3,Linecode=BT803_BT803_4_3_4,Length=0.024193000,Units=km
new line.10763173 bus1=BBT3176699.1.2.3.0,bus2=BBT3176727.1.2.3.0,Phases=3,Linecode=BT803_BT803_4_3_4,Length=0.030895000,Units=km
new line.10763194 bus1=BBT3176692.1.2.3.0,bus2=BBT3176699.1.2.3.0,Phases=3,Linecode=BT805_BT805_4_3_4,Length=0.033130000,Units=km
new line.10763768 bus1=BBT3177112.1.2.3.0,bus2=BBT3177133.1.2.3.0,Phases=3,Linecode=BT803_BT803_4_3_4,Length=0.014146000,Units=km
new line.10763796 bus1=BBT3177084.1.2.3.0,bus2=BBT3177112.1.2.3.0,Phases=3,Linecode=BT803_BT803_4_3_4,Length=0.029008000,Units=km
new line.10763817 bus1=BBT3177035.1.2.3.0,bus2=BBT3177049.1.2.3.0,Phases=3,Linecode=BT805_BT805_4_3_4,Length=0.035365000,Units=km
new line.10763845 bus1=BBT3177049.1.2.3.0,bus2=BBT2382297.1.2.3.0,Phases=3,Linecode=BT805_BT805_4_3_4,Length=0.020254000,Units=km
new line.10763866 bus1=BBT3177168.1.2.3.0,bus2=BBT3177175.1.2.3.0,Phases=3,Linecode=BT107_BT107_7_3_1,Length=0.023713000,Units=km
new line.10774226 bus1=BBT3181564.1.2.3.0,bus2=BBT3181571.1.2.3.0,Phases=3,Linecode=BT111_BT108_7_3_1,Length=0.029163000,Units=km
new line.10774247 bus1=BBT3181578.1.2.3.0,bus2=BBT3181585.1.2.3.0,Phases=3,Linecode=BT803_BT803_4_3_4,Length=0.036245000,Units=km
new line.10774254 bus1=BBT3181578.1.2.3.0,bus2=BBT3181641.1.2.3.0,Phases=3,Linecode=BT108_BT107_7_3_1,Length=0.029163000,Units=km
new line.10774261 bus1=BBT3181578.1.2.3.0,bus2=BBT3181592.1.2.3.0,Phases=3,Linecode=BT803_BT803_4_3_4,Length=0.042556000,Units=km
new line.10774401 bus1=BBT3181592.1.2.3.0,bus2=BBT3181599.1.2.3.0,Phases=3,Linecode=BT803_BT803_4_3_4,Length=0.034009000,Units=km
new line.10774450 bus1=BBT3181970.1.2.3.0,bus2=BBT4310671.1.2.3.0,Phases=3,Linecode=BT810_BT810_4_3_4,Length=0.033130000,Units=km
new line.10775164 bus1=BBT3181963.1.2.3.0,bus2=BBT3181970.1.2.3.0,Phases=3,Linecode=BT810_BT810_4_3_4,Length=0.027302000,Units=km
new line.10775185 bus1=BBT3181949.1.2.3.0,bus2=BBT3181956.1.2.3.0,Phases=3,Linecode=BT803_BT803_4_3_4,Length=0.034491000,Units=km
new line.10775409 bus1=BBT3182075.1.2.3.0,bus2=BBT3182082.1.2.3.0,Phases=3,Linecode=BT108_BT108_7_3_1,Length=0.035365000,Units=km
new line.10786595 bus1=BBT3186835.1.2.3.0,bus2=BBT3186842.1.2.3.0,Phases=3,Linecode=BT813_BT813_4_3_4,Length=0.007813000,Units=km
new line.10786623 bus1=BBT3186891.1.2.3.0,bus2=BBT3186898.1.2.3.0,Phases=3,Linecode=BT809_BT809_4_3_4,Length=0.020621000,Units=km
new line.10786665 bus1=BBT3186898.1.2.3.0,bus2=BBT3186905.1.2.3.0,Phases=3,Linecode=BT809_BT809_4_3_4,Length=0.013458000,Units=km
new line.10786707 bus1=BBT3186905.1.2.3.0,bus2=BBT3186912.1.2.3.0,Phases=3,Linecode=BT809_BT809_4_3_4,Length=0.021846000,Units=km
new line.10786714 bus1=BBT3186905.1.2.3.0,bus2=BBT3186919.1.2.3.0,Phases=3,Linecode=BT809_BT809_4_3_4,Length=0.018033000,Units=km
new line.10786763 bus1=BBT3186919.1.2.3.0,bus2=BBT3186926.1.2.3.0,Phases=3,Linecode=BT809_BT809_4_3_4,Length=0.005387000,Units=km
new line.10786791 bus1=BBT3186926.1.2.3.0,bus2=BBT3186933.1.2.3.0,Phases=3,Linecode=BT809_BT809_4_3_4,Length=0.012810000,Units=km
new line.10786812 bus1=BBT3186933.1.2.3.0,bus2=BBT3186940.1.2.3.0,Phases=3,Linecode=BT809_BT809_4_3_4,Length=0.013605000,Units=km
new line.10786847 bus1=BBT3186849.1.2.3.0,bus2=BBT3186856.1.2.3.0,Phases=3,Linecode=BT809_BT809_4_3_4,Length=0.012732000,Units=km
new line.10787288 bus1=BBT3187122.1.2.3.0,bus2=BBT3187129.1.2.3.0,Phases=3,Linecode=BT107_BT107_7_3_1,Length=0.030075000,Units=km
new line.10787477 bus1=BBT3195270.1.2.3.0,bus2=BBT3195277.1.2.3.0,Phases=3,Linecode=BT005_BT005_7_3_1,Length=0.035365000,Units=km
new line.10797263 bus1=BBT3190720.1.2.3.0,bus2=BBT3190727.1.2.3.0,Phases=3,Linecode=BT803_BT803_4_3_4,Length=0.032258000,Units=km
new line.10797284 bus1=BBT3190727.1.2.3.0,bus2=BBT3190769.1.2.3.0,Phases=3,Linecode=BT803_BT803_4_3_4,Length=0.008065000,Units=km
new line.10797347 bus1=BBT3190825.1.2.3.0,bus2=BBT3190839.1.2.3.0,Phases=3,Linecode=BT107_BT107_7_3_1,Length=0.035351000,Units=km
new line.10797368 bus1=BBT3190839.1.2.3.0,bus2=BBT3190846.1.2.3.0,Phases=3,Linecode=BT107_BT107_7_3_1,Length=0.036245000,Units=km
new line.10797389 bus1=BBT3190846.1.2.3.0,bus2=BBT4922947.1.2.3.0,Phases=3,Linecode=BT810_BT810_4_3_4,Length=0.035024000,Units=km
new line.10797410 bus1=BBT3190713.1.2.3.0,bus2=BBT3190734.1.2.3.0,Phases=3,Linecode=BT805_BT805_4_3_4,Length=0.028661000,Units=km
new line.10797438 bus1=BBT3190734.1.2.3.0,bus2=BBT3190741.1.2.3.0,Phases=3,Linecode=BT805_BT805_4_3_4,Length=0.037600000,Units=km
new line.10797459 bus1=BBT3190741.1.2.3.0,bus2=BBT3190762.1.2.3.0,Phases=3,Linecode=BT108_BT107_7_3_1,Length=0.033130000,Units=km
new line.10797466 bus1=BBT3190741.1.2.3.0,bus2=BBT3190748.1.2.3.0,Phases=3,Linecode=BT805_BT805_4_3_4,Length=0.038089000,Units=km
new line.10797473 bus1=BBT3190741.1.2.3.0,bus2=BBT3190755.1.2.3.0,Phases=3,Linecode=BT107_BT107_7_3_1,Length=0.036725000,Units=km
new line.10797522 bus1=BBT3190867.1.2.3.0,bus2=BBT3190874.1.2.3.0,Phases=3,Linecode=BT111_BT108_7_3_1,Length=0.027302000,Units=km
new line.10797564 bus1=BBT3190944.1.2.3.0,bus2=BBT3190951.1.2.3.0,Phases=3,Linecode=BT108_BT107_7_3_1,Length=0.026427000,Units=km
new line.10797585 bus1=BBT3190986.1.2.3.0,bus2=BBT3191021.1.2.3.0,Phases=3,Linecode=BT803_BT803_4_3_4,Length=0.021266000,Units=km
new line.10797592 bus1=BBT3190986.1.2.3.0,bus2=BBT3190993.1.2.3.0,Phases=3,Linecode=BT805_BT805_4_3_4,Length=0.028800000,Units=km
new line.10797599 bus1=BBT3190986.1.2.3.0,bus2=BBT3191028.1.2.3.0,Phases=3,Linecode=BT803_BT803_4_3_4,Length=0.010201000,Units=km
new line.10797620 bus1=BBT3190993.1.2.3.0,bus2=BBT3191000.1.2.3.0,Phases=3,Linecode=BT805_BT805_4_3_4,Length=0.040322000,Units=km
new line.10797641 bus1=BBT3191028.1.2.3.0,bus2=BBT3191035.1.2.3.0,Phases=3,Linecode=BT805_BT805_4_3_4,Length=0.032258000,Units=km
new line.10797662 bus1=BBT3190965.1.2.3.0,bus2=BBT3190972.1.2.3.0,Phases=3,Linecode=BT805_BT805_4_3_4,Length=0.032659000,Units=km
new line.10797683 bus1=BBT3190972.1.2.3.0,bus2=BBT3191007.1.2.3.0,Phases=3,Linecode=BT803_BT803_4_3_4,Length=0.034009000,Units=km
new line.10797704 bus1=BBT3191007.1.2.3.0,bus2=BBT3191014.1.2.3.0,Phases=3,Linecode=BT803_BT803_4_3_4,Length=0.040322000,Units=km
new line.10797725 bus1=BBT3191070.1.2.3.0,bus2=BBT3191077.1.2.3.0,Phases=3,Linecode=BT108_BT107_7_3_1,Length=0.028661000,Units=km
new line.10797746 bus1=BBT3191056.1.2.3.0,bus2=BBT3191063.1.2.3.0,Phases=3,Linecode=BT108_BT107_7_3_1,Length=0.035365000,Units=km
new line.10797858 bus1=BBT3191091.1.2.3.0,bus2=BBT3191112.1.2.3.0,Phases=3,Linecode=BT108_BT108_7_3_1,Length=0.036725000,Units=km
new line.10798047 bus1=BBT3195557.1.2.3.0,bus2=BBT3195837.1.2.3.0,Phases=3,Linecode=BT809_BT809_4_3_4,Length=0.015004000,Units=km
new line.10798243 bus1=BBT3191371.1.2.3.0,bus2=BBT3195795.1.2.3.0,Phases=3,Linecode=BT108_BT108_7_3_1,Length=0.035857000,Units=km
new line.10803780 bus1=BBT3194248.1.2.3.0,bus2=BBT3194255.1.2.3.0,Phases=3,Linecode=BT810_BT810_4_3_4,Length=0.028168000,Units=km
new line.10803801 bus1=BBT3194255.1.2.3.0,bus2=BBT3194269.1.2.3.0,Phases=3,Linecode=BT810_BT810_4_3_4,Length=0.029841000,Units=km
new line.10803822 bus1=BBT3194269.1.2.3.0,bus2=BBT3194276.1.2.3.0,Phases=3,Linecode=BT810_BT810_4_3_4,Length=0.029841000,Units=km
new line.10806076 bus1=BBT3195249.1.2.3.0,bus2=BBT3195256.1.2.3.0,Phases=3,Linecode=BT107_BT107_7_3_1,Length=0.043428000,Units=km
new line.10806104 bus1=BBT3195263.1.2.3.0,bus2=BBT3195270.1.2.3.0,Phases=3,Linecode=BT107_BT107_7_3_1,Length=0.041194000,Units=km
new line.10806342 bus1=BBT3195284.1.2.3.0,bus2=BBT3195298.1.2.3.0,Phases=3,Linecode=BT111_BT108_7_3_1,Length=0.008605000,Units=km
new line.10806440 bus1=BBT3195298.1.2.3.0,bus2=BBT3195326.1.2.3.0,Phases=3,Linecode=BT108_BT107_7_3_1,Length=0.010053000,Units=km
new line.10806447 bus1=BBT3195298.1.2.3.0,bus2=BBT3195305.1.2.3.0,Phases=3,Linecode=BT111_BT108_7_3_1,Length=0.027864000,Units=km
new line.10806454 bus1=BBT3195298.1.2.3.0,bus2=BBT3195312.1.2.3.0,Phases=3,Linecode=BT108_BT107_7_3_1,Length=0.025814000,Units=km
new line.10806496 bus1=BBT3195452.1.2.3.0,bus2=BBT3195466.1.2.3.0,Phases=3,Linecode=BT805_BT805_4_3_4,Length=0.034491000,Units=km
new line.10806524 bus1=BBT3195340.1.2.3.0,bus2=BBT3818396.1.2.3.0,Phases=3,Linecode=BT108_BT107_7_3_1,Length=0.028661000,Units=km
new line.10807000 bus1=BBT3195543.1.2.3.0,bus2=BBT3195550.1.2.3.0,Phases=3,Linecode=BT805_BT805_4_3_4,Length=0.021477000,Units=km
new line.10807007 bus1=BBT3195543.1.2.3.0,bus2=BBT3195571.1.2.3.0,Phases=3,Linecode=BT803_BT803_4_3_4,Length=0.020621000,Units=km
new line.10807028 bus1=BBT3195550.1.2.3.0,bus2=BBT3195557.1.2.3.0,Phases=3,Linecode=BT805_BT805_4_3_4,Length=0.030895000,Units=km
new line.10807049 bus1=BBT3195571.1.2.3.0,bus2=BBT3195578.1.2.3.0,Phases=3,Linecode=BT803_BT803_4_3_4,Length=0.022142000,Units=km
new line.10807084 bus1=BBT3195578.1.2.3.0,bus2=BBT3195592.1.2.3.0,Phases=3,Linecode=BT803_BT803_4_3_4,Length=0.030814000,Units=km
new line.10807105 bus1=BBT3195592.1.2.3.0,bus2=BBT3195676.1.2.3.0,Phases=3,Linecode=BT809_BT809_4_3_4,Length=0.010820000,Units=km
new line.10807112 bus1=BBT3195592.1.2.3.0,bus2=BBT3195599.1.2.3.0,Phases=3,Linecode=BT803_BT803_4_3_4,Length=0.038843000,Units=km
new line.10807133 bus1=BBT3195676.1.2.3.0,bus2=BBT3195683.1.2.3.0,Phases=3,Linecode=BT809_BT809_4_3_4,Length=0.014564000,Units=km
new line.10807168 bus1=BBT3195683.1.2.3.0,bus2=BBT3195690.1.2.3.0,Phases=3,Linecode=BT809_BT809_4_3_4,Length=0.015301000,Units=km