new line.RML10038832 bus1=BBT2931496.1.2.3.0,bus2=RML1060038832.1.2.3.0,Phases=3,Linecode=CABBTG06_4_3,Length=0.017000000,Units=km
new line.RML10052571 bus1=BBT2377040.1.2.3.0,bus2=RML1060052571.1.2.3.0,Phases=3,Linecode=CABBTG06_4_3,Length=0.017000000,Units=km
new line.RML10061019 bus1=BBT2446354.1.2.3.0,bus2=RML1060061019.1.2.3.0,Phases=3,Linecode=CABBTG08_4_3,Length=0.029000000,Units=km
new line.RML10072998 bus1=BBT3100364.2.0,bus2=RML1060072998.2.0,Phases=1,Linecode=CABBTG02_4_1,Length=0.017000000,Units=km
new line.RML10077090 bus1=BBT2341417.1.2.3.0,bus2=RML1060077090.1.2.3.0,Phases=3,Linecode=CABBTG06_4_3,Length=0.029000000,Units=km
new line.RML10080324 bus1=BBT2382276.1.2.3.0,bus2=RML1060080324.1.2.3.0,Phases=3,Linecode=CABBTG06_4_3,Length=0.017000000,Units=km
new line.RML10096743 bus1=BBT5084605.1.2.3.0,bus2=RML1060096743.1.2.3.0,Phases=3,Linecode=CABBTG07_4_3,Length=0.029000000,Units=km
new line.RML10096746 bus1=BBT2994013.1.0,bus2=RML1060096746.1.0,Phases=1,Linecode=CABBTG02_4_1,Length=0.017000000,Units=km
new line.RML10096774 bus1=BBT2349026.1.2.0,bus2=RML1060096774.1.2.0,Phases=2,Linecode=CABBTG05_4_2,Length=0.017000000,Units=km
new line.RML10096780 bus1=BBT2340003.1.2.0,bus2=RML1060096780.1.2.0,Phases=2,Linecode=CABBTG05_4_2,Length=0.017000000,Units=km
new line.RML10103604 bus1=BBT3176825.1.2.3.0,bus2=RML1060103604.1.2.3.0,Phases=3,Linecode=CABBTG06_4_3,Length=0.017000000,Units=km
new line.RML10115790 bus1=BBT2314054.1.2.3.0,bus2=RML1060115790.1.2.3.0,Phases=3,Linecode=CABBTG06_4_3,Length=0.029000000,Units=km
new line.RML10128411 bus1=BBT3195634.1.0,bus2=RML1060128411.1.0,Phases=1,Linecode=CABBTG02_4_1,Length=0.017000000,Units=km
new line.RML10136587 bus1=BBT3076543.1.2.3.0,bus2=RML1060136587.1.2.3.0,Phases=3,Linecode=CABBTG06_4_3,Length=0.017000000,Units=km
new line.RML10150225 bus1=BBT3100336.1.2.3.0,bus2=RML1060150225.1.2.3.0,Phases=3,Linecode=CABBTG06_4_3,Length=0.014000000,Units=km
new line.RML10150249 bus1=BBT2813448.1.0,bus2=RML1060150249.1.0,Phases=1,Linecode=CABBTG02_4_1,Length=0.017000000,Units=km
new line.RML10150399 bus1=BBT150084762.1.2.0,bus2=RML1060150399.1.2.0,Phases=2,Linecode=CABBTG05_4_2,Length=0.017000000,Units=km
new line.RML10166915 bus1=BBT3070607.1.2.3.0,bus2=RML1060166915.1.2.3.0,Phases=3,Linecode=CABBTG11_4_3,Length=0.017000000,Units=km
new line.RML10167902 bus1=BBT2386714.1.2.3.0,bus2=RML1060167902.1.2.3.0,Phases=3,Linecode=CABBTG06_4_3,Length=0.017000000,Units=km
new line.RML10179373 bus1=BBT3005045.1.2.0,bus2=RML1060179373.1.2.0,Phases=2,Linecode=CABBTG05_4_2,Length=0.017000000,Units=km
new line.RML10182251 bus1=BBT3118242.1.2.3.0,bus2=RML1060182251.1.2.3.0,Phases=3,Linecode=CABBTG09_4_3,Length=0.029000000,Units=km
new line.RML10183044 bus1=BBT2318457.1.2.3.0,bus2=RML1060183044.1.2.3.0,Phases=3,Linecode=CABBTG07_4_3,Length=0.029000000,Units=km
new line.RML10199716 bus1=BBT3071426.1.2.3.0,bus2=RML1060199716.1.2.3.0,Phases=3,Linecode=CABBTG07_4_3,Length=0.017000000,Units=km
new line.RML10199746 bus1=BBT3007642.1.2.0,bus2=RML1060199746.1.2.0,Phases=2,Linecode=CABBTG05_4_2,Length=0.017000000,Units=km
new line.RML10206040 bus1=BBT3103598.1.2.0,bus2=RML1060206040.1.2.0,Phases=2,Linecode=CABBTG05_4_2,Length=0.017000000,Units=km
new line.RML10211803 bus1=BBT2293838.1.2.3.0,bus2=RML1060211803.1.2.3.0,Phases=3,Linecode=CABBTG12_4_3,Length=0.029000000,Units=km
new line.RML10213940 bus1=BBT2373953.1.2.3.0,bus2=RML1060213940.1.2.3.0,Phases=3,Linecode=CABBTG12_4_3,Length=0.017000000,Units=km
new line.RML10226590 bus1=BBT2947211.1.2.3.0,bus2=RML1060226590.1.2.3.0,Phases=3,Linecode=CABBTG06_4_3,Length=0.017000000,Units=km
new line.RML10227486 bus1=BBT3007656.1.2.0,bus2=RML1060227486.1.2.0,Phases=2,Linecode=CABBTG13_4_2,Length=0.017000000,Units=km
new line.RML10227819 bus1=BBT2409394.1.2.3.0,bus2=RML1060227819.1.2.3.0,Phases=3,Linecode=CABBTG09_4_3,Length=0.017000000,Units=km
new line.RML10228710 bus1=BBT3195886.1.2.3.0,bus2=RML1060228710.1.2.3.0,Phases=3,Linecode=CABBTG10_4_3,Length=0.017000000,Units=km
new line.RML10230436 bus1=BBT2947155.1.2.3.0,bus2=RML1060230436.1.2.3.0,Phases=3,Linecode=CABBTG06_4_3,Length=0.017000000,Units=km
new line.RML10230575 bus1=BBT3076543.1.2.3.0,bus2=RML1060230575.1.2.3.0,Phases=3,Linecode=CABBTG06_4_3,Length=0.017000000,Units=km
new line.RML10233654 bus1=BBT3186856.1.0,bus2=RML1060233654.1.0,Phases=1,Linecode=CABBTG02_4_1,Length=0.017000000,Units=km
new line.RML10234934 bus1=BBT2419117.1.3.0,bus2=RML1060234934.1.3.0,Phases=2,Linecode=CABBTG05_4_2,Length=0.017000000,Units=km
new line.RML10271863 bus1=BBT2438857.1.2.3.0,bus2=RML1060271863.1.2.3.0,Phases=3,Linecode=CABBTG10_4_3,Length=0.017000000,Units=km
new line.RML10271865 bus1=BBT2438857.1.2.3.0,bus2=RML1060271865.1.2.3.0,Phases=3,Linecode=CABBTG10_4_3,Length=0.017000000,Units=km
new line.RML10271866 bus1=BBT2438857.1.2.3.0,bus2=RML1060271866.1.2.3.0,Phases=3,Linecode=CABBTG10_4_3,Length=0.017000000,Units=km
new line.RML10271873 bus1=BBT2438850.1.2.3.0,bus2=RML1060271873.1.2.3.0,Phases=3,Linecode=CABBTG10_4_3,Length=0.017000000,Units=km
new line.RML10271876 bus1=BBT2438850.1.2.3.0,bus2=RML1060271876.1.2.3.0,Phases=3,Linecode=CABBTG10_4_3,Length=0.017000000,Units=km
new line.RML10272544 bus1=BBT3103451.1.2.3.0,bus2=RML1060272544.1.2.3.0,Phases=3,Linecode=CABBTG06_4_3,Length=0.017000000,Units=km
new line.RML10272586 bus1=BBT2362158.1.2.3.0,bus2=RML1060272586.1.2.3.0,Phases=3,Linecode=CABBTG07_4_3,Length=0.029000000,Units=km
new line.RML10276182 bus1=BBT3095086.1.2.0,bus2=RML1060276182.1.2.0,Phases=2,Linecode=CABBTG05_4_2,Length=0.017000000,Units=km
new line.RML10277172 bus1=BBT3032086.1.2.0,bus2=RML1060277172.1.2.0,Phases=2,Linecode=CABBTG05_4_2,Length=0.017000000,Units=km
new line.RML10278664 bus1=BBT3208255.1.2.3.0,bus2=RML1060278664.1.2.3.0,Phases=3,Linecode=CABBT815_4_3,Length=0.017000000,Units=km
new line.RML10280289 bus1=BBT3071419.1.2.0,bus2=RML1060280289.1.2.0,Phases=2,Linecode=CABBTG05_4_2,Length=0.017000000,Units=km
new line.RML10281179 bus1=BBT3074996.1.2.3.0,bus2=RML1060281179.1.2.3.0,Phases=3,Linecode=CABBTG12_4_3,Length=0.029000000,Units=km
new line.RML10288822 bus1=BBT3815386.1.2.3.0,bus2=RML1060288822.1.2.3.0,Phases=3,Linecode=CABBTG08_4_3,Length=0.017000000,Units=km
new line.RML10289428 bus1=BBT3028915.1.2.3.0,bus2=RML1060289428.1.2.3.0,Phases=3,Linecode=CABBTG06_4_3,Length=0.017000000,Units=km
new line.RML10289564 bus1=BBT3118312.1.0,bus2=RML1060289564.1.0,Phases=1,Linecode=CABBTG02_4_1,Length=0.017000000,Units=km
new line.RML10290969 bus1=BBT2409394.1.2.3.0,bus2=RML1060290969.1.2.3.0,Phases=3,Linecode=CABBTG06_4_3,Length=0.017000000,Units=km
new line.RML10313413 bus1=BBT2409394.1.2.3.0,bus2=RML1060313413.1.2.3.0,Phases=3,Linecode=CABBTG06_4_3,Length=0.017000000,Units=km
new line.RML10315114 bus1=BBT2394190.1.2.3.0,bus2=RML1060315114.1.2.3.0,Phases=3,Linecode=CABBTG06_4_3,Length=0.017000000,Units=km
new line.RML10315190 bus1=BBT3182369.1.2.3.0,bus2=RML1060315190.1.2.3.0,Phases=3,Linecode=CABBTG06_4_3,Length=0.017000000,Units=km
new line.RML10315254 bus1=BBT3182355.1.2.3.0,bus2=RML1060315254.1.2.3.0,Phases=3,Linecode=CABBTG06_4_3,Length=0.017000000,Units=km
new line.RML10317188 bus1=BBT3118242.1.2.3.0,bus2=RML1060317188.1.2.3.0,Phases=3,Linecode=CABBTG06_4_3,Length=0.029000000,Units=km
new line.RML10318174 bus1=BBT2813448.1.0,bus2=RML1060318174.1.0,Phases=1,Linecode=CABBTG02_4_1,Length=0.017000000,Units=km
new line.RML10333431 bus1=BBT2409387.1.2.3.0,bus2=RML1060333431.1.2.3.0,Phases=3,Linecode=CABBTG06_4_3,Length=0.017000000,Units=km
new line.RML10340427 bus1=BBT88555623.1.2.0,bus2=RML1060340427.1.2.0,Phases=2,Linecode=CABBTG05_4_2,Length=0.017000000,Units=km
new line.RML10354880 bus1=BBT2409387.1.2.3.0,bus2=RML1060354880.1.2.3.0,Phases=3,Linecode=CABBTG06_4_3,Length=0.017000000,Units=km
new line.RML10369164 bus1=BBT3005038.1.0,bus2=RML1060369164.1.0,Phases=1,Linecode=CABBTG02_4_1,Length=0.017000000,Units=km
new line.RML10373698 bus1=BBT3007677.1.2.0,bus2=RML1060373698.1.2.0,Phases=2,Linecode=CABBTG05_4_2,Length=0.017000000,Units=km
new line.RML10384385 bus1=BBT2401687.1.2.3.0,bus2=RML1060384385.1.2.3.0,Phases=3,Linecode=CABBTG06_4_3,Length=0.029000000,Units=km
new line.RML10408591 bus1=BBT2293838.1.2.3.0,bus2=RML1060408591.1.2.3.0,Phases=3,Linecode=CABBTG06_4_3,Length=0.029000000,Units=km
new line.RML10431988 bus1=BBT3293298.1.0,bus2=RML1060431988.1.0,Phases=1,Linecode=CABBTG02_4_1,Length=0.017000000,Units=km
new line.RML10433972 bus1=BBT2993880.1.2.3.0,bus2=RML1060433972.1.2.3.0,Phases=3,Linecode=CABBTG06_4_3,Length=0.017000000,Units=km
new line.RML10440625 bus1=BBT3293333.1.0,bus2=RML1060440625.1.0,Phases=1,Linecode=CABBTG02_4_1,Length=0.017000000,Units=km
new line.RML10461567 bus1=BBT3181599.1.2.3.0,bus2=RML1060461567.1.2.3.0,Phases=3,Linecode=CABBTG06_4_3,Length=0.017000000,Units=km
new line.RML10465527 bus1=BBT3071762.1.3.0,bus2=RML1060465527.1.3.0,Phases=2,Linecode=CABBTG05_4_2,Length=0.017000000,Units=km
new line.RML10482881 bus1=BBT3181970.1.2.0,bus2=RML1060482881.1.2.0,Phases=2,Linecode=CABBTG05_4_2,Length=0.017000000,Units=km
new line.RML10488896 bus1=BBT3024820.1.2.3.0,bus2=RML1060488896.1.2.3.0,Phases=3,Linecode=CABBTG06_4_3,Length=0.017000000,Units=km
new line.RML10494261 bus1=BBT3064244.1.2.3.0,bus2=RML1060494261.1.2.3.0,Phases=3,Linecode=CABBTG07_4_3,Length=0.013000000,Units=km
new line.RML10523853 bus1=BBT3103619.1.2.0,bus2=RML1060523853.1.2.0,Phases=2,Linecode=CABBTG05_4_2,Length=0.026000000,Units=km
new line.RML10543268 bus1=BBT3065749.1.2.3.0,bus2=RML1060543268.1.2.3.0,Phases=3,Linecode=CABBTG06_4_3,Length=0.010000000,Units=km
new line.RML10570409 bus1=BBT2320536.1.0,bus2=RML1060570409.1.0,Phases=1,Linecode=CABBTG02_4_1,Length=0.029000000,Units=km
new line.RML10570858 bus1=BBT2386686.1.2.3.0,bus2=RML1060570858.1.2.3.0,Phases=3,Linecode=CABBTG06_4_3,Length=0.029000000,Units=km
new line.RML10576803 bus1=BBT3103115.1.0,bus2=RML1060576803.1.0,Phases=1,Linecode=CABBTG02_4_1,Length=0.012000000,Units=km
new line.RML10594457 bus1=BBT3138346.1.0,bus2=RML1060594457.1.0,Phases=1,Linecode=CABBTG02_4_1,Length=0.013000000,Units=km
new line.RML10605031 bus1=BBT154887177.1.0,bus2=RML1060605031.1.0,Phases=1,Linecode=CABBTG02_4_1,Length=0.017000000,Units=km
new line.RML10648663 bus1=BBT2415386.1.2.3.0,bus2=RML1060648663.1.2.3.0,Phases=3,Linecode=CABBTG06_4_3,Length=0.007000000,Units=km
new line.RML10650582 bus1=BBT3087988.1.3.0,bus2=RML1060650582.1.3.0,Phases=2,Linecode=CABBTG05_4_2,Length=0.017000000,Units=km
new line.RML10654644 bus1=BBT3195599.1.2.3.0,bus2=RML1060654644.1.2.3.0,Phases=3,Linecode=CABBTG06_4_3,Length=0.017000000,Units=km
new line.RML10654650 bus1=BBT3100385.1.2.0,bus2=RML1060654650.1.2.0,Phases=2,Linecode=CABBTG05_4_2,Length=0.017000000,Units=km
new line.RML10672292 bus1=BBT2419124.1.2.0,bus2=RML1060672292.1.2.0,Phases=2,Linecode=CABBTG05_4_2,Length=0.017000000,Units=km
new line.RML10697554 bus1=BBT2377033.1.0,bus2=RML1060697554.1.0,Phases=1,Linecode=CABBTG02_4_1,Length=0.017000000,Units=km
new line.RML10697618 bus1=BBT3075507.1.0,bus2=RML1060697618.1.0,Phases=1,Linecode=CABBTG02_4_1,Length=0.017000000,Units=km
new line.RML10699897 bus1=BBT2381583.1.0,bus2=RML1060699897.1.0,Phases=1,Linecode=CABBTG02_4_1,Length=0.017000000,Units=km
new line.RML10726952 bus1=BBT2293838.1.0,bus2=RML1060726952.1.0,Phases=1,Linecode=CABBTG02_4_1,Length=0.029000000,Units=km
new line.RML10743787 bus1=BBT2386686.1.2.3.0,bus2=RML1060743787.1.2.3.0,Phases=3,Linecode=CABBTG07_4_3,Length=0.029000000,Units=km
new line.RML10781000 bus1=BBT2385209.1.3.0,bus2=RML1060781000.1.3.0,Phases=2,Linecode=CABBTG05_4_2,Length=0.016000000,Units=km
new line.RML10812210 bus1=BBT2356726.1.2.3.0,bus2=RML1060812210.1.2.3.0,Phases=3,Linecode=CABBTG06_4_3,Length=0.029000000,Units=km
new line.RML10831817 bus1=BBT3091250.1.2.3.0,bus2=RML1060831817.1.2.3.0,Phases=3,Linecode=CABBTG06_4_3,Length=0.017000000,Units=km
new line.RML10844651 bus1=BBT2408862.1.0,bus2=RML1060844651.1.0,Phases=1,Linecode=CABBTG02_4_1,Length=0.017000000,Units=km
new line.RML10854578 bus1=BBT3024757.1.2.0,bus2=RML1060854578.1.2.0,Phases=2,Linecode=CABBTG05_4_2,Length=0.017000000,Units=km
new line.RML10880131 bus1=BBT3032030.2.0,bus2=RML1060880131.2.0,Phases=1,Linecode=CABBTG02_4_1,Length=0.017000000,Units=km
new line.RML10880182 bus1=BBT3095086.1.0,bus2=RML1060880182.1.0,Phases=1,Linecode=CABBTG02_4_1,Length=0.017000000,Units=km
new line.RML10880201 bus1=BBT3462110.3.0,bus2=RML1060880201.3.0,Phases=1,Linecode=CABBTG02_4_1,Length=0.017000000,Units=km
new line.RML10880206 bus1=BBT2366267.1.2.0,bus2=RML1060880206.1.2.0,Phases=2,Linecode=CABBTG05_4_2,Length=0.017000000,Units=km
new line.RML10880207 bus1=BBT2413734.1.2.3.0,bus2=RML1060880207.1.2.3.0,Phases=3,Linecode=CABBTG06_4_3,Length=0.017000000,Units=km
new line.RML10919997 bus1=BBT3462103.1.2.3.0,bus2=RML1060919997.1.2.3.0,Phases=3,Linecode=CABBTG06_4_3,Length=0.017000000,Units=km
new line.RML10937778 bus1=BBT2386672.1.2.0,bus2=RML1060937778.1.2.0,Phases=2,Linecode=CABBTG05_4_2,Length=0.017000000,Units=km
new line.RML10940982 bus1=BBT3812481.1.2.0,bus2=RML1060940982.1.2.0,Phases=2,Linecode=CABBTG05_4_2,Length=0.017000000,Units=km
new line.RML10941135 bus1=BBT2438815.1.0,bus2=RML1060941135.1.0,Phases=1,Linecode=CABBTG02_4_1,Length=0.017000000,Units=km
new line.RML10944228 bus1=BBT3177133.1.2.3.0,bus2=RML1060944228.1.2.3.0,Phases=3,Linecode=CABBTG06_4_3,Length=0.017000000,Units=km
new line.RML10950511 bus1=BBT3208325.1.0,bus2=RML1060950511.1.0,Phases=1,Linecode=CABBTG02_4_1,Length=0.017000000,Units=km
new line.RML10958417 bus1=BBT3208297.1.2.0,bus2=RML1060958417.1.2.0,Phases=2,Linecode=CABBTG05_4_2,Length=0.017000000,Units=km
new line.RML10958458 bus1=BBT2446354.1.2.3.0,bus2=RML1060958458.1.2.3.0,Phases=3,Linecode=CABBTG06_4_3,Length=0.029000000,Units=km
new line.RML10961946 bus1=BBT3054626.1.2.0,bus2=RML1060961946.1.2.0,Phases=2,Linecode=CABBTG05_4_2,Length=0.020000000,Units=km
new line.RML10961954 bus1=BBT3032079.1.2.0,bus2=RML1060961954.1.2.0,Phases=2,Linecode=CABBTG05_4_2,Length=0.017000000,Units=km
new line.RML11006139 bus1=BBT2385202.1.2.0,bus2=RML1061006139.1.2.0,Phases=2,Linecode=CABBTG05_4_2,Length=0.017000000,Units=km
new line.RML11040751 bus1=BBT2104628.1.2.3.0,bus2=RML1061040751.1.2.3.0,Phases=3,Linecode=CABBTG06_4_3,Length=0.017000000,Units=km
new line.RML3034410 bus1=BBT2313214.1.2.3.0,bus2=RML1053034410.1.2.3.0,Phases=3,Linecode=CABBTG06_4_3,Length=0.017000000,Units=km
new line.RML4184195 bus1=BBT2104621.1.2.3.0,bus2=RML1054184195.1.2.3.0,Phases=3,Linecode=CABBTG11_4_3,Length=0.017000000,Units=km
new line.RML4184202 bus1=BBT2104628.3.0,bus2=RML1054184202.3.0,Phases=1,Linecode=CABBTG01_4_1,Length=0.017000000,Units=km
new line.RML4184209 bus1=BBT2104628.1.0,bus2=RML1054184209.1.0,Phases=1,Linecode=CABBTG01_4_1,Length=0.017000000,Units=km
new line.RML4184216 bus1=BBT2104628.2.0,bus2=RML1054184216.2.0,Phases=1,Linecode=CABBTG01_4_1,Length=0.017000000,Units=km
new line.RML4184223 bus1=BBT2104628.1.2.3.0,bus2=RML1054184223.1.2.3.0,Phases=3,Linecode=CABBTG06_4_3,Length=0.017000000,Units=km
new line.RML4184237 bus1=BBT2104628.2.3.0,bus2=RML1054184237.2.3.0,Phases=2,Linecode=CABBTG05_4_2,Length=0.017000000,Units=km
new line.RML4184244 bus1=BBT2104635.2.3.0,bus2=RML1054184244.2.3.0,Phases=2,Linecode=CABBTG05_4_2,Length=0.017000000,Units=km
new line.RML4184251 bus1=BBT2104635.1.2.3.0,bus2=RML1054184251.1.2.3.0,Phases=3,Linecode=CABBTG07_4_3,Length=0.017000000,Units=km
new line.RML4184258 bus1=BBT2104635.1.2.3.0,bus2=RML1054184258.1.2.3.0,Phases=3,Linecode=CABBTG08_4_3,Length=0.017000000,Units=km
new line.RML4184265 bus1=BBT2104642.3.0,bus2=RML1054184265.3.0,Phases=1,Linecode=CABBTG01_4_1,Length=0.017000000,Units=km
new line.RML4184272 bus1=BBT2104642.1.2.3.0,bus2=RML1054184272.1.2.3.0,Phases=3,Linecode=CABBTG06_4_3,Length=0.013000000,Units=km
new line.RML4184279 bus1=BBT2104642.1.0,bus2=RML1054184279.1.0,Phases=1,Linecode=CABBTG01_4_1,Length=0.017000000,Units=km
new line.RML4184286 bus1=BBT2104642.2.0,bus2=RML1054184286.2.0,Phases=1,Linecode=CABBTG01_4_1,Length=0.017000000,Units=km
new line.RML4184300 bus1=BBT2104649.1.2.0,bus2=RML1054184300.1.2.0,Phases=2,Linecode=CABBTG05_4_2,Length=0.017000000,Units=km
new line.RML4184307 bus1=BBT2104649.2.3.0,bus2=RML1054184307.2.3.0,Phases=2,Linecode=CABBTG05_4_2,Length=0.017000000,Units=km
new line.RML4184314 bus1=BBT2104656.1.2.0,bus2=RML1054184314.1.2.0,Phases=2,Linecode=CABBTG04_4_2,Length=0.017000000,Units=km
new line.RML4184321 bus1=BBT2104656.1.2.3.0,bus2=RML1054184321.1.2.3.0,Phases=3,Linecode=CABBTG07_4_3,Length=0.017000000,Units=km
new line.RML4184328 bus1=BBT2104656.1.2.3.0,bus2=RML1054184328.1.2.3.0,Phases=3,Linecode=CABBTG06_4_3,Length=0.017000000,Units=km
new line.RML4184335 bus1=BBT2104656.1.2.3.0,bus2=RML1054184335.1.2.3.0,Phases=3,Linecode=CABBTG08_4_3,Length=0.017000000,Units=km
new line.RML4184342 bus1=BBT2104663.1.2.3.0,bus2=RML1054184342.1.2.3.0,Phases=3,Linecode=CABBTG07_4_3,Length=0.017000000,Units=km
new line.RML4184349 bus1=BBT2104670.1.2.3.0,bus2=RML1054184349.1.2.3.0,Phases=3,Linecode=CABBTG07_4_3,Length=0.017000000,Units=km
new line.RML4184356 bus1=BBT2104677.2.0,bus2=RML1054184356.2.0,Phases=1,Linecode=CABBTG01_4_1,Length=0.017000000,Units=km
new line.RML4184363 bus1=BBT2104684.1.2.3.0,bus2=RML1054184363.1.2.3.0,Phases=3,Linecode=CABBTG06_4_3,Length=0.017000000,Units=km
new line.RML4184370 bus1=BBT2104684.1.2.3.0,bus2=RML1054184370.1.2.3.0,Phases=3,Linecode=CABBTG07_4_3,Length=0.017000000,Units=km
new line.RML4184377 bus1=BBT2104691.2.3.0,bus2=RML1054184377.2.3.0,Phases=2,Linecode=CABBTG05_4_2,Length=0.017000000,Units=km
new line.RML4184384 bus1=BBT2104691.1.2.3.0,bus2=RML1054184384.1.2.3.0,Phases=3,Linecode=CABBTG06_4_3,Length=0.017000000,Units=km
new line.RML4184391 bus1=BBT2104691.1.2.3.0,bus2=RML1054184391.1.2.3.0,Phases=3,Linecode=CABBTG07_4_3,Length=0.017000000,Units=km
new line.RML4184398 bus1=BBT2104691.1.2.3.0,bus2=RML1054184398.1.2.3.0,Phases=3,Linecode=CABBTG11_4_3,Length=0.017000000,Units=km
new line.RML4184405 bus1=BBT2104698.1.2.3.0,bus2=RML1054184405.1.2.3.0,Phases=3,Linecode=CABBTG07_4_3,Length=0.017000000,Units=km
new line.RML4184412 bus1=BBT2104698.1.2.3.0,bus2=RML1054184412.1.2.3.0,Phases=3,Linecode=CABBTG07_4_3,Length=0.017000000,Units=km
new line.RML4184419 bus1=BBT2104698.1.2.3.0,bus2=RML1054184419.1.2.3.0,Phases=3,Linecode=CABBTG07_4_3,Length=0.017000000,Units=km
new line.RML4184426 bus1=BBT2104698.1.2.3.0,bus2=RML1054184426.1.2.3.0,Phases=3,Linecode=CABBTG07_4_3,Length=0.017000000,Units=km
new line.RML4184433 bus1=BBT2104698.1.2.3.0,bus2=RML1054184433.1.2.3.0,Phases=3,Linecode=CABBTG06_4_3,Length=0.017000000,Units=km
new line.RML4184440 bus1=BBT2104698.1.2.3.0,bus2=RML1054184440.1.2.3.0,Phases=3,Linecode=CABBTG06_4_3,Length=0.017000000,Units=km
new line.RML4184447 bus1=BBT2104698.1.2.3.0,bus2=RML1054184447.1.2.3.0,Phases=3,Linecode=CABBTG07_4_3,Length=0.017000000,Units=km
new line.RML4232278 bus1=BBT3199862.2.0,bus2=RML1054232278.2.0,Phases=1,Linecode=CABBTG01_4_1,Length=0.017000000,Units=km
new line.RML4238361 bus1=BBT3076571.1.0,bus2=RML1054238361.1.0,Phases=1,Linecode=CABBTG01_4_1,Length=0.017000000,Units=km
new line.RML4238382 bus1=BBT3060744.1.2.3.0,bus2=RML1054238382.1.2.3.0,Phases=3,Linecode=CABBTG07_4_3,Length=0.017000000,Units=km
new line.RML4238389 bus1=BBT3060744.1.0,bus2=RML1054238389.1.0,Phases=1,Linecode=CABBTG01_4_1,Length=0.017000000,Units=km
new line.RML4238403 bus1=BBT3060737.1.2.3.0,bus2=RML1054238403.1.2.3.0,Phases=3,Linecode=CABBTG07_4_3,Length=0.017000000,Units=km
new line.RML4238410 bus1=BBT3060737.1.2.3.0,bus2=RML1054238410.1.2.3.0,Phases=3,Linecode=CABBTG06_4_3,Length=0.017000000,Units=km
new line.RML4238431 bus1=BBT3060737.1.2.3.0,bus2=RML1054238431.1.2.3.0,Phases=3,Linecode=CABBTG07_4_3,Length=0.017000000,Units=km
new line.RML4238459 bus1=BBT3060737.1.2.3.0,bus2=RML1054238459.1.2.3.0,Phases=3,Linecode=CABBTG07_4_3,Length=0.017000000,Units=km
new line.RML4238501 bus1=BBT3076564.1.0,bus2=RML1054238501.1.0,Phases=1,Linecode=CABBTG01_4_1,Length=0.017000000,Units=km
new line.RML4238508 bus1=BBT3076501.2.3.0,bus2=RML1054238508.2.3.0,Phases=2,Linecode=CABBTG05_4_2,Length=0.017000000,Units=km
new line.RML4238515 bus1=BBT3076543.1.2.3.0,bus2=RML1054238515.1.2.3.0,Phases=3,Linecode=CABBTG07_4_3,Length=0.017000000,Units=km
new line.RML4238522 bus1=BBT3076501.1.2.0,bus2=RML1054238522.1.2.0,Phases=2,Linecode=CABBTG05_4_2,Length=0.017000000,Units=km
new line.RML4238529 bus1=BBT3076564.1.2.3.0,bus2=RML1054238529.1.2.3.0,Phases=3,Linecode=CABBTG11_4_3,Length=0.017000000,Units=km
new line.RML4238536 bus1=BBT3076564.1.2.0,bus2=RML1054238536.1.2.0,Phases=2,Linecode=CABBTG05_4_2,Length=0.017000000,Units=km
new line.RML4238543 bus1=BBT3064237.2.3.0,bus2=RML1054238543.2.3.0,Phases=2,Linecode=CABBTG05_4_2,Length=0.017000000,Units=km
new line.RML4238550 bus1=BBT3064237.1.2.0,bus2=RML1054238550.1.2.0,Phases=2,Linecode=CABBTG04_4_2,Length=0.017000000,Units=km
new line.RML4238564 bus1=BBT2125859.1.2.3.0,bus2=RML1054238564.1.2.3.0,Phases=3,Linecode=CABBTG07_4_3,Length=0.029000000,Units=km
new line.RML4238571 bus1=BBT3060723.1.2.3.0,bus2=RML1054238571.1.2.3.0,Phases=3,Linecode=CABBTG07_4_3,Length=0.017000000,Units=km
new line.RML4238578 bus1=BBT3060723.2.3.0,bus2=RML1054238578.2.3.0,Phases=2,Linecode=CABBTG05_4_2,Length=0.017000000,Units=km
new line.RML4238585 bus1=BBT2125859.1.2.3.0,bus2=RML1054238585.1.2.3.0,Phases=3,Linecode=CABBTG07_4_3,Length=0.029000000,Units=km
new line.RML4238592 bus1=BBT2125859.1.2.0,bus2=RML1054238592.1.2.0,Phases=2,Linecode=CABBTG05_4_2,Length=0.029000000,Units=km
new line.RML4238599 bus1=BBT2125859.1.2.3.0,bus2=RML1054238599.1.2.3.0,Phases=3,Linecode=CABBTG07_4_3,Length=0.029000000,Units=km
new line.RML4238606 bus1=BBT2125859.1.3.0,bus2=RML1054238606.1.3.0,Phases=2,Linecode=CABBTG05_4_2,Length=0.029000000,Units=km
new line.RML4238613 bus1=BBT2125859.1.2.3.0,bus2=RML1054238613.1.2.3.0,Phases=3,Linecode=CABBTG07_4_3,Length=0.029000000,Units=km
new line.RML4240713 bus1=BBT2931468.2.0,bus2=RML1054240713.2.0,Phases=1,Linecode=CABBTG01_4_1,Length=0.017000000,Units=km
new line.RML4242330 bus1=BBT3019738.1.0,bus2=RML1054242330.1.0,Phases=1,Linecode=CABBTG01_4_1,Length=0.017000000,Units=km
new line.RML4242337 bus1=BBT3095086.1.0,bus2=RML1054242337.1.0,Phases=1,Linecode=CABBTG02_4_1,Length=0.017000000,Units=km
new line.RML4242351 bus1=BBT2993999.2.3.0,bus2=RML1054242351.2.3.0,Phases=2,Linecode=CABBTG05_4_2,Length=0.017000000,Units=km
new line.RML4242358 bus1=BBT2126349.1.2.0,bus2=RML1054242358.1.2.0,Phases=2,Linecode=CABBTG04_4_2,Length=0.017000000,Units=km
new line.RML4242365 bus1=BBT3095065.1.2.3.0,bus2=RML1054242365.1.2.3.0,Phases=3,Linecode=CABBTG07_4_3,Length=0.017000000,Units=km
new line.RML4242372 bus1=BBT3094988.1.2.3.0,bus2=RML1054242372.1.2.3.0,Phases=3,Linecode=CABBTG06_4_3,Length=0.017000000,Units=km
new line.RML4242379 bus1=BBT2126349.1.2.0,bus2=RML1054242379.1.2.0,Phases=2,Linecode=CABBTG05_4_2,Length=0.017000000,Units=km
new line.RML4242386 bus1=BBT3095072.2.3.0,bus2=RML1054242386.2.3.0,Phases=2,Linecode=CABBTG05_4_2,Length=0.017000000,Units=km
new line.RML4242393 bus1=BBT3095072.1.3.0,bus2=RML1054242393.1.3.0,Phases=2,Linecode=CABBTG04_4_2,Length=0.017000000,Units=km
new line.RML4242400 bus1=BBT2126349.1.0,bus2=RML1054242400.1.0,Phases=1,Linecode=CABBTG01_4_1,Length=0.017000000,Units=km
new line.RML4242407 bus1=BBT3094995.1.2.3.0,bus2=RML1054242407.1.2.3.0,Phases=3,Linecode=CABBTG07_4_3,Length=0.017000000,Units=km
new line.RML4242414 bus1=BBT3095065.1.2.3.0,bus2=RML1054242414.1.2.3.0,Phases=3,Linecode=CABBTG07_4_3,Length=0.017000000,Units=km
new line.RML4242421 bus1=BBT3094988.1.2.3.0,bus2=RML1054242421.1.2.3.0,Phases=3,Linecode=CABBTG06_4_3,Length=0.017000000,Units=km
new line.RML4242428 bus1=BBT3095072.1.2.3.0,bus2=RML1054242428.1.2.3.0,Phases=3,Linecode=CABBTG07_4_3,Length=0.017000000,Units=km
new line.RML4242435 bus1=BBT3094988.1.2.3.0,bus2=RML1054242435.1.2.3.0,Phases=3,Linecode=CABBTG06_4_3,Length=0.017000000,Units=km
new line.RML4242442 bus1=BBT3019738.1.2.3.0,bus2=RML1054242442.1.2.3.0,Phases=3,Linecode=CABBTG07_4_3,Length=0.017000000,Units=km
new line.RML4242449 bus1=BBT3095030.1.2.3.0,bus2=RML1054242449.1.2.3.0,Phases=3,Linecode=CABBTG06_4_3,Length=0.017000000,Units=km
new line.RML4242456 bus1=BBT3019738.1.2.3.0,bus2=RML1054242456.1.2.3.0,Phases=3,Linecode=CABBTG07_4_3,Length=0.017000000,Units=km
new line.RML4242463 bus1=BBT3095079.1.0,bus2=RML1054242463.1.0,Phases=1,Linecode=CABBTG01_4_1,Length=0.017000000,Units=km
new line.RML4242470 bus1=BBT3094995.1.2.3.0,bus2=RML1054242470.1.2.3.0,Phases=3,Linecode=CABBTG07_4_3,Length=0.017000000,Units=km
new line.RML4242477 bus1=BBT2126349.1.2.3.0,bus2=RML1054242477.1.2.3.0,Phases=3,Linecode=CABBTG07_4_3,Length=0.017000000,Units=km
new line.RML4242484 bus1=BBT3095009.1.2.3.0,bus2=RML1054242484.1.2.3.0,Phases=3,Linecode=CABBTG07_4_3,Length=0.017000000,Units=km
new line.RML4242491 bus1=BBT3095009.1.2.3.0,bus2=RML1054242491.1.2.3.0,Phases=3,Linecode=CABBTG07_4_3,Length=0.017000000,Units=km
new line.RML4242498 bus1=BBT3095009.1.2.3.0,bus2=RML1054242498.1.2.3.0,Phases=3,Linecode=CABBTG07_4_3,Length=0.017000000,Units=km
new line.RML4242505 bus1=BBT157252086.1.2.3.0,bus2=RML1054242505.1.2.3.0,Phases=3,Linecode=CABBTG07_4_3,Length=0.017000000,Units=km
new line.RML4242512 bus1=BBT157252086.2.3.0,bus2=RML1054242512.2.3.0,Phases=2,Linecode=CABBTG05_4_2,Length=0.017000000,Units=km
new line.RML4242519 bus1=BBT3095016.1.2.3.0,bus2=RML1054242519.1.2.3.0,Phases=3,Linecode=CABBTG07_4_3,Length=0.017000000,Units=km
new line.RML4242526 bus1=BBT3095009.1.2.3.0,bus2=RML1054242526.1.2.3.0,Phases=3,Linecode=CABBTG07_4_3,Length=0.017000000,Units=km
new line.RML4242533 bus1=BBT3095016.2.3.0,bus2=RML1054242533.2.3.0,Phases=2,Linecode=CABBTG05_4_2,Length=0.017000000,Units=km
new line.RML4242540 bus1=BBT3095009.1.2.3.0,bus2=RML1054242540.1.2.3.0,Phases=3,Linecode=CABBTG07_4_3,Length=0.017000000,Units=km
new line.RML4242547 bus1=BBT3095009.1.2.3.0,bus2=RML1054242547.1.2.3.0,Phases=3,Linecode=CABBTG11_4_3,Length=0.017000000,Units=km
new line.RML4242554 bus1=BBT3095009.1.2.3.0,bus2=RML1054242554.1.2.3.0,Phases=3,Linecode=CABBTG07_4_3,Length=0.017000000,Units=km
new line.RML4242561 bus1=BBT3095086.1.2.3.0,bus2=RML1054242561.1.2.3.0,Phases=3,Linecode=CABBTG07_4_3,Length=0.017000000,Units=km
new line.RML4242568 bus1=BBT3095086.1.2.3.0,bus2=RML1054242568.1.2.3.0,Phases=3,Linecode=CABBTG07_4_3,Length=0.017000000,Units=km
new line.RML4243912 bus1=BBT3000670.1.2.3.0,bus2=RML1054243912.1.2.3.0,Phases=3,Linecode=CABBTG07_4_3,Length=0.017000000,Units=km
new line.RML4243982 bus1=BBT2991220.1.2.3.0,bus2=RML1054243982.1.2.3.0,Phases=3,Linecode=CABBTG07_4_3,Length=0.017000000,Units=km
new line.RML4243989 bus1=BBT2991213.1.0,bus2=RML1054243989.1.0,Phases=1,Linecode=CABBTG01_4_1,Length=0.017000000,Units=km
new line.RML4243996 bus1=BBT2991213.1.2.3.0,bus2=RML1054243996.1.2.3.0,Phases=3,Linecode=CABBTG06_4_3,Length=0.017000000,Units=km
new line.RML4244003 bus1=BBT2126692.1.0,bus2=RML1054244003.1.0,Phases=1,Linecode=CABBTG01_4_1,Length=0.017000000,Units=km
new line.RML4244010 bus1=BBT2991213.1.3.0,bus2=RML1054244010.1.3.0,Phases=2,Linecode=CABBTG05_4_2,Length=0.017000000,Units=km
new line.RML4244017 bus1=BBT2991213.1.3.0,bus2=RML1054244017.1.3.0,Phases=2,Linecode=CABBTG05_4_2,Length=0.017000000,Units=km
new line.RML4244024 bus1=BBT2126692.1.0,bus2=RML1054244024.1.0,Phases=1,Linecode=CABBTG01_4_1,Length=0.017000000,Units=km
new line.RML4244031 bus1=BBT2126692.2.3.0,bus2=RML1054244031.2.3.0,Phases=2,Linecode=CABBTG05_4_2,Length=0.017000000,Units=km
new line.RML4244038 bus1=BBT2991192.1.0,bus2=RML1054244038.1.0,Phases=1,Linecode=CABBTG01_4_1,Length=0.017000000,Units=km
new line.RML4244045 bus1=BBT2991192.1.0,bus2=RML1054244045.1.0,Phases=1,Linecode=CABBTG01_4_1,Length=0.017000000,Units=km
new line.RML4244052 bus1=BBT2991192.2.3.0,bus2=RML1054244052.2.3.0,Phases=2,Linecode=CABBTG05_4_2,Length=0.017000000,Units=km
new line.RML4244059 bus1=BBT2991192.2.3.0,bus2=RML1054244059.2.3.0,Phases=2,Linecode=CABBTG05_4_2,Length=0.017000000,Units=km
new line.RML4244066 bus1=BBT2991220.2.0,bus2=RML1054244066.2.0,Phases=1,Linecode=CABBTG01_4_1,Length=0.017000000,Units=km
new line.RML4244073 bus1=BBT2991220.3.0,bus2=RML1054244073.3.0,Phases=1,Linecode=CABBTG01_4_1,Length=0.017000000,Units=km
new line.RML4244087 bus1=BBT2991199.1.3.0,bus2=RML1054244087.1.3.0,Phases=2,Linecode=CABBTG04_4_2,Length=0.017000000,Units=km
new line.RML4244094 bus1=BBT2991199.1.2.0,bus2=RML1054244094.1.2.0,Phases=2,Linecode=CABBTG05_4_2,Length=0.017000000,Units=km
new line.RML4244101 bus1=BBT2991220.1.3.0,bus2=RML1054244101.1.3.0,Phases=2,Linecode=CABBTG05_4_2,Length=0.017000000,Units=km
new line.RML4244108 bus1=BBT2991220.1.2.0,bus2=RML1054244108.1.2.0,Phases=2,Linecode=CABBTG05_4_2,Length=0.017000000,Units=km
new line.RML4244115 bus1=BBT2991220.2.3.0,bus2=RML1054244115.2.3.0,Phases=2,Linecode=CABBTG04_4_2,Length=0.017000000,Units=km
new line.RML4244122 bus1=BBT2991227.1.2.3.0,bus2=RML1054244122.1.2.3.0,Phases=3,Linecode=CABBTG06_4_3,Length=0.017000000,Units=km
new line.RML4244129 bus1=BBT2991227.1.0,bus2=RML1054244129.1.0,Phases=1,Linecode=CABBTG01_4_1,Length=0.017000000,Units=km
new line.RML4244136 bus1=BBT2991213.2.3.0,bus2=RML1054244136.2.3.0,Phases=2,Linecode=CABBTG05_4_2,Length=0.017000000,Units=km
new line.RML4244143 bus1=BBT2991227.1.2.3.0,bus2=RML1054244143.1.2.3.0,Phases=3,Linecode=CABBTG11_4_3,Length=0.017000000,Units=km
new line.RML4244150 bus1=BBT2991227.1.3.0,bus2=RML1054244150.1.3.0,Phases=2,Linecode=CABBTG05_4_2,Length=0.017000000,Units=km
new line.RML4244157 bus1=BBT2126692.1.2.0,bus2=RML1054244157.1.2.0,Phases=2,Linecode=CABBTG05_4_2,Length=0.017000000,Units=km
new line.RML4244164 bus1=BBT2126692.3.0,bus2=RML1054244164.3.0,Phases=1,Linecode=CABBTG01_4_1,Length=0.017000000,Units=km
new line.RML4244171 bus1=BBT2991248.2.3.0,bus2=RML1054244171.2.3.0,Phases=2,Linecode=CABBTG05_4_2,Length=0.017000000,Units=km