new load.3000343120M1 bus1=RML1054812641.1.0,Phases=1,kv=0.12,kW=0.86786,pf=0.92,Vminpu=0.92,Vmaxpu=1.5,model=8,zipv=[0.5,0,0.5,1,0,0,0],daily=RES2_5,status=variable
new load.3000343121M1 bus1=RML1054807370.1.2.3.0,Phases=3,kv=0.22,kW=0.0954,pf=0.92,Vminpu=0.92,Vmaxpu=1.5,model=8,zipv=[0.5,0,0.5,1,0,0,0],daily=RES1_4,status=variable
new load.3000343122M1 bus1=RML1054807370.1.2.3.0,Phases=3,kv=0.22,kW=0.54872,pf=0.92,Vminpu=0.92,Vmaxpu=1.5,model=8,zipv=[0.5,0,0.5,1,0,0,0],daily=RES2_5,status=variable
new load.3000343123M1 bus1=RML1054812634.1.2.0,Phases=2,kv=0.24,kW=2.01996,pf=0.92,Vminpu=0.92,Vmaxpu=1.5,model=8,zipv=[0.5,0,0.5,1,0,0,0],daily=RES3_6,status=variable
new load.3000343124M1 bus1=RML1054812627.2.0,Phases=1,kv=0.12,kW=0.42246,pf=0.92,Vminpu=0.92,Vmaxpu=1.5,model=8,zipv=[0.5,0,0.5,1,0,0,0],daily=RES1_4,status=variable
new load.3000343125M1 bus1=RML1054807363.1.2.3.0,Phases=3,kv=0.22,kW=1.15834,pf=0.92,Vminpu=0.92,Vmaxpu=1.5,model=8,zipv=[0.5,0,0.5,1,0,0,0],daily=RES1_4,status=variable
new load.3000343126M1 bus1=RML1054807363.1.2.3.0,Phases=3,kv=0.22,kW=2.49338,pf=0.92,Vminpu=0.92,Vmaxpu=1.5,model=8,zipv=[0.5,0,0.5,1,0,0,0],daily=RES3_6,status=variable
new load.3000343129M1 bus1=RML1054812620.2.0,Phases=1,kv=0.12,kW=1.04932,pf=0.92,Vminpu=0.92,Vmaxpu=1.5,model=8,zipv=[0.5,0,0.5,1,0,0,0],daily=RES1_4,status=variable
new load.3000343130M1 bus1=RML1054807559.1.2.0,Phases=2,kv=0.22,kW=1.60964,pf=0.92,Vminpu=0.92,Vmaxpu=1.5,model=8,zipv=[0.5,0,0.5,1,0,0,0],daily=RES3_6,status=variable
new load.3000343131M1 bus1=RML1054807580.1.2.3.0,Phases=3,kv=0.22,kW=0.36954,pf=0.92,Vminpu=0.92,Vmaxpu=1.5,model=8,zipv=[0.5,0,0.5,1,0,0,0],daily=RES2_5,status=variable
new load.3000343132M1 bus1=RML1054807580.1.2.3.0,Phases=3,kv=0.22,kW=1.00224,pf=0.92,Vminpu=0.92,Vmaxpu=1.5,model=8,zipv=[0.5,0,0.5,1,0,0,0],daily=RES2_5,status=variable
new load.3000343133M1 bus1=RML1054807587.1.2.3.0,Phases=3,kv=0.22,kW=0.53654,pf=0.92,Vminpu=0.92,Vmaxpu=1.5,model=8,zipv=[0.5,0,0.5,1,0,0,0],daily=RES3_6,status=variable
new load.3000343134M1 bus1=RML1054807587.1.2.3.0,Phases=3,kv=0.22,kW=2.26192,pf=0.92,Vminpu=0.92,Vmaxpu=1.5,model=8,zipv=[0.5,0,0.5,1,0,0,0],daily=RES3_6,status=variable
new load.3000343135M1 bus1=RML1054807587.1.2.3.0,Phases=3,kv=0.22,kW=0.45912,pf=0.92,Vminpu=0.92,Vmaxpu=1.5,model=8,zipv=[0.5,0,0.5,1,0,0,0],daily=RES2_5,status=variable
new load.3000343136M1 bus1=RML1054807566.2.3.0,Phases=2,kv=0.22,kW=3.14566,pf=0.92,Vminpu=0.92,Vmaxpu=1.5,model=8,zipv=[0.5,0,0.5,1,0,0,0],daily=RES3_6,status=variable
new load.3000343137M1 bus1=RML1054807440.1.2.3.0,Phases=3,kv=0.22,kW=0.43672,pf=0.92,Vminpu=0.92,Vmaxpu=1.5,model=8,zipv=[0.5,0,0.5,1,0,0,0],daily=RES2_5,status=variable
new load.3000343138M1 bus1=RML1054807468.1.2.3.0,Phases=3,kv=0.22,kW=1.02206,pf=0.92,Vminpu=0.92,Vmaxpu=1.5,model=8,zipv=[0.5,0,0.5,1,0,0,0],daily=RES1_4,status=variable
new load.3000343139M1 bus1=RML1054807517.1.2.3.0,Phases=3,kv=0.22,kW=0.47032,pf=0.92,Vminpu=0.92,Vmaxpu=1.5,model=8,zipv=[0.5,0,0.5,1,0,0,0],daily=RES2_5,status=variable
new load.3000343140M1 bus1=RML1054807531.1.2.0,Phases=2,kv=0.22,kW=0.80402,pf=0.92,Vminpu=0.92,Vmaxpu=1.5,model=8,zipv=[0.5,0,0.5,1,0,0,0],daily=RES1_4,status=variable
new load.3000343143M1 bus1=RML1054807531.1.2.0,Phases=2,kv=0.22,kW=0.52072,pf=0.92,Vminpu=0.92,Vmaxpu=1.5,model=8,zipv=[0.5,0,0.5,1,0,0,0],daily=RES2_5,status=variable
new load.3000343144M1 bus1=RML1054807419.1.2.3.0,Phases=3,kv=0.22,kW=0.5711,pf=0.92,Vminpu=0.92,Vmaxpu=1.5,model=8,zipv=[0.5,0,0.5,1,0,0,0],daily=RES2_5,status=variable
new load.3000343145M1 bus1=RML1054807510.2.3.0,Phases=2,kv=0.22,kW=2.21984,pf=0.92,Vminpu=0.92,Vmaxpu=1.5,model=8,zipv=[0.5,0,0.5,1,0,0,0],daily=RES3_6,status=variable
new load.3000343147M1 bus1=RML1054807496.1.2.3.0,Phases=3,kv=0.22,kW=0.5991,pf=0.92,Vminpu=0.92,Vmaxpu=1.5,model=8,zipv=[0.5,0,0.5,1,0,0,0],daily=RES2_5,status=variable
new load.3000343148M1 bus1=RML1054807496.1.2.3.0,Phases=3,kv=0.22,kW=0.40882,pf=0.92,Vminpu=0.92,Vmaxpu=1.5,model=8,zipv=[0.5,0,0.5,1,0,0,0],daily=RES1_4,status=variable
new load.3000343149M1 bus1=RML1054807405.1.2.3.0,Phases=3,kv=0.22,kW=0.35432,pf=0.92,Vminpu=0.92,Vmaxpu=1.5,model=8,zipv=[0.5,0,0.5,1,0,0,0],daily=RES1_4,status=variable
new load.3000343153M1 bus1=RML1054807398.1.2.3.0,Phases=3,kv=0.22,kW=0.76148,pf=0.92,Vminpu=0.92,Vmaxpu=1.5,model=8,zipv=[0.5,0,0.5,1,0,0,0],daily=RES2_5,status=variable
new load.3000343154M1 bus1=RML1054807461.1.2.0,Phases=2,kv=0.22,kW=0.54872,pf=0.92,Vminpu=0.92,Vmaxpu=1.5,model=8,zipv=[0.5,0,0.5,1,0,0,0],daily=RES2_5,status=variable
new load.3000343155M1 bus1=RML1054807391.1.2.3.0,Phases=3,kv=0.22,kW=0.37514,pf=0.92,Vminpu=0.92,Vmaxpu=1.5,model=8,zipv=[0.5,0,0.5,1,0,0,0],daily=RES2_5,status=variable
new load.3000343156M1 bus1=RML1054807384.1.2.3.0,Phases=3,kv=0.22,kW=0.6405,pf=0.92,Vminpu=0.92,Vmaxpu=1.5,model=8,zipv=[0.5,0,0.5,1,0,0,0],daily=RES1_4,status=variable
new load.3000343163M1 bus1=RML1054807489.1.2.3.0,Phases=3,kv=0.22,kW=1.03102,pf=0.92,Vminpu=0.92,Vmaxpu=1.5,model=8,zipv=[0.5,0,0.5,1,0,0,0],daily=RES3_6,status=variable
new load.3000343164M1 bus1=RML1054807503.1.2.3.0,Phases=3,kv=0.22,kW=2.6617,pf=0.92,Vminpu=0.92,Vmaxpu=1.5,model=8,zipv=[0.5,0,0.5,1,0,0,0],daily=RES3_6,status=variable
new load.3000343166M1 bus1=RML1054807433.1.2.3.0,Phases=3,kv=0.22,kW=0.74468,pf=0.92,Vminpu=0.92,Vmaxpu=1.5,model=8,zipv=[0.5,0,0.5,1,0,0,0],daily=RES2_5,status=variable
new load.3000343167M1 bus1=RML1054807412.2.3.0,Phases=2,kv=0.22,kW=1.69498,pf=0.92,Vminpu=0.92,Vmaxpu=1.5,model=8,zipv=[0.5,0,0.5,1,0,0,0],daily=RES4_8,status=variable
new load.3000343169M1 bus1=RML1054807601.1.2.3.0,Phases=3,kv=0.22,kW=1.82006,pf=0.92,Vminpu=0.92,Vmaxpu=1.5,model=8,zipv=[0.5,0,0.5,1,0,0,0],daily=RES3_6,status=variable
new load.3000343170M1 bus1=RML1054807608.2.3.0,Phases=2,kv=0.22,kW=0.6663,pf=0.92,Vminpu=0.92,Vmaxpu=1.5,model=8,zipv=[0.5,0,0.5,1,0,0,0],daily=RES2_5,status=variable
new load.3000343171M1 bus1=RML1054807594.1.2.3.0,Phases=3,kv=0.22,kW=0.97424,pf=0.92,Vminpu=0.92,Vmaxpu=1.5,model=8,zipv=[0.5,0,0.5,1,0,0,0],daily=RES2_5,status=variable
new load.3000343223M1 bus1=RML1054881143.2.3.0,Phases=2,kv=0.22,kW=2.304,pf=0.92,Vminpu=0.92,Vmaxpu=1.5,model=8,zipv=[0.5,0,0.5,1,0,0,0],daily=RES3_6,status=variable
new load.3000343224M1 bus1=RML1054881136.1.2.0,Phases=2,kv=0.22,kW=0.81186,pf=0.92,Vminpu=0.92,Vmaxpu=1.5,model=8,zipv=[0.5,0,0.5,1,0,0,0],daily=RES2_5,status=variable
new load.3000343225M1 bus1=RML1054881199.1.3.0,Phases=2,kv=0.22,kW=0.94064,pf=0.92,Vminpu=0.92,Vmaxpu=1.5,model=8,zipv=[0.5,0,0.5,1,0,0,0],daily=RES2_5,status=variable
new load.3000343226M1 bus1=RML1054881227.1.2.0,Phases=2,kv=0.22,kW=1.76746,pf=0.92,Vminpu=0.92,Vmaxpu=1.5,model=8,zipv=[0.5,0,0.5,1,0,0,0],daily=RES3_6,status=variable
new load.3000343227M1 bus1=RML1054881227.1.2.0,Phases=2,kv=0.22,kW=0.6383,pf=0.92,Vminpu=0.92,Vmaxpu=1.5,model=8,zipv=[0.5,0,0.5,1,0,0,0],daily=RES2_5,status=variable
new load.3000343231M1 bus1=RML1054881234.1.2.3.0,Phases=3,kv=0.22,kW=0.39194,pf=0.92,Vminpu=0.92,Vmaxpu=1.5,model=8,zipv=[0.5,0,0.5,1,0,0,0],daily=RES2_5,status=variable
new load.3000343232M1 bus1=RML1054881234.1.2.3.0,Phases=3,kv=0.22,kW=0.69428,pf=0.92,Vminpu=0.92,Vmaxpu=1.5,model=8,zipv=[0.5,0,0.5,1,0,0,0],daily=RES2_5,status=variable
new load.3000343234M1 bus1=RML1054881150.2.0,Phases=1,kv=0.127,kW=0.39754,pf=0.92,Vminpu=0.92,Vmaxpu=1.5,model=8,zipv=[0.5,0,0.5,1,0,0,0],daily=RES2_5,status=variable
new load.3000343237M1 bus1=RML1054922856.1.2.0,Phases=2,kv=0.22,kW=1.06294,pf=0.92,Vminpu=0.92,Vmaxpu=1.5,model=8,zipv=[0.5,0,0.5,1,0,0,0],daily=RES1_4,status=variable
new load.3000343238M1 bus1=RML1054922856.1.2.0,Phases=2,kv=0.22,kW=1.93578,pf=0.92,Vminpu=0.92,Vmaxpu=1.5,model=8,zipv=[0.5,0,0.5,1,0,0,0],daily=RES3_6,status=variable
new load.3000343241M1 bus1=RML1054922849.2.3.0,Phases=2,kv=0.22,kW=0.7904,pf=0.92,Vminpu=0.92,Vmaxpu=1.5,model=8,zipv=[0.5,0,0.5,1,0,0,0],daily=RES1_4,status=variable
new load.3000343242M1 bus1=RML1054922828.3.0,Phases=1,kv=0.127,kW=0.12264,pf=0.92,Vminpu=0.92,Vmaxpu=1.5,model=8,zipv=[0.5,0,0.5,1,0,0,0],daily=RES1_4,status=variable
new load.3000343244M1 bus1=RML1054922814.1.2.3.0,Phases=3,kv=0.22,kW=0.12264,pf=0.92,Vminpu=0.92,Vmaxpu=1.5,model=8,zipv=[0.5,0,0.5,1,0,0,0],daily=RES1_4,status=variable
new load.3000343246M1 bus1=RML1054922793.1.2.3.0,Phases=3,kv=0.22,kW=0.0954,pf=0.92,Vminpu=0.92,Vmaxpu=1.5,model=8,zipv=[0.5,0,0.5,1,0,0,0],daily=RES1_4,status=variable
new load.3000343247M1 bus1=RML1054922800.1.0,Phases=1,kv=0.127,kW=0.49272,pf=0.92,Vminpu=0.92,Vmaxpu=1.5,model=8,zipv=[0.5,0,0.5,1,0,0,0],daily=RES2_5,status=variable
new load.3000343248M1 bus1=RML1054922807.1.0,Phases=1,kv=0.127,kW=0.31354,pf=0.92,Vminpu=0.92,Vmaxpu=1.5,model=8,zipv=[0.5,0,0.5,1,0,0,0],daily=RES2_5,status=variable
new load.3000343250M1 bus1=RML1054933160.1.2.0,Phases=2,kv=0.22,kW=0.28618,pf=0.92,Vminpu=0.92,Vmaxpu=1.5,model=8,zipv=[0.5,0,0.5,1,0,0,0],daily=RES1_4,status=variable
new load.3000343251M1 bus1=RML1054933146.1.0,Phases=1,kv=0.127,kW=1.06294,pf=0.92,Vminpu=0.92,Vmaxpu=1.5,model=8,zipv=[0.5,0,0.5,1,0,0,0],daily=RES1_4,status=variable
new load.3000343255M1 bus1=RML1054933083.2.0,Phases=1,kv=0.127,kW=1.52548,pf=0.92,Vminpu=0.92,Vmaxpu=1.5,model=8,zipv=[0.5,0,0.5,1,0,0,0],daily=RES3_6,status=variable
new load.3000343256M1 bus1=RML1054933118.2.0,Phases=1,kv=0.127,kW=0.29676,pf=0.92,Vminpu=0.92,Vmaxpu=1.5,model=8,zipv=[0.5,0,0.5,1,0,0,0],daily=RES2_5,status=variable
new load.3000343257M1 bus1=RML1056589885.2.0,Phases=1,kv=0.127,kW=2.70378,pf=0.92,Vminpu=0.92,Vmaxpu=1.5,model=8,zipv=[0.5,0,0.5,1,0,0,0],daily=RES3_6,status=variable
new load.3000343258M1 bus1=RML1054933125.2.0,Phases=1,kv=0.127,kW=0.71108,pf=0.92,Vminpu=0.92,Vmaxpu=1.5,model=8,zipv=[0.5,0,0.5,1,0,0,0],daily=RES2_5,status=variable
new load.3000343259M1 bus1=RML1054933153.1.2.0,Phases=2,kv=0.22,kW=0.47592,pf=0.92,Vminpu=0.92,Vmaxpu=1.5,model=8,zipv=[0.5,0,0.5,1,0,0,0],daily=RES2_5,status=variable
new load.3000343261M1 bus1=RML1054588732.1.2.3.0,Phases=3,kv=0.22,kW=0.65412,pf=0.92,Vminpu=0.92,Vmaxpu=1.5,model=8,zipv=[0.5,0,0.5,1,0,0,0],daily=RES1_4,status=variable
new load.3000343264M1 bus1=RML1054922821.1.2.0,Phases=2,kv=0.22,kW=0.4497,pf=0.92,Vminpu=0.92,Vmaxpu=1.5,model=8,zipv=[0.5,0,0.5,1,0,0,0],daily=RES1_4,status=variable
new load.3000343265M1 bus1=RML1054922821.1.2.0,Phases=2,kv=0.22,kW=0.95392,pf=0.92,Vminpu=0.92,Vmaxpu=1.5,model=8,zipv=[0.5,0,0.5,1,0,0,0],daily=RES1_4,status=variable
new load.3000343266M1 bus1=RML1054922821.1.2.0,Phases=2,kv=0.22,kW=0.49832,pf=0.92,Vminpu=0.92,Vmaxpu=1.5,model=8,zipv=[0.5,0,0.5,1,0,0,0],daily=RES2_5,status=variable
new load.3000343267M1 bus1=RML1054923892.1.2.3.0,Phases=3,kv=0.22,kW=1.54398,pf=0.92,Vminpu=0.92,Vmaxpu=1.5,model=8,zipv=[0.5,0,0.5,1,0,0,0],daily=IND2_6,status=variable
new load.3000343268M1 bus1=RML1054922863.1.2.0,Phases=2,kv=0.22,kW=0.05452,pf=0.92,Vminpu=0.92,Vmaxpu=1.5,model=8,zipv=[0.5,0,0.5,1,0,0,0],daily=RES1_4,status=variable
new load.3000343269M1 bus1=RML1054922863.1.2.0,Phases=2,kv=0.22,kW=0.40882,pf=0.92,Vminpu=0.92,Vmaxpu=1.5,model=8,zipv=[0.5,0,0.5,1,0,0,0],daily=RES1_4,status=variable
new load.3000343270M1 bus1=RML1054922863.1.2.0,Phases=2,kv=0.22,kW=0.09356,pf=0.92,Vminpu=0.92,Vmaxpu=1.5,model=8,zipv=[0.5,0,0.5,1,0,0,0],daily=COM1_10,status=variable
new load.3000343271M1 bus1=RML1054922870.1.2.3.0,Phases=3,kv=0.22,kW=1.88318,pf=0.92,Vminpu=0.92,Vmaxpu=1.5,model=8,zipv=[0.5,0,0.5,1,0,0,0],daily=RES3_6,status=variable
new load.3000343272M1 bus1=RML1054922870.1.2.3.0,Phases=3,kv=0.22,kW=2.3566,pf=0.92,Vminpu=0.92,Vmaxpu=1.5,model=8,zipv=[0.5,0,0.5,1,0,0,0],daily=RES3_6,status=variable
new load.3000343273M1 bus1=RML1054881087.1.2.3.0,Phases=3,kv=0.22,kW=1.8411,pf=0.92,Vminpu=0.92,Vmaxpu=1.5,model=8,zipv=[0.5,0,0.5,1,0,0,0],daily=RES3_6,status=variable
new load.3000343274M1 bus1=RML1054922877.1.2.0,Phases=2,kv=0.22,kW=0.5879,pf=0.92,Vminpu=0.92,Vmaxpu=1.5,model=8,zipv=[0.5,0,0.5,1,0,0,0],daily=RES2_5,status=variable
new load.3000343275M1 bus1=RML1054922877.1.2.0,Phases=2,kv=0.22,kW=2.78796,pf=0.92,Vminpu=0.92,Vmaxpu=1.5,model=8,zipv=[0.5,0,0.5,1,0,0,0],daily=RES3_6,status=variable
new load.3000343279M1 bus1=RML1054881059.2.3.0,Phases=2,kv=0.22,kW=0.25456,pf=0.92,Vminpu=0.92,Vmaxpu=1.5,model=8,zipv=[0.5,0,0.5,1,0,0,0],daily=RES4_8,status=variable
new load.3000343280M1 bus1=RML1054881045.1.3.0,Phases=2,kv=0.22,kW=1.03584,pf=0.92,Vminpu=0.92,Vmaxpu=1.5,model=8,zipv=[0.5,0,0.5,1,0,0,0],daily=RES2_5,status=variable
new load.3000343283M1 bus1=RML1054810107.1.2.3.0,Phases=3,kv=0.22,kW=0.27996,pf=0.92,Vminpu=0.92,Vmaxpu=1.5,model=8,zipv=[0.5,0,0.5,1,0,0,0],daily=RES2_5,status=variable
new load.3000343284M1 bus1=RML1054810114.3.0,Phases=1,kv=0.127,kW=2.304,pf=0.92,Vminpu=0.92,Vmaxpu=1.5,model=8,zipv=[0.5,0,0.5,1,0,0,0],daily=RES3_6,status=variable
new load.3000343285M1 bus1=RML1054810114.3.0,Phases=1,kv=0.127,kW=0.50952,pf=0.92,Vminpu=0.92,Vmaxpu=1.5,model=8,zipv=[0.5,0,0.5,1,0,0,0],daily=RES2_5,status=variable
new load.3000343287M1 bus1=RML1054810142.1.2.3.0,Phases=3,kv=0.22,kW=1.29496,pf=0.92,Vminpu=0.92,Vmaxpu=1.5,model=8,zipv=[0.5,0,0.5,1,0,0,0],daily=COM2_7,status=variable
new load.3000343288M1 bus1=RML1054810051.1.3.0,Phases=2,kv=0.22,kW=2.809,pf=0.92,Vminpu=0.92,Vmaxpu=1.5,model=8,zipv=[0.5,0,0.5,1,0,0,0],daily=RES3_6,status=variable
new load.3000343289M1 bus1=RML1054810128.1.2.0,Phases=2,kv=0.22,kW=0.72918,pf=0.92,Vminpu=0.92,Vmaxpu=1.5,model=8,zipv=[0.5,0,0.5,1,0,0,0],daily=RES5_7,status=variable
new load.3000343290M1 bus1=RML1054810128.1.2.0,Phases=2,kv=0.22,kW=0.40882,pf=0.92,Vminpu=0.92,Vmaxpu=1.5,model=8,zipv=[0.5,0,0.5,1,0,0,0],daily=RES1_4,status=variable
new load.3000343291M1 bus1=RML1054810072.1.0,Phases=1,kv=0.127,kW=0.37514,pf=0.92,Vminpu=0.92,Vmaxpu=1.5,model=8,zipv=[0.5,0,0.5,1,0,0,0],daily=RES2_5,status=variable
new load.3000343292M1 bus1=RML1054810079.3.0,Phases=1,kv=0.127,kW=0.70548,pf=0.92,Vminpu=0.92,Vmaxpu=1.5,model=8,zipv=[0.5,0,0.5,1,0,0,0],daily=RES2_5,status=variable
new load.3000343294M1 bus1=RML1054810135.1.2.0,Phases=2,kv=0.22,kW=1.05264,pf=0.92,Vminpu=0.92,Vmaxpu=1.5,model=8,zipv=[0.5,0,0.5,1,0,0,0],daily=RES2_5,status=variable
new load.3000343295M1 bus1=RML1054810135.1.2.0,Phases=2,kv=0.22,kW=0.0224,pf=0.92,Vminpu=0.92,Vmaxpu=1.5,model=8,zipv=[0.5,0,0.5,1,0,0,0],daily=RES2_5,status=variable
new load.3000343297M1 bus1=RML1054810100.1.2.0,Phases=2,kv=0.22,kW=0.87216,pf=0.92,Vminpu=0.92,Vmaxpu=1.5,model=8,zipv=[0.5,0,0.5,1,0,0,0],daily=RES1_4,status=variable
new load.3000343298M1 bus1=RML1054810100.1.2.0,Phases=2,kv=0.22,kW=1.24142,pf=0.92,Vminpu=0.92,Vmaxpu=1.5,model=8,zipv=[0.5,0,0.5,1,0,0,0],daily=RES3_6,status=variable
new load.3000343299M1 bus1=RML1054810191.1.2.0,Phases=2,kv=0.22,kW=1.06258,pf=0.92,Vminpu=0.92,Vmaxpu=1.5,model=8,zipv=[0.5,0,0.5,1,0,0,0],daily=RES3_6,status=variable
new load.3000343300M1 bus1=RML1054810198.1.2.3.0,Phases=3,kv=0.22,kW=0.6495,pf=0.92,Vminpu=0.92,Vmaxpu=1.5,model=8,zipv=[0.5,0,0.5,1,0,0,0],daily=RES2_5,status=variable
new load.3000343301M1 bus1=RML1054810184.1.2.0,Phases=2,kv=0.22,kW=0.45352,pf=0.92,Vminpu=0.92,Vmaxpu=1.5,model=8,zipv=[0.5,0,0.5,1,0,0,0],daily=RES2_5,status=variable
new load.3000343302M1 bus1=RML1054810205.1.2.0,Phases=2,kv=0.22,kW=0.72228,pf=0.92,Vminpu=0.92,Vmaxpu=1.5,model=8,zipv=[0.5,0,0.5,1,0,0,0],daily=RES2_5,status=variable
new load.3000343303M1 bus1=RML1054810156.1.2.3.0,Phases=3,kv=0.22,kW=0.78796,pf=0.92,Vminpu=0.92,Vmaxpu=1.5,model=8,zipv=[0.5,0,0.5,1,0,0,0],daily=RES5_7,status=variable
new load.3000343304M1 bus1=RML1054810093.1.0,Phases=1,kv=0.127,kW=1.22906,pf=0.92,Vminpu=0.92,Vmaxpu=1.5,model=8,zipv=[0.5,0,0.5,1,0,0,0],daily=COM1_10,status=variable
new load.3000343305M1 bus1=RML1054881052.1.2.0,Phases=2,kv=0.22,kW=2.16724,pf=0.92,Vminpu=0.92,Vmaxpu=1.5,model=8,zipv=[0.5,0,0.5,1,0,0,0],daily=RES3_6,status=variable
new load.3000343306M1 bus1=RML1054881101.1.2.3.0,Phases=3,kv=0.22,kW=2.37766,pf=0.92,Vminpu=0.92,Vmaxpu=1.5,model=8,zipv=[0.5,0,0.5,1,0,0,0],daily=RES3_6,status=variable
new load.3000343307M1 bus1=RML1054881073.1.3.0,Phases=2,kv=0.22,kW=2.08308,pf=0.92,Vminpu=0.92,Vmaxpu=1.5,model=8,zipv=[0.5,0,0.5,1,0,0,0],daily=RES3_6,status=variable
new load.3000343308M1 bus1=RML1054881108.1.2.0,Phases=2,kv=0.22,kW=0.92386,pf=0.92,Vminpu=0.92,Vmaxpu=1.5,model=8,zipv=[0.5,0,0.5,1,0,0,0],daily=RES2_5,status=variable
new load.3000343309M1 bus1=RML1054881206.1.2.3.0,Phases=3,kv=0.22,kW=2.34608,pf=0.92,Vminpu=0.92,Vmaxpu=1.5,model=8,zipv=[0.5,0,0.5,1,0,0,0],daily=RES3_6,status=variable
new load.3000343310M1 bus1=RML1054881192.2.0,Phases=1,kv=0.127,kW=2.5039,pf=0.92,Vminpu=0.92,Vmaxpu=1.5,model=8,zipv=[0.5,0,0.5,1,0,0,0],daily=RES3_6,status=variable
new load.3000343312M1 bus1=RML1054881185.1.2.3.0,Phases=3,kv=0.22,kW=0.99942,pf=0.92,Vminpu=0.92,Vmaxpu=1.5,model=8,zipv=[0.5,0,0.5,1,0,0,0],daily=COM1_10,status=variable
new load.3000343314M1 bus1=RML1054881178.2.3.0,Phases=2,kv=0.22,kW=0.70548,pf=0.92,Vminpu=0.92,Vmaxpu=1.5,model=8,zipv=[0.5,0,0.5,1,0,0,0],daily=RES2_5,status=variable
new load.3000343316M1 bus1=RML1054881255.2.0,Phases=1,kv=0.127,kW=2.3566,pf=0.92,Vminpu=0.92,Vmaxpu=1.5,model=8,zipv=[0.5,0,0.5,1,0,0,0],daily=RES3_6,status=variable
new load.3000343318M1 bus1=RML1054881290.1.2.3.0,Phases=3,kv=0.22,kW=0.80628,pf=0.92,Vminpu=0.92,Vmaxpu=1.5,model=8,zipv=[0.5,0,0.5,1,0,0,0],daily=RES2_5,status=variable
new load.3000343321M1 bus1=RML1054875256.1.3.0,Phases=2,kv=0.22,kW=0.89586,pf=0.92,Vminpu=0.92,Vmaxpu=1.5,model=8,zipv=[0.5,0,0.5,1,0,0,0],daily=RES2_5,status=variable
new load.3000343322M1 bus1=RML1054875256.1.3.0,Phases=2,kv=0.22,kW=0.22956,pf=0.92,Vminpu=0.92,Vmaxpu=1.5,model=8,zipv=[0.5,0,0.5,1,0,0,0],daily=RES2_5,status=variable
new load.3000343366M1 bus1=RML1054881297.1.3.0,Phases=2,kv=0.22,kW=0.6405,pf=0.92,Vminpu=0.92,Vmaxpu=1.5,model=8,zipv=[0.5,0,0.5,1,0,0,0],daily=RES1_4,status=variable
new load.3000343369M1 bus1=RML1054807636.2.0,Phases=1,kv=0.127,kW=0.80628,pf=0.92,Vminpu=0.92,Vmaxpu=1.5,model=8,zipv=[0.5,0,0.5,1,0,0,0],daily=RES2_5,status=variable
new load.3000343370M1 bus1=RML1054881276.1.0,Phases=1,kv=0.127,kW=0.0336,pf=0.92,Vminpu=0.92,Vmaxpu=1.5,model=8,zipv=[0.5,0,0.5,1,0,0,0],daily=RES2_5,status=variable
new load.3000343372M1 bus1=RML1054810289.1.2.0,Phases=2,kv=0.22,kW=2.00944,pf=0.92,Vminpu=0.92,Vmaxpu=1.5,model=8,zipv=[0.5,0,0.5,1,0,0,0],daily=RES3_6,status=variable
new load.3000343373M1 bus1=RML1054810289.1.2.0,Phases=2,kv=0.22,kW=0.68308,pf=0.92,Vminpu=0.92,Vmaxpu=1.5,model=8,zipv=[0.5,0,0.5,1,0,0,0],daily=RES2_5,status=variable
new load.3000343374M1 bus1=RML1054810254.3.0,Phases=1,kv=0.127,kW=1.82006,pf=0.92,Vminpu=0.92,Vmaxpu=1.5,model=8,zipv=[0.5,0,0.5,1,0,0,0],daily=RES3_6,status=variable
new load.3000343375M1 bus1=RML1054810247.1.0,Phases=1,kv=0.127,kW=2.40922,pf=0.92,Vminpu=0.92,Vmaxpu=1.5,model=8,zipv=[0.5,0,0.5,1,0,0,0],daily=RES3_6,status=variable
new load.3000343376M1 bus1=RML1054810240.3.0,Phases=1,kv=0.127,kW=2.19168,pf=0.92,Vminpu=0.92,Vmaxpu=1.5,model=8,zipv=[0.5,0,0.5,1,0,0,0],daily=RES4_8,status=variable
new load.3000343377M1 bus1=RML1054810219.1.2.0,Phases=2,kv=0.22,kW=2.02404,pf=0.92,Vminpu=0.92,Vmaxpu=1.5,model=8,zipv=[0.5,0,0.5,1,0,0,0],daily=RES4_8,status=variable
new load.3000343378M1 bus1=RML1054810296.1.2.3.0,Phases=3,kv=0.22,kW=0.90706,pf=0.92,Vminpu=0.92,Vmaxpu=1.5,model=8,zipv=[0.5,0,0.5,1,0,0,0],daily=RES2_5,status=variable
new load.3000343380M1 bus1=RML1054810233.1.2.3.0,Phases=3,kv=0.22,kW=2.07256,pf=0.92,Vminpu=0.92,Vmaxpu=1.5,model=8,zipv=[0.5,0,0.5,1,0,0,0],daily=RES3_6,status=variable
new load.3000343381M1 bus1=RML1054810261.3.0,Phases=1,kv=0.127,kW=2.10412,pf=0.92,Vminpu=0.92,Vmaxpu=1.5,model=8,zipv=[0.5,0,0.5,1,0,0,0],daily=RES3_6,status=variable
new load.3000343382M1 bus1=RML1054810268.1.2.0,Phases=2,kv=0.22,kW=2.36552,pf=0.92,Vminpu=0.92,Vmaxpu=1.5,model=8,zipv=[0.5,0,0.5,1,0,0,0],daily=RES4_8,status=variable
new load.3000343383M1 bus1=RML1054807643.2.3.0,Phases=2,kv=0.22,kW=1.11746,pf=0.92,Vminpu=0.92,Vmaxpu=1.5,model=8,zipv=[0.5,0,0.5,1,0,0,0],daily=RES1_4,status=variable
new load.3000343385M1 bus1=RML1054807671.1.2.3.0,Phases=3,kv=0.22,kW=2.69326,pf=0.92,Vminpu=0.92,Vmaxpu=1.5,model=8,zipv=[0.5,0,0.5,1,0,0,0],daily=RES3_6,status=variable
new load.3000343387M1 bus1=RML1054807671.1.2.3.0,Phases=3,kv=0.22,kW=1.18882,pf=0.92,Vminpu=0.92,Vmaxpu=1.5,model=8,zipv=[0.5,0,0.5,1,0,0,0],daily=RES3_6,status=variable
new load.3000343388M1 bus1=RML1054807664.1.2.3.0,Phases=3,kv=0.22,kW=0.41994,pf=0.92,Vminpu=0.92,Vmaxpu=1.5,model=8,zipv=[0.5,0,0.5,1,0,0,0],daily=RES2_5,status=variable
new load.3000343389M1 bus1=RML1054807664.1.2.3.0,Phases=3,kv=0.22,kW=0.46472,pf=0.92,Vminpu=0.92,Vmaxpu=1.5,model=8,zipv=[0.5,0,0.5,1,0,0,0],daily=RES2_5,status=variable
new load.3000343390M1 bus1=RML1054807629.1.2.0,Phases=2,kv=0.22,kW=2.27244,pf=0.92,Vminpu=0.92,Vmaxpu=1.5,model=8,zipv=[0.5,0,0.5,1,0,0,0],daily=RES3_6,status=variable
new load.3000343391M1 bus1=RML1054807615.2.3.0,Phases=2,kv=0.22,kW=2.32504,pf=0.92,Vminpu=0.92,Vmaxpu=1.5,model=8,zipv=[0.5,0,0.5,1,0,0,0],daily=RES3_6,status=variable
new load.3000343392M1 bus1=RML1054751895.1.2.3.0,Phases=3,kv=0.22,kW=2.14112,pf=0.92,Vminpu=0.92,Vmaxpu=1.5,model=8,zipv=[0.5,0,0.5,1,0,0,0],daily=COM3_8,status=variable
new load.3000343393M1 bus1=RML1054751888.1.2.0,Phases=2,kv=0.22,kW=2.1988,pf=0.92,Vminpu=0.92,Vmaxpu=1.5,model=8,zipv=[0.5,0,0.5,1,0,0,0],daily=RES3_6,status=variable
new load.3000343394M1 bus1=RML1054751902.1.2.0,Phases=2,kv=0.22,kW=0.32474,pf=0.92,Vminpu=0.92,Vmaxpu=1.5,model=8,zipv=[0.5,0,0.5,1,0,0,0],daily=RES2_5,status=variable
new load.3000343395M1 bus1=RML1054751881.3.0,Phases=1,kv=0.127,kW=0.6551,pf=0.92,Vminpu=0.92,Vmaxpu=1.5,model=8,zipv=[0.5,0,0.5,1,0,0,0],daily=RES2_5,status=variable
new load.3000343396M1 bus1=RML1054751874.1.2.3.0,Phases=3,kv=0.22,kW=7.44736,pf=0.92,Vminpu=0.92,Vmaxpu=1.5,model=8,zipv=[0.5,0,0.5,1,0,0,0],daily=COM3_8,status=variable
new load.3000343397M1 bus1=RML1054751867.1.2.3.0,Phases=3,kv=0.22,kW=0.24076,pf=0.92,Vminpu=0.92,Vmaxpu=1.5,model=8,zipv=[0.5,0,0.5,1,0,0,0],daily=RES2_5,status=variable
new load.3000343398M1 bus1=RML1054751860.1.2.3.0,Phases=3,kv=0.22,kW=0.83986,pf=0.92,Vminpu=0.92,Vmaxpu=1.5,model=8,zipv=[0.5,0,0.5,1,0,0,0],daily=RES2_5,status=variable
new load.3000343399M1 bus1=RML1054751853.1.2.3.0,Phases=3,kv=0.22,kW=0.72788,pf=0.92,Vminpu=0.92,Vmaxpu=1.5,model=8,zipv=[0.5,0,0.5,1,0,0,0],daily=RES2_5,status=variable
new load.3000343400M1 bus1=RML1054751846.1.2.3.0,Phases=3,kv=0.22,kW=1.07658,pf=0.92,Vminpu=0.92,Vmaxpu=1.5,model=8,zipv=[0.5,0,0.5,1,0,0,0],daily=RES1_4,status=variable
new load.3000343403M1 bus1=RML1054652026.1.0,Phases=1,kv=0.127,kW=1.88744,pf=0.92,Vminpu=0.92,Vmaxpu=1.5,model=8,zipv=[0.5,0,0.5,1,0,0,0],daily=RES4_8,status=variable
new load.3000343404M1 bus1=RML1054807657.1.2.0,Phases=2,kv=0.22,kW=2.07256,pf=0.92,Vminpu=0.92,Vmaxpu=1.5,model=8,zipv=[0.5,0,0.5,1,0,0,0],daily=RES3_6,status=variable
new load.3000343405M1 bus1=RML1054807657.1.2.0,Phases=2,kv=0.22,kW=0.16354,pf=0.92,Vminpu=0.92,Vmaxpu=1.5,model=8,zipv=[0.5,0,0.5,1,0,0,0],daily=RES1_4,status=variable
new load.3000343406M1 bus1=RML1054764432.3.0,Phases=1,kv=0.127,kW=0.46472,pf=0.92,Vminpu=0.92,Vmaxpu=1.5,model=8,zipv=[0.5,0,0.5,1,0,0,0],daily=RES2_5,status=variable
new load.3000343407M1 bus1=RML1054764481.1.0,Phases=1,kv=0.127,kW=0.73348,pf=0.92,Vminpu=0.92,Vmaxpu=1.5,model=8,zipv=[0.5,0,0.5,1,0,0,0],daily=RES2_5,status=variable
new load.3000343409M1 bus1=RML1054764523.1.2.3.0,Phases=3,kv=0.22,kW=1.36416,pf=0.92,Vminpu=0.92,Vmaxpu=1.5,model=8,zipv=[0.5,0,0.5,1,0,0,0],daily=COM2_7,status=variable
new load.3000343411M1 bus1=RML1054764474.1.2.3.0,Phases=3,kv=0.22,kW=2.10476,pf=0.92,Vminpu=0.92,Vmaxpu=1.5,model=8,zipv=[0.5,0,0.5,1,0,0,0],daily=RES4_8,status=variable
new load.3000343413M1 bus1=RML1054764495.2.3.0,Phases=2,kv=0.22,kW=2.51442,pf=0.92,Vminpu=0.92,Vmaxpu=1.5,model=8,zipv=[0.5,0,0.5,1,0,0,0],daily=RES3_6,status=variable
new load.3000343414M1 bus1=RML1054764495.2.3.0,Phases=2,kv=0.22,kW=0.5655,pf=0.92,Vminpu=0.92,Vmaxpu=1.5,model=8,zipv=[0.5,0,0.5,1,0,0,0],daily=RES2_5,status=variable
new load.3000343415M1 bus1=RML1054764425.1.2.0,Phases=2,kv=0.22,kW=2.87212,pf=0.92,Vminpu=0.92,Vmaxpu=1.5,model=8,zipv=[0.5,0,0.5,1,0,0,0],daily=RES3_6,status=variable
new load.3000343420M1 bus1=RML1054641806.1.0,Phases=1,kv=0.127,kW=0.50422,pf=0.92,Vminpu=0.92,Vmaxpu=1.5,model=8,zipv=[0.5,0,0.5,1,0,0,0],daily=RES1_4,status=variable
new load.3000343430M1 bus1=RML1054764453.1.2.3.0,Phases=3,kv=0.22,kW=0.5991,pf=0.92,Vminpu=0.92,Vmaxpu=1.5,model=8,zipv=[0.5,0,0.5,1,0,0,0],daily=RES2_5,status=variable
new load.3000343431M1 bus1=RML1054764453.1.2.3.0,Phases=3,kv=0.22,kW=0.29458,pf=0.92,Vminpu=0.92,Vmaxpu=1.5,model=8,zipv=[0.5,0,0.5,1,0,0,0],daily=RES3_6,status=variable
new load.3000343432M1 bus1=RML1054764453.1.2.3.0,Phases=3,kv=0.22,kW=0.46334,pf=0.92,Vminpu=0.92,Vmaxpu=1.5,model=8,zipv=[0.5,0,0.5,1,0,0,0],daily=RES1_4,status=variable
new load.3000343433M1 bus1=RML1054764453.1.2.3.0,Phases=3,kv=0.22,kW=0.37514,pf=0.92,Vminpu=0.92,Vmaxpu=1.5,model=8,zipv=[0.5,0,0.5,1,0,0,0],daily=RES2_5,status=variable
new load.3000343437M1 bus1=RML1054764383.1.2.3.0,Phases=3,kv=0.22,kW=0.5935,pf=0.92,Vminpu=0.92,Vmaxpu=1.5,model=8,zipv=[0.5,0,0.5,1,0,0,0],daily=RES2_5,status=variable
new load.3000343438M1 bus1=RML1054764460.1.2.3.0,Phases=3,kv=0.22,kW=0.5823,pf=0.92,Vminpu=0.92,Vmaxpu=1.5,model=8,zipv=[0.5,0,0.5,1,0,0,0],daily=RES2_5,status=variable
new load.3000343439M1 bus1=RML1054764460.1.2.3.0,Phases=3,kv=0.22,kW=0.33594,pf=0.92,Vminpu=0.92,Vmaxpu=1.5,model=8,zipv=[0.5,0,0.5,1,0,0,0],daily=RES2_5,status=variable
new load.3000343441M1 bus1=RML1054764376.1.2.3.0,Phases=3,kv=0.22,kW=2.7564,pf=0.92,Vminpu=0.92,Vmaxpu=1.5,model=8,zipv=[0.5,0,0.5,1,0,0,0],daily=RES3_6,status=variable
new load.3000343442M1 bus1=RML1054764509.2.3.0,Phases=2,kv=0.22,kW=1.68256,pf=0.92,Vminpu=0.92,Vmaxpu=1.5,model=8,zipv=[0.5,0,0.5,1,0,0,0],daily=RES4_8,status=variable
new load.3000343443M1 bus1=RML1054764509.2.3.0,Phases=2,kv=0.22,kW=0.87906,pf=0.92,Vminpu=0.92,Vmaxpu=1.5,model=8,zipv=[0.5,0,0.5,1,0,0,0],daily=RES2_5,status=variable
new load.3000343444M1 bus1=RML1054764341.2.3.0,Phases=2,kv=0.22,kW=0.01362,pf=0.92,Vminpu=0.92,Vmaxpu=1.5,model=8,zipv=[0.5,0,0.5,1,0,0,0],daily=RES1_4,status=variable
new load.3000343445M1 bus1=RML1054764348.2.0,Phases=1,kv=0.127,kW=0.72228,pf=0.92,Vminpu=0.92,Vmaxpu=1.5,model=8,zipv=[0.5,0,0.5,1,0,0,0],daily=RES2_5,status=variable
new load.3000343446M1 bus1=RML1054764355.1.2.0,Phases=2,kv=0.22,kW=0.71668,pf=0.92,Vminpu=0.92,Vmaxpu=1.5,model=8,zipv=[0.5,0,0.5,1,0,0,0],daily=RES2_5,status=variable
new load.3000343448M1 bus1=RML1054764502.1.2.3.0,Phases=3,kv=0.22,kW=0.27436,pf=0.92,Vminpu=0.92,Vmaxpu=1.5,model=8,zipv=[0.5,0,0.5,1,0,0,0],daily=RES2_5,status=variable
new load.3000343449M1 bus1=RML1054764502.1.2.3.0,Phases=3,kv=0.22,kW=0.8449,pf=0.92,Vminpu=0.92,Vmaxpu=1.5,model=8,zipv=[0.5,0,0.5,1,0,0,0],daily=RES1_4,status=variable
new load.3000343453M1 bus1=RML1054764579.1.2.3.0,Phases=3,kv=0.22,kW=0.76148,pf=0.92,Vminpu=0.92,Vmaxpu=1.5,model=8,zipv=[0.5,0,0.5,1,0,0,0],daily=RES2_5,status=variable
new load.3000343456M1 bus1=RML1054764558.1.2.3.0,Phases=3,kv=0.22,kW=0.40402,pf=0.92,Vminpu=0.92,Vmaxpu=1.5,model=8,zipv=[0.5,0,0.5,1,0,0,0],daily=COM1_10,status=variable
new load.3000343457M1 bus1=RML1054764558.1.2.3.0,Phases=3,kv=0.22,kW=0.83986,pf=0.92,Vminpu=0.92,Vmaxpu=1.5,model=8,zipv=[0.5,0,0.5,1,0,0,0],daily=RES2_5,status=variable
new load.3000343458M1 bus1=RML1054764537.2.3.0,Phases=2,kv=0.22,kW=0.50952,pf=0.92,Vminpu=0.92,Vmaxpu=1.5,model=8,zipv=[0.5,0,0.5,1,0,0,0],daily=RES2_5,status=variable
new load.3000343460M1 bus1=RML1054764537.2.3.0,Phases=2,kv=0.22,kW=0.5655,pf=0.92,Vminpu=0.92,Vmaxpu=1.5,model=8,zipv=[0.5,0,0.5,1,0,0,0],daily=RES2_5,status=variable
new load.3000343463M1 bus1=RML1054764397.3.0,Phases=1,kv=0.127,kW=2.0675,pf=0.92,Vminpu=0.92,Vmaxpu=1.5,model=8,zipv=[0.5,0,0.5,1,0,0,0],daily=RES4_8,status=variable
new load.3000343464M1 bus1=RML1054764565.1.2.0,Phases=2,kv=0.22,kW=2.51442,pf=0.92,Vminpu=0.92,Vmaxpu=1.5,model=8,zipv=[0.5,0,0.5,1,0,0,0],daily=RES3_6,status=variable
new load.3000343466M1 bus1=RML1054764411.3.0,Phases=1,kv=0.127,kW=1.04932,pf=0.92,Vminpu=0.92,Vmaxpu=1.5,model=8,zipv=[0.5,0,0.5,1,0,0,0],daily=RES1_4,status=variable
new load.3000343467M1 bus1=RML1054764544.1.0,Phases=1,kv=0.127,kW=0.6719,pf=0.92,Vminpu=0.92,Vmaxpu=1.5,model=8,zipv=[0.5,0,0.5,1,0,0,0],daily=RES2_5,status=variable
new load.3000343469M1 bus1=RML1054764551.1.2.0,Phases=2,kv=0.22,kW=1.03584,pf=0.92,Vminpu=0.92,Vmaxpu=1.5,model=8,zipv=[0.5,0,0.5,1,0,0,0],daily=RES2_5,status=variable
new load.3000343470M1 bus1=RML1054764551.1.2.0,Phases=2,kv=0.22,kW=0.89942,pf=0.92,Vminpu=0.92,Vmaxpu=1.5,model=8,zipv=[0.5,0,0.5,1,0,0,0],daily=RES1_4,status=variable
new load.3000343471M1 bus1=RML1054764362.2.3.0,Phases=2,kv=0.22,kW=1.37558,pf=0.92,Vminpu=0.92,Vmaxpu=1.5,model=8,zipv=[0.5,0,0.5,1,0,0,0],daily=RES5_7,status=variable
new load.3000343472M1 bus1=RML1054764586.3.0,Phases=1,kv=0.127,kW=0.92668,pf=0.92,Vminpu=0.92,Vmaxpu=1.5,model=8,zipv=[0.5,0,0.5,1,0,0,0],daily=RES1_4,status=variable
new load.3000343473M1 bus1=RML1054764586.3.0,Phases=1,kv=0.127,kW=0.33594,pf=0.92,Vminpu=0.92,Vmaxpu=1.5,model=8,zipv=[0.5,0,0.5,1,0,0,0],daily=RES2_5,status=variable
new load.3000343475M1 bus1=RML1054764600.1.2.3.0,Phases=3,kv=0.22,kW=0.17436,pf=0.92,Vminpu=0.92,Vmaxpu=1.5,model=8,zipv=[0.5,0,0.5,1,0,0,0],daily=COM1_10,status=variable
new load.3000343476M1 bus1=RML1054764054.1.2.3.0,Phases=3,kv=0.22,kW=0.06814,pf=0.92,Vminpu=0.92,Vmaxpu=1.5,model=8,zipv=[0.5,0,0.5,1,0,0,0],daily=RES1_4,status=variable
new load.3000343477M1 bus1=RML1054764054.1.2.3.0,Phases=3,kv=0.22,kW=1.93578,pf=0.92,Vminpu=0.92,Vmaxpu=1.5,model=8,zipv=[0.5,0,0.5,1,0,0,0],daily=RES3_6,status=variable
new load.3000343479M1 bus1=RML1054764033.2.3.0,Phases=2,kv=0.22,kW=1.41558,pf=0.92,Vminpu=0.92,Vmaxpu=1.5,model=8,zipv=[0.5,0,0.5,1,0,0,0],daily=RES4_8,status=variable