new line.10087573 bus1=BBT147519740.1.2.3.0,bus2=BBT147525354.1.2.3.0,Phases=3,Linecode=BT803_BT803_4_3_4,Length=0.048177000,Units=km
new line.10087580 bus1=BBT147519740.1.2.3.0,bus2=BBT147525956.1.2.3.0,Phases=3,Linecode=BT803_BT803_4_3_4,Length=0.053087000,Units=km
new line.10087587 bus1=BBT147525956.1.2.3.0,bus2=BBT147525963.1.2.3.0,Phases=3,Linecode=BT803_BT803_4_3_4,Length=0.058065000,Units=km
new line.1476075 bus1=BBT1592583.1.2.0,bus2=BBT1592590.1.2.0,Phases=2,Linecode=BT508_BT508_7_2_1,Length=0.000501000,Units=km
new line.1476082 bus1=BBT1592590.1.2.0,bus2=BBT1592597.1.2.0,Phases=2,Linecode=BT807_BT807_4_2_3,Length=0.023201000,Units=km
new line.1476089 bus1=BBT1592590.1.2.0,bus2=BBT1592625.1.2.0,Phases=2,Linecode=BT807_BT807_4_2_3,Length=0.024090000,Units=km
new line.1476096 bus1=BBT1592597.1.2.0,bus2=BBT1592604.1.2.0,Phases=2,Linecode=BT807_BT807_4_2_3,Length=0.043197000,Units=km
new line.1476103 bus1=BBT1592597.1.2.0,bus2=BBT1592618.1.2.0,Phases=2,Linecode=BT801_BT801_4_2_3,Length=0.050500000,Units=km
new line.1476110 bus1=BBT1592604.1.2.0,bus2=BBT1592611.1.2.0,Phases=2,Linecode=BT802_BT802_4_2_3,Length=0.045288000,Units=km
new line.1476117 bus1=BBT1592625.1.2.0,bus2=BBT1592632.1.2.0,Phases=2,Linecode=BT807_BT807_4_2_3,Length=0.041059000,Units=km
new line.1476124 bus1=BBT1592625.1.2.0,bus2=BBT1592667.1.2.0,Phases=2,Linecode=BT801_BT801_4_2_3,Length=0.046283000,Units=km
new line.1476131 bus1=BBT1592632.1.2.0,bus2=BBT1592639.1.2.0,Phases=2,Linecode=BT807_BT807_4_2_3,Length=0.036369000,Units=km
new line.1476138 bus1=BBT1592632.1.2.0,bus2=BBT1592646.1.2.0,Phases=2,Linecode=BT106_BT106_7_2_1,Length=0.040458000,Units=km
new line.1476145 bus1=BBT1592639.1.2.0,bus2=BBT1592660.1.2.0,Phases=2,Linecode=BT807_BT807_4_2_3,Length=0.039456000,Units=km
new line.1476152 bus1=BBT1592646.1.2.0,bus2=BBT1592653.1.2.0,Phases=2,Linecode=BT106_BT106_7_2_1,Length=0.037865000,Units=km
new line.1476159 bus1=BBT1593374.1.2.0,bus2=BBT1593381.1.2.0,Phases=2,Linecode=BT107_BT106_7_2_1,Length=0.019215000,Units=km
new line.1476292 bus1=BBT1592758.1.2.3.0,bus2=BBT1592765.1.2.3.0,Phases=3,Linecode=BT508_BT508_7_3_1,Length=0.000501000,Units=km
new line.1476299 bus1=BBT1592765.1.2.3.0,bus2=BBT1592772.1.2.3.0,Phases=3,Linecode=BT108_BT107_7_3_1,Length=0.027007000,Units=km
new line.1476306 bus1=BBT1592765.1.2.3.0,bus2=BBT1592800.1.2.3.0,Phases=3,Linecode=BT108_BT107_7_3_1,Length=0.023416000,Units=km
new line.1476313 bus1=BBT1592772.1.2.3.0,bus2=BBT1592779.1.2.3.0,Phases=3,Linecode=BT108_BT107_7_3_1,Length=0.042058000,Units=km
new line.1476320 bus1=BBT1592779.1.2.3.0,bus2=BBT1592786.1.2.3.0,Phases=3,Linecode=BT108_BT107_7_3_1,Length=0.036023000,Units=km
new line.1476327 bus1=BBT1592779.1.2.3.0,bus2=BBT6293678.1.2.3.0,Phases=3,Linecode=BT803_BT803_4_3_4,Length=0.007073000,Units=km
new line.1476334 bus1=BBT1592800.1.2.3.0,bus2=BBT1592807.1.2.3.0,Phases=3,Linecode=BT108_BT107_7_3_1,Length=0.035023000,Units=km
new line.1476341 bus1=BBT1592800.1.2.0,bus2=BBT3396994.1.2.0,Phases=2,Linecode=BT807_BT807_4_2_3,Length=0.048427000,Units=km
new line.1476355 bus1=BBT1592814.1.2.3.0,bus2=BBT2236429.1.2.3.0,Phases=3,Linecode=BT803_BT803_4_3_4,Length=0.039010000,Units=km
new line.1476362 bus1=BBT1592821.1.2.3.0,bus2=BBT2236499.1.2.3.0,Phases=3,Linecode=BT803_BT803_4_3_4,Length=0.040010000,Units=km
new line.1476369 bus1=BBT1592828.1.2.3.0,bus2=BBT1592814.1.2.3.0,Phases=3,Linecode=BT803_BT803_4_3_4,Length=0.037009000,Units=km
new line.1476376 bus1=BBT1592828.1.2.3.0,bus2=BBT1592821.1.2.3.0,Phases=3,Linecode=BT803_BT803_4_3_4,Length=0.039023000,Units=km
new line.1476383 bus1=BBT2236422.1.2.3.0,bus2=BBT1592828.1.2.3.0,Phases=3,Linecode=BT509_BT509_7_3_1,Length=0.000501000,Units=km
new line.1476649 bus1=BBT1593059.1.2.0,bus2=BBT1593066.1.2.0,Phases=2,Linecode=BT508_BT508_7_2_1,Length=0.000501000,Units=km
new line.1476656 bus1=BBT1593066.1.2.0,bus2=BBT1593073.1.2.0,Phases=2,Linecode=BT108_BT107_7_2_1,Length=0.029214000,Units=km
new line.1476663 bus1=BBT1593066.1.2.0,bus2=BBT1593101.1.2.0,Phases=2,Linecode=BT108_BT107_7_2_1,Length=0.035393000,Units=km
new line.1476670 bus1=BBT1593073.1.2.0,bus2=BBT1593094.1.2.0,Phases=2,Linecode=BT106_BT106_7_2_1,Length=0.011049000,Units=km
new line.1476677 bus1=BBT1593073.1.2.0,bus2=BBT1593080.1.2.0,Phases=2,Linecode=BT108_BT107_7_2_1,Length=0.006405000,Units=km
new line.1476684 bus1=BBT1593073.1.2.0,bus2=BBT1593122.1.2.0,Phases=2,Linecode=BT106_BT106_7_2_1,Length=0.031024000,Units=km
new line.1476691 bus1=BBT1593080.1.2.0,bus2=BBT1593087.1.2.0,Phases=2,Linecode=BT108_BT107_7_2_1,Length=0.046702000,Units=km
new line.1476698 bus1=BBT1593087.1.2.0,bus2=BBT1593150.1.2.0,Phases=2,Linecode=BT107_BT106_7_2_1,Length=0.042461000,Units=km
new line.1476705 bus1=BBT1593101.1.2.0,bus2=BBT1593108.1.2.0,Phases=2,Linecode=BT106_BT106_7_2_1,Length=0.060422000,Units=km
new line.1476712 bus1=BBT1593101.1.2.0,bus2=BBT1593143.1.2.0,Phases=2,Linecode=BT108_BT107_7_2_1,Length=0.035814000,Units=km
new line.1476719 bus1=BBT1593108.1.2.0,bus2=BBT1593115.1.2.0,Phases=2,Linecode=BT106_BT106_7_2_1,Length=0.054014000,Units=km
new line.1476726 bus1=BBT3396602.1.2.0,bus2=BBT3396609.1.2.0,Phases=2,Linecode=BT807_BT807_4_2_3,Length=0.032397000,Units=km
new line.1476733 bus1=BBT1593122.1.2.0,bus2=BBT1593129.1.2.0,Phases=2,Linecode=BT106_BT106_7_2_1,Length=0.062015000,Units=km
new line.1476740 bus1=BBT1593129.1.2.0,bus2=BBT1593136.1.2.0,Phases=2,Linecode=BT106_BT106_7_2_1,Length=0.053023000,Units=km
new line.1476747 bus1=BBT1593360.1.2.0,bus2=BBT1593374.1.2.0,Phases=2,Linecode=BT107_BT106_7_2_1,Length=0.027210000,Units=km
new line.1476754 bus1=BBT1593360.1.2.0,bus2=BBT1593395.1.2.0,Phases=2,Linecode=BT106_BT106_7_2_1,Length=0.021195000,Units=km
new line.1476761 bus1=BBT1593150.1.2.0,bus2=BBT1593157.1.2.0,Phases=2,Linecode=BT107_BT106_7_2_1,Length=0.038298000,Units=km
new line.1476985 bus1=BBT1593353.1.2.0,bus2=BBT1593360.1.2.0,Phases=2,Linecode=BT108_BT108_7_2_1,Length=0.037493000,Units=km
new line.1476992 bus1=BBT1593346.1.2.0,bus2=BBT1593353.1.2.0,Phases=2,Linecode=BT508_BT508_7_2_1,Length=0.000501000,Units=km
new line.1476999 bus1=BBT1593353.1.2.0,bus2=BBT1593367.1.2.0,Phases=2,Linecode=BT108_BT108_7_2_1,Length=0.034722000,Units=km
new line.1477006 bus1=BBT1593367.1.2.0,bus2=BBT3396336.1.2.0,Phases=2,Linecode=BT808_BT808_4_2_3,Length=0.025462000,Units=km
new line.1477013 bus1=BBT1593381.1.2.0,bus2=BBT1593388.1.2.0,Phases=2,Linecode=BT801_BT801_4_2_3,Length=0.061627000,Units=km
new line.1477027 bus1=BBT1593395.1.2.0,bus2=BBT1593402.1.2.0,Phases=2,Linecode=BT106_BT106_7_2_1,Length=0.037063000,Units=km
new line.1477034 bus1=BBT3396336.1.2.0,bus2=BBT3396350.1.2.0,Phases=2,Linecode=BT808_BT808_4_2_3,Length=0.032704000,Units=km
new line.1477041 bus1=BBT3396336.1.2.0,bus2=BBT3396343.1.2.0,Phases=2,Linecode=BT808_BT808_4_2_3,Length=0.036410000,Units=km
new line.1477559 bus1=BBT1593892.1.2.0,bus2=BBT1593899.1.2.0,Phases=2,Linecode=BT508_BT508_7_2_1,Length=0.000501000,Units=km
new line.1477566 bus1=BBT1593899.1.2.0,bus2=BBT1593906.1.2.0,Phases=2,Linecode=BT108_BT107_7_2_1,Length=0.031024000,Units=km
new line.1477573 bus1=BBT1593899.1.2.0,bus2=BBT1593927.1.2.0,Phases=2,Linecode=BT108_BT107_7_2_1,Length=0.030372000,Units=km
new line.1477580 bus1=BBT1593906.1.2.0,bus2=BBT1593913.1.2.0,Phases=2,Linecode=BT107_BT107_7_2_1,Length=0.023351000,Units=km
new line.1477587 bus1=BBT1593906.1.2.0,bus2=BBT1593920.1.2.0,Phases=2,Linecode=BT107_BT107_7_2_1,Length=0.027864000,Units=km
new line.1477594 bus1=BBT1593906.1.2.0,bus2=BBT1593934.1.2.0,Phases=2,Linecode=BT807_BT807_4_2_3,Length=0.029282000,Units=km
new line.1477601 bus1=BBT1593927.1.2.0,bus2=BBT2981012.1.2.0,Phases=2,Linecode=BT108_BT107_7_2_1,Length=0.035180000,Units=km
new line.1477608 bus1=BBT2981012.1.2.0,bus2=BBT2715201.1.2.0,Phases=2,Linecode=BT808_BT808_4_2_3,Length=0.038337000,Units=km
new line.1477615 bus1=BBT2981012.1.2.0,bus2=BBT1594389.1.2.0,Phases=2,Linecode=BT808_BT808_4_2_3,Length=0.020597000,Units=km
new line.1477622 bus1=BBT1593941.1.2.0,bus2=BBT160611047.1.2.0,Phases=2,Linecode=BT807_BT807_4_2_3,Length=0.034534000,Units=km
new line.1477643 bus1=BBT1593962.1.2.0,bus2=BBT1593969.1.2.0,Phases=2,Linecode=BT508_BT508_7_2_1,Length=0.000501000,Units=km
new line.1477650 bus1=BBT1593969.1.2.0,bus2=BBT1593976.1.2.0,Phases=2,Linecode=BT108_BT107_7_2_1,Length=0.029128000,Units=km
new line.1477657 bus1=BBT1593969.1.2.0,bus2=BBT1594004.1.2.0,Phases=2,Linecode=BT108_BT107_7_2_1,Length=0.026256000,Units=km
new line.1477664 bus1=BBT1593976.1.2.0,bus2=BBT1593983.1.2.0,Phases=2,Linecode=BT807_BT807_4_2_3,Length=0.030684000,Units=km
new line.1477671 bus1=BBT1593983.1.2.0,bus2=BBT1593990.1.2.0,Phases=2,Linecode=BT808_BT808_4_2_3,Length=0.030091000,Units=km
new line.1477678 bus1=BBT1593983.1.2.0,bus2=BBT1593997.1.2.0,Phases=2,Linecode=BT808_BT808_4_2_3,Length=0.022478000,Units=km
new line.1477685 bus1=BBT1594004.1.2.0,bus2=BBT1594011.1.2.0,Phases=2,Linecode=BT108_BT107_7_2_1,Length=0.024048000,Units=km
new line.1477692 bus1=BBT1594011.1.2.0,bus2=BBT1594018.1.2.0,Phases=2,Linecode=BT106_BT106_7_2_1,Length=0.026933000,Units=km
new line.1477699 bus1=BBT1594011.1.2.0,bus2=BBT1594025.1.2.0,Phases=2,Linecode=BT107_BT107_7_2_1,Length=0.031056000,Units=km
new line.1477706 bus1=BBT1594011.1.2.0,bus2=BBT1594060.1.2.0,Phases=2,Linecode=BT108_BT107_7_2_1,Length=0.031329000,Units=km
new line.1477713 bus1=BBT1594025.1.2.0,bus2=BBT1594032.1.2.0,Phases=2,Linecode=BT107_BT107_7_2_1,Length=0.034491000,Units=km
new line.1477720 bus1=BBT1594032.1.2.0,bus2=BBT1594039.1.2.0,Phases=2,Linecode=BT107_BT107_7_2_1,Length=0.038610000,Units=km
new line.1477727 bus1=BBT1594039.1.2.0,bus2=BBT1594046.1.2.0,Phases=2,Linecode=BT807_BT807_4_2_3,Length=0.027864000,Units=km
new line.1477734 bus1=BBT1594046.1.2.0,bus2=BBT1593941.1.2.0,Phases=2,Linecode=BT807_BT807_4_2_3,Length=0.030273000,Units=km
new line.1477755 bus1=BBT1594081.1.2.0,bus2=BBT1594088.1.2.0,Phases=2,Linecode=BT508_BT508_7_2_1,Length=0.000501000,Units=km
new line.1477762 bus1=BBT1594088.1.2.0,bus2=BBT1594095.1.2.0,Phases=2,Linecode=BT108_BT107_7_2_1,Length=0.047139000,Units=km
new line.1477769 bus1=BBT1594088.1.2.0,bus2=BBT1594123.1.2.0,Phases=2,Linecode=BT108_BT107_7_2_1,Length=0.038610000,Units=km
new line.1477776 bus1=BBT1594095.1.2.0,bus2=BBT1594102.1.2.0,Phases=2,Linecode=BT108_BT107_7_2_1,Length=0.023416000,Units=km
new line.1477783 bus1=BBT1594095.1.2.0,bus2=BBT1594109.1.2.0,Phases=2,Linecode=BT106_BT106_7_2_1,Length=0.030814000,Units=km
new line.1477790 bus1=BBT1594109.1.2.0,bus2=BBT1594116.1.2.0,Phases=2,Linecode=BT106_BT106_7_2_1,Length=0.031409000,Units=km
new line.1477797 bus1=BBT1686278.1.2.0,bus2=BBT1686285.1.2.0,Phases=2,Linecode=BT305_BT305_7_2_1,Length=0.000501000,Units=km
new line.1477811 bus1=BBT1594123.1.2.0,bus2=BBT1594130.1.2.0,Phases=2,Linecode=BT106_BT106_7_2_1,Length=0.030895000,Units=km
new line.1477818 bus1=BBT1594123.1.2.0,bus2=BBT1594172.1.2.0,Phases=2,Linecode=BT106_BT106_7_2_1,Length=0.039215000,Units=km
new line.1477825 bus1=BBT1594130.1.2.0,bus2=BBT1594137.1.2.0,Phases=2,Linecode=BT106_BT106_7_2_1,Length=0.025186000,Units=km
new line.1477832 bus1=BBT1594137.1.2.0,bus2=BBT1594144.1.2.0,Phases=2,Linecode=BT106_BT106_7_2_1,Length=0.050974000,Units=km
new line.1477839 bus1=BBT1594137.1.2.0,bus2=BBT1594158.1.2.0,Phases=2,Linecode=BT106_BT106_7_2_1,Length=0.038337000,Units=km
new line.1477846 bus1=BBT1594144.1.2.0,bus2=BBT1594151.1.2.0,Phases=2,Linecode=BT106_BT106_7_2_1,Length=0.045288000,Units=km
new line.1477853 bus1=BBT1594158.1.2.0,bus2=BBT1594165.1.2.0,Phases=2,Linecode=BT106_BT106_7_2_1,Length=0.024027000,Units=km
new line.1477860 bus1=BBT1594172.1.2.0,bus2=BBT1594179.1.2.0,Phases=2,Linecode=BT106_BT106_7_2_1,Length=0.040321000,Units=km
new line.1477867 bus1=BBT1594179.1.2.0,bus2=BBT1594186.1.2.0,Phases=2,Linecode=BT106_BT106_7_2_1,Length=0.038843000,Units=km
new line.1477874 bus1=BBT160611823.1.2.0,bus2=BBT1594193.1.2.0,Phases=2,Linecode=BT807_BT807_4_2_3,Length=0.021266000,Units=km
new line.1477979 bus1=BBT1594284.1.2.0,bus2=BBT1594291.1.2.0,Phases=2,Linecode=BT508_BT508_7_2_1,Length=0.000501000,Units=km
new line.1477986 bus1=BBT1594291.1.2.0,bus2=BBT1594298.1.2.0,Phases=2,Linecode=BT807_BT807_4_2_3,Length=0.037586000,Units=km
new line.1477993 bus1=BBT1594291.1.2.0,bus2=BBT1594326.1.2.0,Phases=2,Linecode=BT807_BT807_4_2_3,Length=0.037586000,Units=km
new line.1478007 bus1=BBT1594298.1.2.0,bus2=BBT1594305.1.2.0,Phases=2,Linecode=BT807_BT807_4_2_3,Length=0.032658000,Units=km
new line.1478014 bus1=BBT1594305.1.2.0,bus2=BBT1594312.1.2.0,Phases=2,Linecode=BT808_BT808_4_2_3,Length=0.031313000,Units=km
new line.1478021 bus1=BBT1594312.1.2.0,bus2=BBT1594319.1.2.0,Phases=2,Linecode=BT808_BT808_4_2_3,Length=0.037599000,Units=km
new line.1478028 bus1=BBT1594319.1.2.0,bus2=BBT1594354.1.2.0,Phases=2,Linecode=BT808_BT808_4_2_3,Length=0.039215000,Units=km
new line.1478035 bus1=BBT1594319.1.2.0,bus2=BBT1594382.1.2.0,Phases=2,Linecode=BT808_BT808_4_2_3,Length=0.034549000,Units=km
new line.1478042 bus1=BBT1594326.1.2.0,bus2=BBT1594333.1.2.0,Phases=2,Linecode=BT803_BT803_4_2_4,Length=0.028309000,Units=km
new line.1478049 bus1=BBT1594333.1.2.0,bus2=BBT1594340.1.2.0,Phases=2,Linecode=BT803_BT803_4_2_4,Length=0.038481000,Units=km
new line.1478056 bus1=BBT1594340.1.2.0,bus2=BBT1594347.1.2.0,Phases=2,Linecode=BT803_BT803_4_2_4,Length=0.041604000,Units=km
new line.1478063 bus1=BBT1594354.1.2.0,bus2=BBT1594361.1.2.0,Phases=2,Linecode=BT808_BT808_4_2_3,Length=0.032902000,Units=km
new line.1478070 bus1=BBT1594354.1.2.0,bus2=BBT1594368.1.2.0,Phases=2,Linecode=BT808_BT808_4_2_3,Length=0.039860000,Units=km
new line.1478105 bus1=BBT1594368.1.2.0,bus2=BBT70415517.1.2.0,Phases=2,Linecode=BT106_BT106_7_2_1,Length=0.036355000,Units=km
new line.1478112 bus1=BBT1594389.1.2.0,bus2=BBT2981019.1.2.0,Phases=2,Linecode=BT808_BT808_4_2_3,Length=0.027864000,Units=km
new line.1478252 bus1=BBT1594522.1.2.0,bus2=BBT1594529.1.2.0,Phases=2,Linecode=BT508_BT508_7_2_1,Length=0.000501000,Units=km
new line.1478259 bus1=BBT1594529.1.2.0,bus2=BBT1594536.1.2.0,Phases=2,Linecode=BT807_BT807_4_2_3,Length=0.050500000,Units=km
new line.1478266 bus1=BBT1594529.1.2.0,bus2=BBT1594564.1.2.0,Phases=2,Linecode=BT807_BT807_4_2_3,Length=0.050053000,Units=km
new line.1478273 bus1=BBT1594536.1.2.0,bus2=BBT1594543.1.2.0,Phases=2,Linecode=BT802_BT802_4_2_3,Length=0.050500000,Units=km
new line.1478280 bus1=BBT1594543.1.2.0,bus2=BBT1594550.1.2.0,Phases=2,Linecode=BT107_BT106_7_2_1,Length=0.049378000,Units=km
new line.1478287 bus1=BBT1594550.1.2.0,bus2=BBT1594557.1.2.0,Phases=2,Linecode=BT107_BT106_7_2_1,Length=0.045288000,Units=km
new line.1478294 bus1=BBT1594564.1.2.0,bus2=BBT1594571.1.2.0,Phases=2,Linecode=BT807_BT807_4_2_3,Length=0.049023000,Units=km
new line.1478301 bus1=BBT1594571.1.2.0,bus2=BBT1594578.1.2.0,Phases=2,Linecode=BT807_BT807_4_2_3,Length=0.054023000,Units=km
new line.10036508 bus1=BBT1993515.1.2.0,bus2=BBT146029300.1.2.0,Phases=2,Linecode=BT808_BT808_4_2_3,Length=0.032257000,Units=km
new line.10036515 bus1=BBT5475126.1.2.0,bus2=BBT146029328.1.2.0,Phases=2,Linecode=BT808_BT808_4_2_3,Length=0.054931000,Units=km
new line.1481619 bus1=BBT1598827.1.2.0,bus2=BBT1598834.1.2.0,Phases=2,Linecode=BT508_BT508_7_2_1,Length=0.000501000,Units=km
new line.1481626 bus1=BBT1598834.1.2.0,bus2=BBT1598841.1.2.0,Phases=2,Linecode=BT108_BT106_7_2_1,Length=0.037211000,Units=km
new line.1481633 bus1=BBT1598834.1.2.0,bus2=BBT1598848.1.2.0,Phases=2,Linecode=BT108_BT106_7_2_1,Length=0.034490000,Units=km
new line.1481640 bus1=BBT1598841.1.2.0,bus2=BBT1598925.1.2.0,Phases=2,Linecode=BT108_BT106_7_2_1,Length=0.034678000,Units=km
new line.1481647 bus1=BBT1598848.1.2.0,bus2=BBT1598855.1.2.0,Phases=2,Linecode=BT106_BT106_7_2_1,Length=0.025086000,Units=km
new line.1481654 bus1=BBT1598848.1.2.0,bus2=BBT1598862.1.2.0,Phases=2,Linecode=BT108_BT106_7_2_1,Length=0.030372000,Units=km
new line.1481661 bus1=BBT1598848.1.2.0,bus2=BBT1598890.1.2.0,Phases=2,Linecode=BT808_BT808_4_2_3,Length=0.035392000,Units=km
new line.1481668 bus1=BBT1598855.1.2.0,bus2=BBT1598911.1.2.0,Phases=2,Linecode=BT106_BT106_7_2_1,Length=0.046541000,Units=km
new line.1481675 bus1=BBT1598862.1.2.0,bus2=BBT1598904.1.2.0,Phases=2,Linecode=BT106_BT106_7_2_1,Length=0.008605000,Units=km
new line.1481682 bus1=BBT1598862.1.2.0,bus2=BBT1598869.1.2.0,Phases=2,Linecode=BT106_BT106_7_2_1,Length=0.030091000,Units=km
new line.1481689 bus1=BBT1598869.1.2.0,bus2=BBT1598876.1.2.0,Phases=2,Linecode=BT106_BT106_7_2_1,Length=0.030007000,Units=km
new line.1481696 bus1=BBT1598876.1.2.0,bus2=BBT1598883.1.2.0,Phases=2,Linecode=BT106_BT106_7_2_1,Length=0.041059000,Units=km
new line.1481703 bus1=BBT1598890.1.2.0,bus2=BBT1598897.1.2.0,Phases=2,Linecode=BT808_BT808_4_2_3,Length=0.051491000,Units=km
new line.1481710 bus1=BBT1598897.1.2.0,bus2=BBT2186120.1.2.0,Phases=2,Linecode=BT808_BT808_4_2_3,Length=0.027520000,Units=km
new line.1481717 bus1=BBT2186127.1.2.0,bus2=BBT2186155.1.2.0,Phases=2,Linecode=BT808_BT808_4_2_3,Length=0.034008000,Units=km
new line.1481731 bus1=BBT1598911.1.2.0,bus2=BBT1598918.1.2.0,Phases=2,Linecode=BT106_BT106_7_2_1,Length=0.036230000,Units=km
new line.1481738 bus1=BBT1598911.1.2.0,bus2=BBT3220769.1.2.0,Phases=2,Linecode=BT808_BT808_4_2_3,Length=0.033008000,Units=km
new line.1481745 bus1=BBT1598918.1.2.0,bus2=BBT3220776.1.2.0,Phases=2,Linecode=BT808_BT808_4_2_3,Length=0.033069000,Units=km
new line.1481752 bus1=BBT1598925.1.2.0,bus2=BBT1598932.1.2.0,Phases=2,Linecode=BT108_BT106_7_2_1,Length=0.026255000,Units=km
new line.1481759 bus1=BBT1598932.1.2.0,bus2=BBT1598939.1.2.0,Phases=2,Linecode=BT106_BT106_7_2_1,Length=0.038285000,Units=km
new line.1481766 bus1=BBT1598932.1.2.0,bus2=BBT2240398.1.2.0,Phases=2,Linecode=BT808_BT808_4_2_3,Length=0.041156000,Units=km
new line.1481913 bus1=BBT1599072.1.2.0,bus2=BBT1599079.1.2.0,Phases=2,Linecode=BT508_BT508_7_2_1,Length=0.000501000,Units=km
new line.1481920 bus1=BBT1599079.1.2.0,bus2=BBT1599086.1.2.0,Phases=2,Linecode=BT108_BT106_7_2_1,Length=0.021266000,Units=km
new line.1481927 bus1=BBT1599079.1.2.0,bus2=BBT1599107.1.2.0,Phases=2,Linecode=BT108_BT106_7_2_1,Length=0.028608000,Units=km
new line.1481934 bus1=BBT1599086.1.2.0,bus2=BBT1599100.1.2.0,Phases=2,Linecode=BT108_BT106_7_2_1,Length=0.039456000,Units=km
new line.1481941 bus1=BBT1599086.1.2.0,bus2=BBT1599093.1.2.0,Phases=2,Linecode=BT106_BT106_7_2_1,Length=0.037452000,Units=km
new line.1481948 bus1=BBT1599093.1.2.0,bus2=BBT1599114.1.2.0,Phases=2,Linecode=BT106_BT106_7_2_1,Length=0.032458000,Units=km
new line.1481955 bus1=BBT1599107.1.2.0,bus2=BBT1599121.1.2.0,Phases=2,Linecode=BT106_BT106_7_2_1,Length=0.028852000,Units=km
new line.1481962 bus1=BBT1599107.1.2.0,bus2=BBT1599163.1.2.0,Phases=2,Linecode=BT108_BT106_7_2_1,Length=0.033023000,Units=km
new line.1481969 bus1=BBT1599114.1.2.0,bus2=BBT1599149.1.2.0,Phases=2,Linecode=BT106_BT106_7_2_1,Length=0.028852000,Units=km
new line.1481976 bus1=BBT1599114.1.2.0,bus2=BBT2878574.1.2.0,Phases=2,Linecode=BT106_BT106_7_2_1,Length=0.025245000,Units=km
new line.1481983 bus1=BBT1599121.1.2.0,bus2=BBT1599128.1.2.0,Phases=2,Linecode=BT106_BT106_7_2_1,Length=0.033295000,Units=km
new line.1481990 bus1=BBT1599128.1.2.0,bus2=BBT1599135.1.2.0,Phases=2,Linecode=BT106_BT106_7_2_1,Length=0.025501000,Units=km
new line.1481997 bus1=BBT1599128.1.2.0,bus2=BBT1599142.1.2.0,Phases=2,Linecode=BT106_BT106_7_2_1,Length=0.034678000,Units=km
new line.1482011 bus1=BBT1599163.1.2.0,bus2=BBT1599170.1.2.0,Phases=2,Linecode=BT108_BT106_7_2_1,Length=0.034418000,Units=km
new line.1483838 bus1=BBT1600801.1.2.0,bus2=BBT1600808.1.2.0,Phases=2,Linecode=BT508_BT508_7_2_1,Length=0.000501000,Units=km
new line.1483845 bus1=BBT1600808.1.2.0,bus2=BBT1600815.1.2.0,Phases=2,Linecode=BT108_BT107_7_2_1,Length=0.041795000,Units=km
new line.1483852 bus1=BBT1600808.1.2.0,bus2=BBT1600829.1.2.0,Phases=2,Linecode=BT108_BT107_7_2_1,Length=0.025086000,Units=km
new line.1483859 bus1=BBT1600815.1.2.0,bus2=BBT1600822.1.2.0,Phases=2,Linecode=BT106_BT106_7_2_1,Length=0.037705000,Units=km
new line.1483866 bus1=BBT1600822.1.2.0,bus2=BBT1600864.1.2.0,Phases=2,Linecode=BT106_BT106_7_2_1,Length=0.047771000,Units=km
new line.1483873 bus1=BBT1600829.1.2.0,bus2=BBT1600836.1.2.0,Phases=2,Linecode=BT106_BT106_7_2_1,Length=0.032764000,Units=km
new line.1483880 bus1=BBT1600836.1.2.0,bus2=BBT1600843.1.2.0,Phases=2,Linecode=BT106_BT106_7_2_1,Length=0.044832000,Units=km
new line.1483887 bus1=BBT1600843.1.2.0,bus2=BBT1600850.1.2.0,Phases=2,Linecode=BT106_BT106_7_2_1,Length=0.036409000,Units=km
new line.1483894 bus1=BBT1600850.1.2.0,bus2=BBT1600857.1.2.0,Phases=2,Linecode=BT106_BT106_7_2_1,Length=0.038635000,Units=km
new line.1483901 bus1=BBT1600864.1.2.0,bus2=BBT1600871.1.2.0,Phases=2,Linecode=BT106_BT106_7_2_1,Length=0.044608000,Units=km
new line.1483908 bus1=BBT1600871.1.2.0,bus2=BBT1600878.1.2.0,Phases=2,Linecode=BT106_BT106_7_2_1,Length=0.038635000,Units=km
new line.1483915 bus1=BBT1600878.1.2.0,bus2=BBT1600885.1.2.0,Phases=2,Linecode=BT106_BT106_7_2_1,Length=0.044021000,Units=km
new line.1483922 bus1=BBT1600885.1.2.0,bus2=BBT1600892.1.2.0,Phases=2,Linecode=BT106_BT106_7_2_1,Length=0.021383000,Units=km
new line.1483929 bus1=BBT1600892.1.2.0,bus2=BBT1600899.1.2.0,Phases=2,Linecode=BT106_BT106_7_2_1,Length=0.052050000,Units=km
new line.1483943 bus1=BBT1600906.1.2.0,bus2=BBT1600913.1.2.0,Phases=2,Linecode=BT508_BT508_7_2_1,Length=0.000501000,Units=km
new line.1483950 bus1=BBT1600913.1.2.0,bus2=BBT1600920.1.2.0,Phases=2,Linecode=BT108_BT107_7_2_1,Length=0.067283000,Units=km
new line.1483957 bus1=BBT1600913.1.2.0,bus2=BBT1600927.1.2.0,Phases=2,Linecode=BT108_BT107_7_2_1,Length=0.051412000,Units=km
new line.1483964 bus1=BBT1600920.1.2.0,bus2=BBT1600962.1.2.0,Phases=2,Linecode=BT107_BT107_7_2_1,Length=0.038127000,Units=km
new line.1483971 bus1=BBT1600920.1.2.0,bus2=BBT1600976.1.2.0,Phases=2,Linecode=BT107_BT107_7_2_1,Length=0.034067000,Units=km
new line.1483978 bus1=BBT1600927.1.2.0,bus2=BBT1600934.1.2.0,Phases=2,Linecode=BT106_BT106_7_2_1,Length=0.038842000,Units=km
new line.1483985 bus1=BBT1600927.1.2.0,bus2=BBT1600948.1.2.0,Phases=2,Linecode=BT108_BT107_7_2_1,Length=0.034721000,Units=km
new line.1483992 bus1=BBT1600934.1.2.0,bus2=BBT1600941.1.2.0,Phases=2,Linecode=BT106_BT106_7_2_1,Length=0.025006000,Units=km
new line.1471847 bus1=BBT1588425.1.2.0,bus2=BBT1588432.1.2.0,Phases=2,Linecode=BT508_BT508_7_2_1,Length=0.000501000,Units=km
new line.1471854 bus1=BBT1588432.1.2.0,bus2=BBT1588439.1.2.0,Phases=2,Linecode=BT108_BT106_7_2_1,Length=0.031789000,Units=km
new line.1471861 bus1=BBT1588432.1.2.0,bus2=BBT1588453.1.2.0,Phases=2,Linecode=BT108_BT106_7_2_1,Length=0.027466000,Units=km
new line.1471868 bus1=BBT1588439.1.2.0,bus2=BBT1588446.1.2.0,Phases=2,Linecode=BT807_BT807_4_2_3,Length=0.036023000,Units=km
new line.1471875 bus1=BBT1588439.1.2.0,bus2=BBT1588495.1.2.0,Phases=2,Linecode=BT807_BT807_4_2_3,Length=0.034023000,Units=km
new line.1471882 bus1=BBT1588453.1.2.0,bus2=BBT1588460.1.2.0,Phases=2,Linecode=BT108_BT106_7_2_1,Length=0.033550000,Units=km
new line.1471889 bus1=BBT1588453.1.2.0,bus2=BBT1588502.1.2.0,Phases=2,Linecode=BT106_BT106_7_2_1,Length=0.032566000,Units=km
new line.1471896 bus1=BBT1588460.1.2.0,bus2=BBT1588467.1.2.0,Phases=2,Linecode=BT106_BT106_7_2_1,Length=0.040023000,Units=km
new line.1471903 bus1=BBT1588460.1.2.0,bus2=BBT1588523.1.2.0,Phases=2,Linecode=BT108_BT106_7_2_1,Length=0.033965000,Units=km
new line.1471910 bus1=BBT1588467.1.2.0,bus2=BBT1588474.1.2.0,Phases=2,Linecode=BT106_BT106_7_2_1,Length=0.038023000,Units=km
new line.1471917 bus1=BBT1588474.1.2.0,bus2=BBT1588481.1.2.0,Phases=2,Linecode=BT106_BT106_7_2_1,Length=0.039125000,Units=km
new line.1471924 bus1=BBT1588488.1.2.0,bus2=BBT2981026.1.2.0,Phases=2,Linecode=BT106_BT106_7_2_1,Length=0.030074000,Units=km
new line.1471931 bus1=BBT2715201.1.2.0,bus2=BBT1588488.1.2.0,Phases=2,Linecode=BT106_BT106_7_2_1,Length=0.038649000,Units=km
new line.1471938 bus1=BBT1588495.1.2.0,bus2=BBT1588509.1.2.0,Phases=2,Linecode=BT807_BT807_4_2_3,Length=0.040023000,Units=km
new line.1471945 bus1=BBT1591414.1.2.3.0,bus2=BBT1588516.1.2.3.0,Phases=3,Linecode=BT803_BT803_4_3_4,Length=0.032024000,Units=km
new line.1474374 bus1=BBT1590987.1.2.0,bus2=BBT1590994.1.2.0,Phases=2,Linecode=BT807_BT807_4_2_3,Length=0.000501000,Units=km
new line.1474381 bus1=BBT1590994.1.2.0,bus2=BBT1591001.1.2.0,Phases=2,Linecode=BT807_BT807_4_2_3,Length=0.029007000,Units=km
new line.1474388 bus1=BBT1590994.1.2.0,bus2=BBT1591029.1.2.0,Phases=2,Linecode=BT807_BT807_4_2_3,Length=0.038220000,Units=km
new line.1474395 bus1=BBT1591001.1.2.0,bus2=BBT1591008.1.2.0,Phases=2,Linecode=BT801_BT801_4_2_3,Length=0.039061000,Units=km
new line.1474402 bus1=BBT1591001.1.2.0,bus2=BBT1591064.1.2.0,Phases=2,Linecode=BT801_BT801_4_2_3,Length=0.040123000,Units=km
new line.1474409 bus1=BBT1591008.1.2.0,bus2=BBT1591015.1.2.0,Phases=2,Linecode=BT801_BT801_4_2_3,Length=0.040322000,Units=km
new line.1474416 bus1=BBT1591015.1.2.0,bus2=BBT1591022.1.2.0,Phases=2,Linecode=BT801_BT801_4_2_3,Length=0.035237000,Units=km
new line.1474423 bus1=BBT1591029.1.2.0,bus2=BBT1591036.1.2.0,Phases=2,Linecode=BT801_BT801_4_2_3,Length=0.031153000,Units=km
new line.1474430 bus1=BBT1591029.1.2.0,bus2=BBT1594781.1.2.0,Phases=2,Linecode=BT808_BT808_4_2_3,Length=0.031789000,Units=km
new line.1474437 bus1=BBT1591036.1.2.0,bus2=BBT1591043.1.2.0,Phases=2,Linecode=BT801_BT801_4_2_3,Length=0.033069000,Units=km
new line.1474444 bus1=BBT1591043.1.2.0,bus2=BBT1591050.1.2.0,Phases=2,Linecode=BT801_BT801_4_2_3,Length=0.045111000,Units=km
new line.1474451 bus1=BBT1591050.1.2.0,bus2=BBT1591057.1.2.0,Phases=2,Linecode=BT801_BT801_4_2_3,Length=0.041059000,Units=km
new line.1474794 bus1=BBT1591379.1.2.3.0,bus2=BBT1591393.1.2.3.0,Phases=3,Linecode=BT518_BT518_7_3_1,Length=0.000501000,Units=km
new line.1474801 bus1=BBT1591393.1.2.3.0,bus2=BBT1591386.1.2.3.0,Phases=3,Linecode=BT803_BT803_4_3_4,Length=0.029435000,Units=km
new line.1474808 bus1=BBT1591386.1.2.3.0,bus2=BBT1591428.1.2.3.0,Phases=3,Linecode=BT803_BT803_4_3_4,Length=0.027302000,Units=km
new line.1474815 bus1=BBT1591393.1.2.3.0,bus2=BBT1591400.1.2.3.0,Phases=3,Linecode=BT803_BT803_4_3_4,Length=0.027302000,Units=km
new line.1474822 bus1=BBT1591400.1.2.3.0,bus2=BBT1591421.1.2.3.0,Phases=3,Linecode=BT803_BT803_4_3_4,Length=0.040618000,Units=km
new line.1474829 bus1=BBT1591400.1.2.3.0,bus2=BBT1591407.1.2.3.0,Phases=3,Linecode=BT803_BT803_4_3_4,Length=0.020621000,Units=km
new line.1474836 bus1=BBT1591400.1.2.3.0,bus2=BBT1591477.1.2.3.0,Phases=3,Linecode=BT803_BT803_4_3_4,Length=0.038337000,Units=km
new line.1474843 bus1=BBT1591407.1.2.3.0,bus2=BBT1591414.1.2.3.0,Phases=3,Linecode=BT803_BT803_4_3_4,Length=0.027466000,Units=km
new line.1474850 bus1=BBT1591435.1.2.3.0,bus2=BBT151047546.1.2.3.0,Phases=3,Linecode=BT803_BT803_4_3_4,Length=0.032993000,Units=km
new line.1474857 bus1=BBT1591428.1.2.3.0,bus2=BBT1591449.1.2.3.0,Phases=3,Linecode=BT803_BT803_4_3_4,Length=0.037063000,Units=km
new line.1474864 bus1=BBT1591428.1.2.3.0,bus2=BBT1591463.1.2.3.0,Phases=3,Linecode=BT803_BT803_4_3_4,Length=0.041023000,Units=km
new line.1474871 bus1=BBT1591442.1.2.3.0,bus2=BBT1591435.1.2.3.0,Phases=3,Linecode=BT803_BT803_4_3_4,Length=0.042307000,Units=km
new line.1474878 bus1=BBT1591435.1.2.3.0,bus2=BBT1591470.1.2.3.0,Phases=3,Linecode=BT803_BT803_4_3_4,Length=0.039023000,Units=km
new line.1474885 bus1=BBT3735815.1.2.3.0,bus2=BBT1591442.1.2.3.0,Phases=3,Linecode=BT803_BT803_4_3_4,Length=0.038128000,Units=km
new line.1474892 bus1=BBT1591449.1.2.3.0,bus2=BBT1591456.1.2.3.0,Phases=3,Linecode=BT803_BT803_4_3_4,Length=0.034068000,Units=km
new line.1474899 bus1=BBT1591470.1.2.3.0,bus2=BBT3753693.1.2.3.0,Phases=3,Linecode=BT803_BT803_4_3_4,Length=0.037009000,Units=km
new line.1475032 bus1=BBT1591596.1.2.0,bus2=BBT1591603.1.2.0,Phases=2,Linecode=BT802_BT802_4_2_3,Length=0.048282000,Units=km
new line.1475039 bus1=BBT1591603.1.2.0,bus2=BBT1591610.1.2.0,Phases=2,Linecode=BT802_BT802_4_2_3,Length=0.036697000,Units=km
new line.1475046 bus1=BBT1591603.1.2.0,bus2=BBT1591624.1.2.0,Phases=2,Linecode=BT801_BT801_4_2_3,Length=0.043011000,Units=km
new line.1475053 bus1=BBT1591610.1.2.0,bus2=BBT1591617.1.2.0,Phases=2,Linecode=BT802_BT802_4_2_3,Length=0.044609000,Units=km
new line.1475060 bus1=BBT1591631.1.2.0,bus2=BBT131479576.1.2.0,Phases=2,Linecode=BT801_BT801_4_2_3,Length=0.046702000,Units=km
new line.1475067 bus1=BBT1591631.1.2.0,bus2=BBT6009814.1.2.0,Phases=2,Linecode=BT808_BT808_4_2_3,Length=0.032397000,Units=km
new line.1475074 bus1=BBT1591638.1.2.0,bus2=BBT1591631.1.2.0,Phases=2,Linecode=BT801_BT801_4_2_3,Length=0.039633000,Units=km
new line.1475081 bus1=BBT1591638.1.2.0,bus2=BBT2186029.1.2.0,Phases=2,Linecode=BT807_BT807_4_2_3,Length=0.032319000,Units=km
new line.1475088 bus1=BBT1591645.1.2.0,bus2=BBT1591596.1.2.0,Phases=2,Linecode=BT802_BT802_4_2_3,Length=0.049742000,Units=km
new line.1475095 bus1=BBT1591652.1.2.0,bus2=BBT1591645.1.2.0,Phases=2,Linecode=BT802_BT802_4_2_3,Length=0.049043000,Units=km
new line.1475102 bus1=BBT1591652.1.2.0,bus2=BBT1591680.1.2.0,Phases=2,Linecode=BT802_BT802_4_2_3,Length=0.048272000,Units=km
new line.1475109 bus1=BBT1591659.1.2.0,bus2=BBT1591652.1.2.0,Phases=2,Linecode=BT807_BT807_4_2_3,Length=0.049378000,Units=km
new line.1475116 bus1=BBT1591589.1.2.0,bus2=BBT1591659.1.2.0,Phases=2,Linecode=BT513_BT513_7_2_1,Length=0.000501000,Units=km
new line.1475123 bus1=BBT1591659.1.2.0,bus2=BBT1591666.1.2.0,Phases=2,Linecode=BT807_BT807_4_2_3,Length=0.047393000,Units=km
new line.1475130 bus1=BBT1591666.1.2.0,bus2=BBT1591673.1.2.0,Phases=2,Linecode=BT808_BT808_4_2_3,Length=0.028168000,Units=km
new line.1475137 bus1=BBT1591666.1.2.0,bus2=BBT2186036.1.2.0,Phases=2,Linecode=BT807_BT807_4_2_3,Length=0.052966000,Units=km
new line.1478315 bus1=BBT1594578.1.2.0,bus2=BBT2236611.1.2.0,Phases=2,Linecode=BT807_BT807_4_2_3,Length=0.037009000,Units=km
new line.1478504 bus1=BBT1594732.1.2.0,bus2=BBT1594739.1.2.0,Phases=2,Linecode=BT508_BT508_7_2_1,Length=0.000501000,Units=km