! manter este comentario para compatibilidade do C#
new circuit.alimMCLD203 bus1=BMT123094136.1.2.3,basekv=13.800000000,pu=1.040000000

