new line.RML10034451 bus1=BBT3396434.1.0,bus2=RML1060034451.1.0,Phases=1,Linecode=CABBTG01_4_1,Length=0.017000000,Units=km
new line.RML10034594 bus1=BBT95528864.2.0,bus2=RML1060034594.2.0,Phases=1,Linecode=CABBTG02_4_1,Length=0.017000000,Units=km
new line.RML10034596 bus1=BBT1591981.2.0,bus2=RML1060034596.2.0,Phases=1,Linecode=CABBTG01_4_1,Length=0.017000000,Units=km
new line.RML10034804 bus1=BBT32588240.1.2.0,bus2=RML1060034804.1.2.0,Phases=2,Linecode=CABBTG05_4_2,Length=0.017000000,Units=km
new line.RML10035942 bus1=BBT1593976.1.2.0,bus2=RML1060035942.1.2.0,Phases=2,Linecode=CABBTG05_4_2,Length=0.017000000,Units=km
new line.RML10035957 bus1=BBT98535595.1.0,bus2=RML1060035957.1.0,Phases=1,Linecode=CABBTG02_4_1,Length=0.017000000,Units=km
new line.RML10035958 bus1=BBT5823936.2.0,bus2=RML1060035958.2.0,Phases=1,Linecode=CABBTG02_4_1,Length=0.017000000,Units=km
new line.RML10035959 bus1=BBT5823936.1.0,bus2=RML1060035959.1.0,Phases=1,Linecode=CABBTG02_4_1,Length=0.017000000,Units=km
new line.RML10035964 bus1=BBT5822914.1.0,bus2=RML1060035964.1.0,Phases=1,Linecode=CABBTG02_4_1,Length=0.017000000,Units=km
new line.RML10037260 bus1=BBT143919976.3.0,bus2=RML1060037260.3.0,Phases=1,Linecode=CABBTG02_4_1,Length=0.017000000,Units=km
new line.RML10037261 bus1=BBT143919976.1.2.0,bus2=RML1060037261.1.2.0,Phases=2,Linecode=CABBTG05_4_2,Length=0.017000000,Units=km
new line.RML10037263 bus1=BBT143919976.1.0,bus2=RML1060037263.1.0,Phases=1,Linecode=CABBTG01_4_1,Length=0.017000000,Units=km
new line.RML10037264 bus1=BBT143919976.1.3.0,bus2=RML1060037264.1.3.0,Phases=2,Linecode=CABBTG04_4_2,Length=0.017000000,Units=km
new line.RML10037265 bus1=BBT143935152.3.0,bus2=RML1060037265.3.0,Phases=1,Linecode=CABBTG01_4_1,Length=0.017000000,Units=km
new line.RML10037267 bus1=BBT143935152.3.0,bus2=RML1060037267.3.0,Phases=1,Linecode=CABBTG01_4_1,Length=0.017000000,Units=km
new line.RML10037268 bus1=BBT143935159.1.3.0,bus2=RML1060037268.1.3.0,Phases=2,Linecode=CABBTG04_4_2,Length=0.017000000,Units=km
new line.RML10037269 bus1=BBT143935159.1.2.0,bus2=RML1060037269.1.2.0,Phases=2,Linecode=CABBTG04_4_2,Length=0.017000000,Units=km
new line.RML10037271 bus1=BBT143935159.2.0,bus2=RML1060037271.2.0,Phases=1,Linecode=CABBTG01_4_1,Length=0.017000000,Units=km
new line.RML10037273 bus1=BBT143935159.1.0,bus2=RML1060037273.1.0,Phases=1,Linecode=CABBTG01_4_1,Length=0.017000000,Units=km
new line.RML10037275 bus1=BBT143935173.3.0,bus2=RML1060037275.3.0,Phases=1,Linecode=CABBTG01_4_1,Length=0.017000000,Units=km
new line.RML10037277 bus1=BBT143935173.1.0,bus2=RML1060037277.1.0,Phases=1,Linecode=CABBTG01_4_1,Length=0.017000000,Units=km
new line.RML10037280 bus1=BBT143918135.1.3.0,bus2=RML1060037280.1.3.0,Phases=2,Linecode=CABBTG04_4_2,Length=0.017000000,Units=km
new line.RML10037282 bus1=BBT143918135.2.3.0,bus2=RML1060037282.2.3.0,Phases=2,Linecode=CABBTG04_4_2,Length=0.017000000,Units=km
new line.RML10037283 bus1=BBT143918135.3.0,bus2=RML1060037283.3.0,Phases=1,Linecode=CABBTG01_4_1,Length=0.017000000,Units=km
new line.RML10037284 bus1=BBT143918135.2.3.0,bus2=RML1060037284.2.3.0,Phases=2,Linecode=CABBTG04_4_2,Length=0.017000000,Units=km
new line.RML10037286 bus1=BBT143918135.2.0,bus2=RML1060037286.2.0,Phases=1,Linecode=CABBTG02_4_1,Length=0.017000000,Units=km
new line.RML10037290 bus1=BBT143918142.1.0,bus2=RML1060037290.1.0,Phases=1,Linecode=CABBTG02_4_1,Length=0.017000000,Units=km
new line.RML10037293 bus1=BBT143918142.1.0,bus2=RML1060037293.1.0,Phases=1,Linecode=CABBTG01_4_1,Length=0.017000000,Units=km
new line.RML10037296 bus1=BBT143918401.2.3.0,bus2=RML1060037296.2.3.0,Phases=2,Linecode=CABBTG04_4_2,Length=0.017000000,Units=km
new line.RML10037298 bus1=BBT143918408.1.0,bus2=RML1060037298.1.0,Phases=1,Linecode=CABBTG01_4_1,Length=0.017000000,Units=km
new line.RML10037299 bus1=BBT143918401.2.0,bus2=RML1060037299.2.0,Phases=1,Linecode=CABBTG01_4_1,Length=0.017000000,Units=km
new line.RML10037301 bus1=BBT143935460.1.0,bus2=RML1060037301.1.0,Phases=1,Linecode=CABBTG01_4_1,Length=0.017000000,Units=km
new line.RML10037303 bus1=BBT143918401.1.0,bus2=RML1060037303.1.0,Phases=1,Linecode=CABBTG01_4_1,Length=0.017000000,Units=km
new line.RML10037305 bus1=BBT143918359.1.3.0,bus2=RML1060037305.1.3.0,Phases=2,Linecode=CABBTG04_4_2,Length=0.017000000,Units=km
new line.RML10037307 bus1=BBT143918352.2.0,bus2=RML1060037307.2.0,Phases=1,Linecode=CABBTG01_4_1,Length=0.017000000,Units=km
new line.RML10037308 bus1=BBT143918247.2.3.0,bus2=RML1060037308.2.3.0,Phases=2,Linecode=CABBTG04_4_2,Length=0.017000000,Units=km
new line.RML10037311 bus1=BBT143918247.1.2.0,bus2=RML1060037311.1.2.0,Phases=2,Linecode=CABBTG04_4_2,Length=0.017000000,Units=km
new line.RML10037315 bus1=BBT143918415.3.0,bus2=RML1060037315.3.0,Phases=1,Linecode=CABBTG01_4_1,Length=0.017000000,Units=km
new line.RML10037317 bus1=BBT143918415.2.3.0,bus2=RML1060037317.2.3.0,Phases=2,Linecode=CABBTG04_4_2,Length=0.017000000,Units=km
new line.RML10037318 bus1=BBT143918373.1.2.0,bus2=RML1060037318.1.2.0,Phases=2,Linecode=CABBTG04_4_2,Length=0.017000000,Units=km
new line.RML10037319 bus1=BBT143918373.1.2.0,bus2=RML1060037319.1.2.0,Phases=2,Linecode=CABBTG04_4_2,Length=0.017000000,Units=km
new line.RML10037321 bus1=BBT143918030.2.0,bus2=RML1060037321.2.0,Phases=1,Linecode=CABBTG02_4_1,Length=0.017000000,Units=km
new line.RML10037322 bus1=BBT143918030.1.0,bus2=RML1060037322.1.0,Phases=1,Linecode=CABBTG01_4_1,Length=0.017000000,Units=km
new line.RML10037324 bus1=BBT143918023.1.0,bus2=RML1060037324.1.0,Phases=1,Linecode=CABBTG01_4_1,Length=0.017000000,Units=km
new line.RML10037327 bus1=BBT143918023.3.0,bus2=RML1060037327.3.0,Phases=1,Linecode=CABBTG01_4_1,Length=0.017000000,Units=km
new line.RML10037331 bus1=BBT143918023.1.2.0,bus2=RML1060037331.1.2.0,Phases=2,Linecode=CABBTG04_4_2,Length=0.017000000,Units=km
new line.RML10037334 bus1=BBT143918023.2.0,bus2=RML1060037334.2.0,Phases=1,Linecode=CABBTG01_4_1,Length=0.017000000,Units=km
new line.RML10037339 bus1=BBT143918023.1.0,bus2=RML1060037339.1.0,Phases=1,Linecode=CABBTG01_4_1,Length=0.017000000,Units=km
new line.RML10037342 bus1=BBT143918380.1.2.0,bus2=RML1060037342.1.2.0,Phases=2,Linecode=CABBTG04_4_2,Length=0.017000000,Units=km
new line.RML10037345 bus1=BBT143919297.1.3.0,bus2=RML1060037345.1.3.0,Phases=2,Linecode=CABBTG04_4_2,Length=0.017000000,Units=km
new line.RML10037355 bus1=BBT143919297.1.2.0,bus2=RML1060037355.1.2.0,Phases=2,Linecode=CABBTG04_4_2,Length=0.017000000,Units=km
new line.RML10037358 bus1=BBT143919276.1.2.0,bus2=RML1060037358.1.2.0,Phases=2,Linecode=CABBTG04_4_2,Length=0.017000000,Units=km
new line.RML10037359 bus1=BBT143919276.1.3.0,bus2=RML1060037359.1.3.0,Phases=2,Linecode=CABBTG04_4_2,Length=0.017000000,Units=km
new line.RML10037360 bus1=BBT143919276.2.0,bus2=RML1060037360.2.0,Phases=1,Linecode=CABBTG01_4_1,Length=0.017000000,Units=km
new line.RML10037362 bus1=BBT143919269.2.0,bus2=RML1060037362.2.0,Phases=1,Linecode=CABBTG01_4_1,Length=0.017000000,Units=km
new line.RML10037366 bus1=BBT143918513.1.3.0,bus2=RML1060037366.1.3.0,Phases=2,Linecode=CABBTG04_4_2,Length=0.017000000,Units=km
new line.RML10037368 bus1=BBT143918513.1.0,bus2=RML1060037368.1.0,Phases=1,Linecode=CABBTG01_4_1,Length=0.017000000,Units=km
new line.RML10037371 bus1=BBT143918513.2.0,bus2=RML1060037371.2.0,Phases=1,Linecode=CABBTG01_4_1,Length=0.017000000,Units=km
new line.RML10037373 bus1=BBT143919283.1.0,bus2=RML1060037373.1.0,Phases=1,Linecode=CABBTG01_4_1,Length=0.017000000,Units=km
new line.RML10037374 bus1=BBT143919283.3.0,bus2=RML1060037374.3.0,Phases=1,Linecode=CABBTG01_4_1,Length=0.017000000,Units=km
new line.RML10037376 bus1=BBT143919290.1.0,bus2=RML1060037376.1.0,Phases=1,Linecode=CABBTG01_4_1,Length=0.017000000,Units=km
new line.RML10037380 bus1=BBT143919290.1.0,bus2=RML1060037380.1.0,Phases=1,Linecode=CABBTG01_4_1,Length=0.017000000,Units=km
new line.RML10037382 bus1=BBT143920333.1.3.0,bus2=RML1060037382.1.3.0,Phases=2,Linecode=CABBTG04_4_2,Length=0.017000000,Units=km
new line.RML10037383 bus1=BBT143920333.2.3.0,bus2=RML1060037383.2.3.0,Phases=2,Linecode=CABBTG04_4_2,Length=0.017000000,Units=km
new line.RML10037384 bus1=BBT143920452.2.3.0,bus2=RML1060037384.2.3.0,Phases=2,Linecode=CABBTG04_4_2,Length=0.017000000,Units=km
new line.RML10037388 bus1=BBT143920809.2.3.0,bus2=RML1060037388.2.3.0,Phases=2,Linecode=CABBTG04_4_2,Length=0.017000000,Units=km
new line.RML10037389 bus1=BBT143917099.3.0,bus2=RML1060037389.3.0,Phases=1,Linecode=CABBTG01_4_1,Length=0.017000000,Units=km
new line.RML10037392 bus1=BBT143915965.1.0,bus2=RML1060037392.1.0,Phases=1,Linecode=CABBTG01_4_1,Length=0.017000000,Units=km
new line.RML10037396 bus1=BBT143923077.1.0,bus2=RML1060037396.1.0,Phases=1,Linecode=CABBTG01_4_1,Length=0.017000000,Units=km
new line.RML10037397 bus1=BBT143916322.1.0,bus2=RML1060037397.1.0,Phases=1,Linecode=CABBTG01_4_1,Length=0.017000000,Units=km
new line.RML10037398 bus1=BBT143934788.2.3.0,bus2=RML1060037398.2.3.0,Phases=2,Linecode=CABBTG04_4_2,Length=0.017000000,Units=km
new line.RML10037399 bus1=BBT143934690.1.0,bus2=RML1060037399.1.0,Phases=1,Linecode=CABBTG01_4_1,Length=0.017000000,Units=km
new line.RML10037401 bus1=BBT143934690.1.0,bus2=RML1060037401.1.0,Phases=1,Linecode=CABBTG01_4_1,Length=0.017000000,Units=km
new line.RML10037402 bus1=BBT143934683.2.3.0,bus2=RML1060037402.2.3.0,Phases=2,Linecode=CABBTG04_4_2,Length=0.017000000,Units=km
new line.RML10037404 bus1=BBT143934683.2.0,bus2=RML1060037404.2.0,Phases=1,Linecode=CABBTG01_4_1,Length=0.017000000,Units=km
new line.RML10037405 bus1=BBT143934683.1.2.0,bus2=RML1060037405.1.2.0,Phases=2,Linecode=CABBTG04_4_2,Length=0.017000000,Units=km
new line.RML10037409 bus1=BBT143934676.2.3.0,bus2=RML1060037409.2.3.0,Phases=2,Linecode=CABBTG04_4_2,Length=0.017000000,Units=km
new line.RML10037413 bus1=BBT143934676.1.0,bus2=RML1060037413.1.0,Phases=1,Linecode=CABBTG01_4_1,Length=0.017000000,Units=km
new line.RML10037414 bus1=BBT143934676.2.0,bus2=RML1060037414.2.0,Phases=1,Linecode=CABBTG01_4_1,Length=0.017000000,Units=km
new line.RML10037416 bus1=BBT143915797.2.3.0,bus2=RML1060037416.2.3.0,Phases=2,Linecode=CABBTG04_4_2,Length=0.017000000,Units=km
new line.RML10037417 bus1=BBT143915965.2.3.0,bus2=RML1060037417.2.3.0,Phases=2,Linecode=CABBTG04_4_2,Length=0.017000000,Units=km
new line.RML10037420 bus1=BBT143915965.2.0,bus2=RML1060037420.2.0,Phases=1,Linecode=CABBTG01_4_1,Length=0.017000000,Units=km
new line.RML10037421 bus1=BBT143920235.2.0,bus2=RML1060037421.2.0,Phases=1,Linecode=CABBTG01_4_1,Length=0.017000000,Units=km
new line.RML10037423 bus1=BBT143920235.1.2.0,bus2=RML1060037423.1.2.0,Phases=2,Linecode=CABBTG04_4_2,Length=0.017000000,Units=km
new line.RML10037425 bus1=BBT143920277.1.0,bus2=RML1060037425.1.0,Phases=1,Linecode=CABBTG01_4_1,Length=0.017000000,Units=km
new line.RML10037426 bus1=BBT143920277.2.3.0,bus2=RML1060037426.2.3.0,Phases=2,Linecode=CABBTG04_4_2,Length=0.017000000,Units=km
new line.RML10037427 bus1=BBT143920277.1.2.0,bus2=RML1060037427.1.2.0,Phases=2,Linecode=CABBTG04_4_2,Length=0.017000000,Units=km
new line.RML10037428 bus1=BBT143920284.2.0,bus2=RML1060037428.2.0,Phases=1,Linecode=CABBTG01_4_1,Length=0.017000000,Units=km
new line.RML10037429 bus1=BBT143920284.2.0,bus2=RML1060037429.2.0,Phases=1,Linecode=CABBTG02_4_1,Length=0.017000000,Units=km
new line.RML10037430 bus1=BBT143920284.1.0,bus2=RML1060037430.1.0,Phases=1,Linecode=CABBTG02_4_1,Length=0.017000000,Units=km
new line.RML10037431 bus1=BBT143920284.3.0,bus2=RML1060037431.3.0,Phases=1,Linecode=CABBTG02_4_1,Length=0.017000000,Units=km
new line.RML10037432 bus1=BBT143920284.3.0,bus2=RML1060037432.3.0,Phases=1,Linecode=CABBTG02_4_1,Length=0.017000000,Units=km
new line.RML10037434 bus1=BBT143920816.1.3.0,bus2=RML1060037434.1.3.0,Phases=2,Linecode=CABBTG04_4_2,Length=0.017000000,Units=km
new line.RML10037435 bus1=BBT143920823.1.0,bus2=RML1060037435.1.0,Phases=1,Linecode=CABBTG01_4_1,Length=0.017000000,Units=km
new line.RML10037437 bus1=BBT143917092.2.3.0,bus2=RML1060037437.2.3.0,Phases=2,Linecode=CABBTG04_4_2,Length=0.017000000,Units=km
new line.RML10037438 bus1=BBT143917092.1.2.0,bus2=RML1060037438.1.2.0,Phases=2,Linecode=CABBTG04_4_2,Length=0.017000000,Units=km
new line.RML10037440 bus1=BBT143916329.1.2.0,bus2=RML1060037440.1.2.0,Phases=2,Linecode=CABBTG04_4_2,Length=0.017000000,Units=km
new line.RML10037442 bus1=BBT143916322.1.0,bus2=RML1060037442.1.0,Phases=1,Linecode=CABBTG01_4_1,Length=0.017000000,Units=km
new line.RML10037445 bus1=BBT143916469.1.3.0,bus2=RML1060037445.1.3.0,Phases=2,Linecode=CABBTG04_4_2,Length=0.017000000,Units=km
new line.RML10037446 bus1=BBT143935810.1.2.0,bus2=RML1060037446.1.2.0,Phases=2,Linecode=CABBTG04_4_2,Length=0.017000000,Units=km
new line.RML10037457 bus1=BBT143935810.1.0,bus2=RML1060037457.1.0,Phases=1,Linecode=CABBTG01_4_1,Length=0.017000000,Units=km
new line.RML10037458 bus1=BBT143935474.3.0,bus2=RML1060037458.3.0,Phases=1,Linecode=CABBTG01_4_1,Length=0.017000000,Units=km
new line.RML10037529 bus1=BBT143935474.1.2.0,bus2=RML1060037529.1.2.0,Phases=2,Linecode=CABBTG04_4_2,Length=0.017000000,Units=km
new line.RML10037530 bus1=BBT143935467.1.3.0,bus2=RML1060037530.1.3.0,Phases=2,Linecode=CABBTG04_4_2,Length=0.017000000,Units=km
new line.RML10037532 bus1=BBT143935278.3.0,bus2=RML1060037532.3.0,Phases=1,Linecode=CABBTG01_4_1,Length=0.017000000,Units=km
new line.RML10037534 bus1=BBT143935278.2.0,bus2=RML1060037534.2.0,Phases=1,Linecode=CABBTG01_4_1,Length=0.017000000,Units=km
new line.RML10037535 bus1=BBT143923077.1.2.0,bus2=RML1060037535.1.2.0,Phases=2,Linecode=CABBTG04_4_2,Length=0.017000000,Units=km
new line.RML10037538 bus1=BBT143923077.1.2.0,bus2=RML1060037538.1.2.0,Phases=2,Linecode=CABBTG04_4_2,Length=0.017000000,Units=km
new line.RML10037543 bus1=BBT143934802.2.3.0,bus2=RML1060037543.2.3.0,Phases=2,Linecode=CABBTG04_4_2,Length=0.017000000,Units=km
new line.RML10037544 bus1=BBT143934795.1.2.0,bus2=RML1060037544.1.2.0,Phases=2,Linecode=CABBTG04_4_2,Length=0.017000000,Units=km
new line.RML10037547 bus1=BBT143915797.2.0,bus2=RML1060037547.2.0,Phases=1,Linecode=CABBTG01_4_1,Length=0.017000000,Units=km
new line.RML10037549 bus1=BBT143934683.1.0,bus2=RML1060037549.1.0,Phases=1,Linecode=CABBTG01_4_1,Length=0.017000000,Units=km
new line.RML10050197 bus1=BBT137966497.2.0,bus2=RML1060050197.2.0,Phases=1,Linecode=CABBTG01_4_1,Length=0.017000000,Units=km
new line.RML10050198 bus1=BBT3536392.1.0,bus2=RML1060050198.1.0,Phases=1,Linecode=CABBTG01_4_1,Length=0.017000000,Units=km
new line.RML10050904 bus1=BBT3536343.1.0,bus2=RML1060050904.1.0,Phases=1,Linecode=CABBTG01_4_1,Length=0.017000000,Units=km
new line.RML10050930 bus1=BBT1591659.2.0,bus2=RML1060050930.2.0,Phases=1,Linecode=CABBTG01_4_1,Length=0.017000000,Units=km
new line.RML10053225 bus1=BBT4208539.1.0,bus2=RML1060053225.1.0,Phases=1,Linecode=CABBTG02_4_1,Length=0.017000000,Units=km
new line.RML10053227 bus1=BBT25019637.1.0,bus2=RML1060053227.1.0,Phases=1,Linecode=CABBTG02_4_1,Length=0.017000000,Units=km
new line.RML10053706 bus1=BBT1961952.1.2.0,bus2=RML1060053706.1.2.0,Phases=2,Linecode=CABBTG04_4_2,Length=0.017000000,Units=km
new line.RML10053768 bus1=BBT4253759.2.0,bus2=RML1060053768.2.0,Phases=1,Linecode=CABBTG01_4_1,Length=0.017000000,Units=km
new line.RML10053769 bus1=BBT1594291.1.0,bus2=RML1060053769.1.0,Phases=1,Linecode=CABBTG02_4_1,Length=0.017000000,Units=km
new line.RML10053813 bus1=BBT1758231.2.0,bus2=RML1060053813.2.0,Phases=1,Linecode=CABBTG01_4_1,Length=0.017000000,Units=km
new line.RML10054238 bus1=BBT4253703.2.0,bus2=RML1060054238.2.0,Phases=1,Linecode=CABBTG02_4_1,Length=0.017000000,Units=km
new line.RML10054239 bus1=BBT57408915.2.0,bus2=RML1060054239.2.0,Phases=1,Linecode=CABBTG02_4_1,Length=0.017000000,Units=km
new line.RML10054560 bus1=BBT143917099.1.2.0,bus2=RML1060054560.1.2.0,Phases=2,Linecode=CABBTG04_4_2,Length=0.017000000,Units=km
new line.RML10055152 bus1=BBT143917967.1.0,bus2=RML1060055152.1.0,Phases=1,Linecode=CABBTG02_4_1,Length=0.017000000,Units=km
new line.RML10055153 bus1=BBT143917967.1.0,bus2=RML1060055153.1.0,Phases=1,Linecode=CABBTG02_4_1,Length=0.017000000,Units=km
new line.RML10055156 bus1=BBT143917967.1.2.0,bus2=RML1060055156.1.2.0,Phases=2,Linecode=CABBTG05_4_2,Length=0.017000000,Units=km
new line.RML10055160 bus1=BBT143917974.1.3.0,bus2=RML1060055160.1.3.0,Phases=2,Linecode=CABBTG05_4_2,Length=0.017000000,Units=km
new line.RML10055161 bus1=BBT143917974.1.3.0,bus2=RML1060055161.1.3.0,Phases=2,Linecode=CABBTG05_4_2,Length=0.017000000,Units=km
new line.RML10055162 bus1=BBT143917974.1.2.0,bus2=RML1060055162.1.2.0,Phases=2,Linecode=CABBTG05_4_2,Length=0.017000000,Units=km
new line.RML10055165 bus1=BBT143917974.2.0,bus2=RML1060055165.2.0,Phases=1,Linecode=CABBTG02_4_1,Length=0.017000000,Units=km
new line.RML10055166 bus1=BBT143917981.2.3.0,bus2=RML1060055166.2.3.0,Phases=2,Linecode=CABBTG05_4_2,Length=0.017000000,Units=km
new line.RML10055168 bus1=BBT143917981.2.0,bus2=RML1060055168.2.0,Phases=1,Linecode=CABBTG02_4_1,Length=0.017000000,Units=km
new line.RML10055170 bus1=BBT143917981.1.0,bus2=RML1060055170.1.0,Phases=1,Linecode=CABBTG02_4_1,Length=0.017000000,Units=km
new line.RML10055171 bus1=BBT143917988.2.3.0,bus2=RML1060055171.2.3.0,Phases=2,Linecode=CABBTG05_4_2,Length=0.017000000,Units=km
new line.RML10055173 bus1=BBT143917988.2.0,bus2=RML1060055173.2.0,Phases=1,Linecode=CABBTG02_4_1,Length=0.017000000,Units=km
new line.RML10055175 bus1=BBT143917988.2.3.0,bus2=RML1060055175.2.3.0,Phases=2,Linecode=CABBTG05_4_2,Length=0.017000000,Units=km
new line.RML10055178 bus1=BBT143917988.2.3.0,bus2=RML1060055178.2.3.0,Phases=2,Linecode=CABBTG05_4_2,Length=0.017000000,Units=km
new line.RML10055179 bus1=BBT143917505.2.0,bus2=RML1060055179.2.0,Phases=1,Linecode=CABBTG01_4_1,Length=0.017000000,Units=km
new line.RML10055181 bus1=BBT143917505.3.0,bus2=RML1060055181.3.0,Phases=1,Linecode=CABBTG01_4_1,Length=0.017000000,Units=km
new line.RML10055182 bus1=BBT143917505.1.2.0,bus2=RML1060055182.1.2.0,Phases=2,Linecode=CABBTG04_4_2,Length=0.017000000,Units=km
new line.RML10055184 bus1=BBT143917505.2.0,bus2=RML1060055184.2.0,Phases=1,Linecode=CABBTG01_4_1,Length=0.017000000,Units=km
new line.RML10055186 bus1=BBT143917505.2.0,bus2=RML1060055186.2.0,Phases=1,Linecode=CABBTG02_4_1,Length=0.017000000,Units=km
new line.RML10055188 bus1=BBT143917512.3.0,bus2=RML1060055188.3.0,Phases=1,Linecode=CABBTG01_4_1,Length=0.017000000,Units=km
new line.RML10055190 bus1=BBT143917512.1.2.0,bus2=RML1060055190.1.2.0,Phases=2,Linecode=CABBTG04_4_2,Length=0.017000000,Units=km
new line.RML10055191 bus1=BBT143917512.1.2.0,bus2=RML1060055191.1.2.0,Phases=2,Linecode=CABBTG04_4_2,Length=0.017000000,Units=km
new line.RML10055194 bus1=BBT143917512.3.0,bus2=RML1060055194.3.0,Phases=1,Linecode=CABBTG01_4_1,Length=0.017000000,Units=km
new line.RML10055196 bus1=BBT143917512.2.0,bus2=RML1060055196.2.0,Phases=1,Linecode=CABBTG01_4_1,Length=0.017000000,Units=km
new line.RML10055226 bus1=BBT143917526.1.0,bus2=RML1060055226.1.0,Phases=1,Linecode=CABBTG02_4_1,Length=0.017000000,Units=km
new line.RML10055227 bus1=BBT143917526.1.0,bus2=RML1060055227.1.0,Phases=1,Linecode=CABBTG02_4_1,Length=0.017000000,Units=km
new line.RML10055228 bus1=BBT143917519.1.0,bus2=RML1060055228.1.0,Phases=1,Linecode=CABBTG02_4_1,Length=0.017000000,Units=km
new line.RML10055229 bus1=BBT143917519.1.0,bus2=RML1060055229.1.0,Phases=1,Linecode=CABBTG02_4_1,Length=0.017000000,Units=km
new line.RML10055230 bus1=BBT143917519.3.0,bus2=RML1060055230.3.0,Phases=1,Linecode=CABBTG01_4_1,Length=0.017000000,Units=km
new line.RML10055231 bus1=BBT143917519.1.0,bus2=RML1060055231.1.0,Phases=1,Linecode=CABBTG01_4_1,Length=0.017000000,Units=km
new line.RML10055232 bus1=BBT143917519.1.0,bus2=RML1060055232.1.0,Phases=1,Linecode=CABBTG01_4_1,Length=0.017000000,Units=km
new line.RML10055233 bus1=BBT143917519.1.2.0,bus2=RML1060055233.1.2.0,Phases=2,Linecode=CABBTG04_4_2,Length=0.017000000,Units=km
new line.RML10055234 bus1=BBT143917414.2.0,bus2=RML1060055234.2.0,Phases=1,Linecode=CABBTG01_4_1,Length=0.017000000,Units=km
new line.RML10055235 bus1=BBT143917414.1.0,bus2=RML1060055235.1.0,Phases=1,Linecode=CABBTG01_4_1,Length=0.017000000,Units=km
new line.RML10055236 bus1=BBT143917414.2.0,bus2=RML1060055236.2.0,Phases=1,Linecode=CABBTG02_4_1,Length=0.017000000,Units=km
new line.RML10055238 bus1=BBT143917414.1.0,bus2=RML1060055238.1.0,Phases=1,Linecode=CABBTG02_4_1,Length=0.017000000,Units=km
new line.RML10055239 bus1=BBT143917414.1.2.0,bus2=RML1060055239.1.2.0,Phases=2,Linecode=CABBTG04_4_2,Length=0.017000000,Units=km
new line.RML10055241 bus1=BBT143917414.1.2.0,bus2=RML1060055241.1.2.0,Phases=2,Linecode=CABBTG04_4_2,Length=0.017000000,Units=km
new line.RML10055242 bus1=BBT143917400.3.0,bus2=RML1060055242.3.0,Phases=1,Linecode=CABBTG01_4_1,Length=0.017000000,Units=km
new line.RML10055243 bus1=BBT143917400.2.3.0,bus2=RML1060055243.2.3.0,Phases=2,Linecode=CABBTG04_4_2,Length=0.017000000,Units=km
new line.RML10055244 bus1=BBT143917526.1.2.3.0,bus2=RML1060055244.1.2.3.0,Phases=3,Linecode=CABBTG11_4_3,Length=0.017000000,Units=km
new line.RML10055247 bus1=BBT143918030.2.0,bus2=RML1060055247.2.0,Phases=1,Linecode=CABBTG02_4_1,Length=0.017000000,Units=km
new line.RML10055249 bus1=BBT143918030.2.3.0,bus2=RML1060055249.2.3.0,Phases=2,Linecode=CABBTG05_4_2,Length=0.017000000,Units=km
new line.RML10055250 bus1=BBT143918030.2.0,bus2=RML1060055250.2.0,Phases=1,Linecode=CABBTG02_4_1,Length=0.017000000,Units=km
new line.RML10055251 bus1=BBT143918030.2.0,bus2=RML1060055251.2.0,Phases=1,Linecode=CABBTG02_4_1,Length=0.017000000,Units=km
new line.RML10055252 bus1=BBT143918016.2.0,bus2=RML1060055252.2.0,Phases=1,Linecode=CABBTG02_4_1,Length=0.017000000,Units=km
new line.RML10055254 bus1=BBT143918366.1.0,bus2=RML1060055254.1.0,Phases=1,Linecode=CABBTG02_4_1,Length=0.017000000,Units=km
new line.RML10055256 bus1=BBT143918338.1.3.0,bus2=RML1060055256.1.3.0,Phases=2,Linecode=CABBTG05_4_2,Length=0.017000000,Units=km
new line.RML10055257 bus1=BBT143918415.1.2.0,bus2=RML1060055257.1.2.0,Phases=2,Linecode=CABBTG05_4_2,Length=0.017000000,Units=km
new line.RML10055258 bus1=BBT143918415.2.0,bus2=RML1060055258.2.0,Phases=1,Linecode=CABBTG02_4_1,Length=0.017000000,Units=km
new line.RML10055259 bus1=BBT143918422.2.3.0,bus2=RML1060055259.2.3.0,Phases=2,Linecode=CABBTG05_4_2,Length=0.017000000,Units=km
new line.RML10055260 bus1=BBT143918422.1.2.0,bus2=RML1060055260.1.2.0,Phases=2,Linecode=CABBTG05_4_2,Length=0.017000000,Units=km
new line.RML10055302 bus1=BBT143917099.2.0,bus2=RML1060055302.2.0,Phases=1,Linecode=CABBTG02_4_1,Length=0.017000000,Units=km
new line.RML10055309 bus1=BBT143920452.1.2.0,bus2=RML1060055309.1.2.0,Phases=2,Linecode=CABBTG04_4_2,Length=0.017000000,Units=km
new line.RML10055310 bus1=BBT143920452.1.2.0,bus2=RML1060055310.1.2.0,Phases=2,Linecode=CABBTG04_4_2,Length=0.017000000,Units=km
new line.RML10055311 bus1=BBT143920333.1.0,bus2=RML1060055311.1.0,Phases=1,Linecode=CABBTG02_4_1,Length=0.017000000,Units=km
new line.RML10055315 bus1=BBT143919290.1.0,bus2=RML1060055315.1.0,Phases=1,Linecode=CABBTG02_4_1,Length=0.017000000,Units=km
new line.RML10055316 bus1=BBT143919290.1.3.0,bus2=RML1060055316.1.3.0,Phases=2,Linecode=CABBTG05_4_2,Length=0.017000000,Units=km
new line.RML10055317 bus1=BBT143919290.2.3.0,bus2=RML1060055317.2.3.0,Phases=2,Linecode=CABBTG05_4_2,Length=0.017000000,Units=km
new line.RML10055318 bus1=BBT143919269.1.3.0,bus2=RML1060055318.1.3.0,Phases=2,Linecode=CABBTG05_4_2,Length=0.017000000,Units=km
new line.RML10055319 bus1=BBT143918513.1.2.0,bus2=RML1060055319.1.2.0,Phases=2,Linecode=CABBTG05_4_2,Length=0.017000000,Units=km
new line.RML10055328 bus1=BBT143935152.2.3.0,bus2=RML1060055328.2.3.0,Phases=2,Linecode=CABBTG05_4_2,Length=0.017000000,Units=km
new line.RML10055330 bus1=BBT143919976.3.0,bus2=RML1060055330.3.0,Phases=1,Linecode=CABBTG02_4_1,Length=0.017000000,Units=km
new line.RML10055331 bus1=BBT143919976.1.2.0,bus2=RML1060055331.1.2.0,Phases=2,Linecode=CABBTG05_4_2,Length=0.017000000,Units=km
new line.RML10055333 bus1=BBT143920235.2.3.0,bus2=RML1060055333.2.3.0,Phases=2,Linecode=CABBTG05_4_2,Length=0.017000000,Units=km
new line.RML10055336 bus1=BBT143920823.1.2.0,bus2=RML1060055336.1.2.0,Phases=2,Linecode=CABBTG05_4_2,Length=0.017000000,Units=km
new line.RML10055347 bus1=BBT143934193.1.0,bus2=RML1060055347.1.0,Phases=1,Linecode=CABBTG02_4_1,Length=0.017000000,Units=km
new line.RML10055349 bus1=BBT143916322.1.2.0,bus2=RML1060055349.1.2.0,Phases=2,Linecode=CABBTG05_4_2,Length=0.017000000,Units=km
new line.RML10055350 bus1=BBT143935649.1.0,bus2=RML1060055350.1.0,Phases=1,Linecode=CABBTG02_4_1,Length=0.017000000,Units=km
new line.RML10055357 bus1=BBT143935467.1.2.0,bus2=RML1060055357.1.2.0,Phases=2,Linecode=CABBTG05_4_2,Length=0.017000000,Units=km
new line.RML10055361 bus1=BBT143934795.1.3.0,bus2=RML1060055361.1.3.0,Phases=2,Linecode=CABBTG05_4_2,Length=0.017000000,Units=km
new line.RML10055362 bus1=BBT143934809.1.3.0,bus2=RML1060055362.1.3.0,Phases=2,Linecode=CABBTG05_4_2,Length=0.017000000,Units=km
new line.RML10055371 bus1=BBT143934193.2.0,bus2=RML1060055371.2.0,Phases=1,Linecode=CABBTG02_4_1,Length=0.017000000,Units=km
new line.RML10055372 bus1=BBT143934193.1.2.0,bus2=RML1060055372.1.2.0,Phases=2,Linecode=CABBTG05_4_2,Length=0.017000000,Units=km
new line.RML10055373 bus1=BBT143934186.1.0,bus2=RML1060055373.1.0,Phases=1,Linecode=CABBTG02_4_1,Length=0.017000000,Units=km
new line.RML10055374 bus1=BBT143934186.1.0,bus2=RML1060055374.1.0,Phases=1,Linecode=CABBTG02_4_1,Length=0.017000000,Units=km
new line.RML10055378 bus1=BBT143933899.1.3.0,bus2=RML1060055378.1.3.0,Phases=2,Linecode=CABBTG05_4_2,Length=0.017000000,Units=km
new line.RML10055379 bus1=BBT143934179.1.2.0,bus2=RML1060055379.1.2.0,Phases=2,Linecode=CABBTG05_4_2,Length=0.017000000,Units=km
new line.RML10055395 bus1=BBT143934683.1.2.0,bus2=RML1060055395.1.2.0,Phases=2,Linecode=CABBTG05_4_2,Length=0.017000000,Units=km
new line.RML10055398 bus1=BBT143915797.1.3.0,bus2=RML1060055398.1.3.0,Phases=2,Linecode=CABBTG05_4_2,Length=0.017000000,Units=km
new line.RML10055400 bus1=BBT143915797.1.3.0,bus2=RML1060055400.1.3.0,Phases=2,Linecode=CABBTG05_4_2,Length=0.017000000,Units=km
new line.RML10055401 bus1=BBT143915846.1.3.0,bus2=RML1060055401.1.3.0,Phases=2,Linecode=CABBTG05_4_2,Length=0.017000000,Units=km
new line.RML10055403 bus1=BBT143915965.1.0,bus2=RML1060055403.1.0,Phases=1,Linecode=CABBTG02_4_1,Length=0.017000000,Units=km
new line.RML10055406 bus1=BBT143916392.3.0,bus2=RML1060055406.3.0,Phases=1,Linecode=CABBTG02_4_1,Length=0.017000000,Units=km
new line.RML10055408 bus1=BBT143916392.1.2.0,bus2=RML1060055408.1.2.0,Phases=2,Linecode=CABBTG05_4_2,Length=0.017000000,Units=km
new line.RML10055468 bus1=BBT143917099.3.0,bus2=RML1060055468.3.0,Phases=1,Linecode=CABBTG02_4_1,Length=0.017000000,Units=km
new line.RML10055469 bus1=BBT143917099.2.0,bus2=RML1060055469.2.0,Phases=1,Linecode=CABBTG02_4_1,Length=0.017000000,Units=km
new line.RML10055470 bus1=BBT143917099.2.3.0,bus2=RML1060055470.2.3.0,Phases=2,Linecode=CABBTG05_4_2,Length=0.017000000,Units=km
new line.RML10055471 bus1=BBT143917106.2.0,bus2=RML1060055471.2.0,Phases=1,Linecode=CABBTG02_4_1,Length=0.017000000,Units=km
new line.RML10055472 bus1=BBT143917106.3.0,bus2=RML1060055472.3.0,Phases=1,Linecode=CABBTG02_4_1,Length=0.017000000,Units=km
new line.RML10055473 bus1=BBT143917106.1.0,bus2=RML1060055473.1.0,Phases=1,Linecode=CABBTG02_4_1,Length=0.017000000,Units=km
new line.RML10055474 bus1=BBT143917106.1.0,bus2=RML1060055474.1.0,Phases=1,Linecode=CABBTG02_4_1,Length=0.017000000,Units=km
new line.RML10055475 bus1=BBT143918128.1.0,bus2=RML1060055475.1.0,Phases=1,Linecode=CABBTG02_4_1,Length=0.017000000,Units=km
new line.RML10055476 bus1=BBT143918128.1.0,bus2=RML1060055476.1.0,Phases=1,Linecode=CABBTG02_4_1,Length=0.017000000,Units=km
new line.RML10055477 bus1=BBT143918128.1.0,bus2=RML1060055477.1.0,Phases=1,Linecode=CABBTG02_4_1,Length=0.017000000,Units=km
new line.RML10055478 bus1=BBT143918128.1.3.0,bus2=RML1060055478.1.3.0,Phases=2,Linecode=CABBTG05_4_2,Length=0.017000000,Units=km
new line.RML10055481 bus1=BBT143918100.2.0,bus2=RML1060055481.2.0,Phases=1,Linecode=CABBTG02_4_1,Length=0.017000000,Units=km
new line.RML10055482 bus1=BBT143918100.1.3.0,bus2=RML1060055482.1.3.0,Phases=2,Linecode=CABBTG05_4_2,Length=0.017000000,Units=km
new line.RML10055483 bus1=BBT143918100.3.0,bus2=RML1060055483.3.0,Phases=1,Linecode=CABBTG02_4_1,Length=0.017000000,Units=km
new line.RML10037551 bus1=BBT143934676.1.3.0,bus2=RML1060037551.1.3.0,Phases=2,Linecode=CABBTG04_4_2,Length=0.017000000,Units=km
new line.RML10037553 bus1=BBT143915797.1.0,bus2=RML1060037553.1.0,Phases=1,Linecode=CABBTG01_4_1,Length=0.017000000,Units=km
new line.RML10037556 bus1=BBT143915797.2.0,bus2=RML1060037556.2.0,Phases=1,Linecode=CABBTG01_4_1,Length=0.017000000,Units=km
new line.RML10037557 bus1=BBT143915965.2.0,bus2=RML1060037557.2.0,Phases=1,Linecode=CABBTG01_4_1,Length=0.017000000,Units=km
new line.RML10037562 bus1=BBT143915965.1.0,bus2=RML1060037562.1.0,Phases=1,Linecode=CABBTG01_4_1,Length=0.017000000,Units=km
new line.RML10037563 bus1=BBT143916119.2.0,bus2=RML1060037563.2.0,Phases=1,Linecode=CABBTG01_4_1,Length=0.017000000,Units=km
new line.RML10037564 bus1=BBT143916399.3.0,bus2=RML1060037564.3.0,Phases=1,Linecode=CABBTG01_4_1,Length=0.017000000,Units=km
new line.RML10037569 bus1=BBT143916119.1.0,bus2=RML1060037569.1.0,Phases=1,Linecode=CABBTG01_4_1,Length=0.017000000,Units=km
new line.RML10037572 bus1=BBT143934193.2.0,bus2=RML1060037572.2.0,Phases=1,Linecode=CABBTG01_4_1,Length=0.017000000,Units=km
new line.RML10037574 bus1=BBT143934193.3.0,bus2=RML1060037574.3.0,Phases=1,Linecode=CABBTG01_4_1,Length=0.017000000,Units=km
new line.RML10037575 bus1=BBT143934186.1.3.0,bus2=RML1060037575.1.3.0,Phases=2,Linecode=CABBTG04_4_2,Length=0.017000000,Units=km
new line.RML10037578 bus1=BBT143934179.1.2.0,bus2=RML1060037578.1.2.0,Phases=2,Linecode=CABBTG04_4_2,Length=0.017000000,Units=km
new line.RML10037579 bus1=BBT143934179.2.0,bus2=RML1060037579.2.0,Phases=1,Linecode=CABBTG01_4_1,Length=0.017000000,Units=km