new load.3011221764M1 bus1=RML1055774213.1.2.0,Phases=2,kv=0.24,kW=0.2086,pf=0.92,Vminpu=0.92,Vmaxpu=1.5,model=1,daily=RUR1_2,status=variable
new load.3011201889M1 bus1=RML1055879206.2.0,Phases=1,kv=0.12,kW=3.08252,pf=0.92,Vminpu=0.92,Vmaxpu=1.5,model=1,daily=RUR2_27,status=variable
new load.3011201895M1 bus1=RML1055879234.1.0,Phases=1,kv=0.12,kW=1.82206,pf=0.92,Vminpu=0.92,Vmaxpu=1.5,model=1,daily=RUR1_29,status=variable
new load.3011201932M1 bus1=RML1055879185.2.0,Phases=1,kv=0.12,kW=0.78348,pf=0.92,Vminpu=0.92,Vmaxpu=1.5,model=1,daily=RUR1_29,status=variable
new load.3011201934M1 bus1=RML1055879178.2.0,Phases=1,kv=0.12,kW=3.943,pf=0.92,Vminpu=0.92,Vmaxpu=1.5,model=1,daily=RUR2_27,status=variable
new load.3011201948M1 bus1=RML1060936611.1.2.0,Phases=2,kv=0.24,kW=1.99328,pf=0.92,Vminpu=0.92,Vmaxpu=1.5,model=1,daily=RUR2_27,status=variable
new load.3011201951M1 bus1=RML1055879248.1.0,Phases=1,kv=0.12,kW=0.49196,pf=0.92,Vminpu=0.92,Vmaxpu=1.5,model=1,daily=RUR1_29,status=variable
new load.3011201942M1 bus1=RML1055879213.1.0,Phases=1,kv=0.12,kW=1.52492,pf=0.92,Vminpu=0.92,Vmaxpu=1.5,model=1,daily=RUR2_27,status=variable
new load.3011201955M1 bus1=RML1055879787.1.0,Phases=1,kv=0.12,kW=2.67842,pf=0.92,Vminpu=0.92,Vmaxpu=1.5,model=1,daily=RUR1_29,status=variable
new load.3010939071M1 bus1=RML1060804511.1.0,Phases=1,kv=0.12,kW=0.82784,pf=0.92,Vminpu=0.92,Vmaxpu=1.5,model=1,daily=RES2_20,status=variable
new load.3011337885M1 bus1=RML1055918882.1.0,Phases=1,kv=0.12,kW=0.65176,pf=0.92,Vminpu=0.92,Vmaxpu=1.5,model=1,daily=RES1_1,status=variable
new load.3011772574M1 bus1=RML1056620961.2.0,Phases=1,kv=0.12,kW=0.7256,pf=0.92,Vminpu=0.92,Vmaxpu=1.5,model=1,daily=RES2_6,status=variable
new load.3011852309M1 bus1=RML1056692578.2.0,Phases=1,kv=0.12,kW=0.781,pf=0.92,Vminpu=0.92,Vmaxpu=1.5,model=1,daily=RES2_7,status=variable
new load.3011903312M1 bus1=RML1056812509.1.0,Phases=1,kv=0.12,kW=1.11248,pf=0.92,Vminpu=0.92,Vmaxpu=1.5,model=1,daily=RES2_9,status=variable
new load.3011391934M1 bus1=RML1056059883.1.2.3.0,Phases=3,kv=0.22,kW=6.15254,pf=0.92,Vminpu=0.92,Vmaxpu=1.5,model=1,daily=COM3_2,status=variable
new load.3011398496M1 bus1=RML1056065336.1.2.3.0,Phases=3,kv=0.22,kW=3.25418,pf=0.92,Vminpu=0.92,Vmaxpu=1.5,model=1,daily=COM3_2,status=variable
new load.3011398554M1 bus1=RML1056065357.1.2.3.0,Phases=3,kv=0.22,kW=0.81642,pf=0.92,Vminpu=0.92,Vmaxpu=1.5,model=1,daily=COM2_2,status=variable
new load.3011925528M1 bus1=RML1060062643.1.2.3.0,Phases=3,kv=0.22,kW=6.89158,pf=0.92,Vminpu=0.92,Vmaxpu=1.5,model=1,daily=COM3_11,status=variable
new load.3011216991M1 bus1=RML1055924314.1.0,Phases=1,kv=0.12,kW=0.18628,pf=0.92,Vminpu=0.92,Vmaxpu=1.5,model=1,daily=RUR2_1,status=variable
new load.3011275776M1 bus1=RML1055989526.1.0,Phases=1,kv=0.12,kW=0.16102,pf=0.92,Vminpu=0.92,Vmaxpu=1.5,model=1,daily=RUR2_4,status=variable
new load.3011279324M1 bus1=RML1055990373.1.0,Phases=1,kv=0.12,kW=0.13984,pf=0.92,Vminpu=0.92,Vmaxpu=1.5,model=1,daily=RUR3_1,status=variable
new load.3013215072M1 bus1=RML1060676936.2.0,Phases=1,kv=0.12,kW=0.505,pf=0.92,Vminpu=0.92,Vmaxpu=1.5,model=1,daily=RES2_9,status=variable
new load.3013234112M1 bus1=RML1060661356.1.0,Phases=1,kv=0.12,kW=0.5293,pf=0.92,Vminpu=0.92,Vmaxpu=1.5,model=1,daily=RES1_7,status=variable
new load.3012498968M1 bus1=RML1060325911.2.0,Phases=1,kv=0.12,kW=0.35334,pf=0.92,Vminpu=0.92,Vmaxpu=1.5,model=1,daily=RES2_27,status=variable
new load.3012518127M1 bus1=RML1060341139.2.0,Phases=1,kv=0.12,kW=0.34896,pf=0.92,Vminpu=0.92,Vmaxpu=1.5,model=1,daily=RES1_25,status=variable
new load.3012553186M1 bus1=RML1060350101.1.2.0,Phases=2,kv=0.24,kW=0.39208,pf=0.92,Vminpu=0.92,Vmaxpu=1.5,model=1,daily=RES2_28,status=variable
new load.3012825505M1 bus1=RML1060485782.1.0,Phases=1,kv=0.12,kW=0.32404,pf=0.92,Vminpu=0.92,Vmaxpu=1.5,model=1,daily=RES1_2,status=variable
new load.3012870489M1 bus1=RML1060499567.1.0,Phases=1,kv=0.12,kW=1.40328,pf=0.92,Vminpu=0.92,Vmaxpu=1.5,model=1,daily=RES2_4,status=variable
new load.3012961213M1 bus1=RML1060534339.1.0,Phases=1,kv=0.12,kW=0.68868,pf=0.92,Vminpu=0.92,Vmaxpu=1.5,model=1,daily=RES2_5,status=variable
new load.3012862324M1 bus1=RML1054015528.1.2.0,Phases=2,kv=0.24,kW=0.10802,pf=0.92,Vminpu=0.92,Vmaxpu=1.5,model=1,daily=RES1_2,status=variable
new load.3013102396M1 bus1=RML1060596670.1.0,Phases=1,kv=0.127,kW=0.51432,pf=0.92,Vminpu=0.92,Vmaxpu=1.5,model=1,daily=RES1_5,status=variable
new load.3013076197M1 bus1=RML1060589815.1.0,Phases=1,kv=0.127,kW=0.78984,pf=0.92,Vminpu=0.92,Vmaxpu=1.5,model=1,daily=RES1_5,status=variable
new load.3012849610M1 bus1=RML1060494641.1.3.0,Phases=2,kv=0.22,kW=0.05892,pf=0.92,Vminpu=0.92,Vmaxpu=1.5,model=1,daily=RES1_2,status=variable
new load.3012799697M1 bus1=RML1060469146.1.2.0,Phases=2,kv=0.22,kW=1.39404,pf=0.92,Vminpu=0.92,Vmaxpu=1.5,model=1,daily=RES3_4,status=variable
new load.3012805866M1 bus1=RML1060474304.1.2.0,Phases=2,kv=0.22,kW=1.05726,pf=0.92,Vminpu=0.92,Vmaxpu=1.5,model=1,daily=RES2_4,status=variable
new load.3013067528M1 bus1=RML1060327047.1.0,Phases=1,kv=0.127,kW=0.55046,pf=0.92,Vminpu=0.92,Vmaxpu=1.5,model=1,daily=RES2_6,status=variable
new load.3013067529M1 bus1=RML1060327047.1.0,Phases=1,kv=0.127,kW=0.4754,pf=0.92,Vminpu=0.92,Vmaxpu=1.5,model=1,daily=RES2_6,status=variable
new load.3013067550M1 bus1=RML1060327047.1.0,Phases=1,kv=0.127,kW=0.25892,pf=0.92,Vminpu=0.92,Vmaxpu=1.5,model=1,daily=RES1_4,status=variable
new load.3013067551M1 bus1=RML1060327047.1.0,Phases=1,kv=0.127,kW=1.3882,pf=0.92,Vminpu=0.92,Vmaxpu=1.5,model=1,daily=RES3_7,status=variable
new load.3013067552M1 bus1=RML1060327047.1.0,Phases=1,kv=0.127,kW=0.96268,pf=0.92,Vminpu=0.92,Vmaxpu=1.5,model=1,daily=RES3_7,status=variable
new load.3013067553M1 bus1=RML1060327047.1.0,Phases=1,kv=0.127,kW=0.8482,pf=0.92,Vminpu=0.92,Vmaxpu=1.5,model=1,daily=RES4_10,status=variable
new load.3013209683M1 bus1=RML1060647586.1.2.3.0,Phases=3,kv=0.22,kW=0.5727,pf=0.92,Vminpu=0.92,Vmaxpu=1.5,model=1,daily=RES1_7,status=variable
new load.3013398012M1 bus1=RML1060733367.1.3.0,Phases=2,kv=0.22,kW=1.05056,pf=0.92,Vminpu=0.92,Vmaxpu=1.5,model=1,daily=RES2_13,status=variable
new load.3013450391M1 bus1=RML1060768343.1.3.0,Phases=2,kv=0.22,kW=1.07924,pf=0.92,Vminpu=0.92,Vmaxpu=1.5,model=1,daily=RES2_15,status=variable
new load.3013445143M1 bus1=RML1060767212.1.2.0,Phases=2,kv=0.22,kW=1.14016,pf=0.92,Vminpu=0.92,Vmaxpu=1.5,model=1,daily=RES3_14,status=variable
new load.3013343489M1 bus1=RML1060717981.1.2.0,Phases=2,kv=0.22,kW=1.1387,pf=0.92,Vminpu=0.92,Vmaxpu=1.5,model=1,daily=RES2_11,status=variable
new load.3013267022M1 bus1=RML1061043992.1.2.0,Phases=2,kv=0.22,kW=0.01314,pf=0.92,Vminpu=0.92,Vmaxpu=1.5,model=1,daily=RES1_8,status=variable
new load.3012520684M1 bus1=RML1060355499.1.2.0,Phases=2,kv=0.22,kW=0.29844,pf=0.92,Vminpu=0.92,Vmaxpu=1.5,model=1,daily=RES2_27,status=variable
new load.3012921087M1 bus1=RML1060522228.1.0,Phases=1,kv=0.127,kW=0.5767,pf=0.92,Vminpu=0.92,Vmaxpu=1.5,model=1,daily=RES2_5,status=variable
new load.3012931609M1 bus1=RML1060529236.1.0,Phases=1,kv=0.12,kW=1.03584,pf=0.92,Vminpu=0.92,Vmaxpu=1.5,model=1,daily=RES2_5,status=variable
new load.3012677774M1 bus1=RML1060407182.2.0,Phases=1,kv=0.12,kW=0.2523,pf=0.92,Vminpu=0.92,Vmaxpu=1.5,model=1,daily=RES1_1,status=variable
new load.3012694981M1 bus1=RML1060429122.1.0,Phases=1,kv=0.12,kW=0.63074,pf=0.92,Vminpu=0.92,Vmaxpu=1.5,model=1,daily=RES1_1,status=variable
new load.3012567029M1 bus1=RML1060357830.2.0,Phases=1,kv=0.12,kW=0.14602,pf=0.92,Vminpu=0.92,Vmaxpu=1.5,model=1,daily=RES2_28,status=variable
new load.3013232593M1 bus1=RML1060658081.1.0,Phases=1,kv=0.12,kW=0.6407,pf=0.92,Vminpu=0.92,Vmaxpu=1.5,model=1,daily=RES5_10,status=variable
new load.3013102703M1 bus1=RML1060596491.1.0,Phases=1,kv=0.12,kW=0.44084,pf=0.92,Vminpu=0.92,Vmaxpu=1.5,model=1,daily=RES1_5,status=variable
new load.3013467967M1 bus1=RML1060777526.1.2.0,Phases=2,kv=0.22,kW=1.45078,pf=0.92,Vminpu=0.92,Vmaxpu=1.5,model=1,daily=RES2_15,status=variable
new load.3012870658M1 bus1=RML1060499566.1.0,Phases=1,kv=0.127,kW=0.01964,pf=0.92,Vminpu=0.92,Vmaxpu=1.5,model=1,daily=RES1_2,status=variable
new load.3013009159M1 bus1=RML1060553696.1.2.0,Phases=2,kv=0.24,kW=0.5442,pf=0.92,Vminpu=0.92,Vmaxpu=1.5,model=1,daily=RES2_6,status=variable
new load.3004699330M1 bus1=RML1054597382.1.0,Phases=1,kv=0.12,kW=0.86494,pf=0.92,Vminpu=0.92,Vmaxpu=1.5,model=1,daily=RUR1_11,status=variable
new load.3012616312M1 bus1=RML1060376197.2.0,Phases=1,kv=0.12,kW=0.53612,pf=0.92,Vminpu=0.92,Vmaxpu=1.5,model=1,daily=RES1_1,status=variable
new load.3013077333M1 bus1=RML1060589931.1.0,Phases=1,kv=0.12,kW=0.4754,pf=0.92,Vminpu=0.92,Vmaxpu=1.5,model=1,daily=RES2_6,status=variable
new load.3013094261M1 bus1=RML1060592852.1.0,Phases=1,kv=0.12,kW=0.4754,pf=0.92,Vminpu=0.92,Vmaxpu=1.5,model=1,daily=RES2_6,status=variable
new load.3013324832M1 bus1=RML1060705708.2.0,Phases=1,kv=0.12,kW=2.02796,pf=0.92,Vminpu=0.92,Vmaxpu=1.5,model=1,daily=RES2_11,status=variable
new load.3013374229M1 bus1=RML1060718163.1.0,Phases=1,kv=0.127,kW=0.3343,pf=0.92,Vminpu=0.92,Vmaxpu=1.5,model=1,daily=RES1_10,status=variable
new load.3013375155M1 bus1=RML1060732957.1.0,Phases=1,kv=0.127,kW=0.78646,pf=0.92,Vminpu=0.92,Vmaxpu=1.5,model=1,daily=RES2_13,status=variable
new load.3013375976M1 bus1=RML1060718269.3.0,Phases=1,kv=0.127,kW=0.15044,pf=0.92,Vminpu=0.92,Vmaxpu=1.5,model=1,daily=RES1_10,status=variable
new load.3013376158M1 bus1=RML1060718282.1.0,Phases=1,kv=0.127,kW=0.46366,pf=0.92,Vminpu=0.92,Vmaxpu=1.5,model=1,daily=RES2_13,status=variable
new load.3013376530M1 bus1=RML1060718302.3.0,Phases=1,kv=0.127,kW=0.39558,pf=0.92,Vminpu=0.92,Vmaxpu=1.5,model=1,daily=RES1_10,status=variable
new load.3013377514M1 bus1=RML1060719139.1.0,Phases=1,kv=0.127,kW=0.5106,pf=0.92,Vminpu=0.92,Vmaxpu=1.5,model=1,daily=RES2_13,status=variable
new load.3013377551M1 bus1=RML1060714394.3.0,Phases=1,kv=0.127,kW=0.28414,pf=0.92,Vminpu=0.92,Vmaxpu=1.5,model=1,daily=RES1_10,status=variable
new load.3013377598M1 bus1=RML1060719148.3.0,Phases=1,kv=0.127,kW=0.72776,pf=0.92,Vminpu=0.92,Vmaxpu=1.5,model=1,daily=RES2_13,status=variable
new load.3013377625M1 bus1=RML1060714415.3.0,Phases=1,kv=0.127,kW=0.3343,pf=0.92,Vminpu=0.92,Vmaxpu=1.5,model=1,daily=RES1_10,status=variable
new load.3013378358M1 bus1=RML1060716342.2.0,Phases=1,kv=0.127,kW=0.25072,pf=0.92,Vminpu=0.92,Vmaxpu=1.5,model=1,daily=RES1_10,status=variable
new load.3013378725M1 bus1=RML1060719217.3.0,Phases=1,kv=0.127,kW=0.54582,pf=0.92,Vminpu=0.92,Vmaxpu=1.5,model=1,daily=RES2_13,status=variable
new load.3013379386M1 bus1=RML1060719233.2.0,Phases=1,kv=0.127,kW=0.48126,pf=0.92,Vminpu=0.92,Vmaxpu=1.5,model=1,daily=RES2_13,status=variable
new load.3013379584M1 bus1=RML1060719245.2.0,Phases=1,kv=0.127,kW=0.34544,pf=0.92,Vminpu=0.92,Vmaxpu=1.5,model=1,daily=RES1_10,status=variable
new load.3013380253M1 bus1=RML1060719266.1.0,Phases=1,kv=0.127,kW=0.59278,pf=0.92,Vminpu=0.92,Vmaxpu=1.5,model=1,daily=RES2_13,status=variable
new load.3013381009M1 bus1=RML1060719326.2.0,Phases=1,kv=0.127,kW=0.5869,pf=0.92,Vminpu=0.92,Vmaxpu=1.5,model=1,daily=RES2_13,status=variable
new load.3013381041M1 bus1=RML1060719328.1.0,Phases=1,kv=0.127,kW=0.3991,pf=0.92,Vminpu=0.92,Vmaxpu=1.5,model=1,daily=RES2_13,status=variable
new load.3013392415M1 bus1=RML1060721111.1.0,Phases=1,kv=0.127,kW=0.628,pf=0.92,Vminpu=0.92,Vmaxpu=1.5,model=1,daily=RES2_13,status=variable
new load.3013388233M1 bus1=RML1060720272.2.0,Phases=1,kv=0.127,kW=0.46244,pf=0.92,Vminpu=0.92,Vmaxpu=1.5,model=1,daily=RES1_10,status=variable
new load.3013391993M1 bus1=RML1060720453.1.0,Phases=1,kv=0.127,kW=0.39,pf=0.92,Vminpu=0.92,Vmaxpu=1.5,model=1,daily=RES1_10,status=variable
new load.3013382183M1 bus1=RML1060719394.1.2.0,Phases=2,kv=0.22,kW=0.31758,pf=0.92,Vminpu=0.92,Vmaxpu=1.5,model=1,daily=RES1_10,status=variable
new load.3013382250M1 bus1=RML1060719412.1.2.0,Phases=2,kv=0.22,kW=0.59864,pf=0.92,Vminpu=0.92,Vmaxpu=1.5,model=1,daily=RES2_13,status=variable
new load.3013382384M1 bus1=RML1060719427.2.0,Phases=1,kv=0.127,kW=0.42258,pf=0.92,Vminpu=0.92,Vmaxpu=1.5,model=1,daily=RES2_13,status=variable
new load.3013382616M1 bus1=RML1060719439.2.0,Phases=1,kv=0.127,kW=0.28172,pf=0.92,Vminpu=0.92,Vmaxpu=1.5,model=1,daily=RES2_13,status=variable
new load.3013382637M1 bus1=RML1060719443.2.0,Phases=1,kv=0.127,kW=0.32316,pf=0.92,Vminpu=0.92,Vmaxpu=1.5,model=1,daily=RES1_10,status=variable
new load.3013382679M1 bus1=RML1060719447.2.0,Phases=1,kv=0.127,kW=0.02786,pf=0.92,Vminpu=0.92,Vmaxpu=1.5,model=1,daily=RES1_10,status=variable
new load.3013382791M1 bus1=RML1060719944.2.0,Phases=1,kv=0.127,kW=0.53408,pf=0.92,Vminpu=0.92,Vmaxpu=1.5,model=1,daily=RES2_13,status=variable
new load.3013383112M1 bus1=RML1060716594.3.0,Phases=1,kv=0.127,kW=0.00558,pf=0.92,Vminpu=0.92,Vmaxpu=1.5,model=1,daily=RES1_10,status=variable
new load.3013458677M1 bus1=RML1060773321.2.0,Phases=1,kv=0.127,kW=0.86692,pf=0.92,Vminpu=0.92,Vmaxpu=1.5,model=1,daily=RES2_15,status=variable
new load.3013265919M1 bus1=RML1060681055.3.0,Phases=1,kv=0.127,kW=0.49,pf=0.92,Vminpu=0.92,Vmaxpu=1.5,model=1,daily=RES3_11,status=variable
new load.3012885075M1 bus1=RML1060503292.1.0,Phases=1,kv=0.127,kW=0.7337,pf=0.92,Vminpu=0.92,Vmaxpu=1.5,model=1,daily=RES3_4,status=variable
new load.3012447448M1 bus1=RML1060318704.1.2.0,Phases=2,kv=0.22,kW=0.72802,pf=0.92,Vminpu=0.92,Vmaxpu=1.5,model=1,daily=RUR1_26,status=variable
new load.3005473683M1 bus1=RML1052992324.1.2.3.0,Phases=3,kv=0.22,kW=0.099,pf=0.92,Vminpu=0.92,Vmaxpu=1.5,model=1,daily=RUR1_2,status=variable
new load.3003492275M1 bus1=RML1052992261.1.2.0,Phases=2,kv=0.22,kW=1.11752,pf=0.92,Vminpu=0.92,Vmaxpu=1.5,model=1,daily=RES2_3,status=variable
new load.3011445930M1 bus1=RML1056142469.1.2.0,Phases=2,kv=0.24,kW=0.40816,pf=0.92,Vminpu=0.92,Vmaxpu=1.5,model=1,daily=RUR1_10,status=variable
new load.3011574941M1 bus1=RML1056373343.1.0,Phases=1,kv=0.12,kW=0.6383,pf=0.92,Vminpu=0.92,Vmaxpu=1.5,model=1,daily=RES2_5,status=variable
new load.3011791546M1 bus1=RML1056625336.2.0,Phases=1,kv=0.12,kW=0.75846,pf=0.92,Vminpu=0.92,Vmaxpu=1.5,model=1,daily=RES2_7,status=variable
new load.3011270301M1 bus1=RML1060744614.1.0,Phases=1,kv=0.12,kW=0.64188,pf=0.92,Vminpu=0.92,Vmaxpu=1.5,model=1,daily=RES2_1,status=variable
new load.3011062117M1 bus1=RML1055087774.1.0,Phases=1,kv=0.12,kW=0.1026,pf=0.92,Vminpu=0.92,Vmaxpu=1.5,model=1,daily=RES1_20,status=variable
new load.3010770969M1 bus1=RML1054803455.2.0,Phases=1,kv=0.12,kW=0.65274,pf=0.92,Vminpu=0.92,Vmaxpu=1.5,model=1,daily=RES1_15,status=variable
new load.3011479092M1 bus1=RML1056199281.1.2.3.0,Phases=3,kv=0.22,kW=1.2518,pf=0.92,Vminpu=0.92,Vmaxpu=1.5,model=1,daily=RUR3_3,status=variable
new load.3011795800M1 bus1=RML1056837359.1.2.3.0,Phases=3,kv=0.22,kW=7.27004,pf=0.92,Vminpu=0.92,Vmaxpu=1.5,model=1,daily=COM3_8,status=variable
new load.3011918706M1 bus1=RML1056837352.1.0,Phases=1,kv=0.127,kW=0.79282,pf=0.92,Vminpu=0.92,Vmaxpu=1.5,model=1,daily=RES2_10,status=variable
new load.3011496278M1 bus1=RML1056346337.1.0,Phases=1,kv=0.12,kW=0.57934,pf=0.92,Vminpu=0.92,Vmaxpu=1.5,model=1,daily=RES1_2,status=variable
new load.3011494951M1 bus1=RML1056233826.1.0,Phases=1,kv=0.12,kW=0.49096,pf=0.92,Vminpu=0.92,Vmaxpu=1.5,model=1,daily=RES1_2,status=variable
new load.3011511710M1 bus1=RML1056588684.2.0,Phases=1,kv=0.12,kW=0.4124,pf=0.92,Vminpu=0.92,Vmaxpu=1.5,model=1,daily=RES1_2,status=variable
new load.3011632337M1 bus1=RML1056555000.1.0,Phases=1,kv=0.12,kW=1.10382,pf=0.92,Vminpu=0.92,Vmaxpu=1.5,model=1,daily=RES1_4,status=variable
new load.3011378842M1 bus1=RML1056005108.1.0,Phases=1,kv=0.12,kW=0.71574,pf=0.92,Vminpu=0.92,Vmaxpu=1.5,model=1,daily=RES2_2,status=variable
new load.3011350659M1 bus1=RML1055937810.2.0,Phases=1,kv=0.12,kW=0.65176,pf=0.92,Vminpu=0.92,Vmaxpu=1.5,model=1,daily=RES1_1,status=variable
new load.3011368495M1 bus1=RML1056454956.1.0,Phases=1,kv=0.12,kW=0.37314,pf=0.92,Vminpu=0.92,Vmaxpu=1.5,model=1,daily=RES1_2,status=variable
new load.3011932790M1 bus1=RML1060515941.1.0,Phases=1,kv=0.12,kW=0.51966,pf=0.92,Vminpu=0.92,Vmaxpu=1.5,model=1,daily=RES2_10,status=variable
new load.3011625499M1 bus1=RML1056649675.1.2.0,Phases=2,kv=0.24,kW=1.9085,pf=0.92,Vminpu=0.92,Vmaxpu=1.5,model=1,daily=RES3_5,status=variable
new load.3011724068M1 bus1=RML1056528295.1.2.0,Phases=2,kv=0.24,kW=1.0942,pf=0.92,Vminpu=0.92,Vmaxpu=1.5,model=1,daily=RUR2_11,status=variable
new load.3011484744M1 bus1=RML1060499574.1.2.3.0,Phases=3,kv=0.22,kW=6.72646,pf=0.92,Vminpu=0.92,Vmaxpu=1.5,model=1,daily=SERVP4_1,status=variable
new load.3011827861M1 bus1=RML1056658215.1.2.0,Phases=2,kv=0.24,kW=0.4558,pf=0.92,Vminpu=0.92,Vmaxpu=1.5,model=1,daily=RUR1_13,status=variable
new load.3011790905M1 bus1=RML1056637824.2.3.0,Phases=2,kv=0.22,kW=0.34292,pf=0.92,Vminpu=0.92,Vmaxpu=1.5,model=1,daily=COM1_11,status=variable
new load.3011915435M1 bus1=RML1056850883.1.2.0,Phases=2,kv=0.22,kW=0.35976,pf=0.92,Vminpu=0.92,Vmaxpu=1.5,model=1,daily=RES2_10,status=variable
new load.3011916048M1 bus1=RML1056850925.3.0,Phases=1,kv=0.127,kW=0.61916,pf=0.92,Vminpu=0.92,Vmaxpu=1.5,model=1,daily=RES1_9,status=variable
new load.3011916110M1 bus1=RML1056850890.1.2.0,Phases=2,kv=0.22,kW=0.55826,pf=0.92,Vminpu=0.92,Vmaxpu=1.5,model=1,daily=RES1_9,status=variable
new load.3011932834M1 bus1=RML1056850981.3.0,Phases=1,kv=0.127,kW=0.40672,pf=0.92,Vminpu=0.92,Vmaxpu=1.5,model=1,daily=RES1_10,status=variable
new load.3011933368M1 bus1=RML1056850918.1.0,Phases=1,kv=0.127,kW=0.273,pf=0.92,Vminpu=0.92,Vmaxpu=1.5,model=1,daily=RES1_10,status=variable
new load.3011933531M1 bus1=RML1056851030.1.0,Phases=1,kv=0.127,kW=0.5663,pf=0.92,Vminpu=0.92,Vmaxpu=1.5,model=1,daily=RES2_10,status=variable
new load.3011933741M1 bus1=RML1056850855.3.0,Phases=1,kv=0.127,kW=0.63292,pf=0.92,Vminpu=0.92,Vmaxpu=1.5,model=1,daily=RES2_10,status=variable
new load.3011934106M1 bus1=RML1056850932.2.0,Phases=1,kv=0.127,kW=0.2953,pf=0.92,Vminpu=0.92,Vmaxpu=1.5,model=1,daily=RES1_10,status=variable
new load.3011930673M1 bus1=RML1056851002.1.0,Phases=1,kv=0.127,kW=0.65958,pf=0.92,Vminpu=0.92,Vmaxpu=1.5,model=1,daily=RES2_10,status=variable
new load.3011932387M1 bus1=RML1056850862.2.0,Phases=1,kv=0.127,kW=0.39,pf=0.92,Vminpu=0.92,Vmaxpu=1.5,model=1,daily=RES1_10,status=variable
new load.3011932547M1 bus1=RML1056850876.2.0,Phases=1,kv=0.127,kW=0.8661,pf=0.92,Vminpu=0.92,Vmaxpu=1.5,model=1,daily=RES2_10,status=variable
new load.3011934717M1 bus1=RML1056851044.2.0,Phases=1,kv=0.127,kW=0.60628,pf=0.92,Vminpu=0.92,Vmaxpu=1.5,model=1,daily=RES2_10,status=variable
new load.3011934530M1 bus1=RML1056850939.2.0,Phases=1,kv=0.127,kW=0.57962,pf=0.92,Vminpu=0.92,Vmaxpu=1.5,model=1,daily=RES2_10,status=variable
new load.3011935806M1 bus1=RML1056850995.2.0,Phases=1,kv=0.127,kW=0.55298,pf=0.92,Vminpu=0.92,Vmaxpu=1.5,model=1,daily=RES2_10,status=variable
new load.3011935857M1 bus1=RML1056851485.3.0,Phases=1,kv=0.127,kW=0.65958,pf=0.92,Vminpu=0.92,Vmaxpu=1.5,model=1,daily=RES2_10,status=variable
new load.3011932396M1 bus1=RML1056849259.1.0,Phases=1,kv=0.127,kW=1.13926,pf=0.92,Vminpu=0.92,Vmaxpu=1.5,model=1,daily=RES2_10,status=variable
new load.3011932323M1 bus1=RML1056849273.2.0,Phases=1,kv=0.127,kW=1.01268,pf=0.92,Vminpu=0.92,Vmaxpu=1.5,model=1,daily=RES2_10,status=variable
new load.3011932345M1 bus1=RML1056850953.1.0,Phases=1,kv=0.127,kW=0.312,pf=0.92,Vminpu=0.92,Vmaxpu=1.5,model=1,daily=RES1_10,status=variable
new load.3011932215M1 bus1=RML1056851835.2.0,Phases=1,kv=0.127,kW=0.91274,pf=0.92,Vminpu=0.92,Vmaxpu=1.5,model=1,daily=RES2_10,status=variable
new load.3011930678M1 bus1=RML1056851478.3.0,Phases=1,kv=0.127,kW=0.234,pf=0.92,Vminpu=0.92,Vmaxpu=1.5,model=1,daily=RES1_10,status=variable
new load.3011934160M1 bus1=RML1056849245.1.3.0,Phases=2,kv=0.22,kW=0.20058,pf=0.92,Vminpu=0.92,Vmaxpu=1.5,model=1,daily=RES1_10,status=variable
new load.3011934165M1 bus1=RML1056851842.1.0,Phases=1,kv=0.127,kW=0.351,pf=0.92,Vminpu=0.92,Vmaxpu=1.5,model=1,daily=RES1_10,status=variable
new load.3011933666M1 bus1=RML1056850505.1.3.0,Phases=2,kv=0.22,kW=0.30086,pf=0.92,Vminpu=0.92,Vmaxpu=1.5,model=1,daily=RES1_10,status=variable
new load.3011933372M1 bus1=RML1056850967.2.0,Phases=1,kv=0.127,kW=0.81946,pf=0.92,Vminpu=0.92,Vmaxpu=1.5,model=1,daily=RES2_10,status=variable
new load.3011933406M1 bus1=RML1056850533.2.0,Phases=1,kv=0.127,kW=0.00558,pf=0.92,Vminpu=0.92,Vmaxpu=1.5,model=1,daily=RES1_10,status=variable
new load.3011933416M1 bus1=RML1056850519.2.0,Phases=1,kv=0.127,kW=0.02228,pf=0.92,Vminpu=0.92,Vmaxpu=1.5,model=1,daily=RES1_10,status=variable
new load.3011932867M1 bus1=RML1056851107.2.0,Phases=1,kv=0.127,kW=0.5663,pf=0.92,Vminpu=0.92,Vmaxpu=1.5,model=1,daily=RES2_10,status=variable
new load.3011932755M1 bus1=RML1056850526.1.0,Phases=1,kv=0.127,kW=0.37976,pf=0.92,Vminpu=0.92,Vmaxpu=1.5,model=1,daily=RES2_10,status=variable
new load.3011932945M1 bus1=RML1056850512.2.0,Phases=1,kv=0.127,kW=0.55298,pf=0.92,Vminpu=0.92,Vmaxpu=1.5,model=1,daily=RES2_10,status=variable
new load.3011933314M1 bus1=RML1056850960.1.0,Phases=1,kv=0.127,kW=1.07296,pf=0.92,Vminpu=0.92,Vmaxpu=1.5,model=1,daily=RES3_11,status=variable
new load.3011916882M1 bus1=RML1056849287.1.0,Phases=1,kv=0.127,kW=0.78158,pf=0.92,Vminpu=0.92,Vmaxpu=1.5,model=1,daily=RES1_9,status=variable
new load.3011911647M1 bus1=RML1056851849.3.0,Phases=1,kv=0.127,kW=0.64962,pf=0.92,Vminpu=0.92,Vmaxpu=1.5,model=1,daily=RES1_9,status=variable
new load.3011908860M1 bus1=RML1056849833.3.0,Phases=1,kv=0.127,kW=0.48722,pf=0.92,Vminpu=0.92,Vmaxpu=1.5,model=1,daily=RES1_9,status=variable
new load.3011928265M1 bus1=RML1056849812.1.0,Phases=1,kv=0.127,kW=0.43458,pf=0.92,Vminpu=0.92,Vmaxpu=1.5,model=1,daily=RES1_10,status=variable
new load.3011932646M1 bus1=RML1056849854.1.0,Phases=1,kv=0.127,kW=0.41306,pf=0.92,Vminpu=0.92,Vmaxpu=1.5,model=1,daily=RES2_10,status=variable
new load.3011932704M1 bus1=RML1056849819.2.0,Phases=1,kv=0.127,kW=0.312,pf=0.92,Vminpu=0.92,Vmaxpu=1.5,model=1,daily=RES1_10,status=variable
new load.3011934488M1 bus1=RML1056849917.3.0,Phases=1,kv=0.127,kW=0.58628,pf=0.92,Vminpu=0.92,Vmaxpu=1.5,model=1,daily=RES2_10,status=variable
new load.3011936018M1 bus1=RML1056850106.1.2.0,Phases=2,kv=0.22,kW=0.63958,pf=0.92,Vminpu=0.92,Vmaxpu=1.5,model=1,daily=RES2_10,status=variable
new load.3011935491M1 bus1=RML1056850071.1.0,Phases=1,kv=0.127,kW=0.35658,pf=0.92,Vminpu=0.92,Vmaxpu=1.5,model=1,daily=RES1_10,status=variable
new load.3011932378M1 bus1=RML1056849868.1.0,Phases=1,kv=0.127,kW=0.63292,pf=0.92,Vminpu=0.92,Vmaxpu=1.5,model=1,daily=RES2_10,status=variable
new load.3011932235M1 bus1=RML1056850008.2.3.0,Phases=2,kv=0.22,kW=0.273,pf=0.92,Vminpu=0.92,Vmaxpu=1.5,model=1,daily=RES1_10,status=variable
new load.3011929931M1 bus1=RML1056850029.1.0,Phases=1,kv=0.127,kW=0.5069,pf=0.92,Vminpu=0.92,Vmaxpu=1.5,model=1,daily=RES3_11,status=variable
new load.3011931221M1 bus1=RML1056849910.2.0,Phases=1,kv=0.127,kW=0.66624,pf=0.92,Vminpu=0.92,Vmaxpu=1.5,model=1,daily=RES2_10,status=variable
new load.3011932178M1 bus1=RML1056849973.2.3.0,Phases=2,kv=0.22,kW=0.32872,pf=0.92,Vminpu=0.92,Vmaxpu=1.5,model=1,daily=RES1_10,status=variable
new load.3011932241M1 bus1=RML1056850085.2.3.0,Phases=2,kv=0.22,kW=0.23958,pf=0.92,Vminpu=0.92,Vmaxpu=1.5,model=1,daily=RES1_10,status=variable
new load.3011929058M1 bus1=RML1056849952.2.0,Phases=1,kv=0.127,kW=0.40672,pf=0.92,Vminpu=0.92,Vmaxpu=1.5,model=1,daily=RES1_10,status=variable
new load.3011930111M1 bus1=RML1056849959.3.0,Phases=1,kv=0.127,kW=0.26744,pf=0.92,Vminpu=0.92,Vmaxpu=1.5,model=1,daily=RES1_10,status=variable
new load.3011926614M1 bus1=RML1056850099.1.0,Phases=1,kv=0.127,kW=0.79948,pf=0.92,Vminpu=0.92,Vmaxpu=1.5,model=1,daily=RES2_10,status=variable
new load.3011925179M1 bus1=RML1056850078.3.0,Phases=1,kv=0.127,kW=0.87276,pf=0.92,Vminpu=0.92,Vmaxpu=1.5,model=1,daily=RES2_10,status=variable
new load.3011932975M1 bus1=RML1056849924.1.0,Phases=1,kv=0.127,kW=0.73286,pf=0.92,Vminpu=0.92,Vmaxpu=1.5,model=1,daily=RES2_10,status=variable
new load.3011932861M1 bus1=RML1056850001.2.0,Phases=1,kv=0.127,kW=0.04458,pf=0.92,Vminpu=0.92,Vmaxpu=1.5,model=1,daily=RES1_10,status=variable
new load.3011933369M1 bus1=RML1056849861.2.0,Phases=1,kv=0.127,kW=0.40116,pf=0.92,Vminpu=0.92,Vmaxpu=1.5,model=1,daily=RES1_10,status=variable
new load.3011933523M1 bus1=RML1056849896.3.0,Phases=1,kv=0.127,kW=0.6196,pf=0.92,Vminpu=0.92,Vmaxpu=1.5,model=1,daily=RES2_10,status=variable
new load.3011933539M1 bus1=RML1056849875.1.0,Phases=1,kv=0.127,kW=0.36642,pf=0.92,Vminpu=0.92,Vmaxpu=1.5,model=1,daily=RES2_10,status=variable
new load.3011934232M1 bus1=RML1056849938.1.3.0,Phases=2,kv=0.22,kW=0.39286,pf=0.92,Vminpu=0.92,Vmaxpu=1.5,model=1,daily=RES3_11,status=variable
new load.3011933815M1 bus1=RML1056849994.2.0,Phases=1,kv=0.127,kW=0.58628,pf=0.92,Vminpu=0.92,Vmaxpu=1.5,model=1,daily=RES2_10,status=variable
new load.3011907300M1 bus1=RML1056850015.2.0,Phases=1,kv=0.127,kW=0.55298,pf=0.92,Vminpu=0.92,Vmaxpu=1.5,model=1,daily=RES2_10,status=variable
new load.3011912660M1 bus1=RML1056850064.2.0,Phases=1,kv=0.127,kW=0.57962,pf=0.92,Vminpu=0.92,Vmaxpu=1.5,model=1,daily=RES2_10,status=variable
new load.3011913877M1 bus1=RML1056849987.1.0,Phases=1,kv=0.127,kW=0.75284,pf=0.92,Vminpu=0.92,Vmaxpu=1.5,model=1,daily=RES2_10,status=variable
new load.3011923290M1 bus1=RML1056850127.2.0,Phases=1,kv=0.127,kW=0.35976,pf=0.92,Vminpu=0.92,Vmaxpu=1.5,model=1,daily=RES2_10,status=variable
new load.3011909515M1 bus1=RML1056850141.2.0,Phases=1,kv=0.127,kW=0.43306,pf=0.92,Vminpu=0.92,Vmaxpu=1.5,model=1,daily=RES2_10,status=variable
new load.3011906260M1 bus1=RML1056850372.1.0,Phases=1,kv=0.127,kW=0.5663,pf=0.92,Vminpu=0.92,Vmaxpu=1.5,model=1,daily=RES2_10,status=variable
new load.3011934276M1 bus1=RML1056850344.1.0,Phases=1,kv=0.127,kW=0.273,pf=0.92,Vminpu=0.92,Vmaxpu=1.5,model=1,daily=RES1_10,status=variable
new load.3011933788M1 bus1=RML1056850414.2.0,Phases=1,kv=0.127,kW=0.6196,pf=0.92,Vminpu=0.92,Vmaxpu=1.5,model=1,daily=RES2_10,status=variable
new load.3011934406M1 bus1=RML1056850463.3.0,Phases=1,kv=0.127,kW=0.30086,pf=0.92,Vminpu=0.92,Vmaxpu=1.5,model=1,daily=RES1_10,status=variable
new load.3011933119M1 bus1=RML1056850239.2.0,Phases=1,kv=0.127,kW=0.40116,pf=0.92,Vminpu=0.92,Vmaxpu=1.5,model=1,daily=RES1_10,status=variable
new load.3011933521M1 bus1=RML1056850323.1.0,Phases=1,kv=0.127,kW=0.2563,pf=0.92,Vminpu=0.92,Vmaxpu=1.5,model=1,daily=RES1_10,status=variable
new load.3011933668M1 bus1=RML1056850358.1.0,Phases=1,kv=0.127,kW=0.351,pf=0.92,Vminpu=0.92,Vmaxpu=1.5,model=1,daily=RES1_10,status=variable
new load.3011933392M1 bus1=RML1056850260.1.0,Phases=1,kv=0.127,kW=0.63958,pf=0.92,Vminpu=0.92,Vmaxpu=1.5,model=1,daily=RES2_10,status=variable
new load.3011932584M1 bus1=RML1056850281.1.2.0,Phases=2,kv=0.22,kW=0.68622,pf=0.92,Vminpu=0.92,Vmaxpu=1.5,model=1,daily=RES2_10,status=variable
new load.3011932820M1 bus1=RML1056850204.2.0,Phases=1,kv=0.127,kW=0.39308,pf=0.92,Vminpu=0.92,Vmaxpu=1.5,model=1,daily=RES2_10,status=variable
new load.3011933056M1 bus1=RML1056850253.3.0,Phases=1,kv=0.127,kW=0.13372,pf=0.92,Vminpu=0.92,Vmaxpu=1.5,model=1,daily=RES1_10,status=variable
new load.3011933143M1 bus1=RML1056850218.3.0,Phases=1,kv=0.127,kW=0.08358,pf=0.92,Vminpu=0.92,Vmaxpu=1.5,model=1,daily=RES1_10,status=variable
new load.3011933237M1 bus1=RML1056850456.2.0,Phases=1,kv=0.127,kW=0.2957,pf=0.92,Vminpu=0.92,Vmaxpu=1.5,model=1,daily=RES3_11,status=variable
new load.3011933268M1 bus1=RML1056850330.2.0,Phases=1,kv=0.127,kW=0.54632,pf=0.92,Vminpu=0.92,Vmaxpu=1.5,model=1,daily=RES2_10,status=variable
new load.3011933290M1 bus1=RML1056850435.1.0,Phases=1,kv=0.127,kW=0.67956,pf=0.92,Vminpu=0.92,Vmaxpu=1.5,model=1,daily=RES2_10,status=variable
new load.3011925233M1 bus1=RML1056850148.3.0,Phases=1,kv=0.127,kW=0.44662,pf=0.92,Vminpu=0.92,Vmaxpu=1.5,model=1,daily=RES1_9,status=variable
new load.3011924828M1 bus1=RML1056850309.1.0,Phases=1,kv=0.127,kW=1.19256,pf=0.92,Vminpu=0.92,Vmaxpu=1.5,model=1,daily=RES2_10,status=variable
new load.3011925723M1 bus1=RML1056850197.3.0,Phases=1,kv=0.127,kW=0.55964,pf=0.92,Vminpu=0.92,Vmaxpu=1.5,model=1,daily=RES2_10,status=variable
new load.3011926812M1 bus1=RML1056850190.2.0,Phases=1,kv=0.127,kW=0.312,pf=0.92,Vminpu=0.92,Vmaxpu=1.5,model=1,daily=RES1_10,status=variable
new load.3011928161M1 bus1=RML1056850407.2.3.0,Phases=2,kv=0.22,kW=0.08358,pf=0.92,Vminpu=0.92,Vmaxpu=1.5,model=1,daily=RES1_10,status=variable
new load.3011930177M1 bus1=RML1056850428.2.3.0,Phases=2,kv=0.22,kW=0.20614,pf=0.92,Vminpu=0.92,Vmaxpu=1.5,model=1,daily=RES1_10,status=variable
new load.3011930899M1 bus1=RML1056850183.1.0,Phases=1,kv=0.127,kW=0.23958,pf=0.92,Vminpu=0.92,Vmaxpu=1.5,model=1,daily=RES1_10,status=variable
new load.3011932255M1 bus1=RML1056850295.1.2.0,Phases=2,kv=0.22,kW=0.234,pf=0.92,Vminpu=0.92,Vmaxpu=1.5,model=1,daily=RES1_10,status=variable
new load.3011932282M1 bus1=RML1056850477.2.0,Phases=1,kv=0.127,kW=0.33312,pf=0.92,Vminpu=0.92,Vmaxpu=1.5,model=1,daily=RES2_10,status=variable
new load.3011932430M1 bus1=RML1056850274.3.0,Phases=1,kv=0.127,kW=0.28414,pf=0.92,Vminpu=0.92,Vmaxpu=1.5,model=1,daily=RES1_10,status=variable
new load.3011935549M1 bus1=RML1056850498.1.3.0,Phases=2,kv=0.22,kW=0.30646,pf=0.92,Vminpu=0.92,Vmaxpu=1.5,model=1,daily=RES2_10,status=variable
new load.3011934767M1 bus1=RML1056850288.1.0,Phases=1,kv=0.127,kW=0.39974,pf=0.92,Vminpu=0.92,Vmaxpu=1.5,model=1,daily=RES2_10,status=variable
new load.3011935046M1 bus1=RML1056849301.1.0,Phases=1,kv=0.127,kW=0.44638,pf=0.92,Vminpu=0.92,Vmaxpu=1.5,model=1,daily=RES2_10,status=variable
new load.3011935063M1 bus1=RML1056849315.2.0,Phases=1,kv=0.127,kW=0.46636,pf=0.92,Vminpu=0.92,Vmaxpu=1.5,model=1,daily=RES2_10,status=variable
new load.3011935350M1 bus1=RML1056849644.1.0,Phases=1,kv=0.127,kW=0.51816,pf=0.92,Vminpu=0.92,Vmaxpu=1.5,model=1,daily=RES1_10,status=variable
new load.3011935391M1 bus1=RML1056849336.2.0,Phases=1,kv=0.127,kW=0.33986,pf=0.92,Vminpu=0.92,Vmaxpu=1.5,model=1,daily=RES1_10,status=variable