new load.3009000682M1 bus1=BMT123092911.1.2.3.0,Phases=3,kv=13.8,kW=83.22634,pf=0.92,Vminpu=0.93,Vmaxpu=1.5,model=8,zipv=[0.5,0,0.5,1,0,0,0],daily=A4-4,status=variable
new load.3009001762M1 bus1=BMT150344629.1.2.3.0,Phases=3,kv=13.8,kW=14.36532,pf=0.92,Vminpu=0.93,Vmaxpu=1.5,model=8,zipv=[0.5,0,0.5,1,0,0,0],daily=A4-1,status=variable
new load.3009006639M1 bus1=BMT123080570.1.2.3.0,Phases=3,kv=13.8,kW=31.46082,pf=0.92,Vminpu=0.93,Vmaxpu=1.5,model=8,zipv=[0.5,0,0.5,1,0,0,0],daily=A4-3,status=variable
new load.3009006643M1 bus1=BMT150344633.1.2.3.0,Phases=3,kv=13.8,kW=39.85038,pf=0.92,Vminpu=0.93,Vmaxpu=1.5,model=8,zipv=[0.5,0,0.5,1,0,0,0],daily=A4-3,status=variable
new load.3009006648M1 bus1=BMT123098035.1.2.3.0,Phases=3,kv=13.8,kW=4.78844,pf=0.92,Vminpu=0.93,Vmaxpu=1.5,model=8,zipv=[0.5,0,0.5,1,0,0,0],daily=A4-1,status=variable
new load.3009006652M1 bus1=BMT150344642.1.2.3.0,Phases=3,kv=13.8,kW=9.57688,pf=0.92,Vminpu=0.93,Vmaxpu=1.5,model=8,zipv=[0.5,0,0.5,1,0,0,0],daily=A4-1,status=variable
new load.3009010504M1 bus1=BMT165931630.1.2.3.0,Phases=3,kv=13.8,kW=866.27136,pf=0.92,Vminpu=0.93,Vmaxpu=1.5,model=8,zipv=[0.5,0,0.5,1,0,0,0],daily=A4-7,status=variable
new load.3009012254M1 bus1=BMT123081459.1.2.3.0,Phases=3,kv=13.8,kW=179.43626,pf=0.92,Vminpu=0.93,Vmaxpu=1.5,model=8,zipv=[0.5,0,0.5,1,0,0,0],daily=A4-6,status=variable
new load.3009017309M1 bus1=BMT164473146.1.2.3.0,Phases=3,kv=13.8,kW=112.17276,pf=0.92,Vminpu=0.93,Vmaxpu=1.5,model=8,zipv=[0.5,0,0.5,1,0,0,0],daily=A4-5,status=variable
new load.3009017421M1 bus1=BMT150344626.1.2.3.0,Phases=3,kv=13.8,kW=4.78844,pf=0.92,Vminpu=0.93,Vmaxpu=1.5,model=8,zipv=[0.5,0,0.5,1,0,0,0],daily=A4-1,status=variable
new load.3009018061M1 bus1=BMT150344647.1.2.3.0,Phases=3,kv=13.8,kW=54.5321,pf=0.92,Vminpu=0.93,Vmaxpu=1.5,model=8,zipv=[0.5,0,0.5,1,0,0,0],daily=A4-3,status=variable
new load.3009018944M1 bus1=BMT150344622.1.2.3.0,Phases=3,kv=13.8,kW=26.92364,pf=0.92,Vminpu=0.93,Vmaxpu=1.5,model=8,zipv=[0.5,0,0.5,1,0,0,0],daily=A4-2,status=variable
new load.3009019859M1 bus1=BMT172617590.1.2.3.0,Phases=3,kv=13.8,kW=19.15376,pf=0.92,Vminpu=0.93,Vmaxpu=1.5,model=8,zipv=[0.5,0,0.5,1,0,0,0],daily=A4-1,status=variable
new load.3009020375M1 bus1=BMT165591307.1.2.3.0,Phases=3,kv=13.8,kW=53.35022,pf=0.92,Vminpu=0.93,Vmaxpu=1.5,model=8,zipv=[0.5,0,0.5,1,0,0,0],daily=A4-4,status=variable
new load.3010016356M1 bus1=BMT150344637.1.2.3.0,Phases=3,kv=13.8,kW=1179.4225,pf=0.92,Vminpu=0.93,Vmaxpu=1.5,model=8,zipv=[0.5,0,0.5,1,0,0,0],daily=A4-7,status=variable
new load.3011146952M1 bus1=BMT172125741.1.2.3.0,Phases=3,kv=13.8,kW=29.16728,pf=0.92,Vminpu=0.93,Vmaxpu=1.5,model=8,zipv=[0.5,0,0.5,1,0,0,0],daily=A4-2,status=variable
new load.3011486044M1 bus1=BMT166263328.1.2.3.0,Phases=3,kv=13.8,kW=13.46182,pf=0.92,Vminpu=0.93,Vmaxpu=1.5,model=8,zipv=[0.5,0,0.5,1,0,0,0],daily=A4-2,status=variable
new load.3012659995M1 bus1=BMT171558115.1.2.3.0,Phases=3,kv=13.8,kW=607.58128,pf=0.92,Vminpu=0.93,Vmaxpu=1.5,model=8,zipv=[0.5,0,0.5,1,0,0,0],daily=A4-7,status=variable
new load.3013162891M1 bus1=BMT171260092.1.2.3.0,Phases=3,kv=13.8,kW=346.90464,pf=0.92,Vminpu=0.93,Vmaxpu=1.5,model=8,zipv=[0.5,0,0.5,1,0,0,0],daily=A4-5,status=variable
new load.3013393772M1 bus1=BMT165931074.1.2.3.0,Phases=3,kv=13.8,kW=453.4142,pf=0.92,Vminpu=0.93,Vmaxpu=1.5,model=8,zipv=[0.5,0,0.5,1,0,0,0],daily=A4-6,status=variable
