new load.3010883439M1 bus1=RML1008405412.1.2.0,Phases=2,kv=0.22,kW=16.7265,pf=0.92,Vminpu=0.92,Vmaxpu=1.5,model=8,zipv=[0.5,0,0.5,1,0,0,0],daily=RUR1_13,status=variable
new load.3011492910M1 bus1=RML1009422897.1.2.0,Phases=2,kv=0.22,kW=3.19138,pf=0.92,Vminpu=0.92,Vmaxpu=1.5,model=8,zipv=[0.5,0,0.5,1,0,0,0],daily=RUR1_10,status=variable
new load.3012183164M1 bus1=RML1009422897.1.2.0,Phases=2,kv=0.22,kW=2.59814,pf=0.92,Vminpu=0.92,Vmaxpu=1.5,model=8,zipv=[0.5,0,0.5,1,0,0,0],daily=RES1_16,status=variable
new load.3012435945M1 bus1=RML1010299656.1.2.0,Phases=2,kv=0.22,kW=2.91922,pf=0.92,Vminpu=0.92,Vmaxpu=1.5,model=8,zipv=[0.5,0,0.5,1,0,0,0],daily=RES1_20,status=variable
new load.3012546526M1 bus1=RML1010356625.1.0,Phases=1,kv=0.127,kW=2.59338,pf=0.92,Vminpu=0.92,Vmaxpu=1.5,model=8,zipv=[0.5,0,0.5,1,0,0,0],daily=RES1_25,status=variable
new load.3014333367M1 bus1=RML1011134160.1.2.0,Phases=2,kv=0.22,kW=0.46036,pf=0.92,Vminpu=0.92,Vmaxpu=1.5,model=8,zipv=[0.5,0,0.5,1,0,0,0],daily=RES1_12,status=variable
new load.3014312116M1 bus1=RML1011131980.1.2.0,Phases=2,kv=0.22,kW=1.21846,pf=0.92,Vminpu=0.92,Vmaxpu=1.5,model=8,zipv=[0.5,0,0.5,1,0,0,0],daily=RES1_11,status=variable
new load.3014431061M1 bus1=RML1011131980.1.2.0,Phases=2,kv=0.22,kW=0.0103,pf=0.92,Vminpu=0.92,Vmaxpu=1.5,model=8,zipv=[0.5,0,0.5,1,0,0,0],daily=RES1_17,status=variable
new load.IP1225113M1 bus1=BBT1979701.1.2.0,Phases=2,kv=0.22,kW=0.08036,pf=0.92,Vminpu=0.92,Vmaxpu=1.5,model=8,zipv=[0.5,0,0.5,1,0,0,0],daily=IP,status=variable,NumCust=0
new load.IP1225134M1 bus1=BBT1979701.1.2.0,Phases=2,kv=0.22,kW=0.08036,pf=0.92,Vminpu=0.92,Vmaxpu=1.5,model=8,zipv=[0.5,0,0.5,1,0,0,0],daily=IP,status=variable,NumCust=0
new load.3012830954M1 bus1=RML1002954934.2.0,Phases=1,kv=0.127,kW=2.0592,pf=0.92,Vminpu=0.92,Vmaxpu=1.5,model=8,zipv=[0.5,0,0.5,1,0,0,0],daily=RES1_2,status=variable
new load.3011692020M1 bus1=RML1009693230.1.2.0,Phases=2,kv=0.22,kW=3.71312,pf=0.92,Vminpu=0.92,Vmaxpu=1.5,model=8,zipv=[0.5,0,0.5,1,0,0,0],daily=RES1_5,status=variable
new load.IP1894124M1 bus1=BBT1981164.1.2.0,Phases=2,kv=0.22,kW=0.08036,pf=0.92,Vminpu=0.92,Vmaxpu=1.5,model=8,zipv=[0.5,0,0.5,1,0,0,0],daily=IP,status=variable,NumCust=0
new load.IP1894397M1 bus1=BBT1981178.1.2.0,Phases=2,kv=0.22,kW=0.08036,pf=0.92,Vminpu=0.92,Vmaxpu=1.5,model=8,zipv=[0.5,0,0.5,1,0,0,0],daily=IP,status=variable,NumCust=0
new load.3001510924M1 bus1=RML1002954899.2.0,Phases=1,kv=0.127,kW=0.1316,pf=0.92,Vminpu=0.92,Vmaxpu=1.5,model=8,zipv=[0.5,0,0.5,1,0,0,0],daily=COM1_10,status=variable
new load.3001510925M1 bus1=RML1002954423.2.0,Phases=1,kv=0.127,kW=0.69504,pf=0.92,Vminpu=0.92,Vmaxpu=1.5,model=8,zipv=[0.5,0,0.5,1,0,0,0],daily=COM1_10,status=variable
new load.3001510926M1 bus1=RML1002954948.1.0,Phases=1,kv=0.127,kW=1.89978,pf=0.92,Vminpu=0.92,Vmaxpu=1.5,model=8,zipv=[0.5,0,0.5,1,0,0,0],daily=RES1_6,status=variable
new load.3001510928M1 bus1=RML1002954927.1.0,Phases=1,kv=0.127,kW=1.19178,pf=0.92,Vminpu=0.92,Vmaxpu=1.5,model=8,zipv=[0.5,0,0.5,1,0,0,0],daily=RES1_6,status=variable
new load.3001510939M1 bus1=RML1002954941.2.0,Phases=1,kv=0.127,kW=0.472,pf=0.92,Vminpu=0.92,Vmaxpu=1.5,model=8,zipv=[0.5,0,0.5,1,0,0,0],daily=RES1_6,status=variable
new load.3001510940M1 bus1=RML1002954906.1.0,Phases=1,kv=0.127,kW=0.4602,pf=0.92,Vminpu=0.92,Vmaxpu=1.5,model=8,zipv=[0.5,0,0.5,1,0,0,0],daily=RES1_6,status=variable
new load.3001510941M1 bus1=RML1002954507.1.0,Phases=1,kv=0.127,kW=1.16818,pf=0.92,Vminpu=0.92,Vmaxpu=1.5,model=8,zipv=[0.5,0,0.5,1,0,0,0],daily=RES1_6,status=variable
new load.3001510943M1 bus1=RML1002954430.1.0,Phases=1,kv=0.127,kW=3.03256,pf=0.92,Vminpu=0.92,Vmaxpu=1.5,model=8,zipv=[0.5,0,0.5,1,0,0,0],daily=RES1_6,status=variable
new load.3001510944M1 bus1=RML1002954962.2.0,Phases=1,kv=0.127,kW=2.79656,pf=0.92,Vminpu=0.92,Vmaxpu=1.5,model=8,zipv=[0.5,0,0.5,1,0,0,0],daily=RES1_6,status=variable
new load.3003360887M1 bus1=RML1002954955.2.0,Phases=1,kv=0.127,kW=0.80824,pf=0.92,Vminpu=0.92,Vmaxpu=1.5,model=8,zipv=[0.5,0,0.5,1,0,0,0],daily=RES1_1,status=variable
new load.3003571752M1 bus1=RML1002954500.2.0,Phases=1,kv=0.127,kW=0.15092,pf=0.92,Vminpu=0.92,Vmaxpu=1.5,model=8,zipv=[0.5,0,0.5,1,0,0,0],daily=COM1_5,status=variable
new load.3003630999M1 bus1=RML1002954864.1.2.0,Phases=2,kv=0.22,kW=1.46664,pf=0.92,Vminpu=0.92,Vmaxpu=1.5,model=8,zipv=[0.5,0,0.5,1,0,0,0],daily=RES1_3,status=variable
new load.3003709731M1 bus1=RML1002954934.2.0,Phases=1,kv=0.127,kW=1.53398,pf=0.92,Vminpu=0.92,Vmaxpu=1.5,model=8,zipv=[0.5,0,0.5,1,0,0,0],daily=RES1_6,status=variable
new load.3003798504M1 bus1=RML1002954843.2.0,Phases=1,kv=0.127,kW=1.63848,pf=0.92,Vminpu=0.92,Vmaxpu=1.5,model=8,zipv=[0.5,0,0.5,1,0,0,0],daily=RES1_7,status=variable
new load.3003840838M1 bus1=RML1002954815.2.0,Phases=1,kv=0.127,kW=0.70558,pf=0.92,Vminpu=0.92,Vmaxpu=1.5,model=8,zipv=[0.5,0,0.5,1,0,0,0],daily=RES1_8,status=variable
new load.3003856988M1 bus1=RML1002954850.1.0,Phases=1,kv=0.127,kW=0.88708,pf=0.92,Vminpu=0.92,Vmaxpu=1.5,model=8,zipv=[0.5,0,0.5,1,0,0,0],daily=RES1_9,status=variable
new load.3003967271M1 bus1=RML1002954822.1.0,Phases=1,kv=0.127,kW=1.02218,pf=0.92,Vminpu=0.92,Vmaxpu=1.5,model=8,zipv=[0.5,0,0.5,1,0,0,0],daily=RES1_12,status=variable
new load.3004143988M1 bus1=RML1002954878.1.2.0,Phases=2,kv=0.22,kW=4.83948,pf=0.92,Vminpu=0.92,Vmaxpu=1.5,model=8,zipv=[0.5,0,0.5,1,0,0,0],daily=COM1_20,status=variable
new load.3004165308M1 bus1=RML1003556955.1.0,Phases=1,kv=0.127,kW=0.50374,pf=0.92,Vminpu=0.92,Vmaxpu=1.5,model=8,zipv=[0.5,0,0.5,1,0,0,0],daily=RES1_18,status=variable
new load.3004165309M1 bus1=RML1002954423.2.0,Phases=1,kv=0.127,kW=0.55472,pf=0.92,Vminpu=0.92,Vmaxpu=1.5,model=8,zipv=[0.5,0,0.5,1,0,0,0],daily=RES1_18,status=variable
new load.3004257846M1 bus1=RML1002954843.2.0,Phases=1,kv=0.127,kW=0.78552,pf=0.92,Vminpu=0.92,Vmaxpu=1.5,model=8,zipv=[0.5,0,0.5,1,0,0,0],daily=RES1_20,status=variable
new load.3005595012M1 bus1=RML1002954885.2.0,Phases=1,kv=0.127,kW=1.16688,pf=0.92,Vminpu=0.92,Vmaxpu=1.5,model=8,zipv=[0.5,0,0.5,1,0,0,0],daily=RES1_2,status=variable
new load.3005609752M1 bus1=RML1002954836.1.0,Phases=1,kv=0.127,kW=1.30416,pf=0.92,Vminpu=0.92,Vmaxpu=1.5,model=8,zipv=[0.5,0,0.5,1,0,0,0],daily=RES1_2,status=variable
new load.3005642661M1 bus1=RML1002954871.2.0,Phases=1,kv=0.127,kW=1.74542,pf=0.92,Vminpu=0.92,Vmaxpu=1.5,model=8,zipv=[0.5,0,0.5,1,0,0,0],daily=RES1_2,status=variable
new load.3005821139M1 bus1=RML1002954857.2.0,Phases=1,kv=0.127,kW=0.75518,pf=0.92,Vminpu=0.92,Vmaxpu=1.5,model=8,zipv=[0.5,0,0.5,1,0,0,0],daily=RES1_6,status=variable
new load.3005821140M1 bus1=RML1002954829.1.0,Phases=1,kv=0.127,kW=4.43672,pf=0.92,Vminpu=0.92,Vmaxpu=1.5,model=8,zipv=[0.5,0,0.5,1,0,0,0],daily=RES1_6,status=variable
new load.3006363301M1 bus1=RML1003265454.2.0,Phases=1,kv=0.127,kW=0.09454,pf=0.92,Vminpu=0.92,Vmaxpu=1.5,model=8,zipv=[0.5,0,0.5,1,0,0,0],daily=RES1_21,status=variable
new load.3006386694M1 bus1=RML1003279727.2.0,Phases=1,kv=0.127,kW=0.91022,pf=0.92,Vminpu=0.92,Vmaxpu=1.5,model=8,zipv=[0.5,0,0.5,1,0,0,0],daily=RES1_23,status=variable
new load.3006784425M1 bus1=RML1003496167.1.0,Phases=1,kv=0.127,kW=1.79956,pf=0.92,Vminpu=0.92,Vmaxpu=1.5,model=8,zipv=[0.5,0,0.5,1,0,0,0],daily=RES1_4,status=variable
new load.3007658434M1 bus1=RML1003843017.1.0,Phases=1,kv=0.127,kW=2.2877,pf=0.92,Vminpu=0.92,Vmaxpu=1.5,model=8,zipv=[0.5,0,0.5,1,0,0,0],daily=RES1_24,status=variable
new load.3007696847M1 bus1=RML1003864836.2.0,Phases=1,kv=0.127,kW=2.29094,pf=0.92,Vminpu=0.92,Vmaxpu=1.5,model=8,zipv=[0.5,0,0.5,1,0,0,0],daily=RES1_26,status=variable
new load.3010498942M1 bus1=RML1002954836.1.0,Phases=1,kv=0.127,kW=2.0253,pf=0.92,Vminpu=0.92,Vmaxpu=1.5,model=8,zipv=[0.5,0,0.5,1,0,0,0],daily=RES1_8,status=variable
new load.3011253464M1 bus1=RML1009083173.1.0,Phases=1,kv=0.127,kW=0.1312,pf=0.92,Vminpu=0.92,Vmaxpu=1.5,model=8,zipv=[0.5,0,0.5,1,0,0,0],daily=RUR1_3,status=variable
new load.3011770190M1 bus1=RML1010279702.1.2.3.0,Phases=3,kv=0.22,kW=17.53934,pf=0.92,Vminpu=0.92,Vmaxpu=1.5,model=8,zipv=[0.5,0,0.5,1,0,0,0],daily=SERVP1_5,status=variable
new load.3011816794M1 bus1=RML1010472185.1.2.0,Phases=2,kv=0.22,kW=2.17012,pf=0.92,Vminpu=0.92,Vmaxpu=1.5,model=8,zipv=[0.5,0,0.5,1,0,0,0],daily=RES1_7,status=variable
new load.3011614532M1 bus1=RML1010280382.1.3.0,Phases=2,kv=0.22,kW=0.01164,pf=0.92,Vminpu=0.92,Vmaxpu=1.5,model=8,zipv=[0.5,0,0.5,1,0,0,0],daily=RES1_3,status=variable
new load.3010863602M1 bus1=RML1008964257.1.2.3.0,Phases=3,kv=0.22,kW=1.05616,pf=0.92,Vminpu=0.92,Vmaxpu=1.5,model=8,zipv=[0.5,0,0.5,1,0,0,0],daily=RES1_16,status=variable
new load.3011007806M1 bus1=RML1008680162.1.0,Phases=1,kv=0.127,kW=0.43478,pf=0.92,Vminpu=0.92,Vmaxpu=1.5,model=8,zipv=[0.5,0,0.5,1,0,0,0],daily=RES1_18,status=variable
new load.3011095325M1 bus1=RML1008994791.1.3.0,Phases=2,kv=0.22,kW=3.84094,pf=0.92,Vminpu=0.92,Vmaxpu=1.5,model=8,zipv=[0.5,0,0.5,1,0,0,0],daily=RES1_22,status=variable
new load.3010552266M1 bus1=RML1010280380.1.2.0,Phases=2,kv=0.22,kW=0.63508,pf=0.92,Vminpu=0.92,Vmaxpu=1.5,model=8,zipv=[0.5,0,0.5,1,0,0,0],daily=RES1_9,status=variable
new load.3010825856M1 bus1=RML1008325829.1.3.0,Phases=2,kv=0.22,kW=1.20402,pf=0.92,Vminpu=0.92,Vmaxpu=1.5,model=8,zipv=[0.5,0,0.5,1,0,0,0],daily=RES1_16,status=variable
new load.3013014351M1 bus1=RML1010553637.2.3.0,Phases=2,kv=0.22,kW=0.57258,pf=0.92,Vminpu=0.92,Vmaxpu=1.5,model=8,zipv=[0.5,0,0.5,1,0,0,0],daily=RES1_4,status=variable
new load.3013404694M1 bus1=RML1010753837.2.3.0,Phases=2,kv=0.22,kW=4.03406,pf=0.92,Vminpu=0.92,Vmaxpu=1.5,model=8,zipv=[0.5,0,0.5,1,0,0,0],daily=RES1_12,status=variable
new load.3012727379M1 bus1=RML1003770616.1.2.3.0,Phases=3,kv=0.22,kW=1.41202,pf=0.92,Vminpu=0.92,Vmaxpu=1.5,model=8,zipv=[0.5,0,0.5,1,0,0,0],daily=RES1_2,status=variable
new load.3012377749M1 bus1=RML1010269508.1.3.0,Phases=2,kv=0.22,kW=0.46776,pf=0.92,Vminpu=0.92,Vmaxpu=1.5,model=8,zipv=[0.5,0,0.5,1,0,0,0],daily=RES1_18,status=variable
new load.3011998012M1 bus1=RML1008964257.1.2.3.0,Phases=3,kv=0.22,kW=2.1231,pf=0.92,Vminpu=0.92,Vmaxpu=1.5,model=8,zipv=[0.5,0,0.5,1,0,0,0],daily=COM1_14,status=variable
new load.IP1231770M1 bus1=BBT1984237.1.2.0,Phases=2,kv=0.22,kW=0.08036,pf=0.92,Vminpu=0.92,Vmaxpu=1.5,model=8,zipv=[0.5,0,0.5,1,0,0,0],daily=IP,status=variable,NumCust=0
new load.IP1231791M1 bus1=BBT1984251.1.2.0,Phases=2,kv=0.22,kW=0.08036,pf=0.92,Vminpu=0.92,Vmaxpu=1.5,model=8,zipv=[0.5,0,0.5,1,0,0,0],daily=IP,status=variable,NumCust=0
new load.IP1231812M1 bus1=BBT1984272.1.2.0,Phases=2,kv=0.22,kW=0.08036,pf=0.92,Vminpu=0.92,Vmaxpu=1.5,model=8,zipv=[0.5,0,0.5,1,0,0,0],daily=IP,status=variable,NumCust=0
new load.IP1231833M1 bus1=BBT1984279.1.2.0,Phases=2,kv=0.22,kW=0.08036,pf=0.92,Vminpu=0.92,Vmaxpu=1.5,model=8,zipv=[0.5,0,0.5,1,0,0,0],daily=IP,status=variable,NumCust=0
new load.IP1232022M1 bus1=BBT1984356.1.2.0,Phases=2,kv=0.22,kW=0.08036,pf=0.92,Vminpu=0.92,Vmaxpu=1.5,model=8,zipv=[0.5,0,0.5,1,0,0,0],daily=IP,status=variable,NumCust=0
new load.IP1894019M1 bus1=BBT1984230.1.2.0,Phases=2,kv=0.22,kW=0.08036,pf=0.92,Vminpu=0.92,Vmaxpu=1.5,model=8,zipv=[0.5,0,0.5,1,0,0,0],daily=IP,status=variable,NumCust=0
new load.IP1894040M1 bus1=BBT1984265.1.2.0,Phases=2,kv=0.22,kW=0.08036,pf=0.92,Vminpu=0.92,Vmaxpu=1.5,model=8,zipv=[0.5,0,0.5,1,0,0,0],daily=IP,status=variable,NumCust=0
new load.IP1894061M1 bus1=BBT1984244.1.2.0,Phases=2,kv=0.22,kW=0.08036,pf=0.92,Vminpu=0.92,Vmaxpu=1.5,model=8,zipv=[0.5,0,0.5,1,0,0,0],daily=IP,status=variable,NumCust=0
new load.3006594859M1 bus1=RML1003397369.2.0,Phases=1,kv=0.127,kW=1.3826,pf=0.92,Vminpu=0.92,Vmaxpu=1.5,model=8,zipv=[0.5,0,0.5,1,0,0,0],daily=RES1_2,status=variable
new load.3005837040M1 bus1=RML1002959701.2.0,Phases=1,kv=0.127,kW=1.58118,pf=0.92,Vminpu=0.92,Vmaxpu=1.5,model=8,zipv=[0.5,0,0.5,1,0,0,0],daily=RES1_6,status=variable
new load.3005772359M1 bus1=RML1002959694.3.0,Phases=1,kv=0.127,kW=1.7723,pf=0.92,Vminpu=0.92,Vmaxpu=1.5,model=8,zipv=[0.5,0,0.5,1,0,0,0],daily=RES1_4,status=variable
new load.3005781601M1 bus1=RML1002959680.3.0,Phases=1,kv=0.127,kW=0.99522,pf=0.92,Vminpu=0.92,Vmaxpu=1.5,model=8,zipv=[0.5,0,0.5,1,0,0,0],daily=RES1_4,status=variable
new load.3005978098M1 bus1=RML1003051233.2.0,Phases=1,kv=0.127,kW=0.96508,pf=0.92,Vminpu=0.92,Vmaxpu=1.5,model=8,zipv=[0.5,0,0.5,1,0,0,0],daily=RES1_10,status=variable
new load.3005383195M1 bus1=RML1002959925.3.0,Phases=1,kv=0.127,kW=1.39728,pf=0.92,Vminpu=0.92,Vmaxpu=1.5,model=8,zipv=[0.5,0,0.5,1,0,0,0],daily=RES1_24,status=variable
new load.3005480264M1 bus1=RML1002959932.1.0,Phases=1,kv=0.127,kW=0.9342,pf=0.92,Vminpu=0.92,Vmaxpu=1.5,model=8,zipv=[0.5,0,0.5,1,0,0,0],daily=RES1_1,status=variable
new load.3004390198M1 bus1=RML1002959708.3.0,Phases=1,kv=0.127,kW=1.42518,pf=0.92,Vminpu=0.92,Vmaxpu=1.5,model=8,zipv=[0.5,0,0.5,1,0,0,0],daily=RES1_26,status=variable
new load.3004554753M1 bus1=RML1002959687.3.0,Phases=1,kv=0.127,kW=0.99038,pf=0.92,Vminpu=0.92,Vmaxpu=1.5,model=8,zipv=[0.5,0,0.5,1,0,0,0],daily=RES1_2,status=variable
new load.3004549500M1 bus1=RML1002952127.3.0,Phases=1,kv=0.127,kW=0.80406,pf=0.92,Vminpu=0.92,Vmaxpu=1.5,model=8,zipv=[0.5,0,0.5,1,0,0,0],daily=RES1_2,status=variable
new load.3004817457M1 bus1=RML1002952120.3.0,Phases=1,kv=0.127,kW=1.08558,pf=0.92,Vminpu=0.92,Vmaxpu=1.5,model=8,zipv=[0.5,0,0.5,1,0,0,0],daily=RES1_6,status=variable
new load.3004253704M1 bus1=RML1002951784.1.0,Phases=1,kv=0.127,kW=0.33484,pf=0.92,Vminpu=0.92,Vmaxpu=1.5,model=8,zipv=[0.5,0,0.5,1,0,0,0],daily=RES1_19,status=variable
new load.3006097411M1 bus1=RML1003187810.1.2.3.0,Phases=3,kv=0.22,kW=0.47242,pf=0.92,Vminpu=0.92,Vmaxpu=1.5,model=8,zipv=[0.5,0,0.5,1,0,0,0],daily=COM1_17,status=variable
new load.3003885914M1 bus1=RML1002951910.2.0,Phases=1,kv=0.127,kW=0.48808,pf=0.92,Vminpu=0.92,Vmaxpu=1.5,model=8,zipv=[0.5,0,0.5,1,0,0,0],daily=RES1_10,status=variable
new load.3003613192M1 bus1=RML1002952092.1.0,Phases=1,kv=0.127,kW=0.09312,pf=0.92,Vminpu=0.92,Vmaxpu=1.5,model=8,zipv=[0.5,0,0.5,1,0,0,0],daily=RES1_3,status=variable
new load.3003640991M1 bus1=RML1002951791.2.0,Phases=1,kv=0.127,kW=3.2992,pf=0.92,Vminpu=0.92,Vmaxpu=1.5,model=8,zipv=[0.5,0,0.5,1,0,0,0],daily=RES1_4,status=variable
new load.3003587923M1 bus1=RML1002952232.2.0,Phases=1,kv=0.127,kW=1.35024,pf=0.92,Vminpu=0.92,Vmaxpu=1.5,model=8,zipv=[0.5,0,0.5,1,0,0,0],daily=RES1_3,status=variable
new load.3003587924M1 bus1=RML1002952099.2.0,Phases=1,kv=0.127,kW=0.43068,pf=0.92,Vminpu=0.92,Vmaxpu=1.5,model=8,zipv=[0.5,0,0.5,1,0,0,0],daily=RES1_3,status=variable
new load.3003587925M1 bus1=RML1002952113.1.0,Phases=1,kv=0.127,kW=37.57382,pf=0.92,Vminpu=0.92,Vmaxpu=1.5,model=8,zipv=[0.5,0,0.5,1,0,0,0],daily=RES1_3,status=variable
new load.3003601158M1 bus1=RML1002952008.1.0,Phases=1,kv=0.127,kW=1.09416,pf=0.92,Vminpu=0.92,Vmaxpu=1.5,model=8,zipv=[0.5,0,0.5,1,0,0,0],daily=RES1_3,status=variable
new load.3003542526M1 bus1=RML1002951973.3.0,Phases=1,kv=0.127,kW=0.66678,pf=0.92,Vminpu=0.92,Vmaxpu=1.5,model=8,zipv=[0.5,0,0.5,1,0,0,0],daily=RES1_2,status=variable
new load.3003339964M1 bus1=RML1002951882.3.0,Phases=1,kv=0.127,kW=0.07348,pf=0.92,Vminpu=0.92,Vmaxpu=1.5,model=8,zipv=[0.5,0,0.5,1,0,0,0],daily=RES1_1,status=variable
new load.3003438948M1 bus1=RML1002952106.3.0,Phases=1,kv=0.127,kW=1.44144,pf=0.92,Vminpu=0.92,Vmaxpu=1.5,model=8,zipv=[0.5,0,0.5,1,0,0,0],daily=RES1_2,status=variable
new load.3003444395M1 bus1=RML1002951875.3.0,Phases=1,kv=0.127,kW=0.95116,pf=0.92,Vminpu=0.92,Vmaxpu=1.5,model=8,zipv=[0.5,0,0.5,1,0,0,0],daily=RES1_2,status=variable
new load.3000613268M1 bus1=RML1002951896.1.0,Phases=1,kv=0.127,kW=2.00746,pf=0.92,Vminpu=0.92,Vmaxpu=1.5,model=8,zipv=[0.5,0,0.5,1,0,0,0],daily=RES1_11,status=variable
new load.3000613503M1 bus1=RML1002951798.1.0,Phases=1,kv=0.127,kW=0.9588,pf=0.92,Vminpu=0.92,Vmaxpu=1.5,model=8,zipv=[0.5,0,0.5,1,0,0,0],daily=RES1_11,status=variable
new load.3000613504M1 bus1=RML1002951840.1.0,Phases=1,kv=0.127,kW=0.75904,pf=0.92,Vminpu=0.92,Vmaxpu=1.5,model=8,zipv=[0.5,0,0.5,1,0,0,0],daily=RES1_11,status=variable
new load.3000613505M1 bus1=RML1002951777.3.0,Phases=1,kv=0.127,kW=0.789,pf=0.92,Vminpu=0.92,Vmaxpu=1.5,model=8,zipv=[0.5,0,0.5,1,0,0,0],daily=RES1_11,status=variable
new load.3000613507M1 bus1=RML1002951903.1.0,Phases=1,kv=0.127,kW=1.72782,pf=0.92,Vminpu=0.92,Vmaxpu=1.5,model=8,zipv=[0.5,0,0.5,1,0,0,0],daily=RES1_11,status=variable
new load.3000613508M1 bus1=RML1002951861.1.0,Phases=1,kv=0.127,kW=1.1885,pf=0.92,Vminpu=0.92,Vmaxpu=1.5,model=8,zipv=[0.5,0,0.5,1,0,0,0],daily=RES1_11,status=variable
new load.3000613509M1 bus1=RML1002951833.3.0,Phases=1,kv=0.127,kW=0.2397,pf=0.92,Vminpu=0.92,Vmaxpu=1.5,model=8,zipv=[0.5,0,0.5,1,0,0,0],daily=RES1_11,status=variable
new load.3000613510M1 bus1=RML1002951847.3.0,Phases=1,kv=0.127,kW=1.54804,pf=0.92,Vminpu=0.92,Vmaxpu=1.5,model=8,zipv=[0.5,0,0.5,1,0,0,0],daily=RES1_11,status=variable
new load.3000613511M1 bus1=RML1002951826.1.0,Phases=1,kv=0.127,kW=1.07864,pf=0.92,Vminpu=0.92,Vmaxpu=1.5,model=8,zipv=[0.5,0,0.5,1,0,0,0],daily=RES1_11,status=variable
new load.3000613512M1 bus1=RML1002951819.1.0,Phases=1,kv=0.127,kW=0.01998,pf=0.92,Vminpu=0.92,Vmaxpu=1.5,model=8,zipv=[0.5,0,0.5,1,0,0,0],daily=RES1_11,status=variable
new load.3000613513M1 bus1=RML1002951924.1.0,Phases=1,kv=0.127,kW=1.09862,pf=0.92,Vminpu=0.92,Vmaxpu=1.5,model=8,zipv=[0.5,0,0.5,1,0,0,0],daily=RES1_11,status=variable
new load.3000613514M1 bus1=RML1002951917.1.0,Phases=1,kv=0.127,kW=1.29836,pf=0.92,Vminpu=0.92,Vmaxpu=1.5,model=8,zipv=[0.5,0,0.5,1,0,0,0],daily=RES1_11,status=variable
new load.3000613515M1 bus1=RML1002951854.1.0,Phases=1,kv=0.127,kW=0.53932,pf=0.92,Vminpu=0.92,Vmaxpu=1.5,model=8,zipv=[0.5,0,0.5,1,0,0,0],daily=RES1_11,status=variable
new load.3000613517M1 bus1=RML1002951994.2.0,Phases=1,kv=0.127,kW=2.46688,pf=0.92,Vminpu=0.92,Vmaxpu=1.5,model=8,zipv=[0.5,0,0.5,1,0,0,0],daily=RES1_11,status=variable
new load.3000613519M1 bus1=RML1002952036.1.0,Phases=1,kv=0.127,kW=2.68662,pf=0.92,Vminpu=0.92,Vmaxpu=1.5,model=8,zipv=[0.5,0,0.5,1,0,0,0],daily=RES1_11,status=variable
new load.3000613521M1 bus1=RML1002952029.1.0,Phases=1,kv=0.127,kW=0.20974,pf=0.92,Vminpu=0.92,Vmaxpu=1.5,model=8,zipv=[0.5,0,0.5,1,0,0,0],daily=RES1_11,status=variable
new load.3000613522M1 bus1=RML1002952022.2.0,Phases=1,kv=0.127,kW=0.99874,pf=0.92,Vminpu=0.92,Vmaxpu=1.5,model=8,zipv=[0.5,0,0.5,1,0,0,0],daily=RES1_11,status=variable
new load.3000613524M1 bus1=RML1002951966.2.0,Phases=1,kv=0.127,kW=0.3895,pf=0.92,Vminpu=0.92,Vmaxpu=1.5,model=8,zipv=[0.5,0,0.5,1,0,0,0],daily=RES1_11,status=variable
new load.3000613525M1 bus1=RML1002951945.2.0,Phases=1,kv=0.127,kW=2.11734,pf=0.92,Vminpu=0.92,Vmaxpu=1.5,model=8,zipv=[0.5,0,0.5,1,0,0,0],daily=RES1_11,status=variable
new load.3000613526M1 bus1=RML1002951959.2.0,Phases=1,kv=0.127,kW=1.88762,pf=0.92,Vminpu=0.92,Vmaxpu=1.5,model=8,zipv=[0.5,0,0.5,1,0,0,0],daily=RES1_11,status=variable
new load.3000613527M1 bus1=RML1002952043.3.0,Phases=1,kv=0.127,kW=0.89886,pf=0.92,Vminpu=0.92,Vmaxpu=1.5,model=8,zipv=[0.5,0,0.5,1,0,0,0],daily=RES1_11,status=variable
new load.3000613548M1 bus1=RML1002952239.2.0,Phases=1,kv=0.127,kW=0.53932,pf=0.92,Vminpu=0.92,Vmaxpu=1.5,model=8,zipv=[0.5,0,0.5,1,0,0,0],daily=RES1_11,status=variable
new load.3000613500M1 bus1=RML1002951812.1.0,Phases=1,kv=0.127,kW=1.07864,pf=0.92,Vminpu=0.92,Vmaxpu=1.5,model=8,zipv=[0.5,0,0.5,1,0,0,0],daily=RES1_11,status=variable
new load.3000613501M1 bus1=RML1003557410.1.0,Phases=1,kv=0.127,kW=1.64792,pf=0.92,Vminpu=0.92,Vmaxpu=1.5,model=8,zipv=[0.5,0,0.5,1,0,0,0],daily=RES1_11,status=variable
new load.IP1225743M1 bus1=BBT1980121.1.2.0,Phases=2,kv=0.22,kW=0.08036,pf=0.92,Vminpu=0.92,Vmaxpu=1.5,model=8,zipv=[0.5,0,0.5,1,0,0,0],daily=IP,status=variable,NumCust=0
new load.IP1225785M1 bus1=BBT1980135.2.3.0,Phases=2,kv=0.22,kW=0.08036,pf=0.92,Vminpu=0.92,Vmaxpu=1.5,model=8,zipv=[0.5,0,0.5,1,0,0,0],daily=IP,status=variable,NumCust=0
new load.IP1225554M1 bus1=BBT1980065.1.3.0,Phases=2,kv=0.22,kW=0.08036,pf=0.92,Vminpu=0.92,Vmaxpu=1.5,model=8,zipv=[0.5,0,0.5,1,0,0,0],daily=IP,status=variable,NumCust=0
new load.IP1225575M1 bus1=BBT1980072.1.3.0,Phases=2,kv=0.22,kW=0.08036,pf=0.92,Vminpu=0.92,Vmaxpu=1.5,model=8,zipv=[0.5,0,0.5,1,0,0,0],daily=IP,status=variable,NumCust=0
new load.IP1225596M1 bus1=BBT1980079.1.2.0,Phases=2,kv=0.22,kW=0.08036,pf=0.92,Vminpu=0.92,Vmaxpu=1.5,model=8,zipv=[0.5,0,0.5,1,0,0,0],daily=IP,status=variable,NumCust=0
new load.IP1225617M1 bus1=BBT1980086.2.3.0,Phases=2,kv=0.22,kW=0.08036,pf=0.92,Vminpu=0.92,Vmaxpu=1.5,model=8,zipv=[0.5,0,0.5,1,0,0,0],daily=IP,status=variable,NumCust=0
new load.IP1225638M1 bus1=BBT1980086.2.3.0,Phases=2,kv=0.22,kW=0.08036,pf=0.92,Vminpu=0.92,Vmaxpu=1.5,model=8,zipv=[0.5,0,0.5,1,0,0,0],daily=IP,status=variable,NumCust=0
new load.IP1225659M1 bus1=BBT1980100.2.3.0,Phases=2,kv=0.22,kW=0.08036,pf=0.92,Vminpu=0.92,Vmaxpu=1.5,model=8,zipv=[0.5,0,0.5,1,0,0,0],daily=IP,status=variable,NumCust=0
new load.IP1225680M1 bus1=BBT1980107.1.2.0,Phases=2,kv=0.22,kW=0.08036,pf=0.92,Vminpu=0.92,Vmaxpu=1.5,model=8,zipv=[0.5,0,0.5,1,0,0,0],daily=IP,status=variable,NumCust=0
new load.IP1225701M1 bus1=BBT1980107.1.2.0,Phases=2,kv=0.22,kW=0.08036,pf=0.92,Vminpu=0.92,Vmaxpu=1.5,model=8,zipv=[0.5,0,0.5,1,0,0,0],daily=IP,status=variable,NumCust=0
new load.3014443061M1 bus1=RML1002951917.1.0,Phases=1,kv=0.127,kW=0.3748,pf=0.92,Vminpu=0.92,Vmaxpu=1.5,model=8,zipv=[0.5,0,0.5,1,0,0,0],daily=RES1_18,status=variable
new load.3014375661M1 bus1=RML1011186124.2.0,Phases=1,kv=0.127,kW=1.35856,pf=0.92,Vminpu=0.92,Vmaxpu=1.5,model=8,zipv=[0.5,0,0.5,1,0,0,0],daily=RES1_15,status=variable
new load.IP1225827M1 bus1=BBT1980156.1.3.0,Phases=2,kv=0.22,kW=0.08036,pf=0.92,Vminpu=0.92,Vmaxpu=1.5,model=8,zipv=[0.5,0,0.5,1,0,0,0],daily=IP,status=variable,NumCust=0
new load.IP1225848M1 bus1=BBT1980163.1.2.0,Phases=2,kv=0.22,kW=0.08036,pf=0.92,Vminpu=0.92,Vmaxpu=1.5,model=8,zipv=[0.5,0,0.5,1,0,0,0],daily=IP,status=variable,NumCust=0
new load.3012407722M1 bus1=RML1010287350.1.0,Phases=1,kv=0.127,kW=0.31092,pf=0.92,Vminpu=0.92,Vmaxpu=1.5,model=8,zipv=[0.5,0,0.5,1,0,0,0],daily=RES1_19,status=variable
new load.3010725207M1 bus1=RML1008247380.1.0,Phases=1,kv=0.127,kW=3.25618,pf=0.92,Vminpu=0.92,Vmaxpu=1.5,model=8,zipv=[0.5,0,0.5,1,0,0,0],daily=RES1_13,status=variable
new load.3011876064M1 bus1=RML1010158223.1.2.3.0,Phases=3,kv=0.22,kW=1.36732,pf=0.92,Vminpu=0.92,Vmaxpu=1.5,model=8,zipv=[0.5,0,0.5,1,0,0,0],daily=SERVP1_6,status=variable
new load.3011521341M1 bus1=RML1009463630.3.0,Phases=1,kv=0.127,kW=1.97096,pf=0.92,Vminpu=0.92,Vmaxpu=1.5,model=8,zipv=[0.5,0,0.5,1,0,0,0],daily=RES1_2,status=variable
new load.3013482083M1 bus1=RML1010787139.1.2.3.0,Phases=3,kv=0.22,kW=0.56954,pf=0.92,Vminpu=0.92,Vmaxpu=1.5,model=8,zipv=[0.5,0,0.5,1,0,0,0],daily=COM1_17,status=variable
new load.3013888636M1 bus1=RML1010962406.2.0,Phases=1,kv=0.127,kW=0.3205,pf=0.92,Vminpu=0.92,Vmaxpu=1.5,model=8,zipv=[0.5,0,0.5,1,0,0,0],daily=RES1_23,status=variable
new load.IP1238385M1 bus1=BBT135476315.1.2.0,Phases=2,kv=0.22,kW=0.08036,pf=0.92,Vminpu=0.92,Vmaxpu=1.5,model=8,zipv=[0.5,0,0.5,1,0,0,0],daily=IP,status=variable,NumCust=0
new load.IP1238343M1 bus1=BBT1988437.2.3.0,Phases=2,kv=0.22,kW=0.08036,pf=0.92,Vminpu=0.92,Vmaxpu=1.5,model=8,zipv=[0.5,0,0.5,1,0,0,0],daily=IP,status=variable,NumCust=0
new load.IP1887033M1 bus1=BBT1988451.1.3.0,Phases=2,kv=0.22,kW=0.08036,pf=0.92,Vminpu=0.92,Vmaxpu=1.5,model=8,zipv=[0.5,0,0.5,1,0,0,0],daily=IP,status=variable,NumCust=0
new load.3003778910M1 bus1=RML1002967387.2.0,Phases=1,kv=0.127,kW=0.70594,pf=0.92,Vminpu=0.92,Vmaxpu=1.5,model=8,zipv=[0.5,0,0.5,1,0,0,0],daily=RES1_7,status=variable
new load.3003752344M1 bus1=RML1002967324.1.2.3.0,Phases=3,kv=0.22,kW=2.18296,pf=0.92,Vminpu=0.92,Vmaxpu=1.5,model=8,zipv=[0.5,0,0.5,1,0,0,0],daily=RES1_6,status=variable
new load.3001869083M1 bus1=RML1002967394.3.0,Phases=1,kv=0.127,kW=0.38022,pf=0.92,Vminpu=0.92,Vmaxpu=1.5,model=8,zipv=[0.5,0,0.5,1,0,0,0],daily=RES1_16,status=variable
new load.3004071366M1 bus1=RML1002967366.3.0,Phases=1,kv=0.127,kW=2.10176,pf=0.92,Vminpu=0.92,Vmaxpu=1.5,model=8,zipv=[0.5,0,0.5,1,0,0,0],daily=RES1_16,status=variable
new load.3003921101M1 bus1=RML1002967380.1.0,Phases=1,kv=0.127,kW=0.53932,pf=0.92,Vminpu=0.92,Vmaxpu=1.5,model=8,zipv=[0.5,0,0.5,1,0,0,0],daily=RES1_11,status=variable
new load.3004000812M1 bus1=RML1002967359.1.0,Phases=1,kv=0.127,kW=1.90932,pf=0.92,Vminpu=0.92,Vmaxpu=1.5,model=8,zipv=[0.5,0,0.5,1,0,0,0],daily=RES1_14,status=variable
new load.3005007275M1 bus1=RML1002967331.1.2.3.0,Phases=3,kv=0.22,kW=0.92882,pf=0.92,Vminpu=0.92,Vmaxpu=1.5,model=8,zipv=[0.5,0,0.5,1,0,0,0],daily=RES1_11,status=variable
new load.3004651147M1 bus1=RML1002967310.2.0,Phases=1,kv=0.127,kW=1.40844,pf=0.92,Vminpu=0.92,Vmaxpu=1.5,model=8,zipv=[0.5,0,0.5,1,0,0,0],daily=RES1_3,status=variable
new load.3006386211M1 bus1=RML1003278866.3.0,Phases=1,kv=0.127,kW=0.641,pf=0.92,Vminpu=0.92,Vmaxpu=1.5,model=8,zipv=[0.5,0,0.5,1,0,0,0],daily=RES1_23,status=variable
new load.3006465631M1 bus1=RML1003329490.1.2.3.0,Phases=3,kv=0.22,kW=1.29198,pf=0.92,Vminpu=0.92,Vmaxpu=1.5,model=8,zipv=[0.5,0,0.5,1,0,0,0],daily=RES1_26,status=variable
new load.3006651174M1 bus1=RML1003426321.1.2.3.0,Phases=3,kv=0.22,kW=0.44494,pf=0.92,Vminpu=0.92,Vmaxpu=1.5,model=8,zipv=[0.5,0,0.5,1,0,0,0],daily=COM1_5,status=variable
new load.3006762219M1 bus1=RML1002992566.1.2.3.0,Phases=3,kv=0.22,kW=1.1588,pf=0.92,Vminpu=0.92,Vmaxpu=1.5,model=8,zipv=[0.5,0,0.5,1,0,0,0],daily=RES1_4,status=variable
new load.3006805095M1 bus1=RML1003534072.2.0,Phases=1,kv=0.127,kW=2.99624,pf=0.92,Vminpu=0.92,Vmaxpu=1.5,model=8,zipv=[0.5,0,0.5,1,0,0,0],daily=RES1_5,status=variable
new load.3007078484M1 bus1=RML1003426321.1.2.3.0,Phases=3,kv=0.22,kW=2.46674,pf=0.92,Vminpu=0.92,Vmaxpu=1.5,model=8,zipv=[0.5,0,0.5,1,0,0,0],daily=IND1_11,status=variable
new load.3007415938M1 bus1=RML1003329490.1.2.3.0,Phases=3,kv=0.22,kW=4.3125,pf=0.92,Vminpu=0.92,Vmaxpu=1.5,model=8,zipv=[0.5,0,0.5,1,0,0,0],daily=COM1_20,status=variable
new load.3010348980M1 bus1=RML1010279682.1.2.3.0,Phases=3,kv=0.22,kW=39.53108,pf=0.92,Vminpu=0.92,Vmaxpu=1.5,model=8,zipv=[0.5,0,0.5,1,0,0,0],daily=COM1_10,status=variable
new load.3010039905M1 bus1=RML1008142044.1.2.3.0,Phases=3,kv=0.22,kW=2.70314,pf=0.92,Vminpu=0.92,Vmaxpu=1.5,model=8,zipv=[0.5,0,0.5,1,0,0,0],daily=COM1_4,status=variable
new load.3005987563M1 bus1=RML1002727203.1.2.0,Phases=2,kv=0.22,kW=9.41778,pf=0.92,Vminpu=0.92,Vmaxpu=1.5,model=8,zipv=[0.5,0,0.5,1,0,0,0],daily=RES1_10,status=variable
new load.3006056495M1 bus1=RML1002992566.1.2.3.0,Phases=3,kv=0.22,kW=0.32772,pf=0.92,Vminpu=0.92,Vmaxpu=1.5,model=8,zipv=[0.5,0,0.5,1,0,0,0],daily=RES1_12,status=variable
new load.3005866161M1 bus1=RML1002992566.1.2.3.0,Phases=3,kv=0.22,kW=1.5258,pf=0.92,Vminpu=0.92,Vmaxpu=1.5,model=8,zipv=[0.5,0,0.5,1,0,0,0],daily=COM1_10,status=variable
new load.3005094529M1 bus1=RML1003558579.2.0,Phases=1,kv=0.127,kW=1.12824,pf=0.92,Vminpu=0.92,Vmaxpu=1.5,model=8,zipv=[0.5,0,0.5,1,0,0,0],daily=RES1_14,status=variable
new load.3005294264M1 bus1=RML1002727203.1.2.0,Phases=2,kv=0.22,kW=4.11768,pf=0.92,Vminpu=0.92,Vmaxpu=1.5,model=8,zipv=[0.5,0,0.5,1,0,0,0],daily=COM1_21,status=variable
new load.3003492376M1 bus1=RML1002726937.2.0,Phases=1,kv=0.127,kW=0.77466,pf=0.92,Vminpu=0.92,Vmaxpu=1.5,model=8,zipv=[0.5,0,0.5,1,0,0,0],daily=RES1_2,status=variable
new load.IP1080577M1 bus1=BBT1862437.2.3.0,Phases=2,kv=0.22,kW=0.08036,pf=0.92,Vminpu=0.92,Vmaxpu=1.5,model=8,zipv=[0.5,0,0.5,1,0,0,0],daily=IP,status=variable,NumCust=0
new load.IP1080430M1 bus1=BBT1862353.2.3.0,Phases=2,kv=0.22,kW=0.08036,pf=0.92,Vminpu=0.92,Vmaxpu=1.5,model=8,zipv=[0.5,0,0.5,1,0,0,0],daily=IP,status=variable,NumCust=0
new load.3013377994M1 bus1=RML1010858136.1.0,Phases=1,kv=0.127,kW=1.22846,pf=0.92,Vminpu=0.92,Vmaxpu=1.5,model=8,zipv=[0.5,0,0.5,1,0,0,0],daily=RES1_11,status=variable
new load.3013025749M1 bus1=RML1010564354.1.2.0,Phases=2,kv=0.22,kW=3.16286,pf=0.92,Vminpu=0.92,Vmaxpu=1.5,model=8,zipv=[0.5,0,0.5,1,0,0,0],daily=RES1_4,status=variable
new load.3012690161M1 bus1=RML1010414464.1.2.0,Phases=2,kv=0.22,kW=0.73476,pf=0.92,Vminpu=0.92,Vmaxpu=1.5,model=8,zipv=[0.5,0,0.5,1,0,0,0],daily=RES1_1,status=variable
new load.3012304502M1 bus1=RML1010235413.2.0,Phases=1,kv=0.127,kW=0.53372,pf=0.92,Vminpu=0.92,Vmaxpu=1.5,model=8,zipv=[0.5,0,0.5,1,0,0,0],daily=RES1_18,status=variable
new load.3012304736M1 bus1=RML1010235420.1.0,Phases=1,kv=0.127,kW=0.3778,pf=0.92,Vminpu=0.92,Vmaxpu=1.5,model=8,zipv=[0.5,0,0.5,1,0,0,0],daily=RES1_18,status=variable
new load.3012304779M1 bus1=RML1010235417.3.0,Phases=1,kv=0.127,kW=1.1574,pf=0.92,Vminpu=0.92,Vmaxpu=1.5,model=8,zipv=[0.5,0,0.5,1,0,0,0],daily=RES1_18,status=variable
new load.3012304781M1 bus1=RML1010235410.1.0,Phases=1,kv=0.127,kW=0.9535,pf=0.92,Vminpu=0.92,Vmaxpu=1.5,model=8,zipv=[0.5,0,0.5,1,0,0,0],daily=RES1_18,status=variable
new load.3012304834M1 bus1=RML1010235415.3.0,Phases=1,kv=0.127,kW=0.21888,pf=0.92,Vminpu=0.92,Vmaxpu=1.5,model=8,zipv=[0.5,0,0.5,1,0,0,0],daily=RES1_18,status=variable
new load.3011900642M1 bus1=RML1010235407.1.0,Phases=1,kv=0.127,kW=0.03404,pf=0.92,Vminpu=0.92,Vmaxpu=1.5,model=8,zipv=[0.5,0,0.5,1,0,0,0],daily=COM1_12,status=variable
new load.3011125806M1 bus1=RML1008995617.3.0,Phases=1,kv=0.127,kW=1.2179,pf=0.92,Vminpu=0.92,Vmaxpu=1.5,model=8,zipv=[0.5,0,0.5,1,0,0,0],daily=RES1_23,status=variable
new load.3011474830M1 bus1=RML1010131843.1.2.0,Phases=2,kv=0.22,kW=0.1569,pf=0.92,Vminpu=0.92,Vmaxpu=1.5,model=8,zipv=[0.5,0,0.5,1,0,0,0],daily=RES1_2,status=variable
new load.3012288478M1 bus1=RML1010382959.1.2.3.0,Phases=3,kv=0.22,kW=0.9755,pf=0.92,Vminpu=0.92,Vmaxpu=1.5,model=8,zipv=[0.5,0,0.5,1,0,0,0],daily=SERVP1_21,status=variable
new load.3012438365M1 bus1=RML1010403685.1.2.3.0,Phases=3,kv=0.22,kW=1.31546,pf=0.92,Vminpu=0.92,Vmaxpu=1.5,model=8,zipv=[0.5,0,0.5,1,0,0,0],daily=SERVP1_24,status=variable
new load.3007538889M1 bus1=RML154163874.1.2.3.0,Phases=3,kv=0.22,kW=0.90852,pf=0.92,Vminpu=0.92,Vmaxpu=1.5,model=8,zipv=[0.5,0,0.5,1,0,0,0],daily=RES1_18,status=variable