new line.RML10158042 bus1=BBT1980513.1.2.0,bus2=RML1010158042.1.2.0,Phases=2,Linecode=CABBTG05_4_2,Length=0.029000000,Units=km
new line.RML10158051 bus1=BBT1979736.1.2.0,bus2=RML1010158051.1.2.0,Phases=2,Linecode=CABBTG05_4_2,Length=0.029000000,Units=km
new line.RML10158217 bus1=BBT4021615.2.0,bus2=RML1010158217.2.0,Phases=1,Linecode=CABBTG01_4_1,Length=0.029000000,Units=km
new line.RML10158223 bus1=BBT1980093.1.2.3.0,bus2=RML1010158223.1.2.3.0,Phases=3,Linecode=CABBTG06_4_3,Length=0.029000000,Units=km
new line.RML10158224 bus1=BBT2512282.1.0,bus2=RML1010158224.1.0,Phases=1,Linecode=CABBTG01_4_1,Length=0.029000000,Units=km
new line.RML10158229 bus1=BBT1871614.1.0,bus2=RML1010158229.1.0,Phases=1,Linecode=CABBTG02_4_1,Length=0.029000000,Units=km
new line.RML10158243 bus1=BBT2410299.1.0,bus2=RML1010158243.1.0,Phases=1,Linecode=CABBTG02_4_1,Length=0.029000000,Units=km
new line.RML10158251 bus1=BBT1871600.1.0,bus2=RML1010158251.1.0,Phases=1,Linecode=CABBTG01_4_1,Length=0.029000000,Units=km
new line.RML10179262 bus1=BBT1982228.1.2.0,bus2=RML1010179262.1.2.0,Phases=2,Linecode=CABBTG05_4_2,Length=0.029000000,Units=km
new line.RML10179548 bus1=BBT3183519.1.2.0,bus2=RML1010179548.1.2.0,Phases=2,Linecode=CABBTG13_4_2,Length=0.017000000,Units=km
new line.RML10200814 bus1=BBT1983418.3.0,bus2=RML1010200814.3.0,Phases=1,Linecode=CABBTG01_4_1,Length=0.029000000,Units=km
new line.RML10200820 bus1=BBT1983439.2.3.0,bus2=RML1010200820.2.3.0,Phases=2,Linecode=CABBTG05_4_2,Length=0.029000000,Units=km
new line.RML10200855 bus1=BBT1983446.2.0,bus2=RML1010200855.2.0,Phases=1,Linecode=CABBTG01_4_1,Length=0.029000000,Units=km
new line.RML10200871 bus1=BBT1982067.1.2.3.0,bus2=RML1010200871.1.2.3.0,Phases=3,Linecode=CABBTG07_4_3,Length=0.029000000,Units=km
new line.RML10201087 bus1=BBT1979687.1.2.0,bus2=RML1010201087.1.2.0,Phases=2,Linecode=CABBTG05_4_2,Length=0.029000000,Units=km
new line.RML10201093 bus1=BBT1979687.1.2.0,bus2=RML1010201093.1.2.0,Phases=2,Linecode=CABBTG05_4_2,Length=0.029000000,Units=km
new line.RML10201250 bus1=BBT3884548.2.3.0,bus2=RML1010201250.2.3.0,Phases=2,Linecode=CABBTG05_4_2,Length=0.029000000,Units=km
new line.RML10201265 bus1=BBT1981717.1.0,bus2=RML1010201265.1.0,Phases=1,Linecode=CABBTG01_4_1,Length=0.017000000,Units=km
new line.RML10201274 bus1=BBT1980709.1.2.0,bus2=RML1010201274.1.2.0,Phases=2,Linecode=CABBTG05_4_2,Length=0.029000000,Units=km
new line.RML10201287 bus1=BBT1835284.1.2.0,bus2=RML1010201287.1.2.0,Phases=2,Linecode=CABBTG05_4_2,Length=0.029000000,Units=km
new line.RML10201303 bus1=BBT1982928.1.2.0,bus2=RML1010201303.1.2.0,Phases=2,Linecode=CABBTG05_4_2,Length=0.029000000,Units=km
new line.RML10201346 bus1=BBT31601495.1.0,bus2=RML1010201346.1.0,Phases=1,Linecode=CABBTG01_4_1,Length=0.029000000,Units=km
new line.RML10201351 bus1=BBT31601495.1.2.0,bus2=RML1010201351.1.2.0,Phases=2,Linecode=CABBTG05_4_2,Length=0.029000000,Units=km
new line.RML10201356 bus1=BBT120062833.2.3.0,bus2=RML1010201356.2.3.0,Phases=2,Linecode=CABBTG05_4_2,Length=0.029000000,Units=km
new line.RML10201360 bus1=BBT1982655.2.3.0,bus2=RML1010201360.2.3.0,Phases=2,Linecode=CABBTG05_4_2,Length=0.029000000,Units=km
new line.RML10201416 bus1=BBT1982235.1.0,bus2=RML1010201416.1.0,Phases=1,Linecode=CABBTG01_4_1,Length=0.029000000,Units=km
new line.RML10201421 bus1=BBT1982235.1.2.0,bus2=RML1010201421.1.2.0,Phases=2,Linecode=CABBTG05_4_2,Length=0.029000000,Units=km
new line.RML10201437 bus1=BBT2288072.1.0,bus2=RML1010201437.1.0,Phases=1,Linecode=CABBTG01_4_1,Length=0.029000000,Units=km
new line.RML10201442 bus1=BBT123437967.1.2.0,bus2=RML1010201442.1.2.0,Phases=2,Linecode=CABBTG05_4_2,Length=0.029000000,Units=km
new line.RML10201459 bus1=BBT1987849.1.2.0,bus2=RML1010201459.1.2.0,Phases=2,Linecode=CABBTG05_4_2,Length=0.017000000,Units=km
new line.RML10201468 bus1=BBT1987912.1.2.0,bus2=RML1010201468.1.2.0,Phases=2,Linecode=CABBTG05_4_2,Length=0.017000000,Units=km
new line.RML10202265 bus1=BBT1981493.1.2.3.0,bus2=RML1010202265.1.2.3.0,Phases=3,Linecode=CABBTG06_4_3,Length=0.029000000,Units=km
new line.RML10227991 bus1=BBT1982963.1.3.0,bus2=RML1010227991.1.3.0,Phases=2,Linecode=CABBTG05_4_2,Length=0.029000000,Units=km
new line.RML10279682 bus1=BBT2512296.1.2.3.0,bus2=RML1010279682.1.2.3.0,Phases=3,Linecode=CABBTG10_4_3,Length=0.029000000,Units=km
new line.RML10279685 bus1=BBT93597240.1.0,bus2=RML1010279685.1.0,Phases=1,Linecode=CABBTG01_4_1,Length=0.029000000,Units=km
new line.RML10279697 bus1=BBT1988430.1.2.3.0,bus2=RML1010279697.1.2.3.0,Phases=3,Linecode=CABBTG06_4_3,Length=0.029000000,Units=km
new line.RML10279702 bus1=BBT94352498.1.2.3.0,bus2=RML1010279702.1.2.3.0,Phases=3,Linecode=CABBTG06_4_3,Length=0.017000000,Units=km
new line.RML10279704 bus1=BBT1990565.1.0,bus2=RML1010279704.1.0,Phases=1,Linecode=CABBTG02_4_1,Length=0.029000000,Units=km
new line.RML10279705 bus1=BBT1990537.2.3.0,bus2=RML1010279705.2.3.0,Phases=2,Linecode=CABBTG04_4_2,Length=0.029000000,Units=km
new line.RML10279712 bus1=BBT59909663.1.0,bus2=RML1010279712.1.0,Phases=1,Linecode=CABBTG01_4_1,Length=0.017000000,Units=km
new line.RML10279715 bus1=BBT50935369.1.2.0,bus2=RML1010279715.1.2.0,Phases=2,Linecode=CABBTG05_4_2,Length=0.029000000,Units=km
new line.RML10279717 bus1=BBT130418668.1.0,bus2=RML1010279717.1.0,Phases=1,Linecode=CABBTG02_4_1,Length=0.029000000,Units=km
new line.RML10279720 bus1=BBT3771071.2.0,bus2=RML1010279720.2.0,Phases=1,Linecode=CABBTG02_4_1,Length=0.029000000,Units=km
new line.RML10279721 bus1=BBT1835319.3.0,bus2=RML1010279721.3.0,Phases=1,Linecode=CABBTG02_4_1,Length=0.029000000,Units=km
new line.RML10279726 bus1=BBT1835319.1.2.0,bus2=RML1010279726.1.2.0,Phases=2,Linecode=CABBTG05_4_2,Length=0.029000000,Units=km
new line.RML10279728 bus1=BBT90047134.2.3.0,bus2=RML1010279728.2.3.0,Phases=2,Linecode=CABBTG05_4_2,Length=0.029000000,Units=km
new line.RML10279729 bus1=BBT2288079.1.2.0,bus2=RML1010279729.1.2.0,Phases=2,Linecode=CABBTG04_4_2,Length=0.029000000,Units=km
new line.RML10279736 bus1=BBT130418668.1.0,bus2=RML1010279736.1.0,Phases=1,Linecode=CABBTG01_4_1,Length=0.029000000,Units=km
new line.RML10279737 bus1=BBT1871621.1.0,bus2=RML1010279737.1.0,Phases=1,Linecode=CABBTG02_4_1,Length=0.029000000,Units=km
new line.RML10279738 bus1=BBT2288296.1.0,bus2=RML1010279738.1.0,Phases=1,Linecode=CABBTG01_4_1,Length=0.029000000,Units=km
new line.RML10279741 bus1=BBT1871677.1.0,bus2=RML1010279741.1.0,Phases=1,Linecode=CABBTG02_4_1,Length=0.029000000,Units=km
new line.RML10279757 bus1=BBT2287330.2.0,bus2=RML1010279757.2.0,Phases=1,Linecode=CABBTG01_4_1,Length=0.029000000,Units=km
new line.RML10279759 bus1=BBT2542319.3.0,bus2=RML1010279759.3.0,Phases=1,Linecode=CABBTG01_4_1,Length=0.029000000,Units=km
new line.RML10280287 bus1=BBT1980170.1.0,bus2=RML1010280287.1.0,Phases=1,Linecode=CABBTG02_4_1,Length=0.029000000,Units=km
new line.RML10280292 bus1=BBT1836663.1.2.0,bus2=RML1010280292.1.2.0,Phases=2,Linecode=CABBTG05_4_2,Length=0.029000000,Units=km
new line.RML10280302 bus1=BBT2571677.3.0,bus2=RML1010280302.3.0,Phases=1,Linecode=CABBTG01_4_1,Length=0.029000000,Units=km
new line.RML10280306 bus1=BBT2410348.1.0,bus2=RML1010280306.1.0,Phases=1,Linecode=CABBTG01_4_1,Length=0.029000000,Units=km
new line.RML10280310 bus1=BBT59909656.1.2.0,bus2=RML1010280310.1.2.0,Phases=2,Linecode=CABBTG05_4_2,Length=0.017000000,Units=km
new line.RML10280312 bus1=BBT2512191.1.2.0,bus2=RML1010280312.1.2.0,Phases=2,Linecode=CABBTG05_4_2,Length=0.029000000,Units=km
new line.RML10280317 bus1=BBT1871649.1.0,bus2=RML1010280317.1.0,Phases=1,Linecode=CABBTG02_4_1,Length=0.029000000,Units=km
new line.RML10280328 bus1=BBT1981430.2.0,bus2=RML1010280328.2.0,Phases=1,Linecode=CABBTG02_4_1,Length=0.029000000,Units=km
new line.RML10280368 bus1=BBT1979673.2.0,bus2=RML1010280368.2.0,Phases=1,Linecode=CABBTG02_4_1,Length=0.029000000,Units=km
new line.RML10280371 bus1=BBT177831486.1.2.0,bus2=RML1010280371.1.2.0,Phases=2,Linecode=CABBTG05_4_2,Length=0.017000000,Units=km
new line.RML10280380 bus1=BBT1984265.1.2.0,bus2=RML1010280380.1.2.0,Phases=2,Linecode=CABBTG05_4_2,Length=0.017000000,Units=km
new line.RML10280382 bus1=BBT1984251.1.3.0,bus2=RML1010280382.1.3.0,Phases=2,Linecode=CABBTG05_4_2,Length=0.017000000,Units=km
new line.RML10299399 bus1=BBT1862332.1.2.0,bus2=RML1010299399.1.2.0,Phases=2,Linecode=CABBTG05_4_2,Length=0.029000000,Units=km
new line.RML10299546 bus1=BBT169345408.1.3.0,bus2=RML1010299546.1.3.0,Phases=2,Linecode=CABBTG05_4_2,Length=0.029000000,Units=km
new line.RML10299656 bus1=BBT36293056.1.2.0,bus2=RML1010299656.1.2.0,Phases=2,Linecode=CABBTG05_4_2,Length=0.017000000,Units=km
new line.RML10299692 bus1=BBT1982648.1.2.3.0,bus2=RML1010299692.1.2.3.0,Phases=3,Linecode=CABBTG06_4_3,Length=0.029000000,Units=km
new line.RML10299793 bus1=BBT169345408.2.0,bus2=RML1010299793.2.0,Phases=1,Linecode=CABBTG02_4_1,Length=0.029000000,Units=km
new line.RML10302141 bus1=BBT103872505.1.2.0,bus2=RML1010302141.1.2.0,Phases=2,Linecode=CABBTG05_4_2,Length=0.029000000,Units=km
new line.RML10324781 bus1=BBT1980506.1.3.0,bus2=RML1010324781.1.3.0,Phases=2,Linecode=CABBTG05_4_2,Length=0.029000000,Units=km
new line.RML10324784 bus1=BBT1989907.1.2.0,bus2=RML1010324784.1.2.0,Phases=2,Linecode=CABBTG05_4_2,Length=0.029000000,Units=km
new line.RML10343243 bus1=BBT1989914.1.2.0,bus2=RML1010343243.1.2.0,Phases=2,Linecode=CABBTG05_4_2,Length=0.029000000,Units=km
new line.RML10097609 bus1=BBT2639598.2.0,bus2=RML1010097609.2.0,Phases=1,Linecode=CABBTG01_4_1,Length=0.017000000,Units=km
new line.RML10097678 bus1=BBT2013476.1.2.0,bus2=RML1010097678.1.2.0,Phases=2,Linecode=CABBTG05_4_2,Length=0.017000000,Units=km
new line.RML10162351 bus1=BBT1979743.1.2.0,bus2=RML1010162351.1.2.0,Phases=2,Linecode=CABBTG13_4_2,Length=0.016000000,Units=km
new line.RML10162353 bus1=BBT1981129.1.2.0,bus2=RML1010162353.1.2.0,Phases=2,Linecode=CABBTG05_4_2,Length=0.029000000,Units=km
new line.RML10162357 bus1=BBT2844481.1.2.0,bus2=RML1010162357.1.2.0,Phases=2,Linecode=CABBTG05_4_2,Length=0.029000000,Units=km
new line.RML10162359 bus1=BBT1979687.1.2.0,bus2=RML1010162359.1.2.0,Phases=2,Linecode=CABBTG05_4_2,Length=0.029000000,Units=km
new line.RML10192820 bus1=BBT1990691.1.0,bus2=RML1010192820.1.0,Phases=1,Linecode=CABBTG02_4_1,Length=0.029000000,Units=km
new line.RML10192822 bus1=BBT1990257.1.2.0,bus2=RML1010192822.1.2.0,Phases=2,Linecode=CABBTG05_4_2,Length=0.029000000,Units=km
new line.RML10192826 bus1=BBT130868579.1.0,bus2=RML1010192826.1.0,Phases=1,Linecode=CABBTG02_4_1,Length=0.017000000,Units=km
new line.RML10233351 bus1=BBT3386484.1.2.0,bus2=RML1010233351.1.2.0,Phases=2,Linecode=CABBTG05_4_2,Length=0.029000000,Units=km
new line.RML10233516 bus1=BBT44652036.1.2.0,bus2=RML1010233516.1.2.0,Phases=2,Linecode=CABBTG05_4_2,Length=0.029000000,Units=km
new line.RML10233611 bus1=BBT2512219.2.0,bus2=RML1010233611.2.0,Phases=1,Linecode=CABBTG02_4_1,Length=0.029000000,Units=km
new line.RML10234388 bus1=BBT103872505.2.0,bus2=RML1010234388.2.0,Phases=1,Linecode=CABBTG02_4_1,Length=0.029000000,Units=km
new line.RML10234592 bus1=BBT1980856.1.2.3.0,bus2=RML1010234592.1.2.3.0,Phases=3,Linecode=CABBT815_4_3,Length=0.029000000,Units=km
new line.RML10235407 bus1=BBT150612865.1.0,bus2=RML1010235407.1.0,Phases=1,Linecode=CABBTG02_4_1,Length=0.029000000,Units=km
new line.RML10235410 bus1=BBT150612865.1.0,bus2=RML1010235410.1.0,Phases=1,Linecode=CABBTG02_4_1,Length=0.029000000,Units=km
new line.RML10235413 bus1=BBT150612864.2.0,bus2=RML1010235413.2.0,Phases=1,Linecode=CABBTG02_4_1,Length=0.029000000,Units=km
new line.RML10235415 bus1=BBT150612865.3.0,bus2=RML1010235415.3.0,Phases=1,Linecode=CABBTG02_4_1,Length=0.029000000,Units=km
new line.RML10235417 bus1=BBT150612864.3.0,bus2=RML1010235417.3.0,Phases=1,Linecode=CABBTG02_4_1,Length=0.029000000,Units=km
new line.RML10235420 bus1=BBT150612864.1.0,bus2=RML1010235420.1.0,Phases=1,Linecode=CABBTG02_4_1,Length=0.029000000,Units=km
new line.RML10280513 bus1=BBT3754236.1.2.0,bus2=RML1010280513.1.2.0,Phases=2,Linecode=CABBTG05_4_2,Length=0.029000000,Units=km
new line.RML10280520 bus1=BBT1980534.1.0,bus2=RML1010280520.1.0,Phases=1,Linecode=CABBTG02_4_1,Length=0.029000000,Units=km
new line.RML10280526 bus1=BBT4220926.1.0,bus2=RML1010280526.1.0,Phases=1,Linecode=CABBTG01_4_1,Length=0.029000000,Units=km
new line.RML10280530 bus1=BBT4220926.1.2.3.0,bus2=RML1010280530.1.2.3.0,Phases=3,Linecode=CABBTG06_4_3,Length=0.029000000,Units=km
new line.RML10280533 bus1=BBT4220926.1.0,bus2=RML1010280533.1.0,Phases=1,Linecode=CABBTG01_4_1,Length=0.029000000,Units=km
new line.RML10280536 bus1=BBT1983376.1.3.0,bus2=RML1010280536.1.3.0,Phases=2,Linecode=CABBTG05_4_2,Length=0.029000000,Units=km
new line.RML10309572 bus1=BBT152156630.1.2.3.0,bus2=RML1010309572.1.2.3.0,Phases=3,Linecode=CABBTG06_4_3,Length=0.017000000,Units=km
new line.RML10330272 bus1=BBT27135950.1.2.0,bus2=RML1010330272.1.2.0,Phases=2,Linecode=CABBTG04_4_2,Length=0.029000000,Units=km
new line.RML10331705 bus1=BBT152414360.1.0,bus2=RML1010331705.1.0,Phases=1,Linecode=CABBTG02_4_1,Length=0.029000000,Units=km
new line.RML10344239 bus1=BBT2287421.2.3.0,bus2=RML1010344239.2.3.0,Phases=2,Linecode=CABBTG05_4_2,Length=0.029000000,Units=km
new line.RML10344357 bus1=BBT90047134.1.3.0,bus2=RML1010344357.1.3.0,Phases=2,Linecode=CABBTG05_4_2,Length=0.029000000,Units=km
new line.RML10345406 bus1=BBT3183519.1.2.0,bus2=RML1010345406.1.2.0,Phases=2,Linecode=CABBTG05_4_2,Length=0.017000000,Units=km
new line.RML10346375 bus1=BBT1980793.2.0,bus2=RML1010346375.2.0,Phases=1,Linecode=CABBTG02_4_1,Length=0.029000000,Units=km
new line.RML10346380 bus1=BBT1990264.1.2.0,bus2=RML1010346380.1.2.0,Phases=2,Linecode=CABBTG05_4_2,Length=0.029000000,Units=km
new line.RML10347370 bus1=BBT2287421.2.3.0,bus2=RML1010347370.2.3.0,Phases=2,Linecode=CABBTG05_4_2,Length=0.029000000,Units=km
new line.RML10382959 bus1=BBT151637731.1.2.3.0,bus2=RML1010382959.1.2.3.0,Phases=3,Linecode=CABBTG07_4_3,Length=0.017000000,Units=km
new line.RML10383984 bus1=BBT2844579.1.3.0,bus2=RML1010383984.1.3.0,Phases=2,Linecode=CABBTG05_4_2,Length=0.029000000,Units=km
new line.RML10158254 bus1=BBT2410299.2.0,bus2=RML1010158254.2.0,Phases=1,Linecode=CABBTG02_4_1,Length=0.029000000,Units=km
new line.RML10158259 bus1=BBT2410264.2.0,bus2=RML1010158259.2.0,Phases=1,Linecode=CABBTG02_4_1,Length=0.029000000,Units=km
new line.RML10158265 bus1=BBT2410243.1.0,bus2=RML1010158265.1.0,Phases=1,Linecode=CABBTG01_4_1,Length=0.029000000,Units=km
new line.RML10158276 bus1=BBT2287330.2.0,bus2=RML1010158276.2.0,Phases=1,Linecode=CABBTG01_4_1,Length=0.029000000,Units=km
new line.RML10158283 bus1=BBT2287344.1.0,bus2=RML1010158283.1.0,Phases=1,Linecode=CABBTG01_4_1,Length=0.029000000,Units=km
new line.RML10158287 bus1=BBT2287344.3.0,bus2=RML1010158287.3.0,Phases=1,Linecode=CABBTG02_4_1,Length=0.029000000,Units=km
new line.RML10158290 bus1=BBT2714155.1.0,bus2=RML1010158290.1.0,Phases=1,Linecode=CABBTG02_4_1,Length=0.029000000,Units=km
new line.RML10158326 bus1=BBT2512212.2.0,bus2=RML1010158326.2.0,Phases=1,Linecode=CABBTG02_4_1,Length=0.029000000,Units=km
new line.RML10158330 bus1=BBT1981367.1.0,bus2=RML1010158330.1.0,Phases=1,Linecode=CABBTG01_4_1,Length=0.029000000,Units=km
new line.RML10181070 bus1=BBT1987856.2.0,bus2=RML1010181070.2.0,Phases=1,Linecode=CABBTG02_4_1,Length=0.017000000,Units=km
new line.RML10181430 bus1=BBT1989368.1.0,bus2=RML1010181430.1.0,Phases=1,Linecode=CABBTG02_4_1,Length=0.029000000,Units=km
new line.RML10181433 bus1=BBT1982340.2.0,bus2=RML1010181433.2.0,Phases=1,Linecode=CABBTG01_4_1,Length=0.029000000,Units=km
new line.RML10181436 bus1=BBT1982200.2.0,bus2=RML1010181436.2.0,Phases=1,Linecode=CABBTG01_4_1,Length=0.029000000,Units=km
new line.RML10229573 bus1=BBT27135950.1.0,bus2=RML1010229573.1.0,Phases=1,Linecode=CABBTG02_4_1,Length=0.029000000,Units=km
new line.RML10230681 bus1=BBT1835270.1.2.0,bus2=RML1010230681.1.2.0,Phases=2,Linecode=CABBTG05_4_2,Length=0.029000000,Units=km
new line.RML10260197 bus1=BBT123437967.2.0,bus2=RML1010260197.2.0,Phases=1,Linecode=CABBTG02_4_1,Length=0.029000000,Units=km
new line.RML10260276 bus1=BBT1980597.1.3.0,bus2=RML1010260276.1.3.0,Phases=2,Linecode=CABBTG05_4_2,Length=0.029000000,Units=km
new line.RML10295798 bus1=BBT1982445.1.2.3.0,bus2=RML1010295798.1.2.3.0,Phases=3,Linecode=CABBT810_4_3,Length=0.029000000,Units=km
new line.RML10295805 bus1=BBT1982459.1.2.0,bus2=RML1010295805.1.2.0,Phases=2,Linecode=CABBT814_4_2,Length=0.029000000,Units=km
new line.RML10295810 bus1=BBT3884548.2.3.0,bus2=RML1010295810.2.3.0,Phases=2,Linecode=CABBTG05_4_2,Length=0.029000000,Units=km
new line.RML10320278 bus1=BBT1983558.2.3.0,bus2=RML1010320278.2.3.0,Phases=2,Linecode=CABBT814_4_2,Length=0.029000000,Units=km
new line.RML10320282 bus1=BBT1982634.2.3.0,bus2=RML1010320282.2.3.0,Phases=2,Linecode=CABBTG05_4_2,Length=0.029000000,Units=km
new line.RML10320285 bus1=BBT1989690.3.0,bus2=RML1010320285.3.0,Phases=1,Linecode=CABBTG02_4_1,Length=0.029000000,Units=km
new line.RML10320293 bus1=BBT1989347.1.0,bus2=RML1010320293.1.0,Phases=1,Linecode=CABBTG02_4_1,Length=0.029000000,Units=km
new line.RML10355739 bus1=BBT152414360.2.0,bus2=RML1010355739.2.0,Phases=1,Linecode=CABBTG02_4_1,Length=0.029000000,Units=km
new line.RML10355894 bus1=BBT2410229.1.0,bus2=RML1010355894.1.0,Phases=1,Linecode=CABBTG02_4_1,Length=0.029000000,Units=km
new line.RML10356208 bus1=BBT3468517.1.0,bus2=RML1010356208.1.0,Phases=1,Linecode=CABBTG02_4_1,Length=0.029000000,Units=km
new line.RML10356625 bus1=BBT36293056.1.0,bus2=RML1010356625.1.0,Phases=1,Linecode=CABBTG02_4_1,Length=0.017000000,Units=km
new line.RML10356654 bus1=BBT59909663.1.2.0,bus2=RML1010356654.1.2.0,Phases=2,Linecode=CABBTG05_4_2,Length=0.017000000,Units=km
new line.RML10379647 bus1=BBT2512205.1.2.0,bus2=RML1010379647.1.2.0,Phases=2,Linecode=CABBTG05_4_2,Length=0.029000000,Units=km
new line.RML10379667 bus1=BBT123437967.1.2.0,bus2=RML1010379667.1.2.0,Phases=2,Linecode=CABBTG05_4_2,Length=0.029000000,Units=km
new line.RML10397181 bus1=BBT1979295.1.3.0,bus2=RML1010397181.1.3.0,Phases=2,Linecode=CABBT811_4_2,Length=0.029000000,Units=km
new line.RML10397230 bus1=BBT3771064.2.0,bus2=RML1010397230.2.0,Phases=1,Linecode=CABBTG02_4_1,Length=0.029000000,Units=km
new line.RML10397621 bus1=BBT103872505.1.2.0,bus2=RML1010397621.1.2.0,Phases=2,Linecode=CABBTG05_4_2,Length=0.029000000,Units=km
new line.RML10397738 bus1=BBT103872505.1.2.0,bus2=RML1010397738.1.2.0,Phases=2,Linecode=CABBTG05_4_2,Length=0.029000000,Units=km
new line.RML10414464 bus1=BBT171017013.1.2.0,bus2=RML1010414464.1.2.0,Phases=2,Linecode=CABBTG05_4_2,Length=0.029000000,Units=km
new line.RML10415448 bus1=BBT72982758.1.2.0,bus2=RML1010415448.1.2.0,Phases=2,Linecode=CABBTG05_4_2,Length=0.014000000,Units=km
new line.RML10123729 bus1=BBT1979841.2.0,bus2=RML1010123729.2.0,Phases=1,Linecode=CABBTG02_4_1,Length=0.029000000,Units=km
new line.RML10123733 bus1=BBT1984496.1.2.0,bus2=RML1010123733.1.2.0,Phases=2,Linecode=CABBTG05_4_2,Length=0.029000000,Units=km
new line.RML10123754 bus1=BBT1984314.3.0,bus2=RML1010123754.3.0,Phases=1,Linecode=CABBTG02_4_1,Length=0.029000000,Units=km
new line.RML10222017 bus1=BBT1979708.1.2.0,bus2=RML1010222017.1.2.0,Phases=2,Linecode=CABBTG05_4_2,Length=0.029000000,Units=km
new line.RML10242871 bus1=BBT4663053.1.0,bus2=RML1010242871.1.0,Phases=1,Linecode=CABBTG02_4_1,Length=0.029000000,Units=km
new line.RML10285661 bus1=BBT130868579.1.2.0,bus2=RML1010285661.1.2.0,Phases=2,Linecode=CABBTG05_4_2,Length=0.017000000,Units=km
new line.RML10285665 bus1=BBT1982214.1.2.0,bus2=RML1010285665.1.2.0,Phases=2,Linecode=CABBTG05_4_2,Length=0.029000000,Units=km
new line.RML10285807 bus1=BBT1871663.1.2.0,bus2=RML1010285807.1.2.0,Phases=2,Linecode=CABBTG05_4_2,Length=0.029000000,Units=km
new line.RML10286609 bus1=BBT1990495.1.3.0,bus2=RML1010286609.1.3.0,Phases=2,Linecode=CABBTG05_4_2,Length=0.029000000,Units=km
new line.RML10287350 bus1=BBT1980135.1.0,bus2=RML1010287350.1.0,Phases=1,Linecode=CABBTG02_4_1,Length=0.029000000,Units=km
new line.RML10287516 bus1=BBT79950229.1.2.0,bus2=RML1010287516.1.2.0,Phases=2,Linecode=CABBTG05_4_2,Length=0.029000000,Units=km
new line.RML10313198 bus1=BBT2132714.2.0,bus2=RML1010313198.2.0,Phases=1,Linecode=CABBTG02_4_1,Length=0.029000000,Units=km
new line.RML10400620 bus1=BBT3754236.1.2.0,bus2=RML1010400620.1.2.0,Phases=2,Linecode=CABBTG05_4_2,Length=0.029000000,Units=km
new line.RML10424178 bus1=BBT1983579.1.0,bus2=RML1010424178.1.0,Phases=1,Linecode=CABBTG02_4_1,Length=0.029000000,Units=km
new line.RML10440963 bus1=BBT1862346.1.2.0,bus2=RML1010440963.1.2.0,Phases=2,Linecode=CABBTG05_4_2,Length=0.029000000,Units=km
new line.RML10479952 bus1=BBT2287344.2.3.0,bus2=RML1010479952.2.3.0,Phases=2,Linecode=CABBTG05_4_2,Length=0.019000000,Units=km
new line.RML10480478 bus1=BBT2844523.1.2.0,bus2=RML1010480478.1.2.0,Phases=2,Linecode=CABBT811_4_2,Length=0.015000000,Units=km
new line.RML10480968 bus1=BBT1980793.3.0,bus2=RML1010480968.3.0,Phases=1,Linecode=CABBTG01_4_1,Length=0.015000000,Units=km
new line.RML10503161 bus1=BBT1991048.1.2.0,bus2=RML1010503161.1.2.0,Phases=2,Linecode=CABBT808_4_2,Length=0.020000000,Units=km
new line.RML10524288 bus1=BBT1981661.1.2.0,bus2=RML1010524288.1.2.0,Phases=2,Linecode=CABBTG05_4_2,Length=0.020000000,Units=km
new line.RML10524308 bus1=BBT1987912.1.0,bus2=RML1010524308.1.0,Phases=1,Linecode=CABBTG02_4_1,Length=0.006000000,Units=km
new line.RML10538785 bus1=BBT1990502.2.3.0,bus2=RML1010538785.2.3.0,Phases=2,Linecode=CABBT811_4_2,Length=0.014000000,Units=km
new line.RML10564354 bus1=BBT1862353.1.2.0,bus2=RML1010564354.1.2.0,Phases=2,Linecode=CABBTG05_4_2,Length=0.012000000,Units=km
new line.RML10608005 bus1=BBT2287253.1.0,bus2=RML1010608005.1.0,Phases=1,Linecode=CABBTG02_4_1,Length=0.029000000,Units=km
new line.RML10608048 bus1=BBT154554633.1.2.0,bus2=RML1010608048.1.2.0,Phases=2,Linecode=CABBTG05_4_2,Length=0.013000000,Units=km
new line.RML10673216 bus1=BBT1980191.1.2.0,bus2=RML1010673216.1.2.0,Phases=2,Linecode=CABBTG05_4_2,Length=0.017000000,Units=km
new line.RML10698072 bus1=BBT160781345.1.2.3.0,bus2=RML1010698072.1.2.3.0,Phases=3,Linecode=CABBTG08_4_3,Length=0.015000000,Units=km
new line.RML10699258 bus1=BBT2512205.1.0,bus2=RML1010699258.1.0,Phases=1,Linecode=CABBT802_4_1,Length=0.019000000,Units=km
new line.RML10717759 bus1=BBT93597226.2.3.0,bus2=RML1010717759.2.3.0,Phases=2,Linecode=CABBTG05_4_2,Length=0.011000000,Units=km
new line.RML10737738 bus1=BBT1989564.1.2.0,bus2=RML1010737738.1.2.0,Phases=2,Linecode=CABBTG05_4_2,Length=0.015000000,Units=km
new line.RML10737893 bus1=BBT1979491.1.2.0,bus2=RML1010737893.1.2.0,Phases=2,Linecode=CABBTG05_4_2,Length=0.015000000,Units=km
new line.RML10737899 bus1=BBT1984524.1.2.0,bus2=RML1010737899.1.2.0,Phases=2,Linecode=CABBTG05_4_2,Length=0.015000000,Units=km
new line.RML10737901 bus1=BBT1984517.1.2.0,bus2=RML1010737901.1.2.0,Phases=2,Linecode=CABBTG05_4_2,Length=0.015000000,Units=km
new line.RML10737924 bus1=BBT1980814.2.0,bus2=RML1010737924.2.0,Phases=1,Linecode=CABBTG01_4_1,Length=0.015000000,Units=km
new line.RML10737937 bus1=BBT1980625.1.2.0,bus2=RML1010737937.1.2.0,Phases=2,Linecode=CABBTG05_4_2,Length=0.015000000,Units=km
new line.RML10737940 bus1=BBT1983355.1.2.3.0,bus2=RML1010737940.1.2.3.0,Phases=3,Linecode=CABBTG07_4_3,Length=0.015000000,Units=km
new line.RML10737976 bus1=BBT1984321.1.2.3.0,bus2=RML1010737976.1.2.3.0,Phases=3,Linecode=CABBTG07_4_3,Length=0.015000000,Units=km
new line.RML10037148 bus1=BBT1979295.1.3.0,bus2=RML1010037148.1.3.0,Phases=2,Linecode=CABBTG05_4_2,Length=0.029000000,Units=km
new line.RML10131843 bus1=BBT148905335.1.2.0,bus2=RML1010131843.1.2.0,Phases=2,Linecode=CABBTG05_4_2,Length=0.017000000,Units=km
new line.RML10198033 bus1=BBT3468531.1.2.0,bus2=RML1010198033.1.2.0,Phases=2,Linecode=CABBTG05_4_2,Length=0.029000000,Units=km
new line.RML10237351 bus1=BBT1987856.1.0,bus2=RML1010237351.1.0,Phases=1,Linecode=CABBTG02_4_1,Length=0.017000000,Units=km
new line.RML10237363 bus1=BBT2512198.1.2.0,bus2=RML1010237363.1.2.0,Phases=2,Linecode=CABBTG05_4_2,Length=0.029000000,Units=km
new line.RML10237401 bus1=BBT1980471.1.2.0,bus2=RML1010237401.1.2.0,Phases=2,Linecode=CABBTG05_4_2,Length=0.029000000,Units=km
new line.RML10237415 bus1=BBT4663053.1.0,bus2=RML1010237415.1.0,Phases=1,Linecode=CABBTG02_4_1,Length=0.029000000,Units=km
new line.RML10237572 bus1=BBT2512219.1.2.0,bus2=RML1010237572.1.2.0,Phases=2,Linecode=CABBTG05_4_2,Length=0.029000000,Units=km
new line.RML10269504 bus1=BBT1980506.2.0,bus2=RML1010269504.2.0,Phases=1,Linecode=CABBTG02_4_1,Length=0.029000000,Units=km
new line.RML10269508 bus1=BBT1984251.1.3.0,bus2=RML1010269508.1.3.0,Phases=2,Linecode=CABBTG05_4_2,Length=0.017000000,Units=km
new line.RML10269514 bus1=BBT1980128.1.2.0,bus2=RML1010269514.1.2.0,Phases=2,Linecode=CABBTG05_4_2,Length=0.029000000,Units=km
new line.RML10315749 bus1=BBT1989046.1.2.0,bus2=RML1010315749.1.2.0,Phases=2,Linecode=CABBTG05_4_2,Length=0.029000000,Units=km
new line.RML10317183 bus1=BBT2512212.1.2.0,bus2=RML1010317183.1.2.0,Phases=2,Linecode=CABBTG05_4_2,Length=0.029000000,Units=km
new line.RML10317254 bus1=BBT3771071.1.3.0,bus2=RML1010317254.1.3.0,Phases=2,Linecode=CABBTG05_4_2,Length=0.029000000,Units=km
new line.RML10317266 bus1=BBT2410327.3.0,bus2=RML1010317266.3.0,Phases=1,Linecode=CABBTG02_4_1,Length=0.029000000,Units=km
new line.RML10317303 bus1=BBT3468517.2.0,bus2=RML1010317303.2.0,Phases=1,Linecode=CABBTG02_4_1,Length=0.029000000,Units=km
new line.RML10412730 bus1=BBT1725202.1.2.0,bus2=RML1010412730.1.2.0,Phases=2,Linecode=CABBTG05_4_2,Length=0.017000000,Units=km
new line.RML10412999 bus1=BBT1988409.1.0,bus2=RML1010412999.1.0,Phases=1,Linecode=CABBTG02_4_1,Length=0.029000000,Units=km
new line.RML10487639 bus1=BBT3771064.1.3.0,bus2=RML1010487639.1.3.0,Phases=2,Linecode=CABBTG05_4_2,Length=0.010000000,Units=km
new line.RML10527807 bus1=BBT2512219.1.2.0,bus2=RML1010527807.1.2.0,Phases=2,Linecode=CABBTG05_4_2,Length=0.018000000,Units=km
new line.RML10545993 bus1=BBT152414303.1.0,bus2=RML1010545993.1.0,Phases=1,Linecode=CABBTG02_4_1,Length=0.016000000,Units=km
new line.RML10566023 bus1=BBT2957384.2.0,bus2=RML1010566023.2.0,Phases=1,Linecode=CABBTG02_4_1,Length=0.010000000,Units=km
new line.RML10629014 bus1=BBT59909656.1.0,bus2=RML1010629014.1.0,Phases=1,Linecode=CABBTG02_4_1,Length=0.014000000,Units=km
new line.RML10629017 bus1=BBT169357919.1.2.0,bus2=RML1010629017.1.2.0,Phases=2,Linecode=CABBTG05_4_2,Length=0.030000000,Units=km
new line.RML10648700 bus1=BBT1981437.1.2.0,bus2=RML1010648700.1.2.0,Phases=2,Linecode=CABBTG05_4_2,Length=0.017000000,Units=km
new line.RML10649294 bus1=BBT3386617.1.2.0,bus2=RML1010649294.1.2.0,Phases=2,Linecode=CABBTG05_4_2,Length=0.007000000,Units=km
new line.RML10709626 bus1=BBT1982963.1.2.0,bus2=RML1010709626.1.2.0,Phases=2,Linecode=CABBTG05_4_2,Length=0.018000000,Units=km
new line.RML10712560 bus1=BBT31601348.1.3.0,bus2=RML1010712560.1.3.0,Phases=2,Linecode=CABBT811_4_2,Length=0.017000000,Units=km
new line.RML10748017 bus1=BBT1982340.1.2.3.0,bus2=RML1010748017.1.2.3.0,Phases=3,Linecode=CABBTG07_4_3,Length=0.015000000,Units=km
new line.RML10749178 bus1=BBT59918238.1.2.0,bus2=RML1010749178.1.2.0,Phases=2,Linecode=CABBTG05_4_2,Length=0.015000000,Units=km
new line.RML10750346 bus1=BBT2410306.1.2.0,bus2=RML1010750346.1.2.0,Phases=2,Linecode=CABBTG05_4_2,Length=0.015000000,Units=km
new line.RML10784213 bus1=BBT2844530.1.2.0,bus2=RML1010784213.1.2.0,Phases=2,Linecode=CABBTG05_4_2,Length=0.014000000,Units=km
new line.RML10807511 bus1=BBT1990502.2.3.0,bus2=RML1010807511.2.3.0,Phases=2,Linecode=CABBTG05_4_2,Length=0.014000000,Units=km
new line.RML10808633 bus1=BBT2288072.2.3.0,bus2=RML1010808633.2.3.0,Phases=2,Linecode=CABBTG05_4_2,Length=0.012000000,Units=km
new line.RML10858123 bus1=BBT138743656.1.2.0,bus2=RML1010858123.1.2.0,Phases=2,Linecode=CABBTG05_4_2,Length=0.010000000,Units=km
new line.RML10858127 bus1=BBT1982718.1.2.0,bus2=RML1010858127.1.2.0,Phases=2,Linecode=CABBTG05_4_2,Length=0.017000000,Units=km
new line.RML10858128 bus1=BBT1989368.1.2.0,bus2=RML1010858128.1.2.0,Phases=2,Linecode=CABBTG05_4_2,Length=0.017000000,Units=km
new line.RML10358577 bus1=BBT130418668.2.0,bus2=RML1010358577.2.0,Phases=1,Linecode=CABBTG02_4_1,Length=0.029000000,Units=km
new line.RML10360587 bus1=BBT151632442.1.2.3.0,bus2=RML1010360587.1.2.3.0,Phases=3,Linecode=CABBTG08_4_3,Length=0.017000000,Units=km
new line.RML10430674 bus1=BBT1984489.1.0,bus2=RML1010430674.1.0,Phases=1,Linecode=CABBTG02_4_1,Length=0.029000000,Units=km
new line.RML10452422 bus1=BBT2844530.1.2.0,bus2=RML1010452422.1.2.0,Phases=2,Linecode=CABBTG05_4_2,Length=0.029000000,Units=km
new line.RML10452494 bus1=BBT2512198.2.0,bus2=RML1010452494.2.0,Phases=1,Linecode=CABBTG02_4_1,Length=0.029000000,Units=km
new line.RML10453408 bus1=BBT3884562.2.0,bus2=RML1010453408.2.0,Phases=1,Linecode=CABBTG01_4_1,Length=0.029000000,Units=km
new line.RML10453413 bus1=BBT4303960.1.0,bus2=RML1010453413.1.0,Phases=1,Linecode=CABBTG02_4_1,Length=0.029000000,Units=km
new line.RML10453417 bus1=BBT1983474.1.0,bus2=RML1010453417.1.0,Phases=1,Linecode=CABBTG01_4_1,Length=0.029000000,Units=km
new line.RML10453488 bus1=BBT86749679.1.2.0,bus2=RML1010453488.1.2.0,Phases=2,Linecode=CABBT811_4_2,Length=0.029000000,Units=km
new line.RML10453489 bus1=BBT2512205.1.2.0,bus2=RML1010453489.1.2.0,Phases=2,Linecode=CABBT811_4_2,Length=0.029000000,Units=km
new line.RML10453491 bus1=BBT2287253.1.2.0,bus2=RML1010453491.1.2.0,Phases=2,Linecode=CABBT811_4_2,Length=0.029000000,Units=km
new line.RML10453500 bus1=BBT1979981.1.2.0,bus2=RML1010453500.1.2.0,Phases=2,Linecode=CABBT811_4_2,Length=0.029000000,Units=km
new line.RML10453555 bus1=BBT2844502.2.0,bus2=RML1010453555.2.0,Phases=1,Linecode=CABBTG02_4_1,Length=0.029000000,Units=km
new line.RML10453557 bus1=BBT1990152.2.0,bus2=RML1010453557.2.0,Phases=1,Linecode=CABBTG02_4_1,Length=0.017000000,Units=km
new line.RML10453560 bus1=BBT1836691.2.0,bus2=RML1010453560.2.0,Phases=1,Linecode=CABBTG02_4_1,Length=0.029000000,Units=km
new line.RML10453561 bus1=BBT1980933.2.0,bus2=RML1010453561.2.0,Phases=1,Linecode=CABBTG02_4_1,Length=0.019000000,Units=km