new line.CTR102537 bus1=BMT98892068.1.2.3,bus2=BMT183615783.1.2.3,Phases=3,LineCode=tieSwitch,Length=0.001,Units=km,switch=T !numEQ NUMEQ:63809  - Data de conexão anterior06/2011.
new line.CTR111931 bus1=BMT165675855.1.2.3,bus2=BMT183299159.1.2.3,Phases=3,LineCode=tieSwitch,Length=0.001,Units=km,switch=T !numEQ NUMEQ:151558
new line.CTR121003 bus1=BMT164008736.1.2.3,bus2=BMT98882324.1.2.3,Phases=3,LineCode=tieSwitch,Length=0.001,Units=km,switch=T !numEQ NUMEQ:134208
new line.CTR179824 bus1=BMT182369310.1.2.3,bus2=BMT182369341.1.2.3,Phases=3,LineCode=tieSwitch,Length=0.001,Units=km,switch=T !numEQ NUMEQ:148970  - Data de conexão anterior06/2011.
new line.CTR179866 bus1=BMT98869801.1,bus2=BMT173861916.1,Phases=1,LineCode=tieSwitch1,Length=0.001,Units=km,switch=T !numEQ NUMEQ:148662  - Data de conexão anterior06/2011.
new line.CTR196558477_1 bus1=BMTSEGM#196558478.1.2.3,bus2=BMT100#389066696.1.2.3,Phases=3,LineCode=tieSwitch,Length=0.001,Units=km,switch=T !numEQ ;CAP_ELO: N+úo informado ou n+úo aplic+ível;
new line.CTR196558505_1 bus1=BMTSEGM#196558506.1.2.3,bus2=BMT100#389066695.1.2.3,Phases=3,LineCode=tieSwitch,Length=0.001,Units=km,switch=T !numEQ ;CAP_ELO: N+úo informado ou n+úo aplic+ível;
new line.CTR196558519_1 bus1=BMTSEGM#196558520.1.2.3,bus2=BMT100#389066694.1.2.3,Phases=3,LineCode=tieSwitch,Length=0.001,Units=km,switch=T !numEQ ;CAP_ELO: N+úo informado ou n+úo aplic+ível;
new line.CTR196558533_1 bus1=BMTSEGM#196558534.1.2.3,bus2=BMT100#389066693.1.2.3,Phases=3,LineCode=tieSwitch,Length=0.001,Units=km,switch=T !numEQ ;CAP_ELO: N+úo informado ou n+úo aplic+ível;
new line.CTR196558561_1 bus1=BMTSEGM#196558562.1.2.3,bus2=BMT100#389066691.1.2.3,Phases=3,LineCode=tieSwitch,Length=0.001,Units=km,switch=T !numEQ ;CAP_ELO: N+úo informado ou n+úo aplic+ível;
new line.CTR196558575_1 bus1=BMTSEGM#196558576.1.2.3,bus2=BMT100#389066690.1.2.3,Phases=3,LineCode=tieSwitch,Length=0.001,Units=km,switch=T !numEQ ;CAP_ELO: N+úo informado ou n+úo aplic+ível;
new line.CTR196558589_1 bus1=BMTSEGM#196558590.1.2.3,bus2=BMT100#389066689.1.2.3,Phases=3,LineCode=tieSwitch,Length=0.001,Units=km,switch=T !numEQ ;CAP_ELO: N+úo informado ou n+úo aplic+ível;
new line.CTR196558603_1 bus1=BMTSEGM#196558604.1.2.3,bus2=BMT100#389066688.1.2.3,Phases=3,LineCode=tieSwitch,Length=0.001,Units=km,switch=T !numEQ ;CAP_ELO: N+úo informado ou n+úo aplic+ível;
new line.CTR196558631_1 bus1=BMTSEGM#196558632.1.2.3,bus2=BMT100#389066692.1.2.3,Phases=3,LineCode=tieSwitch,Length=0.001,Units=km,switch=T !numEQ ;CAP_ELO: N+úo informado ou n+úo aplic+ível;
new line.CTR196558645_1 bus1=BMTSEGM#196557967.1.2.3,bus2=BMT100#389066692.1.2.3,Phases=3,LineCode=tieSwitch,Length=0.001,Units=km,switch=T !numEQ ;CAP_ELO: N+úo informado ou n+úo aplic+ível;
open line.CTR196558645_1 term=1
new line.CTR196558661_1 bus1=BMTSEGM#196557967.1.2.3,bus2=BMT100#389066688.1.2.3,Phases=3,LineCode=tieSwitch,Length=0.001,Units=km,switch=T !numEQ ;CAP_ELO: N+úo informado ou n+úo aplic+ível;
open line.CTR196558661_1 term=1
new line.CTR196558673_1 bus1=BMTSEGM#196557967.1.2.3,bus2=BMT100#389066689.1.2.3,Phases=3,LineCode=tieSwitch,Length=0.001,Units=km,switch=T !numEQ ;CAP_ELO: N+úo informado ou n+úo aplic+ível;
open line.CTR196558673_1 term=1
new line.CTR196558685_1 bus1=BMTSEGM#196557967.1.2.3,bus2=BMT100#389066690.1.2.3,Phases=3,LineCode=tieSwitch,Length=0.001,Units=km,switch=T !numEQ ;CAP_ELO: N+úo informado ou n+úo aplic+ível;
open line.CTR196558685_1 term=1
new line.CTR196558697_1 bus1=BMTSEGM#196557967.1.2.3,bus2=BMT100#389066691.1.2.3,Phases=3,LineCode=tieSwitch,Length=0.001,Units=km,switch=T !numEQ ;CAP_ELO: N+úo informado ou n+úo aplic+ível;
open line.CTR196558697_1 term=1
new line.CTR196558709_1 bus1=BMT100#389066693.1.2.3,bus2=BMTSEGM#196557967.1.2.3,Phases=3,LineCode=tieSwitch,Length=0.001,Units=km,switch=T !numEQ ;CAP_ELO: N+úo informado ou n+úo aplic+ível;
open line.CTR196558709_1 term=1
new line.CTR196558721_1 bus1=BMT100#389066694.1.2.3,bus2=BMTSEGM#196557967.1.2.3,Phases=3,LineCode=tieSwitch,Length=0.001,Units=km,switch=T !numEQ ;CAP_ELO: N+úo informado ou n+úo aplic+ível;
open line.CTR196558721_1 term=1
new line.CTR196558733_1 bus1=BMT100#389066695.1.2.3,bus2=BMTSEGM#196557967.1.2.3,Phases=3,LineCode=tieSwitch,Length=0.001,Units=km,switch=T !numEQ ;CAP_ELO: N+úo informado ou n+úo aplic+ível;
open line.CTR196558733_1 term=1
new line.CTR196558745_1 bus1=BMT100#389066696.1.2.3,bus2=BMTSEGM#196557967.1.2.3,Phases=3,LineCode=tieSwitch,Length=0.001,Units=km,switch=T !numEQ ;CAP_ELO: N+úo informado ou n+úo aplic+ível;
open line.CTR196558745_1 term=1
new line.CTR196558757_1 bus1=BMTSEGM#196558760.1.2.3,bus2=BMTSEGM#196558632.1.2.3,Phases=3,LineCode=tieSwitch,Length=0.001,Units=km,switch=T !numEQ ;CAP_ELO: N+úo informado ou n+úo aplic+ível;
new line.CTR196558773_1 bus1=BMTSEGM#196558774.1.2.3,bus2=BMTSEGM#196558604.1.2.3,Phases=3,LineCode=tieSwitch,Length=0.001,Units=km,switch=T !numEQ ;CAP_ELO: N+úo informado ou n+úo aplic+ível;
new line.CTR196558785_1 bus1=BMTSEGM#196558786.1.2.3,bus2=BMTSEGM#196558590.1.2.3,Phases=3,LineCode=tieSwitch,Length=0.001,Units=km,switch=T !numEQ ;CAP_ELO: N+úo informado ou n+úo aplic+ível;
new line.CTR196558797_1 bus1=BMTSEGM#196558798.1.2.3,bus2=BMTSEGM#196558576.1.2.3,Phases=3,LineCode=tieSwitch,Length=0.001,Units=km,switch=T !numEQ ;CAP_ELO: N+úo informado ou n+úo aplic+ível;
new line.CTR196558809_1 bus1=BMTSEGM#196558810.1.2.3,bus2=BMTSEGM#196558562.1.2.3,Phases=3,LineCode=tieSwitch,Length=0.001,Units=km,switch=T !numEQ ;CAP_ELO: N+úo informado ou n+úo aplic+ível;
new line.CTR196558833_1 bus1=BMTSEGM#196558834.1.2.3,bus2=BMTSEGM#196558534.1.2.3,Phases=3,LineCode=tieSwitch,Length=0.001,Units=km,switch=T !numEQ ;CAP_ELO: N+úo informado ou n+úo aplic+ível;
new line.CTR196558845_1 bus1=BMTSEGM#196558846.1.2.3,bus2=BMTSEGM#196558520.1.2.3,Phases=3,LineCode=tieSwitch,Length=0.001,Units=km,switch=T !numEQ ;CAP_ELO: N+úo informado ou n+úo aplic+ível;
new line.CTR196558857_1 bus1=BMTSEGM#196558858.1.2.3,bus2=BMTSEGM#196558506.1.2.3,Phases=3,LineCode=tieSwitch,Length=0.001,Units=km,switch=T !numEQ ;CAP_ELO: N+úo informado ou n+úo aplic+ível;
new line.CTR196558869_1 bus1=BMTSEGM#196558870.1.2.3,bus2=BMTSEGM#196558478.1.2.3,Phases=3,LineCode=tieSwitch,Length=0.001,Units=km,switch=T !numEQ ;CAP_ELO: N+úo informado ou n+úo aplic+ível;
new line.CTR206704 bus1=BMT98886692.1.2.3,bus2=BMT181534090.1.2.3,Phases=3,LineCode=tieSwitch,Length=0.001,Units=km,switch=T !numEQ NUMEQ:13617  - Data de conexão anterior06/2011.
new line.CTR208349 bus1=BMT98892572.1.2.3,bus2=BMT182057953.1.2.3,Phases=3,LineCode=tieSwitch,Length=0.001,Units=km,switch=T !numEQ NUMEQ:108271
new line.CTR222517 bus1=BMT98877788.1.2.3,bus2=BMT98877837.1.2.3,Phases=3,LineCode=tieSwitch,Length=0.001,Units=km,switch=T !numEQ NUMEQ:226319  - Data de conexão anterior06/2011.
new line.CTR22331 bus1=BMT98876871.1.2.3,bus2=BMT177567445.1.2.3,Phases=3,LineCode=tieSwitch,Length=0.001,Units=km,switch=T !numEQ NUMEQ:148886  - Data de conexão anterior06/2011.
new line.CTR223476 bus1=BMT165676197.2,bus2=BMT165676199.2,Phases=1,LineCode=tieSwitch1,Length=0.001,Units=km,switch=T !numEQ NUMEQ:134178  - Data de conexão anterior06/2011.
new line.CTR224624 bus1=BMT98869381.3,bus2=BMT158259843.3,Phases=1,LineCode=tieSwitch1,Length=0.001,Units=km,switch=T !numEQ NUMEQ:122267  - Data de conexão anterior06/2011.
new line.CTR244728 bus1=BMT98855360.1.2.3,bus2=BMT183161674.1.2.3,Phases=3,LineCode=tieSwitch,Length=0.001,Units=km,switch=T !numEQ NUMEQ:15346  - Data de conexão anterior06/2011.
new line.CTR245750 bus1=BMT98892866.1.2.3,bus2=BMT98892894.1.2.3,Phases=3,LineCode=tieSwitch,Length=0.001,Units=km,switch=T !numEQ NUMEQ:106454  - Data de conexão anterior06/2011.
new line.CTR246639 bus1=BMT151645249.1.2.3,bus2=BMT98882492.1.2.3,Phases=3,LineCode=tieSwitch,Length=0.001,Units=km,switch=T !numEQ NUMEQ:62838  - Data de conexão anterior06/2011.
new line.CTR246898 bus1=BMT183608293.1.2.3,bus2=BMT183608294.1.2.3,Phases=3,LineCode=tieSwitch,Length=0.001,Units=km,switch=T !numEQ NUMEQ:416372  - Data de conexão anterior06/2011.
open line.CTR246898 term=1
new line.CTR0149168-6A bus1=BMT98852518.1.2.3,bus2=BMT177428654.1.2.3,Phases=3,LineCode=tieSwitch,Length=0.001,Units=km,switch=T !numEQ NUMEQ:149168  - Data de conexão anterior06/2011.
open line.CTR0149168-6A term=1
new line.CTR0150880-1A bus1=BMT170233264.1.2.3,bus2=BMT170544188.1.2.3,Phases=3,LineCode=tieSwitch,Length=0.001,Units=km,switch=T !numEQ NUMEQ:150880  - Data de conexão anterior06/2011.
open line.CTR0150880-1A term=1
new line.CTR0151312-6A bus1=BMT170048550.1.2.3,bus2=BMT98895092.1.2.3,Phases=3,LineCode=tieSwitch,Length=0.001,Units=km,switch=T !numEQ NUMEQ:151312  - Data de conexão anterior06/2011.
open line.CTR0151312-6A term=1
new line.CTR0151544-3A bus1=BMT165676041.1.2.3,bus2=BMT171047806.1.2.3,Phases=3,LineCode=tieSwitch,Length=0.001,Units=km,switch=T !numEQ NUMEQ:151544  - Data de conexão anterior06/2011.
open line.CTR0151544-3A term=1
new line.CTR0225987-6A bus1=BMT174390450.1.2.3,bus2=BMT149433703.1.2.3,Phases=3,LineCode=tieSwitch,Length=0.001,Units=km,switch=T !numEQ NUMEQ:225987
open line.CTR0225987-6A term=1
new line.CTR0264115-6A bus1=BMT177835126.1.2.3,bus2=BMT170113199.1.2.3,Phases=3,LineCode=tieSwitch,Length=0.001,Units=km,switch=T !numEQ NUMEQ:264115  - Data de conexão anterior06/2011.
open line.CTR0264115-6A term=1
new line.CTR0273135-6A bus1=BMT98877200.1.2.3,bus2=BMT178008681.1.2.3,Phases=3,LineCode=tieSwitch,Length=0.001,Units=km,switch=T !numEQ NUMEQ:273135
open line.CTR0273135-6A term=1
new line.CTR0273136-6A bus1=BMT98877445.1.2.3,bus2=BMT168546487.1.2.3,Phases=3,LineCode=tieSwitch,Length=0.001,Units=km,switch=T !numEQ NUMEQ:218872
open line.CTR0273136-6A term=1
new line.CTR0273731-6A bus1=BMT170055071.1.2.3,bus2=BMT170053959.1.2.3,Phases=3,LineCode=tieSwitch,Length=0.001,Units=km,switch=T !numEQ NUMEQ:273731
open line.CTR0273731-6A term=1
new line.CTR0273751-6A bus1=BMT167328536.1.2.3,bus2=BMT167328537.1.2.3,Phases=3,LineCode=tieSwitch,Length=0.001,Units=km,switch=T !numEQ NUMEQ:273751
open line.CTR0273751-6A term=1
new line.CTR0273752-6A bus1=BMT167656745.1.2.3,bus2=BMT167656746.1.2.3,Phases=3,LineCode=tieSwitch,Length=0.001,Units=km,switch=T !numEQ NUMEQ:273752
open line.CTR0273752-6A term=1
new line.CTR0275205-6A bus1=BMT168052135.1.2.3,bus2=BMT168052131.1.2.3,Phases=3,LineCode=tieSwitch,Length=0.001,Units=km,switch=T !numEQ NUMEQ:275205
open line.CTR0275205-6A term=1
new line.CTR0278532-6A bus1=BMT171406270.1.2.3,bus2=BMT182435011.1.2.3,Phases=3,LineCode=tieSwitch,Length=0.001,Units=km,switch=T !numEQ NUMEQ:278532  - Data de conexão anterior06/2011.
open line.CTR0278532-6A term=1
new line.CTR0278533-6A bus1=BMT182435014.1.2.3,bus2=BMT171406102.1.2.3,Phases=3,LineCode=tieSwitch,Length=0.001,Units=km,switch=T !numEQ NUMEQ:278533  - Data de conexão anterior06/2011.
open line.CTR0278533-6A term=1
new line.CTR0279055-6A bus1=BMT171948344.1.2.3,bus2=BMT171948345.1.2.3,Phases=3,LineCode=tieSwitch,Length=0.001,Units=km,switch=T !numEQ NUMEQ:279055  - Data de conexão anterior06/2011.
open line.CTR0279055-6A term=1
new line.CTR0279072-6A bus1=BMT169943851.1.2.3,bus2=BMT169943850.1.2.3,Phases=3,LineCode=tieSwitch,Length=0.001,Units=km,switch=T !numEQ NUMEQ:279072
open line.CTR0279072-6A term=1
new line.CTR0321568_TR bus1=BMT182245245.3,bus2=BMT182245245T.3,Phases=1,LineCode=tieSwitch1,Length=0.001,Units=km,switch=T !numEQ 
open line.CTR0321568_TR term=1
new line.CTR0321742_TR bus1=BMT183105643.3,bus2=BMT183105643T.3,Phases=1,LineCode=tieSwitch1,Length=0.001,Units=km,switch=T !numEQ 
open line.CTR0321742_TR term=1
new line.CTR0323402-6A bus1=BMT98882786.1.2.3,bus2=BMT182344188.1.2.3,Phases=3,LineCode=tieSwitch,Length=0.001,Units=km,switch=T !numEQ NUMEQ:323402  - Data de conexão anterior06/2011.
open line.CTR0323402-6A term=1
new line.CTR0329813-6A bus1=BMT174307623.1.2.3,bus2=BMT175612129.1.2.3,Phases=3,LineCode=tieSwitch,Length=0.001,Units=km,switch=T !numEQ NUMEQ:329813
open line.CTR0329813-6A term=1
new line.CTR0329823-6A bus1=BMT177283648.1.2.3,bus2=BMT174559546.1.2.3,Phases=3,LineCode=tieSwitch,Length=0.001,Units=km,switch=T !numEQ NUMEQ:329823  - Data de conexão anterior06/2011.
open line.CTR0329823-6A term=1
new line.CTR0333911-6A bus1=BMT182435014.1.2.3,bus2=BMT171406102.1.2.3,Phases=3,LineCode=tieSwitch,Length=0.001,Units=km,switch=T !numEQ NUMEQ:278533  - Data de conexão anterior06/2011.
open line.CTR0333911-6A term=1
new line.CTR0356345-6A bus1=BMT179906677.1.2.3,bus2=BMT182021441.1.2.3,Phases=3,LineCode=tieSwitch,Length=0.001,Units=km,switch=T !numEQ NUMEQ:356344
open line.CTR0356345-6A term=1
new line.CTR0356405-6A bus1=BMT177813613.1.2.3,bus2=BMT178888904.1.2.3,Phases=3,LineCode=tieSwitch,Length=0.001,Units=km,switch=T !numEQ NUMEQ:356405
open line.CTR0356405-6A term=1
new line.CTR0362082-6A bus1=BMT179839472.1.2.3,bus2=BMT179839471.1.2.3,Phases=3,LineCode=tieSwitch,Length=0.001,Units=km,switch=T !numEQ NUMEQ:362082
open line.CTR0362082-6A term=1
new line.CTR0402688-6A bus1=BMT164067111.1.2.3,bus2=BMT166546685.1.2.3,Phases=3,LineCode=tieSwitch,Length=0.001,Units=km,switch=T !numEQ NUMEQ:402688
open line.CTR0402688-6A term=1
new line.CTR0413032_TR bus1=BMT183411286.1,bus2=BMT183411286T.1,Phases=1,LineCode=tieSwitch1,Length=0.001,Units=km,switch=T !numEQ 
open line.CTR0413032_TR term=1
new line.CTR0454106-6A bus1=BMT177829237.1.2.3,bus2=BMT177829238.1.2.3,Phases=3,LineCode=tieSwitch,Length=0.001,Units=km,switch=T !numEQ NUMEQ:350562
open line.CTR0454106-6A term=1
new line.CTR0488197_TR bus1=BMT182245246.3,bus2=BMT182245246T.3,Phases=1,LineCode=tieSwitch1,Length=0.001,Units=km,switch=T !numEQ 
open line.CTR0488197_TR term=1
new line.CTR110433 bus1=BMT98871579.1.2.3,bus2=BMT153102976.1.2.3,Phases=3,LineCode=tieSwitch,Length=0.001,Units=km,switch=T !numEQ NUMEQ:288202  - Data de conexão anterior06/2011.
new line.CTR120079 bus1=BMT98875170.1.2.3,bus2=BMT177561490.1.2.3,Phases=3,LineCode=tieSwitch,Length=0.001,Units=km,switch=T !numEQ NUMEQ:136164  - Data de conexão anterior06/2011.
new line.CTR142017 bus1=BMT98871908.1.2.3,bus2=BMT169815324.1.2.3,Phases=3,LineCode=tieSwitch,Length=0.001,Units=km,switch=T !numEQ NUMEQ:15132  - Data de conexão anterior06/2011.
new line.CTR142087 bus1=BMT98871985.1.2.3,bus2=BMT149467550.1.2.3,Phases=3,LineCode=tieSwitch,Length=0.001,Units=km,switch=T !numEQ NUMEQ:285396  - Data de conexão anterior06/2011.
new line.CTR143060 bus1=BMT98882632.1.2.3,bus2=BMT168487684.1.2.3,Phases=3,LineCode=tieSwitch,Length=0.001,Units=km,switch=T !numEQ NUMEQ:196263  - Data de conexão anterior06/2011.
new line.CTR143130 bus1=BMT170233185.1.2.3,bus2=BMT170233186.1.2.3,Phases=3,LineCode=tieSwitch,Length=0.001,Units=km,switch=T !numEQ NUMEQ:264120  - Data de conexão anterior06/2011.
new line.CTR163857 bus1=BMT98871614.1.2.3,bus2=BMT98872874.1.2.3,Phases=3,LineCode=tieSwitch,Length=0.001,Units=km,switch=T !numEQ NUMEQ:15270  - Data de conexão anterior06/2011.
new line.CTR175603 bus1=BMT98879944.1.2.3,bus2=BMT98881393.1.2.3,Phases=3,LineCode=tieSwitch,Length=0.001,Units=km,switch=T !numEQ NUMEQ:125513  - Data de conexão anterior06/2011.
new line.CTR191717 bus1=BMT165676157.2,bus2=BMT165676158.2,Phases=1,LineCode=tieSwitch1,Length=0.001,Units=km,switch=T !numEQ NUMEQ:9392  - Data de conexão anterior06/2011.
new line.CTR191969 bus1=BMT98851748.1.2.3,bus2=BMT98854359.1.2.3,Phases=3,LineCode=tieSwitch,Length=0.001,Units=km,switch=T !numEQ NUMEQ:101770  - Data de conexão anterior06/2011.
new line.CTR229069 bus1=BMT98855031.1.2.3,bus2=BMT178388616.1.2.3,Phases=3,LineCode=tieSwitch,Length=0.001,Units=km,switch=T !numEQ NUMEQ:15211  - Data de conexão anterior06/2011.
new line.CTR229776 bus1=BMT98851720.1.2.3,bus2=BMT98854450.1.2.3,Phases=3,LineCode=tieSwitch,Length=0.001,Units=km,switch=T !numEQ NUMEQ:64329  - Data de conexão anterior06/2011.
new line.CTR229888 bus1=BMT98853253.1.2.3,bus2=BMT161501882.1.2.3,Phases=3,LineCode=tieSwitch,Length=0.001,Units=km,switch=T !numEQ NUMEQ:63424  - Data de conexão anterior06/2011.
new line.CTR230105 bus1=BMT149433708.1.2.3,bus2=BMT149433733.1.2.3,Phases=3,LineCode=tieSwitch,Length=0.001,Units=km,switch=T !numEQ NUMEQ:63558  - Data de conexão anterior06/2011.
new line.CTR244343 bus1=BMT98875716.1.2.3,bus2=BMT98875793.1.2.3,Phases=3,LineCode=tieSwitch,Length=0.001,Units=km,switch=T !numEQ NUMEQ:128914  - Data de conexão anterior06/2011.
new line.CTR244483 bus1=BMT165984940.1.2.3,bus2=BMT165939357.1.2.3,Phases=3,LineCode=tieSwitch,Length=0.001,Units=km,switch=T !numEQ NUMEQ:112579  - Data de conexão anterior06/2011.
new line.CTR264121-6A bus1=BMT177102567.1.2.3,bus2=BMT167277956.1.2.3,Phases=3,LineCode=tieSwitch,Length=0.001,Units=km,switch=T !numEQ NUMEQ:264121
open line.CTR264121-6A term=1
new line.CTR280799 bus1=BMT169768407.1.2.3,bus2=BMT98885684.1.2.3,Phases=3,LineCode=tieSwitch,Length=0.001,Units=km,switch=T !numEQ NUMEQ:309865
open line.CTR280799 term=1
new line.CTR108144 bus1=BMT165675844.1.2.3,bus2=BMT165675845.1.2.3,Phases=3,LineCode=tieSwitch,Length=0.001,Units=km,switch=T !numEQ NUMEQ:196145
new line.CTR112813 bus1=BMT98853862.3,bus2=BMT168546648.3,Phases=1,LineCode=tieSwitch1,Length=0.001,Units=km,switch=T !numEQ NUMEQ:63652  - Data de conexão anterior06/2011.
new line.CTR143214 bus1=BMT98892173.1.2.3,bus2=BMT166864223.1.2.3,Phases=3,LineCode=tieSwitch,Length=0.001,Units=km,switch=T !numEQ NUMEQ:196257  - Data de conexão anterior06/2011.
new line.CTR143977 bus1=BMT98886524.1.2.3,bus2=BMT98886517.1.2.3,Phases=3,LineCode=tieSwitch,Length=0.001,Units=km,switch=T !numEQ NUMEQ:125271  - Data de conexão anterior06/2011.
new line.CTR164599 bus1=BMT98853029.1.2.3,bus2=BMT98853505.1.2.3,Phases=3,LineCode=tieSwitch,Length=0.001,Units=km,switch=T !numEQ NUMEQ:136154  - Data de conexão anterior06/2011.
new line.CTR164669 bus1=BMT165567706.1.2.3,bus2=BMT183696388.1.2.3,Phases=3,LineCode=tieSwitch,Length=0.001,Units=km,switch=T !numEQ NUMEQ:264099
new line.CTR183128 bus1=BMT98882758.1.2.3,bus2=BMT98883143.1.2.3,Phases=3,LineCode=tieSwitch,Length=0.001,Units=km,switch=T !numEQ NUMEQ:149159  - Data de conexão anterior06/2011.
new line.CTR193677 bus1=BMT98851881.1.2.3,bus2=BMT150683382.1.2.3,Phases=3,LineCode=tieSwitch,Length=0.001,Units=km,switch=T !numEQ NUMEQ:64282  - Data de conexão anterior06/2011.
new line.CTR193719 bus1=BMT98876101.1.2.3,bus2=BMT137771559.1.2.3,Phases=3,LineCode=tieSwitch,Length=0.001,Units=km,switch=T !numEQ NUMEQ:137656  - Data de conexão anterior06/2011.
new line.CTR201097 bus1=BMT98873413.2,bus2=BMT98873427.2,Phases=1,LineCode=tieSwitch1,Length=0.001,Units=km,switch=T !numEQ NUMEQ:148445  - Data de conexão anterior06/2011.
new line.CTR201139 bus1=BMT182369849.1.2.3,bus2=BMT169761461.1.2.3,Phases=3,LineCode=tieSwitch,Length=0.001,Units=km,switch=T !numEQ NUMEQ:149051
new line.CTR220249 bus1=BMT174188222.1.2.3,bus2=BMT98883430.1.2.3,Phases=3,LineCode=tieSwitch,Length=0.001,Units=km,switch=T !numEQ NUMEQ:135742  - Data de conexão anterior06/2011.
new line.CTR221110 bus1=BMT98884648.1.2.3,bus2=BMT170336549.1.2.3,Phases=3,LineCode=tieSwitch,Length=0.001,Units=km,switch=T !numEQ NUMEQ:226358  - Data de conexão anterior06/2011.
new line.CTR238680 bus1=BMT98869976.1.2.3,bus2=BMT167700865.1.2.3,Phases=3,LineCode=tieSwitch,Length=0.001,Units=km,switch=T !numEQ NUMEQ:15003  - Data de conexão anterior06/2011.
new line.CTR238708 bus1=BMT98874246.3,bus2=BMT153373445.3,Phases=1,LineCode=tieSwitch1,Length=0.001,Units=km,switch=T !numEQ NUMEQ:13024  - Data de conexão anterior06/2011.
new line.CTR238722 bus1=BMT98874071.3,bus2=BMT153373384.3,Phases=1,LineCode=tieSwitch1,Length=0.001,Units=km,switch=T !numEQ NUMEQ:62004  - Data de conexão anterior06/2011.
new line.CTR238841 bus1=BMT98854933.1.2.3,bus2=BMT98873252.1.2.3,Phases=3,LineCode=tieSwitch,Length=0.001,Units=km,switch=T !numEQ NUMEQ:62401  - Data de conexão anterior06/2011.
new line.CTR239240 bus1=BMT98872286.1.2.3,bus2=BMT163282692.1.2.3,Phases=3,LineCode=tieSwitch,Length=0.001,Units=km,switch=T !numEQ NUMEQ:15134  - Data de conexão anterior06/2011.
new line.CTR239296 bus1=BMT98855353.1.2.3,bus2=BMT183157341.1.2.3,Phases=3,LineCode=tieSwitch,Length=0.001,Units=km,switch=T !numEQ NUMEQ:15001
new line.CTR239310 bus1=BMT98855388.1,bus2=BMT98869689.1,Phases=1,LineCode=tieSwitch1,Length=0.001,Units=km,switch=T !numEQ NUMEQ:15342  - Data de conexão anterior06/2011.
new line.CTR239464 bus1=BMT98854681.3,bus2=BMT180439515.3,Phases=1,LineCode=tieSwitch1,Length=0.001,Units=km,switch=T !numEQ NUMEQ:62624  - Data de conexão anterior06/2011.
new line.CTR266246 bus1=BMT98854009.1.2.3,bus2=BMT98854149.1.2.3,Phases=3,LineCode=tieSwitch,Length=0.001,Units=km,switch=T !numEQ NUMEQ:64026  - Data de conexão anterior06/2011.
new line.CTR287029 bus1=BMT98884347.1,bus2=BMT98884501.1,Phases=1,LineCode=tieSwitch1,Length=0.001,Units=km,switch=T !numEQ NUMEQ:64527  - Data de conexão anterior06/2011.
new line.CTR309 bus1=BMT98891165.1.2.3,bus2=BMT98891249.1.2.3,Phases=3,LineCode=tieSwitch,Length=0.001,Units=km,switch=T !numEQ NUMEQ:124064  - Data de conexão anterior06/2011.
new line.CTR311447-6A bus1=BMT136532111.1.2.3,bus2=BMT137771587.1.2.3,Phases=3,LineCode=tieSwitch,Length=0.001,Units=km,switch=T !numEQ NUMEQ:311447  - Data de conexão anterior06/2011.
open line.CTR311447-6A term=1
new line.CTR32943 bus1=BMT183696395.1.2.3,bus2=BMT98890605.1.2.3,Phases=3,LineCode=tieSwitch,Length=0.001,Units=km,switch=T !numEQ NUMEQ:9958  - Data de conexão anterior06/2011.
new line.CTR330107 bus1=BMT98876927.3,bus2=BMT98882107.3,Phases=1,LineCode=tieSwitch1,Length=0.001,Units=km,switch=T !numEQ NUMEQ:64317  - Data de conexão anterior06/2011.
new line.CTR330149 bus1=BMT98877627.1.2.3,bus2=BMT168546357.1.2.3,Phases=3,LineCode=tieSwitch,Length=0.001,Units=km,switch=T !numEQ NUMEQ:64109  - Data de conexão anterior06/2011.
new line.CTR330205 bus1=BMT98881498.1,bus2=BMT98881512.1,Phases=1,LineCode=tieSwitch1,Length=0.001,Units=km,switch=T !numEQ NUMEQ:62137  - Data de conexão anterior06/2011.
new line.CTR330219 bus1=BMT98881449.3,bus2=BMT98881463.3,Phases=1,LineCode=tieSwitch1,Length=0.001,Units=km,switch=T !numEQ NUMEQ:64769  - Data de conexão anterior06/2011.
new line.CTR330268 bus1=BMT98880364.1.2.3,bus2=BMT98880378.1.2.3,Phases=3,LineCode=tieSwitch,Length=0.001,Units=km,switch=T !numEQ NUMEQ:8315  - Data de conexão anterior06/2011.
new line.CTR330310 bus1=BMT98881939.3,bus2=BMT168507340.3,Phases=1,LineCode=tieSwitch1,Length=0.001,Units=km,switch=T !numEQ NUMEQ:62355  - Data de conexão anterior06/2011.
new line.CTR330387 bus1=BMT98882289.1.2.3,bus2=BMT164008733.1.2.3,Phases=3,LineCode=tieSwitch,Length=0.001,Units=km,switch=T !numEQ NUMEQ:64189  - Data de conexão anterior06/2011.
new line.CTR330429 bus1=BMT98883661.1.2.3,bus2=BMT180767575.1.2.3,Phases=3,LineCode=tieSwitch,Length=0.001,Units=km,switch=T !numEQ NUMEQ:63872  - Data de conexão anterior06/2011.
new line.CTR330443 bus1=BMT98854044.1.2.3,bus2=BMT98854121.1.2.3,Phases=3,LineCode=tieSwitch,Length=0.001,Units=km,switch=T !numEQ NUMEQ:63647  - Data de conexão anterior06/2011.
new line.CTR330457 bus1=BMT98852980.1.2.3,bus2=BMT98853015.1.2.3,Phases=3,LineCode=tieSwitch,Length=0.001,Units=km,switch=T !numEQ NUMEQ:64326  - Data de conexão anterior06/2011.
new line.CTR330478 bus1=BMT98852868.1.2.3,bus2=BMT149433726.1.2.3,Phases=3,LineCode=tieSwitch,Length=0.001,Units=km,switch=T !numEQ NUMEQ:62101  - Data de conexão anterior06/2011.
new line.CTR330492 bus1=BMT98852714.2,bus2=BMT168507134.2,Phases=1,LineCode=tieSwitch1,Length=0.001,Units=km,switch=T !numEQ NUMEQ:63204  - Data de conexão anterior06/2011.
new line.CTR330506 bus1=BMT98875863.1.2.3,bus2=BMT152248049.1.2.3,Phases=3,LineCode=tieSwitch,Length=0.001,Units=km,switch=T !numEQ NUMEQ:63045  - Data de conexão anterior06/2011.
new line.CTR330534 bus1=BMT137773953.1.2.3,bus2=BMT161399024.1.2.3,Phases=3,LineCode=tieSwitch,Length=0.001,Units=km,switch=T !numEQ NUMEQ:311445  - Data de conexão anterior06/2011.
new line.CTR330632 bus1=BMT171476941.1.2.3,bus2=BMT171476949.1.2.3,Phases=3,LineCode=tieSwitch,Length=0.001,Units=km,switch=T !numEQ NUMEQ:62853  - Data de conexão anterior06/2011.
new line.CTR330660 bus1=BMT173053666.1.2.3,bus2=BMT98883290.1.2.3,Phases=3,LineCode=tieSwitch,Length=0.001,Units=km,switch=T !numEQ NUMEQ:62843  - Data de conexão anterior06/2011.
new line.CTR330674 bus1=BMT98883479.1.2.3,bus2=BMT154295863.1.2.3,Phases=3,LineCode=tieSwitch,Length=0.001,Units=km,switch=T !numEQ NUMEQ:64260  - Data de conexão anterior06/2011.
new line.CTR330688 bus1=BMT153725945.1.2.3,bus2=BMT98882856.1.2.3,Phases=3,LineCode=tieSwitch,Length=0.001,Units=km,switch=T !numEQ NUMEQ:62538  - Data de conexão anterior06/2011.
new line.CTR330702 bus1=BMT98882877.1.2.3,bus2=BMT168008389.1.2.3,Phases=3,LineCode=tieSwitch,Length=0.001,Units=km,switch=T !numEQ NUMEQ:273575  - Data de conexão anterior06/2011.
new line.CTR330716 bus1=BMT182346654.1.2.3,bus2=BMT98884599.1.2.3,Phases=3,LineCode=tieSwitch,Length=0.001,Units=km,switch=T !numEQ NUMEQ:63814
open line.CTR330716 term=1
new line.CTR330744 bus1=BMT165675870.1.2.3,bus2=BMT180914841.1.2.3,Phases=3,LineCode=tieSwitch,Length=0.001,Units=km,switch=T !numEQ NUMEQ:13884  - Data de conexão anterior06/2011.
new line.CTR330828 bus1=BMT98885698.2,bus2=BMT98885901.2,Phases=1,LineCode=tieSwitch1,Length=0.001,Units=km,switch=T !numEQ NUMEQ:226362  - Data de conexão anterior06/2011.
new line.CTR101655 bus1=BMT98855255.1.2.3,bus2=BMT181664467.1.2.3,Phases=3,LineCode=tieSwitch,Length=0.001,Units=km,switch=T !numEQ NUMEQ:108128  - Data de conexão anterior06/2011.
new line.CTR114563 bus1=BMT183567280.1.2.3,bus2=BMT165675971.1.2.3,Phases=3,LineCode=tieSwitch,Length=0.001,Units=km,switch=T !numEQ NUMEQ:151552
new line.CTR140029 bus1=BMT98884578.1.2.3,bus2=BMT130834412.1.2.3,Phases=3,LineCode=tieSwitch,Length=0.001,Units=km,switch=T !numEQ NUMEQ:62842  - Data de conexão anterior06/2011.
new line.CTR140757 bus1=BMT165675931.1.2.3,bus2=BMT165675934.1.2.3,Phases=3,LineCode=tieSwitch,Length=0.001,Units=km,switch=T !numEQ NUMEQ:151555  - Data de conexão anterior06/2011.
new line.CTR169751 bus1=BMT183089227.1.2.3,bus2=BMT98879783.1.2.3,Phases=3,LineCode=tieSwitch,Length=0.001,Units=km,switch=T !numEQ NUMEQ:150404  - Data de conexão anterior06/2011.
open line.CTR169751 term=1
new line.CTR177402 bus1=BMT98877340.1.2.3,bus2=BMT151548743.1.2.3,Phases=3,LineCode=tieSwitch,Length=0.001,Units=km,switch=T !numEQ NUMEQ:204074  - Data de conexão anterior06/2011.
new line.CTR177465 bus1=BMT98879426.2,bus2=BMT150506731.2,Phases=1,LineCode=tieSwitch1,Length=0.001,Units=km,switch=T !numEQ NUMEQ:131672  - Data de conexão anterior06/2011.
new line.CTR177493 bus1=BMT171047809.1.2.3,bus2=BMT171047811.1.2.3,Phases=3,LineCode=tieSwitch,Length=0.001,Units=km,switch=T !numEQ NUMEQ:147846  - Data de conexão anterior06/2011.
new line.CTR178578 bus1=BMT174815571.1.2.3,bus2=BMT98881652.1.2.3,Phases=3,LineCode=tieSwitch,Length=0.001,Units=km,switch=T !numEQ NUMEQ:64542  - Data de conexão anterior06/2011.
new line.CTR189197 bus1=BMT165676044.1.2.3,bus2=BMT171047465.1.2.3,Phases=3,LineCode=tieSwitch,Length=0.001,Units=km,switch=T !numEQ NUMEQ:112695  - Data de conexão anterior06/2011.
new line.CTR203302 bus1=BMT98852301.1.2.3,bus2=BMT98852322.1.2.3,Phases=3,LineCode=tieSwitch,Length=0.001,Units=km,switch=T !numEQ NUMEQ:64544  - Data de conexão anterior06/2011.
new line.CTR216651 bus1=BMT165675868.1.2.3,bus2=BMT165675877.1.2.3,Phases=3,LineCode=tieSwitch,Length=0.001,Units=km,switch=T !numEQ NUMEQ:13881  - Data de conexão anterior06/2011.
new line.CTR231995 bus1=BMT170336374.3,bus2=BMT176332754.3,Phases=1,LineCode=tieSwitch1,Length=0.001,Units=km,switch=T !numEQ NUMEQ:62903  - Data de conexão anterior06/2011.
new line.CTR232051 bus1=BMT98885446.3,bus2=BMT170279319.3,Phases=1,LineCode=tieSwitch1,Length=0.001,Units=km,switch=T !numEQ NUMEQ:62576  - Data de conexão anterior06/2011.
new line.CTR232107 bus1=BMT98884382.1,bus2=BMT98884515.1,Phases=1,LineCode=tieSwitch1,Length=0.001,Units=km,switch=T !numEQ NUMEQ:63810  - Data de conexão anterior06/2011.
new line.CTR232163 bus1=BMT98884172.1.2.3,bus2=BMT154153602.1.2.3,Phases=3,LineCode=tieSwitch,Length=0.001,Units=km,switch=T !numEQ NUMEQ:63802  - Data de conexão anterior06/2011.
new line.CTR232177 bus1=BMT98884256.1.2.3,bus2=BMT183615301.1.2.3,Phases=3,LineCode=tieSwitch,Length=0.001,Units=km,switch=T !numEQ NUMEQ:63808  - Data de conexão anterior06/2011.
new line.CTR232191 bus1=BMT173260716.1.2.3,bus2=BMT2805594.1.2.3,Phases=3,LineCode=tieSwitch,Length=0.001,Units=km,switch=T !numEQ NUMEQ:63813  - Data de conexão anterior06/2011.
open line.CTR232191 term=1
new line.CTR232205 bus1=BMT98884564.1.2.3,bus2=BMT158710294.1.2.3,Phases=3,LineCode=tieSwitch,Length=0.001,Units=km,switch=T !numEQ NUMEQ:99139  - Data de conexão anterior06/2011.
new line.CTR232219 bus1=BMT152289099.1.2.3,bus2=BMT3845892.1.2.3,Phases=3,LineCode=tieSwitch,Length=0.001,Units=km,switch=T !numEQ NUMEQ:62852  - Data de conexão anterior06/2011.
open line.CTR232219 term=1
new line.CTR232233 bus1=BMT182350459.1.2.3,bus2=BMT98884662.1.2.3,Phases=3,LineCode=tieSwitch,Length=0.001,Units=km,switch=T !numEQ NUMEQ:63818  - Data de conexão anterior06/2011.
new line.CTR232247 bus1=BMT98882499.1,bus2=BMT98883584.1,Phases=1,LineCode=tieSwitch1,Length=0.001,Units=km,switch=T !numEQ NUMEQ:62769  - Data de conexão anterior06/2011.
new line.CTR232261 bus1=BMT98892187.2,bus2=BMT98892369.2,Phases=1,LineCode=tieSwitch1,Length=0.001,Units=km,switch=T !numEQ NUMEQ:196258  - Data de conexão anterior06/2011.
new line.CTR232275 bus1=BMT180558683.1.2.3,bus2=BMT98853897.1.2.3,Phases=3,LineCode=tieSwitch,Length=0.001,Units=km,switch=T !numEQ NUMEQ:63414  - Data de conexão anterior06/2011.
new line.CTR232429 bus1=BMT98877137.2,bus2=BMT98877151.2,Phases=1,LineCode=tieSwitch1,Length=0.001,Units=km,switch=T !numEQ NUMEQ:64229  - Data de conexão anterior06/2011.