new line.RML10071650 bus1=BBT48620651.2.0,bus2=RML1010071650.2.0,Phases=1,Linecode=CABBTG02_4_1,Length=0.02,Units=km
new line.RML10072048 bus1=BBT1257103.1.2.0,bus2=RML1010072048.1.2.0,Phases=2,Linecode=CABBTG05_4_2,Length=0.02,Units=km
new line.RML10080519 bus1=BBT1265664.2.0,bus2=RML1010080519.2.0,Phases=1,Linecode=CABBTG01_4_1,Length=0.02,Units=km
new line.RML10080525 bus1=BBT1251426.2.0,bus2=RML1010080525.2.0,Phases=1,Linecode=CABBTG02_4_1,Length=0.02,Units=km
new line.RML10080531 bus1=BBT48620742.1.0,bus2=RML1010080531.1.0,Phases=1,Linecode=CABBTG02_4_1,Length=0.02,Units=km
new line.RML10080532 bus1=BBT48620742.1.0,bus2=RML1010080532.1.0,Phases=1,Linecode=CABBTG02_4_1,Length=0.02,Units=km
new line.RML10080535 bus1=BBT48620203.1.0,bus2=RML1010080535.1.0,Phases=1,Linecode=CABBTG02_4_1,Length=0.02,Units=km
new line.RML10080538 bus1=BBT48620203.1.0,bus2=RML1010080538.1.0,Phases=1,Linecode=CABBTG02_4_1,Length=0.02,Units=km
new line.RML10080539 bus1=BBT48620203.1.0,bus2=RML1010080539.1.0,Phases=1,Linecode=CABBTG02_4_1,Length=0.02,Units=km
new line.RML10080545 bus1=BBT48620154.1.0,bus2=RML1010080545.1.0,Phases=1,Linecode=CABBTG02_4_1,Length=0.02,Units=km
new line.RML10080547 bus1=BBT48619286.1.0,bus2=RML1010080547.1.0,Phases=1,Linecode=CABBTG02_4_1,Length=0.02,Units=km
new line.RML10080558 bus1=BBT48619286.1.0,bus2=RML1010080558.1.0,Phases=1,Linecode=CABBTG02_4_1,Length=0.02,Units=km
new line.RML10080562 bus1=BBT48619335.1.0,bus2=RML1010080562.1.0,Phases=1,Linecode=CABBTG02_4_1,Length=0.02,Units=km
new line.RML10080581 bus1=BBT48619657.1.0,bus2=RML1010080581.1.0,Phases=1,Linecode=CABBTG02_4_1,Length=0.02,Units=km
new line.RML10080592 bus1=BBT123129120.1.0,bus2=RML1010080592.1.0,Phases=1,Linecode=CABBTG02_4_1,Length=0.02,Units=km
new line.RML10080597 bus1=BBT48620224.1.0,bus2=RML1010080597.1.0,Phases=1,Linecode=CABBTG02_4_1,Length=0.02,Units=km
new line.RML10080605 bus1=BBT48620224.1.0,bus2=RML1010080605.1.0,Phases=1,Linecode=CABBTG02_4_1,Length=0.02,Units=km
new line.RML10080612 bus1=BBT48620224.1.0,bus2=RML1010080612.1.0,Phases=1,Linecode=CABBTG02_4_1,Length=0.02,Units=km
new line.RML10080619 bus1=BBT48620217.1.0,bus2=RML1010080619.1.0,Phases=1,Linecode=CABBTG02_4_1,Length=0.02,Units=km
new line.RML10080626 bus1=BBT48620217.1.0,bus2=RML1010080626.1.0,Phases=1,Linecode=CABBTG02_4_1,Length=0.02,Units=km
new line.RML10080637 bus1=BBT48620217.1.0,bus2=RML1010080637.1.0,Phases=1,Linecode=CABBTG02_4_1,Length=0.02,Units=km
new line.RML10080640 bus1=BBT48620217.1.0,bus2=RML1010080640.1.0,Phases=1,Linecode=CABBTG02_4_1,Length=0.02,Units=km
new line.RML10080643 bus1=BBT48620294.1.0,bus2=RML1010080643.1.0,Phases=1,Linecode=CABBTG02_4_1,Length=0.02,Units=km
new line.RML10080685 bus1=BBT48620294.1.0,bus2=RML1010080685.1.0,Phases=1,Linecode=CABBTG02_4_1,Length=0.02,Units=km
new line.RML10080687 bus1=BBT48620294.1.0,bus2=RML1010080687.1.0,Phases=1,Linecode=CABBTG02_4_1,Length=0.02,Units=km
new line.RML10080691 bus1=BBT48620301.1.0,bus2=RML1010080691.1.0,Phases=1,Linecode=CABBTG02_4_1,Length=0.02,Units=km
new line.RML10080696 bus1=BBT48620301.1.0,bus2=RML1010080696.1.0,Phases=1,Linecode=CABBTG02_4_1,Length=0.02,Units=km
new line.RML10080699 bus1=BBT48620301.1.0,bus2=RML1010080699.1.0,Phases=1,Linecode=CABBTG02_4_1,Length=0.02,Units=km
new line.RML10080701 bus1=BBT48620308.1.0,bus2=RML1010080701.1.0,Phases=1,Linecode=CABBTG02_4_1,Length=0.02,Units=km
new line.RML10080702 bus1=BBT48620308.1.0,bus2=RML1010080702.1.0,Phases=1,Linecode=CABBTG02_4_1,Length=0.02,Units=km
new line.RML10081267 bus1=BBT48620364.1.0,bus2=RML1010081267.1.0,Phases=1,Linecode=CABBTG02_4_1,Length=0.02,Units=km
new line.RML10081268 bus1=BBT48620364.1.0,bus2=RML1010081268.1.0,Phases=1,Linecode=CABBTG02_4_1,Length=0.02,Units=km
new line.RML10081269 bus1=BBT48620364.1.0,bus2=RML1010081269.1.0,Phases=1,Linecode=CABBTG02_4_1,Length=0.02,Units=km
new line.RML10081270 bus1=BBT48620231.1.0,bus2=RML1010081270.1.0,Phases=1,Linecode=CABBTG02_4_1,Length=0.02,Units=km
new line.RML10081271 bus1=BBT48620231.1.0,bus2=RML1010081271.1.0,Phases=1,Linecode=CABBTG02_4_1,Length=0.02,Units=km
new line.RML10081272 bus1=BBT48620231.1.0,bus2=RML1010081272.1.0,Phases=1,Linecode=CABBTG02_4_1,Length=0.02,Units=km
new line.RML10081274 bus1=BBT48620238.1.0,bus2=RML1010081274.1.0,Phases=1,Linecode=CABBTG02_4_1,Length=0.02,Units=km
new line.RML10081276 bus1=BBT48620252.1.0,bus2=RML1010081276.1.0,Phases=1,Linecode=CABBTG02_4_1,Length=0.02,Units=km
new line.RML10081277 bus1=BBT48620252.1.0,bus2=RML1010081277.1.0,Phases=1,Linecode=CABBTG02_4_1,Length=0.02,Units=km
new line.RML10081278 bus1=BBT48620245.1.0,bus2=RML1010081278.1.0,Phases=1,Linecode=CABBTG02_4_1,Length=0.02,Units=km
new line.RML10081279 bus1=BBT48620245.1.0,bus2=RML1010081279.1.0,Phases=1,Linecode=CABBTG02_4_1,Length=0.02,Units=km
new line.RML10081280 bus1=BBT48620245.1.2.0,bus2=RML1010081280.1.2.0,Phases=2,Linecode=CABBTG13_4_2,Length=0.02,Units=km
new line.RML10081282 bus1=BBT48620658.1.0,bus2=RML1010081282.1.0,Phases=1,Linecode=CABBTG02_4_1,Length=0.02,Units=km
new line.RML10081283 bus1=BBT48620658.1.0,bus2=RML1010081283.1.0,Phases=1,Linecode=CABBTG02_4_1,Length=0.02,Units=km
new line.RML10081286 bus1=BBT48620658.1.0,bus2=RML1010081286.1.0,Phases=1,Linecode=CABBTG02_4_1,Length=0.02,Units=km
new line.RML10081289 bus1=BBT48620665.1.0,bus2=RML1010081289.1.0,Phases=1,Linecode=CABBTG02_4_1,Length=0.02,Units=km
new line.RML10081292 bus1=BBT48620672.1.0,bus2=RML1010081292.1.0,Phases=1,Linecode=CABBTG02_4_1,Length=0.02,Units=km
new line.RML10081323 bus1=BBT1251720.1.0,bus2=RML1010081323.1.0,Phases=1,Linecode=CABBTG02_4_1,Length=0.02,Units=km
new line.RML10081325 bus1=BBT1256340.1.2.0,bus2=RML1010081325.1.2.0,Phases=2,Linecode=CABBTG05_4_2,Length=0.02,Units=km
new line.RML10081326 bus1=BBT1242900.1.2.0,bus2=RML1010081326.1.2.0,Phases=2,Linecode=CABBTG05_4_2,Length=0.02,Units=km
new line.RML10081329 bus1=BBT1243537.1.2.3.0,bus2=RML1010081329.1.2.3.0,Phases=3,Linecode=CABBTG06_4_3,Length=0.02,Units=km
new line.RML10081333 bus1=BBT1255934.1.2.0,bus2=RML1010081333.1.2.0,Phases=2,Linecode=CABBTG05_4_2,Length=0.02,Units=km
new line.RML10081353 bus1=BBT1250453.2.0,bus2=RML1010081353.2.0,Phases=1,Linecode=CABBTG02_4_1,Length=0.02,Units=km
new line.RML10081356 bus1=BBT1243789.1.2.3.0,bus2=RML1010081356.1.2.3.0,Phases=3,Linecode=CABBTG06_4_3,Length=0.02,Units=km
new line.RML10105226 bus1=BBT1551152.1.2.0,bus2=RML1010105226.1.2.0,Phases=2,Linecode=CABBTG05_4_2,Length=0.02,Units=km
new line.RML10118304 bus1=BBT1239001.1.2.0,bus2=RML1010118304.1.2.0,Phases=2,Linecode=CABBTG05_4_2,Length=0.02,Units=km
new line.RML10118307 bus1=BBT1237699.1.2.0,bus2=RML1010118307.1.2.0,Phases=2,Linecode=CABBTG05_4_2,Length=0.02,Units=km
new line.RML10136356 bus1=BBT4443342.3.0,bus2=RML1010136356.3.0,Phases=1,Linecode=CABBTG02_4_1,Length=0.02,Units=km
new line.RML10137092 bus1=BBT1273126.1.2.0,bus2=RML1010137092.1.2.0,Phases=2,Linecode=CABBTG05_4_2,Length=0.02,Units=km
new line.RML10149084 bus1=BBT1583212.1.2.3.0,bus2=RML1010149084.1.2.3.0,Phases=3,Linecode=CABBTG06_4_3,Length=0.02,Units=km
new line.RML10156695 bus1=BBT149894921.1.2.3.0,bus2=RML1010156695.1.2.3.0,Phases=3,Linecode=CABBTG12_4_3,Length=0.033,Units=km
new line.RML10169844 bus1=BBT5107012.2.0,bus2=RML1010169844.2.0,Phases=1,Linecode=CABBTG02_4_1,Length=0.011,Units=km
new line.RML10184245 bus1=BBT1243019.2.0,bus2=RML1010184245.2.0,Phases=1,Linecode=CABBTG02_4_1,Length=0.02,Units=km
new line.RML10184250 bus1=BBT1255549.2.0,bus2=RML1010184250.2.0,Phases=1,Linecode=CABBTG02_4_1,Length=0.02,Units=km
new line.RML10184260 bus1=BBT1243796.2.0,bus2=RML1010184260.2.0,Phases=1,Linecode=CABBTG02_4_1,Length=0.02,Units=km
new line.RML10184282 bus1=BBT1252182.2.0,bus2=RML1010184282.2.0,Phases=1,Linecode=CABBTG02_4_1,Length=0.02,Units=km
new line.RML10184283 bus1=BBT83396945.1.0,bus2=RML1010184283.1.0,Phases=1,Linecode=CABBTG02_4_1,Length=0.02,Units=km
new line.RML10184286 bus1=BBT1253631.3.0,bus2=RML1010184286.3.0,Phases=1,Linecode=CABBTG02_4_1,Length=0.02,Units=km
new line.RML10184289 bus1=BBT1260988.1.2.0,bus2=RML1010184289.1.2.0,Phases=2,Linecode=CABBTG13_4_2,Length=0.02,Units=km
new line.RML10200883 bus1=BBT1238756.2.0,bus2=RML1010200883.2.0,Phases=1,Linecode=CABBTG02_4_1,Length=0.02,Units=km
new line.RML10200884 bus1=BBT1236957.1.2.3.0,bus2=RML1010200884.1.2.3.0,Phases=3,Linecode=CABBTG10_4_3,Length=0.02,Units=km
new line.RML10203560 bus1=BBT1583534.1.2.0,bus2=RML1010203560.1.2.0,Phases=2,Linecode=CABBTG13_4_2,Length=0.02,Units=km
new line.RML10203915 bus1=BBT1580062.1.2.0,bus2=RML1010203915.1.2.0,Phases=2,Linecode=CABBTG05_4_2,Length=0.02,Units=km
new line.RML10204225 bus1=BBT1588133.2.0,bus2=RML1010204225.2.0,Phases=1,Linecode=CABBTG02_4_1,Length=0.02,Units=km
new line.RML10204402 bus1=BBT48620672.1.0,bus2=RML1010204402.1.0,Phases=1,Linecode=CABBTG02_4_1,Length=0.02,Units=km
new line.RML10205282 bus1=BBT48620154.2.0,bus2=RML1010205282.2.0,Phases=1,Linecode=CABBTG02_4_1,Length=0.02,Units=km
new line.RML10205286 bus1=BBT48620315.2.0,bus2=RML1010205286.2.0,Phases=1,Linecode=CABBTG02_4_1,Length=0.02,Units=km
new line.RML10205293 bus1=BBT48619580.2.0,bus2=RML1010205293.2.0,Phases=1,Linecode=CABBTG02_4_1,Length=0.02,Units=km
new line.RML10205296 bus1=BBT48620616.2.0,bus2=RML1010205296.2.0,Phases=1,Linecode=CABBTG02_4_1,Length=0.02,Units=km
new line.RML10205413 bus1=BBT48619636.3.0,bus2=RML1010205413.3.0,Phases=1,Linecode=CABBTG02_4_1,Length=0.02,Units=km
new line.RML10205416 bus1=BBT48619580.3.0,bus2=RML1010205416.3.0,Phases=1,Linecode=CABBTG02_4_1,Length=0.02,Units=km
new line.RML10205418 bus1=BBT48618796.2.0,bus2=RML1010205418.2.0,Phases=1,Linecode=CABBTG02_4_1,Length=0.02,Units=km
new line.RML10206081 bus1=BBT1547008.1.2.0,bus2=RML1010206081.1.2.0,Phases=2,Linecode=CABBTG05_4_2,Length=0.02,Units=km
new line.RML10206617 bus1=BBT1583429.1.0,bus2=RML1010206617.1.0,Phases=1,Linecode=CABBTG02_4_1,Length=0.02,Units=km
new line.RML10206677 bus1=BBT1588763.1.0,bus2=RML1010206677.1.0,Phases=1,Linecode=CABBTG02_4_1,Length=0.02,Units=km
new line.RML10207736 bus1=BBT1257110.1.2.3.0,bus2=RML1010207736.1.2.3.0,Phases=3,Linecode=CABBTG12_4_3,Length=0.02,Units=km
new line.RML10216732 bus1=BBT48620203.1.0,bus2=RML1010216732.1.0,Phases=1,Linecode=CABBTG02_4_1,Length=0.02,Units=km
new line.RML10216736 bus1=BBT48620252.1.0,bus2=RML1010216736.1.0,Phases=1,Linecode=CABBTG02_4_1,Length=0.02,Units=km
new line.RML10216742 bus1=BBT48618796.1.0,bus2=RML1010216742.1.0,Phases=1,Linecode=CABBTG02_4_1,Length=0.02,Units=km
new line.RML10216745 bus1=BBT48620658.2.0,bus2=RML1010216745.2.0,Phases=1,Linecode=CABBTG02_4_1,Length=0.02,Units=km
new line.RML10217345 bus1=BBT48620616.2.0,bus2=RML1010217345.2.0,Phases=1,Linecode=CABBTG02_4_1,Length=0.02,Units=km
new line.RML10217576 bus1=BBT48620301.2.0,bus2=RML1010217576.2.0,Phases=1,Linecode=CABBTG02_4_1,Length=0.02,Units=km
new line.RML10224170 bus1=BBT48619650.2.0,bus2=RML1010224170.2.0,Phases=1,Linecode=CABBTG02_4_1,Length=0.02,Units=km
new line.RML10224185 bus1=BBT48619286.2.0,bus2=RML1010224185.2.0,Phases=1,Linecode=CABBTG02_4_1,Length=0.02,Units=km
new line.RML10224187 bus1=BBT48619286.2.0,bus2=RML1010224187.2.0,Phases=1,Linecode=CABBTG02_4_1,Length=0.02,Units=km
new line.RML10224190 bus1=BBT48620203.2.0,bus2=RML1010224190.2.0,Phases=1,Linecode=CABBTG02_4_1,Length=0.02,Units=km
new line.RML10224194 bus1=BBT48620203.2.0,bus2=RML1010224194.2.0,Phases=1,Linecode=CABBTG02_4_1,Length=0.02,Units=km
new line.RML10224195 bus1=BBT48620203.2.0,bus2=RML1010224195.2.0,Phases=1,Linecode=CABBTG02_4_1,Length=0.02,Units=km
new line.RML10224200 bus1=BBT48618033.2.0,bus2=RML1010224200.2.0,Phases=1,Linecode=CABBTG02_4_1,Length=0.02,Units=km
new line.RML10224202 bus1=BBT48619657.2.0,bus2=RML1010224202.2.0,Phases=1,Linecode=CABBTG02_4_1,Length=0.02,Units=km
new line.RML10224218 bus1=BBT48619650.3.0,bus2=RML1010224218.3.0,Phases=1,Linecode=CABBTG02_4_1,Length=0.02,Units=km
new line.RML10224221 bus1=BBT48619580.1.0,bus2=RML1010224221.1.0,Phases=1,Linecode=CABBTG02_4_1,Length=0.02,Units=km
new line.RML10224225 bus1=BBT48620238.1.0,bus2=RML1010224225.1.0,Phases=1,Linecode=CABBTG02_4_1,Length=0.02,Units=km
new line.RML10224228 bus1=BBT48620231.1.0,bus2=RML1010224228.1.0,Phases=1,Linecode=CABBTG02_4_1,Length=0.02,Units=km
new line.RML10224232 bus1=BBT48620364.3.0,bus2=RML1010224232.3.0,Phases=1,Linecode=CABBTG02_4_1,Length=0.02,Units=km
new line.RML10224233 bus1=BBT48620364.3.0,bus2=RML1010224233.3.0,Phases=1,Linecode=CABBTG02_4_1,Length=0.02,Units=km
new line.RML10224234 bus1=BBT48620364.2.0,bus2=RML1010224234.2.0,Phases=1,Linecode=CABBTG02_4_1,Length=0.02,Units=km
new line.RML10224238 bus1=BBT48620616.2.0,bus2=RML1010224238.2.0,Phases=1,Linecode=CABBTG02_4_1,Length=0.02,Units=km
new line.RML10224257 bus1=BBT48620665.3.0,bus2=RML1010224257.3.0,Phases=1,Linecode=CABBTG02_4_1,Length=0.02,Units=km
new line.RML10224260 bus1=BBT48620665.3.0,bus2=RML1010224260.3.0,Phases=1,Linecode=CABBTG02_4_1,Length=0.02,Units=km
new line.RML10224264 bus1=BBT48619762.3.0,bus2=RML1010224264.3.0,Phases=1,Linecode=CABBTG02_4_1,Length=0.02,Units=km
new line.RML10224268 bus1=BBT48620231.2.3.0,bus2=RML1010224268.2.3.0,Phases=2,Linecode=CABBTG05_4_2,Length=0.02,Units=km
new line.RML10224279 bus1=BBT48620224.3.0,bus2=RML1010224279.3.0,Phases=1,Linecode=CABBTG02_4_1,Length=0.02,Units=km
new line.RML10224281 bus1=BBT48620217.3.0,bus2=RML1010224281.3.0,Phases=1,Linecode=CABBTG02_4_1,Length=0.02,Units=km
new line.RML10224284 bus1=BBT48620217.2.0,bus2=RML1010224284.2.0,Phases=1,Linecode=CABBTG02_4_1,Length=0.02,Units=km
new line.RML10224287 bus1=BBT48620294.2.0,bus2=RML1010224287.2.0,Phases=1,Linecode=CABBTG02_4_1,Length=0.02,Units=km
new line.RML10224290 bus1=BBT48620315.2.0,bus2=RML1010224290.2.0,Phases=1,Linecode=CABBTG02_4_1,Length=0.02,Units=km
new line.RML10224297 bus1=BBT48619636.1.3.0,bus2=RML1010224297.1.3.0,Phases=2,Linecode=CABBTG13_4_2,Length=0.02,Units=km
new line.RML10238868 bus1=BBT1580832.1.2.0,bus2=RML1010238868.1.2.0,Phases=2,Linecode=CABBTG05_4_2,Length=0.02,Units=km
new line.RML10248149 bus1=BBT1260414.1.2.0,bus2=RML1010248149.1.2.0,Phases=2,Linecode=CABBTG05_4_2,Length=0.02,Units=km
new line.RML10248168 bus1=BBT1248654.1.0,bus2=RML1010248168.1.0,Phases=1,Linecode=CABBTG02_4_1,Length=0.02,Units=km
new line.RML10248169 bus1=BBT1248654.2.0,bus2=RML1010248169.2.0,Phases=1,Linecode=CABBTG02_4_1,Length=0.02,Units=km
new line.RML10248370 bus1=BBT48619769.1.0,bus2=RML1010248370.1.0,Phases=1,Linecode=CABBTG02_4_1,Length=0.02,Units=km
new line.RML10248371 bus1=BBT48620686.3.0,bus2=RML1010248371.3.0,Phases=1,Linecode=CABBTG02_4_1,Length=0.02,Units=km
new line.RML10248374 bus1=BBT48619769.3.0,bus2=RML1010248374.3.0,Phases=1,Linecode=CABBTG02_4_1,Length=0.02,Units=km
new line.RML10248468 bus1=BBT1581280.1.2.0,bus2=RML1010248468.1.2.0,Phases=2,Linecode=CABBTG13_4_2,Length=0.02,Units=km
new line.RML10248470 bus1=BBT1593320.1.2.3.0,bus2=RML1010248470.1.2.3.0,Phases=3,Linecode=CABBTG06_4_3,Length=0.02,Units=km
new line.RML10248473 bus1=BBT1566433.1.2.0,bus2=RML1010248473.1.2.0,Phases=2,Linecode=CABBTG05_4_2,Length=0.02,Units=km
new line.RML10248677 bus1=BBT1265048.2.0,bus2=RML1010248677.2.0,Phases=1,Linecode=CABBTG02_4_1,Length=0.02,Units=km
new line.RML10249247 bus1=BBT1592774.2.3.0,bus2=RML1010249247.2.3.0,Phases=2,Linecode=CABBTG04_4_2,Length=0.02,Units=km
new line.RML10260797 bus1=BBT1583737.1.0,bus2=RML1010260797.1.0,Phases=1,Linecode=CABBTG02_4_1,Length=0.02,Units=km
new line.RML10261862 bus1=BBT48620315.2.0,bus2=RML1010261862.2.0,Phases=1,Linecode=CABBTG02_4_1,Length=0.02,Units=km
new line.RML10261947 bus1=BBT149326738.2.3.0,bus2=RML1010261947.2.3.0,Phases=2,Linecode=CABBTG05_4_2,Length=0.023,Units=km
new line.RML10261980 bus1=BBT1251692.2.0,bus2=RML1010261980.2.0,Phases=1,Linecode=CABBTG02_4_1,Length=0.02,Units=km
new line.RML10262495 bus1=BBT1585137.1.2.3.0,bus2=RML1010262495.1.2.3.0,Phases=3,Linecode=CABBTG06_4_3,Length=0.02,Units=km
new line.RML10262503 bus1=BBT1582638.1.2.0,bus2=RML1010262503.1.2.0,Phases=2,Linecode=CABBTG05_4_2,Length=0.02,Units=km
new line.RML10262598 bus1=BBT3316853.1.2.3.0,bus2=RML1010262598.1.2.3.0,Phases=3,Linecode=CABBTG06_4_3,Length=0.02,Units=km
new line.RML10262793 bus1=BBT1557032.1.0,bus2=RML1010262793.1.0,Phases=1,Linecode=CABBTG02_4_1,Length=0.02,Units=km
new line.RML10263496 bus1=BBT3514078.1.2.0,bus2=RML1010263496.1.2.0,Phases=2,Linecode=CABBTG05_4_2,Length=0.02,Units=km
new line.RML10263839 bus1=BBT1248668.1.2.0,bus2=RML1010263839.1.2.0,Phases=2,Linecode=CABBTG05_4_2,Length=0.02,Units=km
new line.RML10273360 bus1=BBT1244650.1.2.3.0,bus2=RML1010273360.1.2.3.0,Phases=3,Linecode=CABBTG12_4_3,Length=0.02,Units=km
new line.RML10274680 bus1=BBT1235718.3.0,bus2=RML1010274680.3.0,Phases=1,Linecode=CABBTG02_4_1,Length=0.02,Units=km
new line.RML10275026 bus1=BBT1592487.1.2.3.0,bus2=RML1010275026.1.2.3.0,Phases=3,Linecode=CABBTG06_4_3,Length=0.02,Units=km
new line.RML10275213 bus1=BBT149329712.1.0,bus2=RML1010275213.1.0,Phases=1,Linecode=CABBTG02_4_1,Length=0.028,Units=km
new line.RML10275666 bus1=BBT1265650.2.0,bus2=RML1010275666.2.0,Phases=1,Linecode=CABBTG02_4_1,Length=0.02,Units=km
new line.RML10275754 bus1=BBT1254443.1.0,bus2=RML1010275754.1.0,Phases=1,Linecode=CABBTG02_4_1,Length=0.02,Units=km
new line.RML10277785 bus1=BBT149635694.1.2.3.0,bus2=RML1010277785.1.2.3.0,Phases=3,Linecode=CABBTG08_4_3,Length=0.02,Units=km
new line.RML10277787 bus1=BBT149634487.1.2.3.0,bus2=RML1010277787.1.2.3.0,Phases=3,Linecode=CABBTG08_4_3,Length=0.02,Units=km
new line.RML10277791 bus1=BBT149635789.1.2.3.0,bus2=RML1010277791.1.2.3.0,Phases=3,Linecode=CABBTG12_4_3,Length=0.02,Units=km
new line.RML10279466 bus1=BBT1251412.1.2.0,bus2=RML1010279466.1.2.0,Phases=2,Linecode=CABBTG05_4_2,Length=0.02,Units=km
new line.RML10281748 bus1=BBT1238686.1.2.0,bus2=RML1010281748.1.2.0,Phases=2,Linecode=CABBTG13_4_2,Length=0.02,Units=km
new line.RML10281751 bus1=BBT1240317.2.0,bus2=RML1010281751.2.0,Phases=1,Linecode=CABBTG02_4_1,Length=0.02,Units=km
new line.RML10281793 bus1=BBT1238413.1.2.3.0,bus2=RML1010281793.1.2.3.0,Phases=3,Linecode=CABBTG06_4_3,Length=0.02,Units=km
new line.RML10283003 bus1=BBT1243026.1.2.3.0,bus2=RML1010283003.1.2.3.0,Phases=3,Linecode=CABBTG06_4_3,Length=0.02,Units=km
new line.RML10283431 bus1=BBT1253631.2.0,bus2=RML1010283431.2.0,Phases=1,Linecode=CABBTG02_4_1,Length=0.02,Units=km
new line.RML10321513 bus1=BBT1251398.2.0,bus2=RML1010321513.2.0,Phases=1,Linecode=CABBTG02_4_1,Length=0.02,Units=km
new line.RML10322143 bus1=BBT1255528.2.0,bus2=RML1010322143.2.0,Phases=1,Linecode=CABBTG02_4_1,Length=0.02,Units=km
new line.RML10322277 bus1=BBT149635580.1.2.3.0,bus2=RML1010322277.1.2.3.0,Phases=3,Linecode=CABBTG08_4_3,Length=0.02,Units=km
new line.RML10323687 bus1=BBT1261821.1.2.3.0,bus2=RML1010323687.1.2.3.0,Phases=3,Linecode=CABBTG06_4_3,Length=0.02,Units=km
new line.RML10323776 bus1=BBT1237034.1.2.3.0,bus2=RML1010323776.1.2.3.0,Phases=3,Linecode=CABBTG06_4_3,Length=0.02,Units=km
new line.RML10344040 bus1=BBT1256207.1.2.0,bus2=RML1010344040.1.2.0,Phases=2,Linecode=CABBTG05_4_2,Length=0.02,Units=km
new line.RML10372334 bus1=BBT1546959.2.3.0,bus2=RML1010372334.2.3.0,Phases=2,Linecode=CABBTG05_4_2,Length=0.02,Units=km
new line.RML10372398 bus1=BBT1588273.1.2.0,bus2=RML1010372398.1.2.0,Phases=2,Linecode=CABBTG13_4_2,Length=0.02,Units=km
new line.RML10372458 bus1=BBT1260981.1.2.0,bus2=RML1010372458.1.2.0,Phases=2,Linecode=CABBTG05_4_2,Length=0.02,Units=km
new line.RML10390094 bus1=BBT149328884.1.2.3.0,bus2=RML1010390094.1.2.3.0,Phases=3,Linecode=CABBTG12_4_3,Length=0.02,Units=km
new line.RML10399897 bus1=BBT1243579.1.2.0,bus2=RML1010399897.1.2.0,Phases=2,Linecode=CABBTG05_4_2,Length=0.02,Units=km
new line.RML10400241 bus1=BBT1592578.1.2.0,bus2=RML1010400241.1.2.0,Phases=2,Linecode=CABBTG05_4_2,Length=0.02,Units=km
new line.RML10400309 bus1=BBT1582085.1.2.0,bus2=RML1010400309.1.2.0,Phases=2,Linecode=CABBTG05_4_2,Length=0.02,Units=km
new line.RML10427923 bus1=BBT1588308.1.2.0,bus2=RML1010427923.1.2.0,Phases=2,Linecode=CABBTG13_4_2,Length=0.02,Units=km
new line.RML10428165 bus1=BBT1584199.1.2.0,bus2=RML1010428165.1.2.0,Phases=2,Linecode=CABBTG05_4_2,Length=0.02,Units=km
new line.RML10429522 bus1=BBT154159519.1.2.3.0,bus2=RML1010429522.1.2.3.0,Phases=3,Linecode=CABBTG08_4_3,Length=0.02,Units=km
new line.RML10015034 bus1=BBT1245791.2.0,bus2=RML1010015034.2.0,Phases=1,Linecode=CABBTG02_4_1,Length=0.02,Units=km
new line.RML10015545 bus1=BBT1246295.1.2.0,bus2=RML1010015545.1.2.0,Phases=2,Linecode=CABBTG05_4_2,Length=0.02,Units=km
new line.RML10046057 bus1=BBT1257796.1.2.3.0,bus2=RML1010046057.1.2.3.0,Phases=3,Linecode=CABBTG12_4_3,Length=0.02,Units=km
new line.RML10079155 bus1=BBT1261030.1.0,bus2=RML1010079155.1.0,Phases=1,Linecode=CABBTG02_4_1,Length=0.02,Units=km
new line.RML10097650 bus1=BBT1547043.1.2.0,bus2=RML1010097650.1.2.0,Phases=2,Linecode=CABBTG05_4_2,Length=0.02,Units=km
new line.RML10097818 bus1=BBT1526372.1.2.0,bus2=RML1010097818.1.2.0,Phases=2,Linecode=CABBTG05_4_2,Length=0.02,Units=km
new line.RML10130378 bus1=BBT1584423.1.2.0,bus2=RML1010130378.1.2.0,Phases=2,Linecode=CABBTG05_4_2,Length=0.02,Units=km
new line.RML10130382 bus1=BBT1565411.1.2.3.0,bus2=RML1010130382.1.2.3.0,Phases=3,Linecode=CABBTG06_4_3,Length=0.02,Units=km
new line.RML10131949 bus1=BBT1583520.3.0,bus2=RML1010131949.3.0,Phases=1,Linecode=CABBTG02_4_1,Length=0.02,Units=km
new line.RML10132045 bus1=BBT1252637.3.0,bus2=RML1010132045.3.0,Phases=1,Linecode=CABBTG02_4_1,Length=0.02,Units=km
new line.RML10132899 bus1=BBT1261716.1.0,bus2=RML1010132899.1.0,Phases=1,Linecode=CABBTG02_4_1,Length=0.02,Units=km
new line.RML10143503 bus1=BBT1557060.2.3.0,bus2=RML1010143503.2.3.0,Phases=2,Linecode=CABBTG05_4_2,Length=0.02,Units=km
new line.RML10161920 bus1=BBT1243299.1.0,bus2=RML1010161920.1.0,Phases=1,Linecode=CABBTG01_4_1,Length=0.02,Units=km
new line.RML10162059 bus1=BBT1250719.1.3.0,bus2=RML1010162059.1.3.0,Phases=2,Linecode=CABBTG05_4_2,Length=0.02,Units=km
new line.RML10162291 bus1=BBT1566342.1.0,bus2=RML1010162291.1.0,Phases=1,Linecode=CABBTG02_4_1,Length=0.02,Units=km
new line.RML10162325 bus1=BBT1256984.1.2.0,bus2=RML1010162325.1.2.0,Phases=2,Linecode=CABBTG04_4_2,Length=0.02,Units=km
new line.RML10163044 bus1=BBT1251713.1.2.0,bus2=RML1010163044.1.2.0,Phases=2,Linecode=CABBTG04_4_2,Length=0.02,Units=km
new line.RML10208880 bus1=BBT48620252.2.0,bus2=RML1010208880.2.0,Phases=1,Linecode=CABBTG02_4_1,Length=0.02,Units=km
new line.RML10239292 bus1=BBT1248129.1.0,bus2=RML1010239292.1.0,Phases=1,Linecode=CABBTG02_4_1,Length=0.02,Units=km
new line.RML10240605 bus1=BBT1251713.1.2.0,bus2=RML1010240605.1.2.0,Phases=2,Linecode=CABBTG05_4_2,Length=0.02,Units=km
new line.RML10240881 bus1=BBT1239470.1.2.0,bus2=RML1010240881.1.2.0,Phases=2,Linecode=CABBTG05_4_2,Length=0.02,Units=km
new line.RML10241584 bus1=BBT1250859.1.2.3.0,bus2=RML1010241584.1.2.3.0,Phases=3,Linecode=CABBTG06_4_3,Length=0.02,Units=km
new line.RML10251581 bus1=BBT5106914.3.0,bus2=RML1010251581.3.0,Phases=1,Linecode=CABBTG02_4_1,Length=0.02,Units=km
new line.RML10299629 bus1=BBT1240359.2.0,bus2=RML1010299629.2.0,Phases=1,Linecode=CABBTG02_4_1,Length=0.02,Units=km
new line.RML10308414 bus1=BBT1593131.1.2.0,bus2=RML1010308414.1.2.0,Phases=2,Linecode=CABBTG05_4_2,Length=0.02,Units=km
new line.RML10308418 bus1=BBT1241920.2.3.0,bus2=RML1010308418.2.3.0,Phases=2,Linecode=CABBTG05_4_2,Length=0.02,Units=km
new line.RML10320514 bus1=BBT1249739.1.2.3.0,bus2=RML1010320514.1.2.3.0,Phases=3,Linecode=CABBTG06_4_3,Length=0.02,Units=km
new line.RML10320516 bus1=BBT1247849.1.2.0,bus2=RML1010320516.1.2.0,Phases=2,Linecode=CABBTG05_4_2,Length=0.02,Units=km
new line.RML10329761 bus1=BBT1569394.1.2.0,bus2=RML1010329761.1.2.0,Phases=2,Linecode=CABBT811_4_2,Length=0.02,Units=km
new line.RML10329786 bus1=BBT1585746.2.0,bus2=RML1010329786.2.0,Phases=1,Linecode=CABBTG02_4_1,Length=0.02,Units=km
new line.RML10330121 bus1=BBT48619657.2.0,bus2=RML1010330121.2.0,Phases=1,Linecode=CABBTG02_4_1,Length=0.02,Units=km
new line.RML10331041 bus1=BBT3514078.1.2.3.0,bus2=RML1010331041.1.2.3.0,Phases=3,Linecode=CABBTG08_4_3,Length=0.02,Units=km
new line.RML10331148 bus1=BBT4050215.2.0,bus2=RML1010331148.2.0,Phases=1,Linecode=CABBTG02_4_1,Length=0.02,Units=km
new line.RML10331152 bus1=BBT1273245.1.0,bus2=RML1010331152.1.0,Phases=1,Linecode=CABBTG02_4_1,Length=0.02,Units=km
new line.RML10332146 bus1=BBT1552979.2.0,bus2=RML1010332146.2.0,Phases=1,Linecode=CABBTG02_4_1,Length=0.02,Units=km
new line.RML10345409 bus1=BBT83396938.1.2.0,bus2=RML1010345409.1.2.0,Phases=2,Linecode=CABBTG05_4_2,Length=0.02,Units=km
new line.RML10365595 bus1=BBT1256942.1.2.0,bus2=RML1010365595.1.2.0,Phases=2,Linecode=CABBTG05_4_2,Length=0.02,Units=km
new line.RML10391608 bus1=BBT1251370.1.2.3.0,bus2=RML1010391608.1.2.3.0,Phases=3,Linecode=CABBTG08_4_3,Length=0.02,Units=km
new line.RML10393280 bus1=BBT1253659.2.3.0,bus2=RML1010393280.2.3.0,Phases=2,Linecode=CABBTG05_4_2,Length=0.02,Units=km
new line.RML10394857 bus1=BBT149635559.2.3.0,bus2=RML1010394857.2.3.0,Phases=2,Linecode=CABBTG05_4_2,Length=0.02,Units=km
new line.RML10421338 bus1=BBT1584668.2.0,bus2=RML1010421338.2.0,Phases=1,Linecode=CABBTG02_4_1,Length=0.02,Units=km
new line.RML10421909 bus1=BBT1553714.1.2.3.0,bus2=RML1010421909.1.2.3.0,Phases=3,Linecode=CABBTG06_4_3,Length=0.02,Units=km
new line.RML10439232 bus1=BBT1553672.1.2.0,bus2=RML1010439232.1.2.0,Phases=2,Linecode=CABBTG05_4_2,Length=0.02,Units=km
new line.RML10439582 bus1=BBT1559363.1.0,bus2=RML1010439582.1.0,Phases=1,Linecode=CABBTG02_4_1,Length=0.02,Units=km
new line.RML10439635 bus1=BBT5107012.1.0,bus2=RML1010439635.1.0,Phases=1,Linecode=CABBTG02_4_1,Length=0.02,Units=km
new line.RML10440322 bus1=BBT1238441.1.2.0,bus2=RML1010440322.1.2.0,Phases=2,Linecode=CABBTG05_4_2,Length=0.026,Units=km
new line.RML10440376 bus1=BBT1588140.1.0,bus2=RML1010440376.1.0,Phases=1,Linecode=CABBTG02_4_1,Length=0.02,Units=km
new line.RML10440747 bus1=BBT1588203.1.0,bus2=RML1010440747.1.0,Phases=1,Linecode=CABBTG02_4_1,Length=0.02,Units=km
new line.RML10451455 bus1=BBT1578466.1.2.0,bus2=RML1010451455.1.2.0,Phases=2,Linecode=CABBTG05_4_2,Length=0.02,Units=km
new line.RML10451614 bus1=BBT1583100.1.0,bus2=RML1010451614.1.0,Phases=1,Linecode=CABBTG02_4_1,Length=0.02,Units=km
new line.RML10537843 bus1=BBT1255514.1.2.0,bus2=RML1010537843.1.2.0,Phases=2,Linecode=CABBTG05_4_2,Length=0.021,Units=km
new line.RML10584587 bus1=BBT1246862.1.2.0,bus2=RML1010584587.1.2.0,Phases=2,Linecode=CABBTG05_4_2,Length=0.031,Units=km
new line.RML10584589 bus1=BBT1243838.1.0,bus2=RML1010584589.1.0,Phases=1,Linecode=CABBTG02_4_1,Length=0.016,Units=km
new line.RML10595015 bus1=BBT5106886.1.2.0,bus2=RML1010595015.1.2.0,Phases=2,Linecode=CABBTG05_4_2,Length=0.014,Units=km
new line.RML10595105 bus1=BBT123129134.1.2.0,bus2=RML1010595105.1.2.0,Phases=2,Linecode=CABBTG05_4_2,Length=0.019,Units=km
new line.RML10635629 bus1=BBT1240275.1.2.0,bus2=RML1010635629.1.2.0,Phases=2,Linecode=CABBTG05_4_2,Length=0.02,Units=km
new line.RML10648223 bus1=BBT1239680.1.0,bus2=RML1010648223.1.0,Phases=1,Linecode=CABBTG02_4_1,Length=0.02,Units=km
new line.RML10019997 bus1=BBT1553343.1.2.3.0,bus2=RML1010019997.1.2.3.0,Phases=3,Linecode=CABBTG06_4_3,Length=0.02,Units=km
new line.RML10023483 bus1=BBT83396938.1.3.0,bus2=RML1010023483.1.3.0,Phases=2,Linecode=CABBTG05_4_2,Length=0.02,Units=km
new line.RML10137786 bus1=BBT48619650.1.2.0,bus2=RML1010137786.1.2.0,Phases=2,Linecode=CABBTG05_4_2,Length=0.02,Units=km
new line.RML10231306 bus1=BBT148085678.1.2.3.0,bus2=RML1010231306.1.2.3.0,Phases=3,Linecode=CABBTG06_4_3,Length=0.02,Units=km
new line.RML10231532 bus1=BBT1244636.1.0,bus2=RML1010231532.1.0,Phases=1,Linecode=CABBTG02_4_1,Length=0.02,Units=km
new line.RML10243693 bus1=BBT1250873.3.0,bus2=RML1010243693.3.0,Phases=1,Linecode=CABBTG02_4_1,Length=0.02,Units=km
new line.RML10243830 bus1=BBT4963778.1.2.3.0,bus2=RML1010243830.1.2.3.0,Phases=3,Linecode=CABBTG06_4_3,Length=0.02,Units=km
new line.RML10245307 bus1=BBT1245987.3.0,bus2=RML1010245307.3.0,Phases=1,Linecode=CABBTG02_4_1,Length=0.02,Units=km
new line.RML10245572 bus1=BBT149635907.1.2.3.0,bus2=RML1010245572.1.2.3.0,Phases=3,Linecode=CABBTG12_4_3,Length=0.02,Units=km
new line.RML10268733 bus1=BBT1264572.2.0,bus2=RML1010268733.2.0,Phases=1,Linecode=CABBTG02_4_1,Length=0.02,Units=km
new line.RML10302909 bus1=BBT1234871.2.0,bus2=RML1010302909.2.0,Phases=1,Linecode=CABBTG02_4_1,Length=0.02,Units=km
new line.RML10316806 bus1=BBT1588189.2.0,bus2=RML1010316806.2.0,Phases=1,Linecode=CABBTG02_4_1,Length=0.02,Units=km
new line.RML10334038 bus1=BBT1243831.1.0,bus2=RML1010334038.1.0,Phases=1,Linecode=CABBTG02_4_1,Length=0.02,Units=km
new line.RML10334805 bus1=BBT1240849.2.0,bus2=RML1010334805.2.0,Phases=1,Linecode=CABBTG02_4_1,Length=0.02,Units=km
new line.RML10367910 bus1=BBT1566433.1.2.3.0,bus2=RML1010367910.1.2.3.0,Phases=3,Linecode=CABBTG12_4_3,Length=0.02,Units=km
new line.RML10370015 bus1=BBT48620763.1.2.0,bus2=RML1010370015.1.2.0,Phases=2,Linecode=CABBTG05_4_2,Length=0.02,Units=km
new line.RML10370191 bus1=BBT123129162.3.0,bus2=RML1010370191.3.0,Phases=1,Linecode=CABBTG02_4_1,Length=0.02,Units=km
new line.RML10370206 bus1=BBT1581315.1.2.0,bus2=RML1010370206.1.2.0,Phases=2,Linecode=CABBTG05_4_2,Length=0.02,Units=km
new line.RML10386813 bus1=BBT153031564.1.2.3.0,bus2=RML1010386813.1.2.3.0,Phases=3,Linecode=CABBT806_4_3,Length=0.02,Units=km
new line.RML10431562 bus1=BBT1252924.2.3.0,bus2=RML1010431562.2.3.0,Phases=2,Linecode=CABBTG05_4_2,Length=0.02,Units=km
new line.RML10431627 bus1=BBT48619762.1.2.0,bus2=RML1010431627.1.2.0,Phases=2,Linecode=CABBTG05_4_2,Length=0.02,Units=km
new line.RML10460001 bus1=BBT1253596.2.3.0,bus2=RML1010460001.2.3.0,Phases=2,Linecode=CABBTG05_4_2,Length=0.02,Units=km
new line.RML10460787 bus1=BBT1253666.1.2.0,bus2=RML1010460787.1.2.0,Phases=2,Linecode=CABBTG05_4_2,Length=0.02,Units=km
new line.RML10468232 bus1=BBT149635174.1.2.3.0,bus2=RML1010468232.1.2.3.0,Phases=3,Linecode=CABBTG07_4_3,Length=0.013,Units=km