new line.TR11510850 bus1=BMT161718316.1.2.3,bus2=BMT161718317.1.2.3,Phases=3,Linecode=CABA06_3_3,Length=0.011184000,Units=km
new line.TR11775569 bus1=BMT170424079.1.2.3,bus2=BMT158163344.1.2.3,Phases=3,Linecode=CABA06_3_3,Length=0.031631000,Units=km
new line.TR11775576 bus1=BMT158163388.1.2.3,bus2=BMT158163389.1.2.3,Phases=3,Linecode=CAB601_5_3,Length=0.004512000,Units=km
new line.TR11775597 bus1=BMT158163389.1.2.3,bus2=BMT7946332B.1.2.3,Phases=3,Linecode=CAB601_5_3,Length=0.010381000,Units=km
new line.TR11775604 bus1=BMT7946332B.1.2.3,bus2=BMT158163390.1.2.3,Phases=3,Linecode=CAB601_5_3,Length=0.005874000,Units=km
new line.TR11775611 bus1=BMT158163390.1.2.3,bus2=BMT158163391.1.2.3,Phases=3,Linecode=CAB601_5_3,Length=0.009000000,Units=km
new line.TR12071354 bus1=BMT169485183.1.2.3,bus2=BMT169485184.1.2.3,Phases=3,Linecode=CAB102_3_3,Length=0.016037000,Units=km
new line.TR12144401 bus1=BMT176715141.1.2.3,bus2=BMT8739344B.1.2.3,Phases=3,Linecode=CABA06_3_3,Length=0.032905000,Units=km
new line.TR12144402 bus1=BMT8739344B.1.2.3,bus2=BMT2792210B.1.2.3,Phases=3,Linecode=CABA06_3_3,Length=0.038065000,Units=km
new line.TR12144405 bus1=BMT171411555.1.2.3,bus2=BMT158163072.1.2.3,Phases=3,Linecode=CABA06_3_3,Length=0.009059000,Units=km
new line.TR12144407 bus1=BMT170742812.1.2.3,bus2=BMT8739374B.1.2.3,Phases=3,Linecode=CABA06_3_3,Length=0.036413000,Units=km
new line.TR12144450 bus1=BMT8739374B.1.2.3,bus2=BMT8739375B.1.2.3,Phases=3,Linecode=CABA06_3_3,Length=0.038065000,Units=km
new line.TR12144452 bus1=BMT8739375B.1.2.3,bus2=BMT8739376B.1.2.3,Phases=3,Linecode=CABA06_3_3,Length=0.049026000,Units=km
new line.TR12144454 bus1=BMT8739376B.1.2.3,bus2=BMT7649630B.1.2.3,Phases=3,Linecode=CABA06_3_3,Length=0.030077000,Units=km
new line.TR12144464 bus1=BMT7649630B.1.2.3,bus2=BMT170742813.1.2.3,Phases=3,Linecode=CABA06_3_3,Length=0.017470000,Units=km
new line.TR12144466 bus1=BMT170742813.1.2.3,bus2=BMT170742814.1.2.3,Phases=3,Linecode=CABA06_3_3,Length=0.037709000,Units=km
new line.TR12144482 bus1=BMT170742814.1.2.3,bus2=BMT8739501B.1.2.3,Phases=3,Linecode=CABA06_3_3,Length=0.038497000,Units=km
new line.TR12144486 bus1=BMT8739501B.1.2.3,bus2=BMT8739502B.1.2.3,Phases=3,Linecode=CABA06_3_3,Length=0.033627000,Units=km
new line.TR12144488 bus1=BMT8739502B.1.2.3,bus2=BMT8739503B.1.2.3,Phases=3,Linecode=CABA06_3_3,Length=0.029165000,Units=km
new line.TR12144490 bus1=BMT8739503B.1.2.3,bus2=BMT8739505B.1.2.3,Phases=3,Linecode=CABA06_3_3,Length=0.034246000,Units=km
new line.TR12144492 bus1=BMT8739505B.1.2.3,bus2=BMT170742815.1.2.3,Phases=3,Linecode=CABA06_3_3,Length=0.042026000,Units=km
new line.TR12144498 bus1=BMT170742815.1.2.3,bus2=BMT170742816.1.2.3,Phases=3,Linecode=CAB103_3_3,Length=0.129139000,Units=km
new line.TR12144508 bus1=BMT170742815.1.2.3,bus2=BMT8739507B.1.2.3,Phases=3,Linecode=CABA06_3_3,Length=0.039218000,Units=km
new line.TR12144519 bus1=BMT8739507B.1.2.3,bus2=BMT8739522B.1.2.3,Phases=3,Linecode=CABA06_3_3,Length=0.038340000,Units=km
new line.TR12144520 bus1=BMT8739522B.1.2.3,bus2=BMT8739528B.1.2.3,Phases=3,Linecode=CABA06_3_3,Length=0.037228000,Units=km
new line.TR12144523 bus1=BMT8739528B.1.2.3,bus2=BMT8739529B.1.2.3,Phases=3,Linecode=CABA06_3_3,Length=0.038223000,Units=km
new line.TR12144526 bus1=BMT8739529B.1.2.3,bus2=BMT8739530B.1.2.3,Phases=3,Linecode=CABA06_3_3,Length=0.038065000,Units=km
new line.TR12144528 bus1=BMT8739530B.1.2.3,bus2=BMT170742817.1.2.3,Phases=3,Linecode=CABA06_3_3,Length=0.038131000,Units=km
new line.TR12144564 bus1=BMT2792210B.1.2.3,bus2=BMT8739548B.1.2.3,Phases=3,Linecode=CABA06_3_3,Length=0.033011000,Units=km
new line.TR12144565 bus1=BMT8739548B.1.2.3,bus2=BMT2516844B.1.2.3,Phases=3,Linecode=CABA06_3_3,Length=0.031027000,Units=km
new line.TR12144590 bus1=BMT1333263B.1.2.3,bus2=BMT8739559B.1.2.3,Phases=3,Linecode=CABA06_3_3,Length=0.038065000,Units=km
new line.TR12144591 bus1=BMT8739559B.1.2.3,bus2=BMT176715143.1.2.3,Phases=3,Linecode=CABA06_3_3,Length=0.026181000,Units=km
new line.TR12144610 bus1=BMT1333235B.1.2.3,bus2=BMT1333228B.1.2.3,Phases=3,Linecode=CABA06_3_3,Length=0.038065000,Units=km
new line.TR12144611 bus1=BMT1333228B.1.2.3,bus2=BMT176715146.1.2.3,Phases=3,Linecode=CABA06_3_3,Length=0.038065000,Units=km
new line.TR12160931 bus1=BMT158163460.3,bus2=BMT158163459.3,Phases=1,Linecode=CAB202_3_1,Length=0.009903000,Units=km
new line.TR12161072 bus1=BMT1311052B.1.2.3,bus2=BMT158163008.1.2.3,Phases=3,Linecode=CABA08_3_3,Length=0.024556000,Units=km
new line.TR12161073 bus1=BMT158163007.1.2.3,bus2=BMT1311052B.1.2.3,Phases=3,Linecode=CABA08_3_3,Length=0.021033000,Units=km
new line.TR12161090 bus1=BMT8757700B.1.2.3,bus2=BMT8757699B.1.2.3,Phases=3,Linecode=CABA06_3_3,Length=0.032026000,Units=km
new line.TR12161091 bus1=BMT8757699B.1.2.3,bus2=BMT8757698B.1.2.3,Phases=3,Linecode=CABA06_3_3,Length=0.028027000,Units=km
new line.TR12161092 bus1=BMT8757698B.1.2.3,bus2=BMT8757697B.1.2.3,Phases=3,Linecode=CABA06_3_3,Length=0.027083000,Units=km
new line.TR12161095 bus1=BMT8757697B.1.2.3,bus2=BMT8757556B.1.2.3,Phases=3,Linecode=CABA06_3_3,Length=0.025028000,Units=km
new line.TR12161096 bus1=BMT8757556B.1.2.3,bus2=BMT164638273.1.2.3,Phases=3,Linecode=CABA06_3_3,Length=0.026086000,Units=km
new line.TR12161097 bus1=BMT164638273.1.2.3,bus2=BMT8757554B.1.2.3,Phases=3,Linecode=CABA06_3_3,Length=0.028170000,Units=km
new line.TR12161098 bus1=BMT8757554B.1.2.3,bus2=BMT8757553B.1.2.3,Phases=3,Linecode=CABA06_3_3,Length=0.022480000,Units=km
new line.TR12161099 bus1=BMT8757553B.1.2.3,bus2=BMT8757552B.1.2.3,Phases=3,Linecode=CABA06_3_3,Length=0.037656000,Units=km
new line.TR12161100 bus1=BMT8757552B.1.2.3,bus2=BMT3629823B.1.2.3,Phases=3,Linecode=CABA06_3_3,Length=0.036700000,Units=km
new line.TR12161124 bus1=BMT3629823B.1.2.3,bus2=BMT158163457.1.2.3,Phases=3,Linecode=CABA06_3_3,Length=0.035705000,Units=km
new line.TR12161125 bus1=BMT158163457.1.2.3,bus2=BMT8757535B.1.2.3,Phases=3,Linecode=CABA06_3_3,Length=0.068030000,Units=km
new line.TR12161137 bus1=BMT8757535B.1.2.3,bus2=BMT8757536B.1.2.3,Phases=3,Linecode=CABA06_3_3,Length=0.030490000,Units=km
new line.TR12161138 bus1=BMT8757536B.1.2.3,bus2=BMT8757537B.1.2.3,Phases=3,Linecode=CABA06_3_3,Length=0.037549000,Units=km
new line.TR12161141 bus1=BMT8757537B.1.2.3,bus2=BMT8757538B.1.2.3,Phases=3,Linecode=CABA06_3_3,Length=0.043200000,Units=km
new line.TR12161142 bus1=BMT8757538B.1.2.3,bus2=BMT8757539B.1.2.3,Phases=3,Linecode=CABA06_3_3,Length=0.044613000,Units=km
new line.TR12161143 bus1=BMT8757539B.1.2.3,bus2=BMT8757540B.1.2.3,Phases=3,Linecode=CABA06_3_3,Length=0.044613000,Units=km
new line.TR12161144 bus1=BMT8757540B.1.2.3,bus2=BMT8757541B.1.2.3,Phases=3,Linecode=CABA06_3_3,Length=0.045622000,Units=km
new line.TR12161145 bus1=BMT8757541B.1.2.3,bus2=BMT8757733B.1.2.3,Phases=3,Linecode=CABA06_3_3,Length=0.038026000,Units=km
new line.TR10721243 bus1=BMT164629667.1.2.3,bus2=BMT164629670.1.2.3,Phases=3,Linecode=CAB103_3_3,Length=0.026692000,Units=km
new line.TR10721250 bus1=BMT164629670.1.2.3,bus2=BMT164629671.1.2.3,Phases=3,Linecode=CABA06_3_3,Length=0.026935000,Units=km
new line.TR10721257 bus1=BMT164629671.1.2.3,bus2=BMT6984504B.1.2.3,Phases=3,Linecode=CABA06_3_3,Length=0.051940000,Units=km
new line.TR10721264 bus1=BMT6984504B.1.2.3,bus2=BMT164629672.1.2.3,Phases=3,Linecode=CABA06_3_3,Length=0.025719000,Units=km
new line.TR10721278 bus1=BMT164629671.1.2.3,bus2=BMT6984532B.1.2.3,Phases=3,Linecode=CABA06_3_3,Length=0.035183000,Units=km
new line.TR10721285 bus1=BMT6984539B.1.2.3,bus2=BMT6984546B.1.2.3,Phases=3,Linecode=CABA06_3_3,Length=0.032291000,Units=km
new line.TR10721292 bus1=BMT6984546B.1.2.3,bus2=BMT6984567B.1.2.3,Phases=3,Linecode=CABA06_3_3,Length=0.038340000,Units=km
new line.TR10721299 bus1=BMT6984567B.1.2.3,bus2=BMT164629673.1.2.3,Phases=3,Linecode=CABA06_3_3,Length=0.038340000,Units=km
new line.TR10721320 bus1=BMT6984532B.1.2.3,bus2=BMT6984539B.1.2.3,Phases=3,Linecode=CABA06_3_3,Length=0.034940000,Units=km
new line.TR11418009 bus1=BMT174523129.1.2.3,bus2=BMT1097846B.1.2.3,Phases=3,Linecode=CABA06_3_3,Length=0.039679000,Units=km
new line.TR11418016 bus1=BMT1097846B.1.2.3,bus2=BMT174523131.1.2.3,Phases=3,Linecode=CABA06_3_3,Length=0.037914000,Units=km
new line.TR11427837 bus1=BMT1349706B.1.2.3,bus2=BMT7633670B.1.2.3,Phases=3,Linecode=CABA08_3_3,Length=0.015878000,Units=km
new line.TR11427844 bus1=BMT7633670B.1.2.3,bus2=BMT1350924B.1.2.3,Phases=3,Linecode=CABA08_3_3,Length=0.015878000,Units=km
new line.TR11427851 bus1=BMT1350469B.1.2.3,bus2=BMT7633740B.1.2.3,Phases=3,Linecode=CAB102_3_3,Length=0.017135000,Units=km
new line.TR11427858 bus1=BMT1350455B.1.2.3,bus2=BMT7633740B.1.2.3,Phases=3,Linecode=CAB102_3_3,Length=0.015854000,Units=km
new line.TR11613155 bus1=BMT169647891.1.2.3,bus2=BMT1081186B.1.2.3,Phases=3,Linecode=CABA06_3_3,Length=0.031411000,Units=km
new line.TR11613190 bus1=BMT1081186B.1.2.3,bus2=BMT169647896.1.2.3,Phases=3,Linecode=CABA06_3_3,Length=0.035817000,Units=km
new line.TR11613225 bus1=BMT1081172B.1.2.3,bus2=BMT1081165B.1.2.3,Phases=3,Linecode=CABA06_3_3,Length=0.043026000,Units=km
new line.TR11613246 bus1=BMT1081165B.1.2.3,bus2=BMT169647894.1.2.3,Phases=3,Linecode=CABA06_3_3,Length=0.034857000,Units=km
new line.TR12002635 bus1=BMT158163538.1.2.3,bus2=BMT1348740B.1.2.3,Phases=3,Linecode=CABA06_3_3,Length=0.035612000,Units=km
new line.TR12002642 bus1=BMT1348740B.1.2.3,bus2=BMT1348733B.1.2.3,Phases=3,Linecode=CABA06_3_3,Length=0.034316000,Units=km
new line.TR12002649 bus1=BMT1348733B.1.2.3,bus2=BMT158163539.1.2.3,Phases=3,Linecode=CABA06_3_3,Length=0.035259000,Units=km
new line.TR12156041 bus1=BMT1070574B.1.2.3,bus2=BMT8752015B.1.2.3,Phases=3,Linecode=CAB102_3_3,Length=0.018795000,Units=km
new line.TR12156042 bus1=BMT8752015B.1.2.3,bus2=BMT158163318.1.2.3,Phases=3,Linecode=CAB102_3_3,Length=0.022368000,Units=km
new line.TR12156080 bus1=BMT165235916.1.2.3,bus2=BMT1068481B.1.2.3,Phases=3,Linecode=CAB102_3_3,Length=0.031670000,Units=km
new line.TR12156081 bus1=BMT1068481B.1.2.3,bus2=BMT8752084B.1.2.3,Phases=3,Linecode=CAB102_3_3,Length=0.015584000,Units=km
new line.TR12156088 bus1=BMT8752084B.1.2.3,bus2=BMT165235918.1.2.3,Phases=3,Linecode=CAB102_3_3,Length=0.022216000,Units=km
new line.TR12156119 bus1=BMT174903319.1,bus2=BMT8752172B.1,Phases=1,Linecode=CAB102_3_1,Length=0.017217000,Units=km
new line.TR12156120 bus1=BMT1355033B.1,bus2=BMT8752172B.1,Phases=1,Linecode=CAB102_3_1,Length=0.019978000,Units=km
new line.TR12156202 bus1=BMT174903317.1.2.3,bus2=BMT8752253B.1.2.3,Phases=3,Linecode=CAB102_3_3,Length=0.019190000,Units=km
new line.TR12156203 bus1=BMT1355565B.1.2.3,bus2=BMT8752253B.1.2.3,Phases=3,Linecode=CAB102_3_3,Length=0.018592000,Units=km
new line.TR12156231 bus1=BMT168024084.1.2.3,bus2=BMT8752265B.1.2.3,Phases=3,Linecode=CAB102_3_3,Length=0.018267000,Units=km
new line.TR12156232 bus1=BMT1355635B.1.2.3,bus2=BMT8752265B.1.2.3,Phases=3,Linecode=CAB102_3_3,Length=0.016863000,Units=km
new line.TR12156238 bus1=BMT168024085.3,bus2=BMT8752270B.3,Phases=1,Linecode=CAB102_3_1,Length=0.018592000,Units=km
new line.TR12156239 bus1=BMT1359107B.3,bus2=BMT8752270B.3,Phases=1,Linecode=CAB102_3_1,Length=0.015847000,Units=km
new line.TR12156247 bus1=BMT1358953B.3,bus2=BMT8752274B.3,Phases=1,Linecode=CAB102_3_1,Length=0.019472000,Units=km
new line.TR12156248 bus1=BMT1358946B.3,bus2=BMT8752274B.3,Phases=1,Linecode=CAB102_3_1,Length=0.018661000,Units=km
new line.TR12156260 bus1=BMT1360073B.1.2.3,bus2=BMT8752284B.1.2.3,Phases=3,Linecode=CAB102_3_3,Length=0.017789000,Units=km
new line.TR12156261 bus1=BMT1360052B.1.2.3,bus2=BMT8752284B.1.2.3,Phases=3,Linecode=CAB102_3_3,Length=0.015230000,Units=km
new line.TR12156262 bus1=BMT158163190.3,bus2=BMT8752291B.3,Phases=1,Linecode=CAB102_3_1,Length=0.018675000,Units=km
new line.TR12156263 bus1=BMT1358204B.3,bus2=BMT8752291B.3,Phases=1,Linecode=CAB102_3_1,Length=0.015520000,Units=km
new line.TR12156277 bus1=BMT158163197.1.2.3,bus2=BMT8752309B.1.2.3,Phases=3,Linecode=CAB102_3_3,Length=0.017177000,Units=km
new line.TR12156278 bus1=BMT1351610B.1.2.3,bus2=BMT8752309B.1.2.3,Phases=3,Linecode=CAB102_3_3,Length=0.016536000,Units=km
new line.TR12156283 bus1=BMT1349146B.1.2.3,bus2=BMT8752313B.1.2.3,Phases=3,Linecode=CAB104_3_3,Length=0.015225000,Units=km
new line.TR12156284 bus1=BMT1349153B.1.2.3,bus2=BMT8752313B.1.2.3,Phases=3,Linecode=CAB104_3_3,Length=0.018162000,Units=km
new line.TR12517934 bus1=BMT169647895.1.2.3,bus2=BMT169647898.1.2.3,Phases=3,Linecode=CAB102_3_3,Length=0.021408000,Units=km
new line.TR12517935 bus1=BMT169647898.1.2.3,bus2=BMT1078638B.1.2.3,Phases=3,Linecode=CABA06_3_3,Length=0.024216000,Units=km
new line.TR12551442 bus1=BMT164629673.1.2.3,bus2=BMT6984581B.1.2.3,Phases=3,Linecode=CABA06_3_3,Length=0.038340000,Units=km
new line.TR12551443 bus1=BMT6984581B.1.2.3,bus2=BMT6984588B.1.2.3,Phases=3,Linecode=CABA06_3_3,Length=0.027902000,Units=km
new line.TR12551444 bus1=BMT6984588B.1.2.3,bus2=BMT6984595B.1.2.3,Phases=3,Linecode=CABA06_3_3,Length=0.025970000,Units=km
new line.TR12551445 bus1=BMT6984595B.1.2.3,bus2=BMT9160454B.1.2.3,Phases=3,Linecode=CABA06_3_3,Length=0.043431000,Units=km
new line.TR12551446 bus1=BMT9160454B.1.2.3,bus2=BMT164629674.1.2.3,Phases=3,Linecode=CABA06_3_3,Length=0.027902000,Units=km
new line.TR12551756 bus1=BMT164638269.1.2.3,bus2=BMT9160732B.1.2.3,Phases=3,Linecode=CABA06_3_3,Length=0.037656000,Units=km
new line.TR12551758 bus1=BMT9160732B.1.2.3,bus2=BMT9160733B.1.2.3,Phases=3,Linecode=CABA06_3_3,Length=0.030027000,Units=km
new line.TR12551760 bus1=BMT9160733B.1.2.3,bus2=BMT9160735B.1.2.3,Phases=3,Linecode=CABA06_3_3,Length=0.029742000,Units=km
new line.TR12161146 bus1=BMT8757733B.1.2.3,bus2=BMT164638276.1.2.3,Phases=3,Linecode=CABA06_3_3,Length=0.041196000,Units=km
new line.TR12315074 bus1=BMT1355887B.1.2.3,bus2=BMT8916791B.1.2.3,Phases=3,Linecode=CAB107_3_3,Length=0.018048000,Units=km
new line.TR12315075 bus1=BMT8916791B.1.2.3,bus2=BMT1355894B.1.2.3,Phases=3,Linecode=CAB107_3_3,Length=0.013946000,Units=km
new line.TR12353341 bus1=BMT161700822.1.2.3,bus2=BMT1346178B.1.2.3,Phases=3,Linecode=CABA08_3_3,Length=0.008489000,Units=km
new line.TR12353345 bus1=BMT1346178B.1.2.3,bus2=BMT1350868B.1.2.3,Phases=3,Linecode=CABA08_3_3,Length=0.024050000,Units=km
new line.TR12353346 bus1=BMT1350868B.1.2.3,bus2=BMT1350875B.1.2.3,Phases=3,Linecode=CABA08_3_3,Length=0.033253000,Units=km
new line.TR12353347 bus1=BMT1350875B.1.2.3,bus2=BMT1350882B.1.2.3,Phases=3,Linecode=CABA08_3_3,Length=0.031964000,Units=km
new line.TR12353348 bus1=BMT1350882B.1.2.3,bus2=BMT1350896B.1.2.3,Phases=3,Linecode=CABA08_3_3,Length=0.034187000,Units=km
new line.TR12353349 bus1=BMT1350896B.1.2.3,bus2=BMT161700824.1.2.3,Phases=3,Linecode=CABA08_3_3,Length=0.032433000,Units=km
new line.TR12353470 bus1=BMT161700818.1.2.3,bus2=BMT161700819.1.2.3,Phases=3,Linecode=CABA08_3_3,Length=0.051056000,Units=km
new line.TR12353494 bus1=BMT1350924B.1.2.3,bus2=BMT161700824.1.2.3,Phases=3,Linecode=CABA08_3_3,Length=0.026681000,Units=km
new line.TR12628475 bus1=BMT167333768.1.2.3,bus2=BMT167333769.1.2.3,Phases=3,Linecode=CABA08_3_3,Length=0.018391000,Units=km
new line.TR12698412 bus1=BMT169646324.1.2.3,bus2=BMT169646331.1.2.3,Phases=3,Linecode=CABA06_3_3,Length=0.038431000,Units=km
new line.TR12698413 bus1=BMT169646331.1.2.3,bus2=BMT1090293B.1.2.3,Phases=3,Linecode=CABA06_3_3,Length=0.040126000,Units=km
new line.TR12698418 bus1=BMT169646331.1.2.3,bus2=BMT1087752B.1.2.3,Phases=3,Linecode=CABA06_3_3,Length=0.020007000,Units=km
new line.TR12731703 bus1=BMT170742884.1.2.3,bus2=BMT2516851B.1.2.3,Phases=3,Linecode=CABA06_3_3,Length=0.047555000,Units=km
new line.TR12731706 bus1=BMT2516858B.1.2.3,bus2=BMT9338834B.1.2.3,Phases=3,Linecode=CABA06_3_3,Length=0.059560000,Units=km
new line.TR12731708 bus1=BMT9338834B.1.2.3,bus2=BMT170742885.1.2.3,Phases=3,Linecode=CABA06_3_3,Length=0.061705000,Units=km
new line.TR12787264 bus1=BMT1331324B.1.2.3,bus2=BMT176615687.1.2.3,Phases=3,Linecode=CAB102_3_3,Length=0.014871000,Units=km
new line.TR12787265 bus1=BMT176615687.1.2.3,bus2=BMT1331331B.1.2.3,Phases=3,Linecode=CAB102_3_3,Length=0.017698000,Units=km
new line.TR12787273 bus1=BMT176615687.1.2.3,bus2=BMT176615689.1.2.3,Phases=3,Linecode=CAB102_3_3,Length=0.008606000,Units=km
new line.TR12787274 bus1=BMT176615689.1.2.3,bus2=BMT172634250.1.2.3,Phases=3,Linecode=CABA06_3_3,Length=0.036137000,Units=km
new line.TR12911440 bus1=BMT176715148.1.2.3,bus2=BMT176579242.1.2.3,Phases=3,Linecode=CABA06_3_3,Length=0.005021000,Units=km
new line.TR12911441 bus1=BMT176579366.1.2.3,bus2=BMT176579367.1.2.3,Phases=3,Linecode=CABA06_3_3,Length=0.021180000,Units=km
new line.TR12911443 bus1=BMT176579368.1.2.3,bus2=BMT176579369.1.2.3,Phases=3,Linecode=CABA06_3_3,Length=0.017185000,Units=km
new line.TR1604114 bus1=BMT158163321.3,bus2=BMT1064645B.3,Phases=1,Linecode=CAB102_3_1,Length=0.034551000,Units=km
new line.TR1604121 bus1=BMT158163321.1.2.3,bus2=BMT1065163B.1.2.3,Phases=3,Linecode=CAB102_3_3,Length=0.031315000,Units=km
new line.TR1604135 bus1=BMT1064645B.3,bus2=BMT1064652B.3,Phases=1,Linecode=CAB102_3_1,Length=0.037709000,Units=km
new line.TR1604149 bus1=BMT1064652B.3,bus2=BMT158163323.3,Phases=1,Linecode=CAB102_3_1,Length=0.038639000,Units=km
new line.TR1604156 bus1=BMT1064659B.1.2.3,bus2=BMT158163319.1.2.3,Phases=3,Linecode=CAB102_3_3,Length=0.037589000,Units=km
new line.TR1604163 bus1=BMT158163320.1.2.3,bus2=BMT158163321.1.2.3,Phases=3,Linecode=CAB102_3_3,Length=0.042968000,Units=km
new line.TR1604170 bus1=BMT158163320.1.2.3,bus2=BMT1064659B.1.2.3,Phases=3,Linecode=CAB102_3_3,Length=0.035480000,Units=km
new line.TR1604513 bus1=BMT1064932B.1.2.3,bus2=BMT1066675B.1.2.3,Phases=3,Linecode=CAB102_3_3,Length=0.036068000,Units=km
new line.TR1604548 bus1=BMT1064946B.1.2.3,bus2=BMT1064932B.1.2.3,Phases=3,Linecode=CAB102_3_3,Length=0.034187000,Units=km
new line.TR1604562 bus1=BMT158241911.1.2.3,bus2=BMT1064946B.1.2.3,Phases=3,Linecode=CAB102_3_3,Length=0.037349000,Units=km
new line.TR1604590 bus1=BMT1064967B.1.2.3,bus2=BMT158241911.1.2.3,Phases=3,Linecode=CAB102_3_3,Length=0.035480000,Units=km
new line.TR1604597 bus1=BMT158163224.1.2.3,bus2=BMT1064967B.1.2.3,Phases=3,Linecode=CAB102_3_3,Length=0.039230000,Units=km
new line.TR1604604 bus1=BMT172639267.1.2.3,bus2=BMT1074746B.1.2.3,Phases=3,Linecode=CAB102_3_3,Length=0.031791000,Units=km
new line.TR1604618 bus1=BMT1064981B.1.2.3,bus2=BMT158163224.1.2.3,Phases=3,Linecode=CAB102_3_3,Length=0.033537000,Units=km
new line.TR1604800 bus1=BMT1065163B.1.2.3,bus2=BMT1065170B.1.2.3,Phases=3,Linecode=CAB102_3_3,Length=0.039013000,Units=km
new line.TR1604821 bus1=BMT1065170B.1.2.3,bus2=BMT158163324.1.2.3,Phases=3,Linecode=CAB102_3_3,Length=0.035859000,Units=km
new line.TR1605402 bus1=BMT170334665.1.2.3,bus2=BMT170334666.1.2.3,Phases=3,Linecode=CAB102_3_3,Length=0.034493000,Units=km
new line.TR1605409 bus1=BMT170334665.1.2.3,bus2=BMT170334664.1.2.3,Phases=3,Linecode=CAB104_3_3,Length=0.029165000,Units=km
new line.TR1605416 bus1=BMT170334665.1.2.3,bus2=BMT158163275.1.2.3,Phases=3,Linecode=CAB102_3_3,Length=0.024174000,Units=km
new line.TR1605437 bus1=BMT1065513B.1.2.3,bus2=BMT170334665.1.2.3,Phases=3,Linecode=CAB104_3_3,Length=0.035126000,Units=km
new line.TR1605451 bus1=BMT168543227.1.2.3,bus2=BMT167359440.1.2.3,Phases=3,Linecode=CAB102_3_3,Length=0.028802000,Units=km
new line.TR1605458 bus1=BMT158163275.1.2.3,bus2=BMT1065569B.1.2.3,Phases=3,Linecode=CAB102_3_3,Length=0.036371000,Units=km
new line.TR1605472 bus1=BMT1065534B.1.2.3,bus2=BMT1065513B.1.2.3,Phases=3,Linecode=CAB104_3_3,Length=0.031964000,Units=km
new line.TR1605514 bus1=BMT170339931.1.2.3,bus2=BMT1076559B.1.2.3,Phases=3,Linecode=CABA06_3_3,Length=0.031964000,Units=km
new line.TR1605535 bus1=BMT1065555B.1.2.3,bus2=BMT1065534B.1.2.3,Phases=3,Linecode=CAB104_3_3,Length=0.030949000,Units=km
new line.TR1605570 bus1=BMT1065590B.1.2.3,bus2=BMT1065604B.1.2.3,Phases=3,Linecode=CAB107_3_3,Length=0.028802000,Units=km
new line.TR1605577 bus1=BMT176431072.1.2.3,bus2=BMT176431073.1.2.3,Phases=3,Linecode=CAB104_3_3,Length=0.026086000,Units=km
new line.TR1605584 bus1=BMT176431072.1.2.3,bus2=BMT176431074.1.2.3,Phases=3,Linecode=CAB104_3_3,Length=0.032322000,Units=km
new line.TR1605598 bus1=BMT1065604B.1.2.3,bus2=BMT165002348.1.2.3,Phases=3,Linecode=CAB107_3_3,Length=0.028802000,Units=km
new line.TR1605605 bus1=BMT176431073.1.2.3,bus2=BMT158163181.1.2.3,Phases=3,Linecode=CAB107_3_3,Length=0.031027000,Units=km
new line.TR12551825 bus1=BMT9160735B.1.2.3,bus2=BMT9160736B.1.2.3,Phases=3,Linecode=CABA06_3_3,Length=0.029843000,Units=km
new line.TR12551892 bus1=BMT9160736B.1.2.3,bus2=BMT8850711B.1.2.3,Phases=3,Linecode=CABA06_3_3,Length=0.031633000,Units=km
new line.TR12641864 bus1=BMT1301525B.1.2.3,bus2=BMT1301511B.1.2.3,Phases=3,Linecode=CAB107_3_3,Length=0.033580000,Units=km
new line.TR12692914 bus1=BMT169646332.1.2.3,bus2=BMT1086555B.1.2.3,Phases=3,Linecode=CABA06_3_3,Length=0.030027000,Units=km
new line.TR12692915 bus1=BMT1086555B.1.2.3,bus2=BMT1086541B.1.2.3,Phases=3,Linecode=CABA06_3_3,Length=0.024605000,Units=km
new line.TR12692916 bus1=BMT1086541B.1.2.3,bus2=BMT1086534B.1.2.3,Phases=3,Linecode=CABA06_3_3,Length=0.022833000,Units=km
new line.TR12692920 bus1=BMT1086534B.1.2.3,bus2=BMT7054350B.1.2.3,Phases=3,Linecode=CABA06_3_3,Length=0.035395000,Units=km
new line.TR12692923 bus1=BMT7054350B.1.2.3,bus2=BMT1087171B.1.2.3,Phases=3,Linecode=CABA06_3_3,Length=0.036413000,Units=km
new line.TR12692924 bus1=BMT1087171B.1.2.3,bus2=BMT1087745B.1.2.3,Phases=3,Linecode=CABA06_3_3,Length=0.039218000,Units=km
new line.TR12692935 bus1=BMT1087745B.1.2.3,bus2=BMT1087752B.1.2.3,Phases=3,Linecode=CABA06_3_3,Length=0.027668000,Units=km
new line.TR12766961 bus1=BMT1080325B.1.2.3,bus2=BMT171962639.1.2.3,Phases=3,Linecode=CAB102_3_3,Length=0.020623000,Units=km
new line.TR12766962 bus1=BMT173623647.1.2.3,bus2=BMT173623645.1.2.3,Phases=3,Linecode=CAB102_3_3,Length=0.018445000,Units=km
new line.TR1608657 bus1=BMT1067718B.1.2.3,bus2=BMT1354193B.1.2.3,Phases=3,Linecode=CAB102_3_3,Length=0.028027000,Units=km
new line.TR1608678 bus1=BMT1067732B.1.2.3,bus2=BMT1067718B.1.2.3,Phases=3,Linecode=CAB102_3_3,Length=0.026429000,Units=km
new line.TR1608727 bus1=BMT158163186.1.2.3,bus2=BMT1067732B.1.2.3,Phases=3,Linecode=CAB102_3_3,Length=0.027212000,Units=km
new line.TR1608734 bus1=BMT158163186.1.2.3,bus2=BMT1067774B.1.2.3,Phases=3,Linecode=CAB102_3_3,Length=0.034026000,Units=km
new line.TR1608755 bus1=BMT1067774B.1.2.3,bus2=BMT158163189.1.2.3,Phases=3,Linecode=CAB102_3_3,Length=0.032322000,Units=km
new line.TR1608776 bus1=BMT1067781B.1.2.3,bus2=BMT158163186.1.2.3,Phases=3,Linecode=CAB102_3_3,Length=0.030539000,Units=km
new line.TR1608916 bus1=BMT1067907B.1.2.3,bus2=BMT1067914B.1.2.3,Phases=3,Linecode=CAB103_3_3,Length=0.034187000,Units=km
new line.TR1608930 bus1=BMT1067914B.1.2.3,bus2=BMT158241915.1.2.3,Phases=3,Linecode=CAB103_3_3,Length=0.032905000,Units=km
new line.TR1609077 bus1=BMT158163315.1.2.3,bus2=BMT158163316.1.2.3,Phases=3,Linecode=CAB102_3_3,Length=0.026842000,Units=km
new line.TR1609091 bus1=BMT1068082B.1.2.3,bus2=BMT1067116B.1.2.3,Phases=3,Linecode=CABA06_3_3,Length=0.037668000,Units=km
new line.TR1609098 bus1=BMT1068089B.1.2.3,bus2=BMT158163315.1.2.3,Phases=3,Linecode=CAB102_3_3,Length=0.017006000,Units=km
new line.TR1609105 bus1=BMT1068096B.1.2.3,bus2=BMT1068082B.1.2.3,Phases=3,Linecode=CABA06_3_3,Length=0.035428000,Units=km
new line.TR1609119 bus1=BMT1068103B.1.2.3,bus2=BMT1068096B.1.2.3,Phases=3,Linecode=CABA06_3_3,Length=0.034408000,Units=km
new line.TR1609126 bus1=BMT158163313.1.2.3,bus2=BMT1068089B.1.2.3,Phases=3,Linecode=CAB102_3_3,Length=0.028645000,Units=km
new line.TR1609147 bus1=BMT1068117B.1.2.3,bus2=BMT1068103B.1.2.3,Phases=3,Linecode=CABA06_3_3,Length=0.036413000,Units=km
new line.TR1609168 bus1=BMT1068124B.1.2.3,bus2=BMT158163313.1.2.3,Phases=3,Linecode=CAB102_3_3,Length=0.026842000,Units=km
new line.TR1609175 bus1=BMT1068124B.1.2.3,bus2=BMT1068117B.1.2.3,Phases=3,Linecode=CABA06_3_3,Length=0.035480000,Units=km
new line.TR1609189 bus1=BMT1068159B.1.2.3,bus2=BMT170423140.1.2.3,Phases=3,Linecode=CAB102_3_3,Length=0.034187000,Units=km
new line.TR1609196 bus1=BMT170423139.1.2.3,bus2=BMT1068159B.1.2.3,Phases=3,Linecode=CAB102_3_3,Length=0.033253000,Units=km
new line.TR1609203 bus1=BMT170423139.1.2.3,bus2=BMT158163328.1.2.3,Phases=3,Linecode=CABA06_3_3,Length=0.029540000,Units=km
new line.TR1609217 bus1=BMT170423460.1.2.3,bus2=BMT170423461.1.2.3,Phases=3,Linecode=CABA06_3_3,Length=0.031395000,Units=km
new line.TR1609245 bus1=BMT1068215B.1.2.3,bus2=BMT158241909.1.2.3,Phases=3,Linecode=CAB103_3_3,Length=0.033298000,Units=km
new line.TR1609252 bus1=BMT158241908.1.2.3,bus2=BMT1068215B.1.2.3,Phases=3,Linecode=CAB103_3_3,Length=0.036371000,Units=km
new line.TR1609259 bus1=BMT158241908.1.2.3,bus2=BMT1068229B.1.2.3,Phases=3,Linecode=CAB103_3_3,Length=0.040026000,Units=km
new line.TR1609280 bus1=BMT1068229B.1.2.3,bus2=BMT1074606B.1.2.3,Phases=3,Linecode=CAB103_3_3,Length=0.032584000,Units=km
new line.TR1609287 bus1=BMT1068236B.1.2.3,bus2=BMT158241908.1.2.3,Phases=3,Linecode=CAB103_3_3,Length=0.029557000,Units=km
new line.TR1610372 bus1=BMT1068887B.1.2.3,bus2=BMT158163268.1.2.3,Phases=3,Linecode=CAB103_3_3,Length=0.037228000,Units=km
new line.TR1610386 bus1=BMT1068894B.1.2.3,bus2=BMT1068887B.1.2.3,Phases=3,Linecode=CAB103_3_3,Length=0.036727000,Units=km
new line.TR1610519 bus1=BMT1068999B.1.2.3,bus2=BMT1069013B.1.2.3,Phases=3,Linecode=CAB103_3_3,Length=0.031964000,Units=km
new line.TR1610547 bus1=BMT1069013B.1.2.3,bus2=BMT1069020B.1.2.3,Phases=3,Linecode=CAB103_3_3,Length=0.036068000,Units=km
new line.TR1610561 bus1=BMT1069020B.1.2.3,bus2=BMT1069034B.1.2.3,Phases=3,Linecode=CAB103_3_3,Length=0.034797000,Units=km
new line.TR1610589 bus1=BMT1069034B.1.2.3,bus2=BMT158163235.1.2.3,Phases=3,Linecode=CAB103_3_3,Length=0.042393000,Units=km
new line.TR1610617 bus1=BMT174903321.1.2.3,bus2=BMT158163407.1.2.3,Phases=3,Linecode=CAB102_3_3,Length=0.033668000,Units=km
new line.TR1610638 bus1=BMT165235921.1.2.3,bus2=BMT165235922.1.2.3,Phases=3,Linecode=CAB102_3_3,Length=0.035529000,Units=km
new line.TR1610652 bus1=BMT165235920.1.2.3,bus2=BMT165235921.1.2.3,Phases=3,Linecode=CAB202_3_3,Length=0.035530000,Units=km
new line.TR1610666 bus1=BMT1069118B.1.2.3,bus2=BMT165235920.1.2.3,Phases=3,Linecode=CAB102_3_3,Length=0.036208000,Units=km
new line.TR1610680 bus1=BMT165235918.1.2.3,bus2=BMT165235919.1.2.3,Phases=3,Linecode=CAB102_3_3,Length=0.044251000,Units=km
new line.TR1610771 bus1=BMT1069195B.1.2.3,bus2=BMT1069202B.1.2.3,Phases=3,Linecode=CAB107_3_3,Length=0.032322000,Units=km
new line.TR1610792 bus1=BMT1069202B.1.2.3,bus2=BMT1069209B.1.2.3,Phases=3,Linecode=CAB107_3_3,Length=0.031633000,Units=km
new line.TR1610813 bus1=BMT1069209B.1.2.3,bus2=BMT1069216B.1.2.3,Phases=3,Linecode=CAB107_3_3,Length=0.033253000,Units=km
new line.TR1610827 bus1=BMT1069216B.1.2.3,bus2=BMT1069223B.1.2.3,Phases=3,Linecode=CAB107_3_3,Length=0.033253000,Units=km
new line.TR1610848 bus1=BMT1069223B.1.2.3,bus2=BMT1069230B.1.2.3,Phases=3,Linecode=CAB107_3_3,Length=0.034187000,Units=km
new line.TR1610869 bus1=BMT1069230B.1.2.3,bus2=BMT1069237B.1.2.3,Phases=3,Linecode=CAB107_3_3,Length=0.033849000,Units=km
new line.TR1610890 bus1=BMT1069237B.1.2.3,bus2=BMT1069244B.1.2.3,Phases=3,Linecode=CAB107_3_3,Length=0.033849000,Units=km
new line.TR1610925 bus1=BMT1069244B.1.2.3,bus2=BMT1069258B.1.2.3,Phases=3,Linecode=CAB107_3_3,Length=0.033253000,Units=km
new line.TR1610939 bus1=BMT158163116.1.2.3,bus2=BMT158163117.1.2.3,Phases=3,Linecode=CAB104_3_3,Length=0.024421000,Units=km
new line.TR1610946 bus1=BMT158163116.1.2.3,bus2=BMT158163119.1.2.3,Phases=3,Linecode=CAB104_3_3,Length=0.029742000,Units=km
new line.TR1610953 bus1=BMT158163116.1.2.3,bus2=BMT158163120.1.2.3,Phases=3,Linecode=CAB104_3_3,Length=0.037349000,Units=km
new line.TR1610967 bus1=BMT1069258B.1.2.3,bus2=BMT158163118.1.2.3,Phases=3,Linecode=CAB107_3_3,Length=0.030686000,Units=km
new line.TR1610974 bus1=BMT158163118.1.2.3,bus2=BMT1069272B.1.2.3,Phases=3,Linecode=CAB107_3_3,Length=0.032707000,Units=km
new line.TR1610988 bus1=BMT1069272B.1.2.3,bus2=BMT1069279B.1.2.3,Phases=3,Linecode=CAB107_3_3,Length=0.031964000,Units=km
new line.TR1611002 bus1=BMT1069279B.1.2.3,bus2=BMT1069286B.1.2.3,Phases=3,Linecode=CAB107_3_3,Length=0.023417000,Units=km
new line.TR1611016 bus1=BMT1069286B.1.2.3,bus2=BMT1069293B.1.2.3,Phases=3,Linecode=CAB107_3_3,Length=0.027523000,Units=km
new line.TR1611023 bus1=BMT1069293B.1.2.3,bus2=BMT1069300B.1.2.3,Phases=3,Linecode=CAB107_3_3,Length=0.028802000,Units=km
new line.TR1611037 bus1=BMT1069300B.1.2.3,bus2=BMT1065590B.1.2.3,Phases=3,Linecode=CAB107_3_3,Length=0.024707000,Units=km
new line.TR1611373 bus1=BMT172440516.1.2.3,bus2=BMT1069496B.1.2.3,Phases=3,Linecode=CABA06_3_3,Length=0.036068000,Units=km
new line.TR1611394 bus1=BMT1069496B.1.2.3,bus2=BMT158163243.1.2.3,Phases=3,Linecode=CABA06_3_3,Length=0.033849000,Units=km
new line.TR1611569 bus1=BMT158163237.1.2.3,bus2=BMT158163236.1.2.3,Phases=3,Linecode=CAB102_3_3,Length=0.035480000,Units=km
new line.TR1611576 bus1=BMT158163237.1.2.3,bus2=BMT158163238.1.2.3,Phases=3,Linecode=CABA06_3_3,Length=0.033849000,Units=km
new line.TR1611590 bus1=BMT158163236.1.2.3,bus2=BMT1069608B.1.2.3,Phases=3,Linecode=CAB102_3_3,Length=0.037012000,Units=km
new line.TR1611618 bus1=BMT1069608B.1.2.3,bus2=BMT1069622B.1.2.3,Phases=3,Linecode=CAB102_3_3,Length=0.029165000,Units=km
new line.TR1611632 bus1=BMT158163241.1.2.3,bus2=BMT1070000B.1.2.3,Phases=3,Linecode=CABA06_3_3,Length=0.030686000,Units=km
new line.TR1611646 bus1=BMT1069622B.1.2.3,bus2=BMT158163234.1.2.3,Phases=3,Linecode=CAB102_3_3,Length=0.034797000,Units=km
new line.TR1611653 bus1=BMT174903317.1.2.3,bus2=BMT1069636B.1.2.3,Phases=3,Linecode=CAB102_3_3,Length=0.034925000,Units=km
new line.TR1611660 bus1=BMT174903317.1.2.3,bus2=BMT1355040B.1.2.3,Phases=3,Linecode=CAB102_3_3,Length=0.027268000,Units=km
new line.TR1611681 bus1=BMT1069636B.1.2.3,bus2=BMT1069643B.1.2.3,Phases=3,Linecode=CAB102_3_3,Length=0.035808000,Units=km
new line.TR1611688 bus1=BMT1069643B.1.2.3,bus2=BMT1069650B.1.2.3,Phases=3,Linecode=CAB102_3_3,Length=0.035808000,Units=km