new load.3003658559M1 bus1=RML1002318954.1.2.0,Phases=2,kv=0.22,kW=0.6582,pf=0.92,Vminpu=0.92,Vmaxpu=1.5,model=8,zipv=[0.5,0,0.5,1,0,0,0],daily=RES2_6,status=variable
new load.3003658571M1 bus1=RML1002319129.1.2.0,Phases=2,kv=0.22,kW=0.82744,pf=0.92,Vminpu=0.92,Vmaxpu=1.5,model=8,zipv=[0.5,0,0.5,1,0,0,0],daily=RES2_6,status=variable
new load.3003658572M1 bus1=RML1002318996.2.3.0,Phases=2,kv=0.22,kW=0.84626,pf=0.92,Vminpu=0.92,Vmaxpu=1.5,model=8,zipv=[0.5,0,0.5,1,0,0,0],daily=RES2_6,status=variable
new load.3003658573M1 bus1=RML1002319080.1.2.0,Phases=2,kv=0.22,kW=0.48268,pf=0.92,Vminpu=0.92,Vmaxpu=1.5,model=8,zipv=[0.5,0,0.5,1,0,0,0],daily=RES2_6,status=variable
new load.3003658574M1 bus1=RML1002318989.2.3.0,Phases=2,kv=0.22,kW=1.1346,pf=0.92,Vminpu=0.92,Vmaxpu=1.5,model=8,zipv=[0.5,0,0.5,1,0,0,0],daily=RES2_6,status=variable
new load.3003658575M1 bus1=RML1002318975.1.0,Phases=1,kv=0.127,kW=1.27878,pf=0.92,Vminpu=0.92,Vmaxpu=1.5,model=8,zipv=[0.5,0,0.5,1,0,0,0],daily=RES2_6,status=variable
new load.3003658556M1 bus1=RML1002319024.1.3.0,Phases=2,kv=0.22,kW=0.95908,pf=0.92,Vminpu=0.92,Vmaxpu=1.5,model=8,zipv=[0.5,0,0.5,1,0,0,0],daily=RES2_6,status=variable
new load.3003658557M1 bus1=RML1002319108.1.3.0,Phases=2,kv=0.22,kW=1.2349,pf=0.92,Vminpu=0.92,Vmaxpu=1.5,model=8,zipv=[0.5,0,0.5,1,0,0,0],daily=RES2_6,status=variable
new load.3003690579M1 bus1=RML1002319115.1.3.0,Phases=2,kv=0.22,kW=0.68328,pf=0.92,Vminpu=0.92,Vmaxpu=1.5,model=8,zipv=[0.5,0,0.5,1,0,0,0],daily=RES2_6,status=variable
new load.3003451155M1 bus1=RML1002789109.2.0,Phases=1,kv=0.127,kW=1.8648,pf=0.92,Vminpu=0.92,Vmaxpu=1.5,model=8,zipv=[0.5,0,0.5,1,0,0,0],daily=RES3_3,status=variable
new load.3003548690M1 bus1=RML1002789032.2.3.0,Phases=2,kv=0.22,kW=1.38322,pf=0.92,Vminpu=0.92,Vmaxpu=1.5,model=8,zipv=[0.5,0,0.5,1,0,0,0],daily=RES3_4,status=variable
new load.3010357949M1 bus1=RML1007782783.1.0,Phases=1,kv=0.127,kW=1.54408,pf=0.92,Vminpu=0.92,Vmaxpu=1.5,model=8,zipv=[0.5,0,0.5,1,0,0,0],daily=RES1_5,status=variable
new load.3010609448M1 bus1=RML1008003500.2.0,Phases=1,kv=0.127,kW=1.11646,pf=0.92,Vminpu=0.92,Vmaxpu=1.5,model=8,zipv=[0.5,0,0.5,1,0,0,0],daily=RES3_11,status=variable
new load.3010711588M1 bus1=RML1008169309.1.0,Phases=1,kv=0.127,kW=0.89324,pf=0.92,Vminpu=0.92,Vmaxpu=1.5,model=8,zipv=[0.5,0,0.5,1,0,0,0],daily=RES2_13,status=variable
new load.3010764424M1 bus1=RML1002803403.2.3.0,Phases=2,kv=0.22,kW=0.03254,pf=0.92,Vminpu=0.92,Vmaxpu=1.5,model=8,zipv=[0.5,0,0.5,1,0,0,0],daily=RES1_14,status=variable
new load.3000201831M1 bus1=RML1002803389.1.2.0,Phases=2,kv=0.22,kW=0.83348,pf=0.92,Vminpu=0.92,Vmaxpu=1.5,model=8,zipv=[0.5,0,0.5,1,0,0,0],daily=RES1_2,status=variable
new load.3000201883M1 bus1=RML1002803403.2.3.0,Phases=2,kv=0.22,kW=1.16406,pf=0.92,Vminpu=0.92,Vmaxpu=1.5,model=8,zipv=[0.5,0,0.5,1,0,0,0],daily=RES2_4,status=variable
new load.3000201884M1 bus1=RML1002803382.1.3.0,Phases=2,kv=0.22,kW=1.25468,pf=0.92,Vminpu=0.92,Vmaxpu=1.5,model=8,zipv=[0.5,0,0.5,1,0,0,0],daily=RES3_4,status=variable
new load.3000201885M1 bus1=RML1002803396.2.0,Phases=1,kv=0.127,kW=0.4059,pf=0.92,Vminpu=0.92,Vmaxpu=1.5,model=8,zipv=[0.5,0,0.5,1,0,0,0],daily=COM1_5,status=variable
new load.3003449367M1 bus1=RML1002287090.3.0,Phases=1,kv=0.127,kW=1.30762,pf=0.92,Vminpu=0.92,Vmaxpu=1.5,model=8,zipv=[0.5,0,0.5,1,0,0,0],daily=RES2_2,status=variable
new load.3000202916M1 bus1=RML1002287174.3.0,Phases=1,kv=0.127,kW=0.49028,pf=0.92,Vminpu=0.92,Vmaxpu=1.5,model=8,zipv=[0.5,0,0.5,1,0,0,0],daily=RES1_2,status=variable
new load.3000202917M1 bus1=RML1002287160.1.0,Phases=1,kv=0.127,kW=0.61776,pf=0.92,Vminpu=0.92,Vmaxpu=1.5,model=8,zipv=[0.5,0,0.5,1,0,0,0],daily=RES1_2,status=variable
new load.3000202907M1 bus1=RML1002803410.1.0,Phases=1,kv=0.127,kW=0.43146,pf=0.92,Vminpu=0.92,Vmaxpu=1.5,model=8,zipv=[0.5,0,0.5,1,0,0,0],daily=RES1_2,status=variable
new load.3000202908M1 bus1=RML1002803424.2.0,Phases=1,kv=0.127,kW=1.12766,pf=0.92,Vminpu=0.92,Vmaxpu=1.5,model=8,zipv=[0.5,0,0.5,1,0,0,0],daily=RES1_2,status=variable
new load.3000202909M1 bus1=RML1002287076.3.0,Phases=1,kv=0.127,kW=1.8471,pf=0.92,Vminpu=0.92,Vmaxpu=1.5,model=8,zipv=[0.5,0,0.5,1,0,0,0],daily=RES2_4,status=variable
new load.3000202911M1 bus1=RML1002287097.1.2.0,Phases=2,kv=0.22,kW=0.59646,pf=0.92,Vminpu=0.92,Vmaxpu=1.5,model=8,zipv=[0.5,0,0.5,1,0,0,0],daily=RES2_4,status=variable
new load.3000202912M1 bus1=RML1002287111.3.0,Phases=1,kv=0.127,kW=1.01012,pf=0.92,Vminpu=0.92,Vmaxpu=1.5,model=8,zipv=[0.5,0,0.5,1,0,0,0],daily=RES2_4,status=variable
new load.3000202913M1 bus1=RML1002287125.2.0,Phases=1,kv=0.127,kW=0.99088,pf=0.92,Vminpu=0.92,Vmaxpu=1.5,model=8,zipv=[0.5,0,0.5,1,0,0,0],daily=RES2_4,status=variable
new load.3000202914M1 bus1=RML1010650173.2.0,Phases=1,kv=0.127,kW=0.7119,pf=0.92,Vminpu=0.92,Vmaxpu=1.5,model=8,zipv=[0.5,0,0.5,1,0,0,0],daily=RES2_4,status=variable
new load.3003480632M1 bus1=RML1002276429.2.0,Phases=1,kv=0.12,kW=1.33426,pf=0.92,Vminpu=0.92,Vmaxpu=1.5,model=8,zipv=[0.5,0,0.5,1,0,0,0],daily=RES3_4,status=variable
new load.3010400331M1 bus1=RML1002276338.1.2.0,Phases=2,kv=0.24,kW=1.05938,pf=0.92,Vminpu=0.92,Vmaxpu=1.5,model=8,zipv=[0.5,0,0.5,1,0,0,0],daily=RES2_6,status=variable
new load.3000201849M1 bus1=RML1002278144.1.3.0,Phases=2,kv=0.22,kW=0.80406,pf=0.92,Vminpu=0.92,Vmaxpu=1.5,model=8,zipv=[0.5,0,0.5,1,0,0,0],daily=RES1_2,status=variable
new load.3000201850M1 bus1=RML1002278137.3.0,Phases=1,kv=0.127,kW=1.039,pf=0.92,Vminpu=0.92,Vmaxpu=1.5,model=8,zipv=[0.5,0,0.5,1,0,0,0],daily=RES2_4,status=variable
new load.3000201852M1 bus1=RML1002278123.3.0,Phases=1,kv=0.127,kW=1.00018,pf=0.92,Vminpu=0.92,Vmaxpu=1.5,model=8,zipv=[0.5,0,0.5,1,0,0,0],daily=RES1_2,status=variable
new load.3000201853M1 bus1=RML1002278165.2.3.0,Phases=2,kv=0.22,kW=2.0395,pf=0.92,Vminpu=0.92,Vmaxpu=1.5,model=8,zipv=[0.5,0,0.5,1,0,0,0],daily=RES2_4,status=variable
new load.3000201854M1 bus1=RML1002278158.2.0,Phases=1,kv=0.127,kW=0.48048,pf=0.92,Vminpu=0.92,Vmaxpu=1.5,model=8,zipv=[0.5,0,0.5,1,0,0,0],daily=RES1_2,status=variable
new load.3000201856M1 bus1=RML1002278179.1.2.0,Phases=2,kv=0.22,kW=1.76052,pf=0.92,Vminpu=0.92,Vmaxpu=1.5,model=8,zipv=[0.5,0,0.5,1,0,0,0],daily=RES2_4,status=variable
new load.3000201694M1 bus1=RML1002278431.2.3.0,Phases=2,kv=0.22,kW=1.19292,pf=0.92,Vminpu=0.92,Vmaxpu=1.5,model=8,zipv=[0.5,0,0.5,1,0,0,0],daily=RES2_4,status=variable
new load.3000201695M1 bus1=RML1002278536.1.2.3.0,Phases=3,kv=0.22,kW=1.3276,pf=0.92,Vminpu=0.92,Vmaxpu=1.5,model=8,zipv=[0.5,0,0.5,1,0,0,0],daily=RES2_4,status=variable
new load.3000201696M1 bus1=RML1002278529.1.2.0,Phases=2,kv=0.22,kW=0.77924,pf=0.92,Vminpu=0.92,Vmaxpu=1.5,model=8,zipv=[0.5,0,0.5,1,0,0,0],daily=RES2_4,status=variable
new load.3000201697M1 bus1=RML1002278522.1.2.0,Phases=2,kv=0.22,kW=1.85672,pf=0.92,Vminpu=0.92,Vmaxpu=1.5,model=8,zipv=[0.5,0,0.5,1,0,0,0],daily=RES2_4,status=variable
new load.3000201698M1 bus1=RML1002278571.1.2.0,Phases=2,kv=0.22,kW=1.78938,pf=0.92,Vminpu=0.92,Vmaxpu=1.5,model=8,zipv=[0.5,0,0.5,1,0,0,0],daily=RES2_4,status=variable
new load.3000201699M1 bus1=RML1002278564.1.2.0,Phases=2,kv=0.22,kW=1.65252,pf=0.92,Vminpu=0.92,Vmaxpu=1.5,model=8,zipv=[0.5,0,0.5,1,0,0,0],daily=RES3_4,status=variable
new load.3000201700M1 bus1=RML1002278557.1.2.0,Phases=2,kv=0.22,kW=0.40204,pf=0.92,Vminpu=0.92,Vmaxpu=1.5,model=8,zipv=[0.5,0,0.5,1,0,0,0],daily=RES1_2,status=variable
new load.3000201701M1 bus1=RML1002278550.1.2.0,Phases=2,kv=0.22,kW=2.17306,pf=0.92,Vminpu=0.92,Vmaxpu=1.5,model=8,zipv=[0.5,0,0.5,1,0,0,0],daily=RES5_5,status=variable
new load.3000201702M1 bus1=RML1002278578.1.2.0,Phases=2,kv=0.22,kW=2.60788,pf=0.92,Vminpu=0.92,Vmaxpu=1.5,model=8,zipv=[0.5,0,0.5,1,0,0,0],daily=RES4_5,status=variable
new load.3000201704M1 bus1=RML1006207930.2.0,Phases=1,kv=0.127,kW=1.11392,pf=0.92,Vminpu=0.92,Vmaxpu=1.5,model=8,zipv=[0.5,0,0.5,1,0,0,0],daily=RES3_4,status=variable
new load.3003524965M1 bus1=RML1010920882.2.0,Phases=1,kv=0.127,kW=0.93154,pf=0.92,Vminpu=0.92,Vmaxpu=1.5,model=8,zipv=[0.5,0,0.5,1,0,0,0],daily=RES1_2,status=variable
new load.3003556076M1 bus1=RML1002278543.2.0,Phases=1,kv=0.127,kW=2.77868,pf=0.92,Vminpu=0.92,Vmaxpu=1.5,model=8,zipv=[0.5,0,0.5,1,0,0,0],daily=RES3_4,status=variable
new load.3003388056M1 bus1=RML1002278473.1.0,Phases=1,kv=0.127,kW=0.57478,pf=0.92,Vminpu=0.92,Vmaxpu=1.5,model=8,zipv=[0.5,0,0.5,1,0,0,0],daily=RES2_2,status=variable
new load.3003352807M1 bus1=RML1002278256.3.0,Phases=1,kv=0.127,kW=1.08074,pf=0.92,Vminpu=0.92,Vmaxpu=1.5,model=8,zipv=[0.5,0,0.5,1,0,0,0],daily=RES2_1,status=variable
new load.3000201743M1 bus1=RML1002278298.1.3.0,Phases=2,kv=0.22,kW=1.81824,pf=0.92,Vminpu=0.92,Vmaxpu=1.5,model=8,zipv=[0.5,0,0.5,1,0,0,0],daily=RES2_4,status=variable
new load.3000203004M1 bus1=RML1002278263.3.0,Phases=1,kv=0.127,kW=0.89358,pf=0.92,Vminpu=0.92,Vmaxpu=1.5,model=8,zipv=[0.5,0,0.5,1,0,0,0],daily=RES3_4,status=variable
new load.3000203005M1 bus1=RML1002278277.2.0,Phases=1,kv=0.127,kW=1.37098,pf=0.92,Vminpu=0.92,Vmaxpu=1.5,model=8,zipv=[0.5,0,0.5,1,0,0,0],daily=RES3_4,status=variable
new load.3000203006M1 bus1=RML1002278228.2.0,Phases=1,kv=0.127,kW=0.5197,pf=0.92,Vminpu=0.92,Vmaxpu=1.5,model=8,zipv=[0.5,0,0.5,1,0,0,0],daily=RES1_2,status=variable
new load.3000203007M1 bus1=RML1010118469.1.2.0,Phases=2,kv=0.22,kW=1.44442,pf=0.92,Vminpu=0.92,Vmaxpu=1.5,model=8,zipv=[0.5,0,0.5,1,0,0,0],daily=RES3_4,status=variable
new load.3000203008M1 bus1=RML1002278200.2.0,Phases=1,kv=0.127,kW=1.3757,pf=0.92,Vminpu=0.92,Vmaxpu=1.5,model=8,zipv=[0.5,0,0.5,1,0,0,0],daily=RES2_4,status=variable
new load.3000203009M1 bus1=RML1002278284.1.0,Phases=1,kv=0.127,kW=1.84224,pf=0.92,Vminpu=0.92,Vmaxpu=1.5,model=8,zipv=[0.5,0,0.5,1,0,0,0],daily=RES3_4,status=variable
new load.3000203010M1 bus1=RML1002278270.3.0,Phases=1,kv=0.127,kW=1.17368,pf=0.92,Vminpu=0.92,Vmaxpu=1.5,model=8,zipv=[0.5,0,0.5,1,0,0,0],daily=RES2_4,status=variable
new load.3000203011M1 bus1=RML1002278354.1.0,Phases=1,kv=0.127,kW=0.8727,pf=0.92,Vminpu=0.92,Vmaxpu=1.5,model=8,zipv=[0.5,0,0.5,1,0,0,0],daily=RES1_2,status=variable
new load.3000203012M1 bus1=RML1002278340.2.0,Phases=1,kv=0.127,kW=0.99088,pf=0.92,Vminpu=0.92,Vmaxpu=1.5,model=8,zipv=[0.5,0,0.5,1,0,0,0],daily=RES2_4,status=variable
new load.3000203013M1 bus1=RML1010650072.2.0,Phases=1,kv=0.127,kW=1.20254,pf=0.92,Vminpu=0.92,Vmaxpu=1.5,model=8,zipv=[0.5,0,0.5,1,0,0,0],daily=RES2_4,status=variable
new load.3000203014M1 bus1=RML1002278487.3.0,Phases=1,kv=0.127,kW=1.58734,pf=0.92,Vminpu=0.92,Vmaxpu=1.5,model=8,zipv=[0.5,0,0.5,1,0,0,0],daily=RES2_4,status=variable
new load.3000203027M1 bus1=RML1002278445.1.0,Phases=1,kv=0.127,kW=1.2314,pf=0.92,Vminpu=0.92,Vmaxpu=1.5,model=8,zipv=[0.5,0,0.5,1,0,0,0],daily=RES2_4,status=variable
new load.3003611814M1 bus1=RML1002278417.1.0,Phases=1,kv=0.127,kW=0.7566,pf=0.92,Vminpu=0.92,Vmaxpu=1.5,model=8,zipv=[0.5,0,0.5,1,0,0,0],daily=RES1_3,status=variable
new load.3000203047M1 bus1=RML1002279789.1.2.0,Phases=2,kv=0.22,kW=0.78886,pf=0.92,Vminpu=0.92,Vmaxpu=1.5,model=8,zipv=[0.5,0,0.5,1,0,0,0],daily=RES2_4,status=variable
new load.3000203048M1 bus1=RML1002279796.1.2.0,Phases=2,kv=0.22,kW=1.3757,pf=0.92,Vminpu=0.92,Vmaxpu=1.5,model=8,zipv=[0.5,0,0.5,1,0,0,0],daily=RES2_4,status=variable
new load.3000203049M1 bus1=RML1002279803.3.0,Phases=1,kv=0.127,kW=0.5197,pf=0.92,Vminpu=0.92,Vmaxpu=1.5,model=8,zipv=[0.5,0,0.5,1,0,0,0],daily=RES1_2,status=variable
new load.3000203050M1 bus1=RML1002279817.1.0,Phases=1,kv=0.127,kW=0.8433,pf=0.92,Vminpu=0.92,Vmaxpu=1.5,model=8,zipv=[0.5,0,0.5,1,0,0,0],daily=RES1_2,status=variable
new load.3000203051M1 bus1=RML1002279831.1.0,Phases=1,kv=0.127,kW=2.21266,pf=0.92,Vminpu=0.92,Vmaxpu=1.5,model=8,zipv=[0.5,0,0.5,1,0,0,0],daily=RES2_4,status=variable
new load.3000203052M1 bus1=RML1002279838.2.0,Phases=1,kv=0.127,kW=0.55892,pf=0.92,Vminpu=0.92,Vmaxpu=1.5,model=8,zipv=[0.5,0,0.5,1,0,0,0],daily=RES1_2,status=variable
new load.3000203053M1 bus1=RML1002279768.1.0,Phases=1,kv=0.127,kW=0.62756,pf=0.92,Vminpu=0.92,Vmaxpu=1.5,model=8,zipv=[0.5,0,0.5,1,0,0,0],daily=RES1_2,status=variable
new load.3000203054M1 bus1=RML1002279754.1.0,Phases=1,kv=0.127,kW=1.55848,pf=0.92,Vminpu=0.92,Vmaxpu=1.5,model=8,zipv=[0.5,0,0.5,1,0,0,0],daily=RES2_4,status=variable
new load.3000203055M1 bus1=RML1002279740.1.3.0,Phases=2,kv=0.22,kW=2.0876,pf=0.92,Vminpu=0.92,Vmaxpu=1.5,model=8,zipv=[0.5,0,0.5,1,0,0,0],daily=RES2_4,status=variable
new load.3000203056M1 bus1=RML1002279726.2.0,Phases=1,kv=0.127,kW=1.67392,pf=0.92,Vminpu=0.92,Vmaxpu=1.5,model=8,zipv=[0.5,0,0.5,1,0,0,0],daily=RES2_4,status=variable
new load.3000203057M1 bus1=RML1002279712.1.3.0,Phases=2,kv=0.22,kW=2.04912,pf=0.92,Vminpu=0.92,Vmaxpu=1.5,model=8,zipv=[0.5,0,0.5,1,0,0,0],daily=RES2_4,status=variable
new load.3000203060M1 bus1=RML1002279670.2.0,Phases=1,kv=0.127,kW=0.93642,pf=0.92,Vminpu=0.92,Vmaxpu=1.5,model=8,zipv=[0.5,0,0.5,1,0,0,0],daily=RES3_4,status=variable
new load.3000203061M1 bus1=RML1002279656.1.2.0,Phases=2,kv=0.22,kW=1.22178,pf=0.92,Vminpu=0.92,Vmaxpu=1.5,model=8,zipv=[0.5,0,0.5,1,0,0,0],daily=RES2_4,status=variable
new load.3000203062M1 bus1=RML1002279642.1.0,Phases=1,kv=0.127,kW=1.58734,pf=0.92,Vminpu=0.92,Vmaxpu=1.5,model=8,zipv=[0.5,0,0.5,1,0,0,0],daily=RES2_4,status=variable
new load.3000203063M1 bus1=RML1002279607.2.3.0,Phases=2,kv=0.22,kW=1.11596,pf=0.92,Vminpu=0.92,Vmaxpu=1.5,model=8,zipv=[0.5,0,0.5,1,0,0,0],daily=RES2_4,status=variable
new load.3000203064M1 bus1=RML1002279621.1.0,Phases=1,kv=0.127,kW=1.65252,pf=0.92,Vminpu=0.92,Vmaxpu=1.5,model=8,zipv=[0.5,0,0.5,1,0,0,0],daily=RES3_4,status=variable
new load.3000203065M1 bus1=RML1002279600.2.3.0,Phases=2,kv=0.22,kW=0.14832,pf=0.92,Vminpu=0.92,Vmaxpu=1.5,model=8,zipv=[0.5,0,0.5,1,0,0,0],daily=COM1_5,status=variable
new load.3000203066M1 bus1=RML1002279586.1.2.0,Phases=2,kv=0.22,kW=1.81816,pf=0.92,Vminpu=0.92,Vmaxpu=1.5,model=8,zipv=[0.5,0,0.5,1,0,0,0],daily=COM3_3,status=variable
new load.3000203067M1 bus1=RML1002279614.2.0,Phases=1,kv=0.127,kW=0.91392,pf=0.92,Vminpu=0.92,Vmaxpu=1.5,model=8,zipv=[0.5,0,0.5,1,0,0,0],daily=RES2_4,status=variable
new load.3000203068M1 bus1=RML1002279635.2.0,Phases=1,kv=0.127,kW=1.85672,pf=0.92,Vminpu=0.92,Vmaxpu=1.5,model=8,zipv=[0.5,0,0.5,1,0,0,0],daily=RES2_4,status=variable
new load.3000203070M1 bus1=RML1002279663.1.0,Phases=1,kv=0.127,kW=0.6766,pf=0.92,Vminpu=0.92,Vmaxpu=1.5,model=8,zipv=[0.5,0,0.5,1,0,0,0],daily=RES1_2,status=variable
new load.3000203071M1 bus1=RML1002279677.1.0,Phases=1,kv=0.127,kW=1.64506,pf=0.92,Vminpu=0.92,Vmaxpu=1.5,model=8,zipv=[0.5,0,0.5,1,0,0,0],daily=RES2_4,status=variable
new load.3000203073M1 bus1=RML1010652756.1.2.0,Phases=2,kv=0.22,kW=0.77466,pf=0.92,Vminpu=0.92,Vmaxpu=1.5,model=8,zipv=[0.5,0,0.5,1,0,0,0],daily=RES1_2,status=variable
new load.3000203074M1 bus1=RML1002279719.1.0,Phases=1,kv=0.127,kW=1.26026,pf=0.92,Vminpu=0.92,Vmaxpu=1.5,model=8,zipv=[0.5,0,0.5,1,0,0,0],daily=RES2_4,status=variable
new load.3000203075M1 bus1=RML1002279733.1.0,Phases=1,kv=0.127,kW=1.8952,pf=0.92,Vminpu=0.92,Vmaxpu=1.5,model=8,zipv=[0.5,0,0.5,1,0,0,0],daily=RES2_4,status=variable
new load.3000203076M1 bus1=RML1002279747.3.0,Phases=1,kv=0.127,kW=0.92354,pf=0.92,Vminpu=0.92,Vmaxpu=1.5,model=8,zipv=[0.5,0,0.5,1,0,0,0],daily=RES2_4,status=variable
new load.3000203077M1 bus1=RML1002279761.3.0,Phases=1,kv=0.127,kW=0.2886,pf=0.92,Vminpu=0.92,Vmaxpu=1.5,model=8,zipv=[0.5,0,0.5,1,0,0,0],daily=RES2_4,status=variable
new load.3000203078M1 bus1=RML1002279775.3.0,Phases=1,kv=0.127,kW=0.91194,pf=0.92,Vminpu=0.92,Vmaxpu=1.5,model=8,zipv=[0.5,0,0.5,1,0,0,0],daily=RES1_2,status=variable
new load.3000203079M1 bus1=RML1002279782.3.0,Phases=1,kv=0.127,kW=0.64456,pf=0.92,Vminpu=0.92,Vmaxpu=1.5,model=8,zipv=[0.5,0,0.5,1,0,0,0],daily=RES2_4,status=variable
new load.3000203080M1 bus1=RML1002279824.1.0,Phases=1,kv=0.127,kW=1.59696,pf=0.92,Vminpu=0.92,Vmaxpu=1.5,model=8,zipv=[0.5,0,0.5,1,0,0,0],daily=RES2_4,status=variable
new load.3000203081M1 bus1=RML1002279810.1.0,Phases=1,kv=0.127,kW=1.3276,pf=0.92,Vminpu=0.92,Vmaxpu=1.5,model=8,zipv=[0.5,0,0.5,1,0,0,0],daily=RES2_4,status=variable
new load.3000203082M1 bus1=RML1002279852.2.0,Phases=1,kv=0.127,kW=1.65468,pf=0.92,Vminpu=0.92,Vmaxpu=1.5,model=8,zipv=[0.5,0,0.5,1,0,0,0],daily=RES2_4,status=variable
new load.3000203083M1 bus1=RML1002279845.1.0,Phases=1,kv=0.127,kW=0.36282,pf=0.92,Vminpu=0.92,Vmaxpu=1.5,model=8,zipv=[0.5,0,0.5,1,0,0,0],daily=RES1_2,status=variable
new load.3003325674M1 bus1=RML1002280671.1.0,Phases=1,kv=0.127,kW=0.35202,pf=0.92,Vminpu=0.92,Vmaxpu=1.5,model=8,zipv=[0.5,0,0.5,1,0,0,0],daily=RES2_1,status=variable
new load.3000201749M1 bus1=RML1002280832.1.0,Phases=1,kv=0.127,kW=2.57272,pf=0.92,Vminpu=0.92,Vmaxpu=1.5,model=8,zipv=[0.5,0,0.5,1,0,0,0],daily=RES4_5,status=variable
new load.3000201750M1 bus1=RML1002280839.1.2.3.0,Phases=3,kv=0.22,kW=1.11596,pf=0.92,Vminpu=0.92,Vmaxpu=1.5,model=8,zipv=[0.5,0,0.5,1,0,0,0],daily=RES2_4,status=variable
new load.3000201751M1 bus1=RML1002280776.1.2.0,Phases=2,kv=0.22,kW=3.20536,pf=0.92,Vminpu=0.92,Vmaxpu=1.5,model=8,zipv=[0.5,0,0.5,1,0,0,0],daily=RES4_5,status=variable
new load.3000201752M1 bus1=RML1002280783.1.2.0,Phases=2,kv=0.22,kW=0.89468,pf=0.92,Vminpu=0.92,Vmaxpu=1.5,model=8,zipv=[0.5,0,0.5,1,0,0,0],daily=RES2_4,status=variable
new load.3000201753M1 bus1=RML1002280769.3.0,Phases=1,kv=0.127,kW=1.17368,pf=0.92,Vminpu=0.92,Vmaxpu=1.5,model=8,zipv=[0.5,0,0.5,1,0,0,0],daily=RES2_4,status=variable
new load.3000201754M1 bus1=RML1002280790.2.0,Phases=1,kv=0.127,kW=1.62192,pf=0.92,Vminpu=0.92,Vmaxpu=1.5,model=8,zipv=[0.5,0,0.5,1,0,0,0],daily=RES3_4,status=variable
new load.3010672790M1 bus1=RML1006622190.2.3.0,Phases=2,kv=0.22,kW=0.23994,pf=0.92,Vminpu=0.92,Vmaxpu=1.5,model=8,zipv=[0.5,0,0.5,1,0,0,0],daily=RES3_12,status=variable
new load.3000201383M1 bus1=RML1002280741.2.3.0,Phases=2,kv=0.22,kW=1.51786,pf=0.92,Vminpu=0.92,Vmaxpu=1.5,model=8,zipv=[0.5,0,0.5,1,0,0,0],daily=RES3_4,status=variable
new load.3000201384M1 bus1=RML1002280748.2.3.0,Phases=2,kv=0.22,kW=1.58742,pf=0.92,Vminpu=0.92,Vmaxpu=1.5,model=8,zipv=[0.5,0,0.5,1,0,0,0],daily=RES2_3,status=variable
new load.3000201385M1 bus1=RML1002280755.1.0,Phases=1,kv=0.127,kW=0.75504,pf=0.92,Vminpu=0.92,Vmaxpu=1.5,model=8,zipv=[0.5,0,0.5,1,0,0,0],daily=RES1_2,status=variable
new load.3000201387M1 bus1=RML1002280797.1.2.3.0,Phases=3,kv=0.22,kW=0.98058,pf=0.92,Vminpu=0.92,Vmaxpu=1.5,model=8,zipv=[0.5,0,0.5,1,0,0,0],daily=RES1_2,status=variable
new load.3000201388M1 bus1=RML1002280804.1.0,Phases=1,kv=0.127,kW=1.54234,pf=0.92,Vminpu=0.92,Vmaxpu=1.5,model=8,zipv=[0.5,0,0.5,1,0,0,0],daily=RES3_4,status=variable
new load.3000201389M1 bus1=RML1002280811.3.0,Phases=1,kv=0.127,kW=0.71582,pf=0.92,Vminpu=0.92,Vmaxpu=1.5,model=8,zipv=[0.5,0,0.5,1,0,0,0],daily=RES1_2,status=variable
new load.3000201391M1 bus1=RML1002280846.3.0,Phases=1,kv=0.127,kW=0.83274,pf=0.92,Vminpu=0.92,Vmaxpu=1.5,model=8,zipv=[0.5,0,0.5,1,0,0,0],daily=RES2_3,status=variable
new load.3000201392M1 bus1=RML1002280853.1.2.3.0,Phases=3,kv=0.22,kW=0.1667,pf=0.92,Vminpu=0.92,Vmaxpu=1.5,model=8,zipv=[0.5,0,0.5,1,0,0,0],daily=RES1_2,status=variable
new load.3000201394M1 bus1=RML1002280860.2.0,Phases=1,kv=0.127,kW=2.13392,pf=0.92,Vminpu=0.92,Vmaxpu=1.5,model=8,zipv=[0.5,0,0.5,1,0,0,0],daily=RES2_3,status=variable
new load.3003632376M1 bus1=RML1002281448.1.2.0,Phases=2,kv=0.24,kW=0.97044,pf=0.92,Vminpu=0.92,Vmaxpu=1.5,model=8,zipv=[0.5,0,0.5,1,0,0,0],daily=RES2_5,status=variable
new load.3003677174M1 bus1=RML1002281399.2.0,Phases=1,kv=0.12,kW=1.33604,pf=0.92,Vminpu=0.92,Vmaxpu=1.5,model=8,zipv=[0.5,0,0.5,1,0,0,0],daily=RES1_4,status=variable
new load.3000201370M1 bus1=RML1002801254.2.3.0,Phases=2,kv=0.22,kW=1.54234,pf=0.92,Vminpu=0.92,Vmaxpu=1.5,model=8,zipv=[0.5,0,0.5,1,0,0,0],daily=RES3_4,status=variable
new load.3000201371M1 bus1=RML1002282680.1.2.0,Phases=2,kv=0.22,kW=1.27234,pf=0.92,Vminpu=0.92,Vmaxpu=1.5,model=8,zipv=[0.5,0,0.5,1,0,0,0],daily=COM1_5,status=variable
new load.3000201372M1 bus1=RML1002282743.1.2.3.0,Phases=3,kv=0.22,kW=2.44286,pf=0.92,Vminpu=0.92,Vmaxpu=1.5,model=8,zipv=[0.5,0,0.5,1,0,0,0],daily=RES5_5,status=variable
new load.3000201373M1 bus1=RML1002282750.1.2.0,Phases=2,kv=0.22,kW=0.353,pf=0.92,Vminpu=0.92,Vmaxpu=1.5,model=8,zipv=[0.5,0,0.5,1,0,0,0],daily=RES1_2,status=variable
new load.3000201374M1 bus1=RML1002282750.1.2.0,Phases=2,kv=0.22,kW=1.39226,pf=0.92,Vminpu=0.92,Vmaxpu=1.5,model=8,zipv=[0.5,0,0.5,1,0,0,0],daily=RES2_3,status=variable
new load.3000201375M1 bus1=RML1002282750.1.2.0,Phases=2,kv=0.22,kW=1.80862,pf=0.92,Vminpu=0.92,Vmaxpu=1.5,model=8,zipv=[0.5,0,0.5,1,0,0,0],daily=RES2_3,status=variable
new load.3000201376M1 bus1=RML1002282932.1.2.0,Phases=2,kv=0.22,kW=1.7696,pf=0.92,Vminpu=0.92,Vmaxpu=1.5,model=8,zipv=[0.5,0,0.5,1,0,0,0],daily=RES2_3,status=variable
new load.3003459507M1 bus1=RML1002282862.3.0,Phases=1,kv=0.127,kW=0.88252,pf=0.92,Vminpu=0.92,Vmaxpu=1.5,model=8,zipv=[0.5,0,0.5,1,0,0,0],daily=RES1_2,status=variable
new load.3000203084M1 bus1=RML1002284010.1.2.3.0,Phases=3,kv=0.22,kW=1.66476,pf=0.92,Vminpu=0.92,Vmaxpu=1.5,model=8,zipv=[0.5,0,0.5,1,0,0,0],daily=RES3_4,status=variable
new load.3000203085M1 bus1=RML1002283905.1.0,Phases=1,kv=0.127,kW=0.62756,pf=0.92,Vminpu=0.92,Vmaxpu=1.5,model=8,zipv=[0.5,0,0.5,1,0,0,0],daily=RES1_2,status=variable
new load.3000203086M1 bus1=RML1002283912.2.0,Phases=1,kv=0.127,kW=1.31798,pf=0.92,Vminpu=0.92,Vmaxpu=1.5,model=8,zipv=[0.5,0,0.5,1,0,0,0],daily=RES2_4,status=variable
new load.3000203087M1 bus1=RML1002283926.3.0,Phases=1,kv=0.127,kW=1.6643,pf=0.92,Vminpu=0.92,Vmaxpu=1.5,model=8,zipv=[0.5,0,0.5,1,0,0,0],daily=RES2_4,status=variable
new load.3000203089M1 bus1=RML1002283898.3.0,Phases=1,kv=0.127,kW=1.07748,pf=0.92,Vminpu=0.92,Vmaxpu=1.5,model=8,zipv=[0.5,0,0.5,1,0,0,0],daily=RES2_4,status=variable
new load.3000203090M1 bus1=RML1002283884.3.0,Phases=1,kv=0.127,kW=0.21876,pf=0.92,Vminpu=0.92,Vmaxpu=1.5,model=8,zipv=[0.5,0,0.5,1,0,0,0],daily=RES5_5,status=variable
new load.3000203092M1 bus1=RML1007165159.1.0,Phases=1,kv=0.127,kW=0.40204,pf=0.92,Vminpu=0.92,Vmaxpu=1.5,model=8,zipv=[0.5,0,0.5,1,0,0,0],daily=RES1_2,status=variable
new load.3000203093M1 bus1=RML1002283842.3.0,Phases=1,kv=0.127,kW=1.799,pf=0.92,Vminpu=0.92,Vmaxpu=1.5,model=8,zipv=[0.5,0,0.5,1,0,0,0],daily=RES2_4,status=variable
new load.3000203094M1 bus1=RML1002283828.2.0,Phases=1,kv=0.127,kW=0.62756,pf=0.92,Vminpu=0.92,Vmaxpu=1.5,model=8,zipv=[0.5,0,0.5,1,0,0,0],daily=RES1_2,status=variable
new load.3000203095M1 bus1=RML1002283814.3.0,Phases=1,kv=0.127,kW=0.29418,pf=0.92,Vminpu=0.92,Vmaxpu=1.5,model=8,zipv=[0.5,0,0.5,1,0,0,0],daily=RES1_2,status=variable
new load.3000203096M1 bus1=RML1002283800.3.0,Phases=1,kv=0.127,kW=1.04862,pf=0.92,Vminpu=0.92,Vmaxpu=1.5,model=8,zipv=[0.5,0,0.5,1,0,0,0],daily=RES2_4,status=variable
new load.3000203097M1 bus1=RML1002283786.2.0,Phases=1,kv=0.127,kW=1.10634,pf=0.92,Vminpu=0.92,Vmaxpu=1.5,model=8,zipv=[0.5,0,0.5,1,0,0,0],daily=RES2_4,status=variable
new load.3000203099M1 bus1=RML1002283758.3.0,Phases=1,kv=0.127,kW=1.01012,pf=0.92,Vminpu=0.92,Vmaxpu=1.5,model=8,zipv=[0.5,0,0.5,1,0,0,0],daily=RES2_4,status=variable
new load.3000203100M1 bus1=RML1002283716.3.0,Phases=1,kv=0.127,kW=1.01974,pf=0.92,Vminpu=0.92,Vmaxpu=1.5,model=8,zipv=[0.5,0,0.5,1,0,0,0],daily=RES2_4,status=variable
new load.3000203101M1 bus1=RML1002283730.1.2.3.0,Phases=3,kv=0.22,kW=0.24458,pf=0.92,Vminpu=0.92,Vmaxpu=1.5,model=8,zipv=[0.5,0,0.5,1,0,0,0],daily=COM1_5,status=variable
new load.3000203103M1 bus1=RML1002283702.1.0,Phases=1,kv=0.127,kW=0.09106,pf=0.92,Vminpu=0.92,Vmaxpu=1.5,model=8,zipv=[0.5,0,0.5,1,0,0,0],daily=COM1_5,status=variable
new load.3000203104M1 bus1=RML1002283737.1.3.0,Phases=2,kv=0.22,kW=0.03922,pf=0.92,Vminpu=0.92,Vmaxpu=1.5,model=8,zipv=[0.5,0,0.5,1,0,0,0],daily=RES1_2,status=variable
new load.3000203105M1 bus1=RML1002283723.2.0,Phases=1,kv=0.127,kW=1.14482,pf=0.92,Vminpu=0.92,Vmaxpu=1.5,model=8,zipv=[0.5,0,0.5,1,0,0,0],daily=RES2_4,status=variable
new load.3000203106M1 bus1=RML1002283751.1.0,Phases=1,kv=0.127,kW=1.15444,pf=0.92,Vminpu=0.92,Vmaxpu=1.5,model=8,zipv=[0.5,0,0.5,1,0,0,0],daily=RES2_4,status=variable
new load.3000203107M1 bus1=RML1002283765.2.0,Phases=1,kv=0.127,kW=1.0871,pf=0.92,Vminpu=0.92,Vmaxpu=1.5,model=8,zipv=[0.5,0,0.5,1,0,0,0],daily=RES2_4,status=variable
new load.3000203108M1 bus1=RML1002283779.1.0,Phases=1,kv=0.127,kW=0.34634,pf=0.92,Vminpu=0.92,Vmaxpu=1.5,model=8,zipv=[0.5,0,0.5,1,0,0,0],daily=RES2_4,status=variable
new load.3000203109M1 bus1=RML1002283793.3.0,Phases=1,kv=0.127,kW=0.40204,pf=0.92,Vminpu=0.92,Vmaxpu=1.5,model=8,zipv=[0.5,0,0.5,1,0,0,0],daily=RES1_2,status=variable
new load.3000203110M1 bus1=RML1002283807.2.0,Phases=1,kv=0.127,kW=1.15444,pf=0.92,Vminpu=0.92,Vmaxpu=1.5,model=8,zipv=[0.5,0,0.5,1,0,0,0],daily=RES2_4,status=variable
new load.3000203111M1 bus1=RML1002283821.1.0,Phases=1,kv=0.127,kW=1.0871,pf=0.92,Vminpu=0.92,Vmaxpu=1.5,model=8,zipv=[0.5,0,0.5,1,0,0,0],daily=RES2_4,status=variable
new load.3000203112M1 bus1=RML1002283835.1.0,Phases=1,kv=0.127,kW=0.96096,pf=0.92,Vminpu=0.92,Vmaxpu=1.5,model=8,zipv=[0.5,0,0.5,1,0,0,0],daily=RES1_2,status=variable
new load.3000203115M1 bus1=RML1002283877.2.0,Phases=1,kv=0.127,kW=0.86582,pf=0.92,Vminpu=0.92,Vmaxpu=1.5,model=8,zipv=[0.5,0,0.5,1,0,0,0],daily=RES2_4,status=variable
new load.3000203116M1 bus1=RML1002283891.2.0,Phases=1,kv=0.127,kW=1.20254,pf=0.92,Vminpu=0.92,Vmaxpu=1.5,model=8,zipv=[0.5,0,0.5,1,0,0,0],daily=RES2_4,status=variable
new load.3000203117M1 bus1=RML1002283947.2.0,Phases=1,kv=0.127,kW=0.78886,pf=0.92,Vminpu=0.92,Vmaxpu=1.5,model=8,zipv=[0.5,0,0.5,1,0,0,0],daily=RES2_4,status=variable
new load.3000203118M1 bus1=RML1002283933.2.0,Phases=1,kv=0.127,kW=1.0871,pf=0.92,Vminpu=0.92,Vmaxpu=1.5,model=8,zipv=[0.5,0,0.5,1,0,0,0],daily=RES2_4,status=variable
new load.3000203119M1 bus1=RML1002283919.3.0,Phases=1,kv=0.127,kW=1.57772,pf=0.92,Vminpu=0.92,Vmaxpu=1.5,model=8,zipv=[0.5,0,0.5,1,0,0,0],daily=RES2_4,status=variable
new load.3000203121M1 bus1=RML1002284017.2.0,Phases=1,kv=0.127,kW=0.61776,pf=0.92,Vminpu=0.92,Vmaxpu=1.5,model=8,zipv=[0.5,0,0.5,1,0,0,0],daily=RES1_2,status=variable
new load.3000203123M1 bus1=RML1002284164.3.0,Phases=1,kv=0.127,kW=1.64506,pf=0.92,Vminpu=0.92,Vmaxpu=1.5,model=8,zipv=[0.5,0,0.5,1,0,0,0],daily=RES2_4,status=variable
new load.3000203124M1 bus1=RML1002284171.2.0,Phases=1,kv=0.127,kW=0.75504,pf=0.92,Vminpu=0.92,Vmaxpu=1.5,model=8,zipv=[0.5,0,0.5,1,0,0,0],daily=RES1_2,status=variable
new load.3000203126M1 bus1=RML1002284199.1.2.0,Phases=2,kv=0.22,kW=0.55798,pf=0.92,Vminpu=0.92,Vmaxpu=1.5,model=8,zipv=[0.5,0,0.5,1,0,0,0],daily=RES2_4,status=variable
new load.3000203127M1 bus1=RML1002284108.1.2.0,Phases=2,kv=0.22,kW=0.60796,pf=0.92,Vminpu=0.92,Vmaxpu=1.5,model=8,zipv=[0.5,0,0.5,1,0,0,0],daily=RES1_2,status=variable
new load.3000203130M1 bus1=RML1002284129.2.0,Phases=1,kv=0.127,kW=2.12608,pf=0.92,Vminpu=0.92,Vmaxpu=1.5,model=8,zipv=[0.5,0,0.5,1,0,0,0],daily=RES2_4,status=variable
new load.3000203131M1 bus1=RML1002284101.2.0,Phases=1,kv=0.127,kW=1.34684,pf=0.92,Vminpu=0.92,Vmaxpu=1.5,model=8,zipv=[0.5,0,0.5,1,0,0,0],daily=RES2_4,status=variable
new load.3000203132M1 bus1=RML1002284087.1.0,Phases=1,kv=0.127,kW=0.48964,pf=0.92,Vminpu=0.92,Vmaxpu=1.5,model=8,zipv=[0.5,0,0.5,1,0,0,0],daily=RES3_4,status=variable
new load.3000203133M1 bus1=RML1002284073.2.0,Phases=1,kv=0.127,kW=1.6158,pf=0.92,Vminpu=0.92,Vmaxpu=1.5,model=8,zipv=[0.5,0,0.5,1,0,0,0],daily=RES3_4,status=variable
new load.3000203134M1 bus1=RML1002284059.1.0,Phases=1,kv=0.127,kW=1.72202,pf=0.92,Vminpu=0.92,Vmaxpu=1.5,model=8,zipv=[0.5,0,0.5,1,0,0,0],daily=RES2_4,status=variable
new load.3000203135M1 bus1=RML1002284038.1.0,Phases=1,kv=0.127,kW=0.25494,pf=0.92,Vminpu=0.92,Vmaxpu=1.5,model=8,zipv=[0.5,0,0.5,1,0,0,0],daily=RES1_2,status=variable
new load.3000203136M1 bus1=RML1002283982.3.0,Phases=1,kv=0.127,kW=1.30836,pf=0.92,Vminpu=0.92,Vmaxpu=1.5,model=8,zipv=[0.5,0,0.5,1,0,0,0],daily=RES2_4,status=variable
new load.3000203137M1 bus1=RML1002284031.3.0,Phases=1,kv=0.127,kW=0.53932,pf=0.92,Vminpu=0.92,Vmaxpu=1.5,model=8,zipv=[0.5,0,0.5,1,0,0,0],daily=RES1_2,status=variable
new load.3000203138M1 bus1=RML1002284003.1.0,Phases=1,kv=0.127,kW=1.07748,pf=0.92,Vminpu=0.92,Vmaxpu=1.5,model=8,zipv=[0.5,0,0.5,1,0,0,0],daily=RES2_4,status=variable
new load.3000203139M1 bus1=RML1002283961.1.0,Phases=1,kv=0.127,kW=0.58834,pf=0.92,Vminpu=0.92,Vmaxpu=1.5,model=8,zipv=[0.5,0,0.5,1,0,0,0],daily=RES1_2,status=variable
new load.3000203140M1 bus1=RML1002283968.3.0,Phases=1,kv=0.127,kW=1.49114,pf=0.92,Vminpu=0.92,Vmaxpu=1.5,model=8,zipv=[0.5,0,0.5,1,0,0,0],daily=RES2_4,status=variable
new load.3000203141M1 bus1=RML1002283954.2.0,Phases=1,kv=0.127,kW=1.31798,pf=0.92,Vminpu=0.92,Vmaxpu=1.5,model=8,zipv=[0.5,0,0.5,1,0,0,0],daily=RES2_4,status=variable
new load.3000203142M1 bus1=RML1002283996.1.0,Phases=1,kv=0.127,kW=1.15444,pf=0.92,Vminpu=0.92,Vmaxpu=1.5,model=8,zipv=[0.5,0,0.5,1,0,0,0],daily=RES2_4,status=variable
new load.3000203143M1 bus1=RML1002283989.3.0,Phases=1,kv=0.127,kW=1.38532,pf=0.92,Vminpu=0.92,Vmaxpu=1.5,model=8,zipv=[0.5,0,0.5,1,0,0,0],daily=RES2_4,status=variable
new load.3000203144M1 bus1=RML1002283975.2.0,Phases=1,kv=0.127,kW=0.94278,pf=0.92,Vminpu=0.92,Vmaxpu=1.5,model=8,zipv=[0.5,0,0.5,1,0,0,0],daily=RES2_4,status=variable
new load.3000203145M1 bus1=RML1002284052.3.0,Phases=1,kv=0.127,kW=1.6643,pf=0.92,Vminpu=0.92,Vmaxpu=1.5,model=8,zipv=[0.5,0,0.5,1,0,0,0],daily=RES2_4,status=variable
new load.3000203146M1 bus1=RML1002284066.2.0,Phases=1,kv=0.127,kW=0.2886,pf=0.92,Vminpu=0.92,Vmaxpu=1.5,model=8,zipv=[0.5,0,0.5,1,0,0,0],daily=RES2_4,status=variable
new load.3000203147M1 bus1=RML1002284080.2.0,Phases=1,kv=0.127,kW=1.0394,pf=0.92,Vminpu=0.92,Vmaxpu=1.5,model=8,zipv=[0.5,0,0.5,1,0,0,0],daily=RES1_2,status=variable
new load.3000203148M1 bus1=RML1002284094.3.0,Phases=1,kv=0.127,kW=0.99088,pf=0.92,Vminpu=0.92,Vmaxpu=1.5,model=8,zipv=[0.5,0,0.5,1,0,0,0],daily=RES2_4,status=variable