new transformer.1222650 Phases=3,Windings=2,Buses=[BMT164629672.1.2.3 BBT48618145.1.2.3.0],Conns=[delta wye],kvs=[13.8 0.22],kvas=[75.000000000 75.000000000],Taps=[1,1.000000000],%loadloss=1.340000000,%noloadloss=0.340000000
new transformer.1222657 Phases=3,Windings=2,Buses=[BMT164629673.1.2.3 BBT48618789.1.2.3.0],Conns=[delta wye],kvs=[13.8 0.22],kvas=[75.000000000 75.000000000],Taps=[1,1.000000000],%loadloss=1.340000000,%noloadloss=0.340000000
new transformer.1320090 Phases=3,Windings=2,Buses=[BMT174523131.1.2.3 BBT93433076.1.2.3.0],Conns=[delta wye],kvs=[13.8 0.22],kvas=[45.000000000 45.000000000],Taps=[1,1.000000000],%loadloss=1.522000000,%noloadloss=0.377777778
new transformer.145342 Phases=3,Windings=2,Buses=[BMT158163317.1.2.3 BBT1236572.1.2.3.0],Conns=[delta wye],kvs=[13.8 0.22],kvas=[45.000000000 45.000000000],Taps=[1,1.000000000],%loadloss=1.522000000,%noloadloss=0.377777778
new transformer.145363 Phases=3,Windings=2,Buses=[BMT158241912.1.2.3 BBT1236866.1.2.3.0],Conns=[delta wye],kvs=[13.8 0.22],kvas=[150.000000000 150.000000000],Taps=[1,1.000000000],%loadloss=1.127000000,%noloadloss=0.280000000
new transformer.145377 Phases=3,Windings=2,Buses=[BMT158163265.1.2.3 BBT1237020.1.2.3.0],Conns=[delta wye],kvs=[13.8 0.22],kvas=[75.000000000 75.000000000],Taps=[1,1.000000000],%loadloss=1.340000000,%noloadloss=0.340000000
new transformer.145678 Phases=1,Windings=3,Buses=[BMT158163236.2 BBT1240254.1.0 BBT1240254.0.2],Conns=[wye wye wye],kvs=[7.967 0.12 0.12],kvas=[35.000000000 35.000000000 35.000000000],Taps=[1,1.000000000,1.000000000],%loadloss=1.410000000,%noloadloss=0.433000000
new transformer.145685 Phases=3,Windings=2,Buses=[BMT174903318.1.2.3 BBT1240324.1.2.3.0],Conns=[delta wye],kvs=[13.8 0.22],kvas=[45.000000000 45.000000000],Taps=[1,1.000000000],%loadloss=1.522000000,%noloadloss=0.377777778
new transformer.145692 Phases=3,Windings=2,Buses=[BMT158163120.1.2.3 BBT1240408.1.2.3.0],Conns=[delta wye],kvs=[13.8 0.22],kvas=[75.000000000 75.000000000],Taps=[1,1.000000000],%loadloss=1.340000000,%noloadloss=0.340000000
new transformer.145706 Phases=3,Windings=2,Buses=[BMT174903322.1.2.3 BBT1240597.1.2.3.0],Conns=[delta wye],kvs=[13.8 0.22],kvas=[75.000000000 75.000000000],Taps=[1,1.000000000],%loadloss=1.340000000,%noloadloss=0.340000000
new transformer.145713 Phases=3,Windings=2,Buses=[BMT158163242.1.2.3 BBT1240702.1.2.3.0],Conns=[delta wye],kvs=[13.8 0.22],kvas=[45.000000000 45.000000000],Taps=[1,1.000000000],%loadloss=1.522000000,%noloadloss=0.377777778
new transformer.145720 Phases=3,Windings=2,Buses=[BMT158163413.1.2.3 BBT1240786.1.2.3.0],Conns=[delta wye],kvs=[13.8 0.22],kvas=[45.000000000 45.000000000],Taps=[1,1.000000000],%loadloss=1.522000000,%noloadloss=0.377777778
new transformer.145944 Phases=3,Windings=2,Buses=[BMT170336545.1.2.3 BBT1243152.1.2.3.0],Conns=[delta wye],kvs=[13.8 0.22],kvas=[150.000000000 150.000000000],Taps=[1,1.000000000],%loadloss=1.127000000,%noloadloss=0.280000000
new transformer.145972 Phases=3,Windings=2,Buses=[BMT176159625.1.2.3 BBT1243474.1.2.3.0],Conns=[delta wye],kvs=[13.8 0.22],kvas=[30.000000000 30.000000000],Taps=[1,1.000000000],%loadloss=1.667000000,%noloadloss=0.433333333
new transformer.145986 Phases=1,Windings=3,Buses=[BMT172639271.2 BBT1243677.1.0 BBT1243677.0.2],Conns=[wye wye wye],kvs=[7.967 0.12 0.12],kvas=[35.000000000 35.000000000 35.000000000],Taps=[1,1.000000000,1.000000000],%loadloss=1.410000000,%noloadloss=0.433000000
new transformer.145993 Phases=3,Windings=2,Buses=[BMT176249065.1.2.3 BBT1243782.1.2.3.0],Conns=[delta wye],kvs=[13.8 0.22],kvas=[30.000000000 30.000000000],Taps=[1,1.000000000],%loadloss=1.667000000,%noloadloss=0.433333333
new transformer.146000 Phases=3,Windings=2,Buses=[BMT167027721.1.2.3 BBT1243894.1.2.3.0],Conns=[delta wye],kvs=[13.8 0.22],kvas=[75.000000000 75.000000000],Taps=[1,1.000000000],%loadloss=1.340000000,%noloadloss=0.340000000
new transformer.146203 Phases=3,Windings=2,Buses=[BMT173623644.1.2.3 BBT1246533.1.2.3.0],Conns=[delta wye],kvs=[13.8 0.22],kvas=[45.000000000 45.000000000],Taps=[1,1.000000000],%loadloss=1.522000000,%noloadloss=0.377777778
new transformer.146231 Phases=1,Windings=3,Buses=[BMT173623648.1 BBT1246813.1.0 BBT1246813.0.2],Conns=[wye wye wye],kvs=[7.967 0.12 0.12],kvas=[25.000000000 25.000000000 25.000000000],Taps=[1,1.000000000,1.000000000],%loadloss=1.420000000,%noloadloss=0.320000000
new transformer.146238 Phases=3,Windings=2,Buses=[BMT158163311.1.2.3 BBT1246890.1.2.3.0],Conns=[delta wye],kvs=[13.8 0.22],kvas=[30.000000000 30.000000000],Taps=[1,1.000000000],%loadloss=1.667000000,%noloadloss=0.433333333
new transformer.146266 Phases=1,Windings=3,Buses=[BMT173189795.2 BBT1247100.1.0 BBT1247100.0.2],Conns=[wye wye wye],kvs=[7.967 0.12 0.12],kvas=[25.000000000 25.000000000 25.000000000],Taps=[1,1.000000000,1.000000000],%loadloss=1.420000000,%noloadloss=0.320000000
new transformer.146469 Phases=3,Windings=2,Buses=[BMT158163322.1.2.3 BBT1249571.1.2.3.0],Conns=[delta wye],kvs=[13.8 0.22],kvas=[45.000000000 45.000000000],Taps=[1,1.000000000],%loadloss=1.522000000,%noloadloss=0.377777778
new transformer.146476 Phases=3,Windings=2,Buses=[BMT170424080.1.2.3 BBT1249697.1.2.3.0],Conns=[delta wye],kvs=[13.8 0.22],kvas=[150.000000000 150.000000000],Taps=[1,1.000000000],%loadloss=1.127000000,%noloadloss=0.280000000
new transformer.1331619 Phases=3,Windings=2,Buses=[BMT165002347.1.2.3 BBT98146596.1.2.3.0],Conns=[delta wye],kvs=[13.8 0.22],kvas=[75.000000000 75.000000000],Taps=[1,1.000000000],%loadloss=1.340000000,%noloadloss=0.340000000
new transformer.1331731 Phases=3,Windings=2,Buses=[BMT169646334.1.2.3 BBT98196212.1.2.3.0],Conns=[delta wye],kvs=[13.8 0.22],kvas=[45.000000000 45.000000000],Taps=[1,1.000000000],%loadloss=1.522000000,%noloadloss=0.377777778
new transformer.1341979 Phases=3,Windings=2,Buses=[BMT169647894.1.2.3 BBT109403086.1.2.3.0],Conns=[delta wye],kvs=[13.8 0.22],kvas=[45.000000000 45.000000000],Taps=[1,1.000000000],%loadloss=1.522000000,%noloadloss=0.377777778
new transformer.1390313 Phases=3,Windings=2,Buses=[BMT176715145.1.2.3 BBT148085677.1.2.3.0],Conns=[delta wye],kvs=[13.8 0.22],kvas=[150.000000000 150.000000000],Taps=[1,1.000000000],%loadloss=1.127000000,%noloadloss=0.280000000
new transformer.1395553 Phases=3,Windings=2,Buses=[BMT170742814.1.2.3 BBT149325137.1.2.3.0],Conns=[delta wye],kvs=[13.8 0.22],kvas=[45.000000000 45.000000000],Taps=[1,1.000000000],%loadloss=1.522000000,%noloadloss=0.377777778
new transformer.1395557 Phases=3,Windings=2,Buses=[BMT170742817.1.2.3 BBT149326369.1.2.3.0],Conns=[delta wye],kvs=[13.8 0.22],kvas=[45.000000000 45.000000000],Taps=[1,1.000000000],%loadloss=1.522000000,%noloadloss=0.377777778
new transformer.1395561 Phases=3,Windings=2,Buses=[BMT176715142.1.2.3 BBT149327368.1.2.3.0],Conns=[delta wye],kvs=[13.8 0.22],kvas=[75.000000000 75.000000000],Taps=[1,1.000000000],%loadloss=1.340000000,%noloadloss=0.340000000
new transformer.1398178 Phases=3,Windings=2,Buses=[BMT164638273.1.2.3 BBT149894920.1.2.3.0],Conns=[delta wye],kvs=[13.8 0.22],kvas=[45.000000000 45.000000000],Taps=[1,1.000000000],%loadloss=1.522000000,%noloadloss=0.377777778
new transformer.1398181 Phases=3,Windings=2,Buses=[BMT164638276.1.2.3 BBT149895275.1.2.3.0],Conns=[delta wye],kvs=[13.8 0.22],kvas=[45.000000000 45.000000000],Taps=[1,1.000000000],%loadloss=1.522000000,%noloadloss=0.377777778
new transformer.1421862 Phases=3,Windings=2,Buses=[BMT176715148.1.2.3 BBT155518943.1.2.3.0],Conns=[delta wye],kvs=[13.8 0.22],kvas=[150.000000000 150.000000000],Taps=[1,1.000000000],%loadloss=1.127000000,%noloadloss=0.280000000
new transformer.1427164 Phases=3,Windings=2,Buses=[BMT161700820.1.2.3 BBT156610710.1.2.3.0],Conns=[delta wye],kvs=[13.8 0.22],kvas=[45.000000000 45.000000000],Taps=[1,1.000000000],%loadloss=1.522000000,%noloadloss=0.377777778
new transformer.145230 Phases=1,Windings=3,Buses=[BMT158163323.3 BBT1234822.1.0 BBT1234822.0.2],Conns=[wye wye wye],kvs=[7.967 0.12 0.12],kvas=[35.000000000 35.000000000 35.000000000],Taps=[1,1.000000000,1.000000000],%loadloss=1.410000000,%noloadloss=0.433000000
new transformer.145244 Phases=3,Windings=2,Buses=[BMT158241911.1.2.3 BBT1235081.1.2.3.0],Conns=[delta wye],kvs=[13.8 0.22],kvas=[75.000000000 75.000000000],Taps=[1,1.000000000],%loadloss=1.340000000,%noloadloss=0.340000000
new transformer.145258 Phases=3,Windings=2,Buses=[BMT158163324.1.2.3 BBT1235347.1.2.3.0],Conns=[delta wye],kvs=[13.8 0.22],kvas=[45.000000000 45.000000000],Taps=[1,1.000000000],%loadloss=1.522000000,%noloadloss=0.377777778
new transformer.145510 Phases=3,Windings=2,Buses=[BMT158163189.1.2.3 BBT1238154.1.2.3.0],Conns=[delta wye],kvs=[13.8 0.22],kvas=[45.000000000 45.000000000],Taps=[1,1.000000000],%loadloss=1.522000000,%noloadloss=0.377777778
new transformer.145524 Phases=3,Windings=2,Buses=[BMT158241915.1.2.3 BBT1238350.1.2.3.0],Conns=[delta wye],kvs=[13.8 0.22],kvas=[45.000000000 45.000000000],Taps=[1,1.000000000],%loadloss=1.522000000,%noloadloss=0.377777778
new transformer.145769 Phases=3,Windings=2,Buses=[BMT158163318.1.2.3 BBT1241346.1.2.3.0],Conns=[delta wye],kvs=[13.8 0.22],kvas=[75.000000000 75.000000000],Taps=[1,1.000000000],%loadloss=1.340000000,%noloadloss=0.340000000
new transformer.145790 Phases=3,Windings=2,Buses=[BMT158163187.1.2.3 BBT1241549.1.2.3.0],Conns=[delta wye],kvs=[13.8 0.22],kvas=[75.000000000 75.000000000],Taps=[1,1.000000000],%loadloss=1.340000000,%noloadloss=0.340000000
new transformer.146028 Phases=3,Windings=2,Buses=[BMT170339935.1.2.3 BBT1244377.1.2.3.0],Conns=[delta wye],kvs=[13.8 0.22],kvas=[30.000000000 30.000000000],Taps=[1,1.000000000],%loadloss=1.667000000,%noloadloss=0.433333333
new transformer.146042 Phases=3,Windings=2,Buses=[BMT170424079.1.2.3 BBT1244594.1.2.3.0],Conns=[delta wye],kvs=[13.8 0.22],kvas=[75.000000000 75.000000000],Taps=[1,1.000000000],%loadloss=1.340000000,%noloadloss=0.340000000
new transformer.146049 Phases=1,Windings=3,Buses=[BMT173189794.2 BBT1244692.1.0 BBT1244692.0.2],Conns=[wye wye wye],kvs=[7.967 0.12 0.12],kvas=[35.000000000 35.000000000 35.000000000],Taps=[1,1.000000000,1.000000000],%loadloss=1.410000000,%noloadloss=0.433000000
new transformer.146280 Phases=1,Windings=3,Buses=[BMT158163314.2 BBT1247303.1.0 BBT1247303.0.2],Conns=[wye wye wye],kvs=[7.967 0.12 0.12],kvas=[35.000000000 35.000000000 35.000000000],Taps=[1,1.000000000,1.000000000],%loadloss=1.410000000,%noloadloss=0.433000000
new transformer.146322 Phases=1,Windings=3,Buses=[BMT170423462.1 BBT1247842.1.0 BBT1247842.0.2],Conns=[wye wye wye],kvs=[7.967 0.12 0.12],kvas=[35.000000000 35.000000000 35.000000000],Taps=[1,1.000000000,1.000000000],%loadloss=1.410000000,%noloadloss=0.433000000
new transformer.1375313 Phases=3,Windings=2,Buses=[BMT158163539.1.2.3 BBT135034447.1.2.3.0],Conns=[delta wye],kvs=[13.8 0.22],kvas=[45.000000000 45.000000000],Taps=[1,1.000000000],%loadloss=1.522000000,%noloadloss=0.377777778
new transformer.1375327 Phases=3,Windings=2,Buses=[BMT158163537.1.2.3 BBT135046809.1.2.3.0],Conns=[delta wye],kvs=[13.8 0.22],kvas=[45.000000000 45.000000000],Taps=[1,1.000000000],%loadloss=1.522000000,%noloadloss=0.377777778
new transformer.1397330 Phases=3,Windings=2,Buses=[BMT174903321.1.2.3 BBT149753006.1.2.3.0],Conns=[delta wye],kvs=[13.8 0.22],kvas=[45.000000000 45.000000000],Taps=[1,1.000000000],%loadloss=1.522000000,%noloadloss=0.377777778
new transformer.1410850 Phases=3,Windings=2,Buses=[BMT176715147.1.2.3 BBT153031563.1.2.3.0],Conns=[delta wye],kvs=[13.8 0.22],kvas=[150.000000000 150.000000000],Taps=[1,1.000000000],%loadloss=1.127000000,%noloadloss=0.280000000
new transformer.1411045 Phases=3,Windings=2,Buses=[BMT164638274.1.2.3 BBT153066658.1.2.3.0],Conns=[delta wye],kvs=[13.8 0.22],kvas=[45.000000000 45.000000000],Taps=[1,1.000000000],%loadloss=1.522000000,%noloadloss=0.377777778
new transformer.1411049 Phases=3,Windings=2,Buses=[BMT164638271.1.2.3 BBT153067107.1.2.3.0],Conns=[delta wye],kvs=[13.8 0.22],kvas=[45.000000000 45.000000000],Taps=[1,1.000000000],%loadloss=1.522000000,%noloadloss=0.377777778
new transformer.1411056 Phases=3,Windings=2,Buses=[BMT164638275.1.2.3 BBT153068370.1.2.3.0],Conns=[delta wye],kvs=[13.8 0.22],kvas=[45.000000000 45.000000000],Taps=[1,1.000000000],%loadloss=1.522000000,%noloadloss=0.377777778
new transformer.1434470 Phases=3,Windings=2,Buses=[BMT161700824.1.2.3 BBT158080456.1.2.3.0],Conns=[delta wye],kvs=[13.8 0.22],kvas=[45.000000000 45.000000000],Taps=[1,1.000000000],%loadloss=1.522000000,%noloadloss=0.377777778
new transformer.145454 Phases=1,Windings=3,Buses=[BMT158163233.2 BBT1237552.1.0 BBT1237552.0.2],Conns=[wye wye wye],kvs=[7.967 0.12 0.12],kvas=[35.000000000 35.000000000 35.000000000],Taps=[1,1.000000000,1.000000000],%loadloss=1.410000000,%noloadloss=0.433000000
new transformer.145461 Phases=3,Windings=2,Buses=[BMT165235915.1.2.3 BBT1237650.1.2.3.0],Conns=[delta wye],kvs=[13.8 0.22],kvas=[45.000000000 45.000000000],Taps=[1,1.000000000],%loadloss=1.522000000,%noloadloss=0.377777778
new transformer.145608 Phases=3,Windings=2,Buses=[BMT158163268.1.2.3 BBT1239400.1.2.3.0],Conns=[delta wye],kvs=[13.8 0.22],kvas=[30.000000000 30.000000000],Taps=[1,1.000000000],%loadloss=1.667000000,%noloadloss=0.433333333
new transformer.145629 Phases=3,Windings=2,Buses=[BMT158163235.1.2.3 BBT1239603.1.2.3.0],Conns=[delta wye],kvs=[13.8 0.22],kvas=[75.000000000 75.000000000],Taps=[1,1.000000000],%loadloss=1.340000000,%noloadloss=0.340000000
new transformer.145636 Phases=3,Windings=2,Buses=[BMT165235919.1.2.3 BBT1239708.1.2.3.0],Conns=[delta wye],kvs=[13.8 0.22],kvas=[75.000000000 75.000000000],Taps=[1,1.000000000],%loadloss=1.340000000,%noloadloss=0.340000000
new transformer.145867 Phases=3,Windings=2,Buses=[BMT170339936.1.2.3 BBT1242445.1.2.3.0],Conns=[delta wye],kvs=[13.8 0.22],kvas=[75.000000000 75.000000000],Taps=[1,1.000000000],%loadloss=1.340000000,%noloadloss=0.340000000
new transformer.145916 Phases=3,Windings=2,Buses=[BMT173623653.1.2.3 BBT1242879.1.2.3.0],Conns=[delta wye],kvs=[13.8 0.22],kvas=[30.000000000 30.000000000],Taps=[1,1.000000000],%loadloss=1.667000000,%noloadloss=0.433333333
new transformer.145923 Phases=3,Windings=2,Buses=[BMT173623642.1.2.3 BBT1242942.1.2.3.0],Conns=[delta wye],kvs=[13.8 0.22],kvas=[45.000000000 45.000000000],Taps=[1,1.000000000],%loadloss=1.522000000,%noloadloss=0.377777778
new transformer.1461372 Phases=3,Windings=2,Buses=[BMT164629674.1.2.3 BBT164626399.1.2.3.0],Conns=[delta wye],kvs=[13.8 0.22],kvas=[45.000000000 45.000000000],Taps=[1,1.000000000],%loadloss=1.522000000,%noloadloss=0.377777778
new transformer.146140 Phases=3,Windings=2,Buses=[BMT158241910.1.2.3 BBT1245959.1.2.3.0],Conns=[delta wye],kvs=[13.8 0.22],kvas=[75.000000000 75.000000000],Taps=[1,1.000000000],%loadloss=1.340000000,%noloadloss=0.340000000
new transformer.146175 Phases=1,Windings=3,Buses=[BMT172639270.2 BBT1246253.1.0 BBT1246253.0.2],Conns=[wye wye wye],kvs=[7.967 0.12 0.12],kvas=[35.000000000 35.000000000 35.000000000],Taps=[1,1.000000000,1.000000000],%loadloss=1.410000000,%noloadloss=0.433000000
new transformer.146441 Phases=3,Windings=2,Buses=[BMT176249063.1.2.3 BBT1249312.1.2.3.0],Conns=[delta wye],kvs=[13.8 0.22],kvas=[45.000000000 45.000000000],Taps=[1,1.000000000],%loadloss=1.522000000,%noloadloss=0.377777778
new transformer.146455 Phases=3,Windings=2,Buses=[BMT176249064.1.2.3 BBT1249445.1.2.3.0],Conns=[delta wye],kvs=[13.8 0.22],kvas=[30.000000000 30.000000000],Taps=[1,1.000000000],%loadloss=1.667000000,%noloadloss=0.433333333
new transformer.146602 Phases=3,Windings=2,Buses=[BMT176378518.1.2.3 BBT1251202.1.2.3.0],Conns=[delta wye],kvs=[13.8 0.22],kvas=[45.000000000 45.000000000],Taps=[1,1.000000000],%loadloss=1.522000000,%noloadloss=0.377777778
new transformer.146609 Phases=3,Windings=2,Buses=[BMT158163466.1.2.3 BBT1251384.1.2.3.0],Conns=[delta wye],kvs=[13.8 0.22],kvas=[30.000000000 30.000000000],Taps=[1,1.000000000],%loadloss=1.667000000,%noloadloss=0.433333333
new transformer.146616 Phases=3,Windings=2,Buses=[BMT176378524.1.2.3 BBT1251461.1.2.3.0],Conns=[delta wye],kvs=[13.8 0.22],kvas=[75.000000000 75.000000000],Taps=[1,1.000000000],%loadloss=1.340000000,%noloadloss=0.340000000
new transformer.1396774 Phases=3,Windings=2,Buses=[BMT163850453.1.2.3 BBT149634017.1.2.3.0],Conns=[delta wye],kvs=[13.8 0.22],kvas=[250.000000000 250.000000000],Taps=[1,1.000000000],%loadloss=1.080000000,%noloadloss=0.249000000
new transformer.1396775 Phases=3,Windings=2,Buses=[BMT163850457.1.2.3 BBT149634486.1.2.3.0],Conns=[delta wye],kvs=[13.8 0.22],kvas=[150.000000000 150.000000000],Taps=[1,1.000000000],%loadloss=1.127000000,%noloadloss=0.280000000
new transformer.1396777 Phases=3,Windings=2,Buses=[BMT163850454.1.2.3 BBT149634657.1.2.3.0],Conns=[delta wye],kvs=[13.8 0.22],kvas=[250.000000000 250.000000000],Taps=[1,1.000000000],%loadloss=1.080000000,%noloadloss=0.249000000
new transformer.1396780 Phases=3,Windings=2,Buses=[BMT163850455.1.2.3 BBT149635033.1.2.3.0],Conns=[delta wye],kvs=[13.8 0.22],kvas=[75.000000000 75.000000000],Taps=[1,1.000000000],%loadloss=1.340000000,%noloadloss=0.340000000
new transformer.1396784 Phases=3,Windings=2,Buses=[BMT163850456.1.2.3 BBT149635173.1.2.3.0],Conns=[delta wye],kvs=[13.8 0.22],kvas=[150.000000000 150.000000000],Taps=[1,1.000000000],%loadloss=1.127000000,%noloadloss=0.280000000
new transformer.1425292 Phases=3,Windings=2,Buses=[BMT176615692.1.2.3 BBT156193285.1.2.3.0],Conns=[delta wye],kvs=[13.8 0.22],kvas=[150.000000000 150.000000000],Taps=[1,1.000000000],%loadloss=1.127000000,%noloadloss=0.280000000
new transformer.145286 Phases=3,Windings=2,Buses=[BMT170334666.1.2.3 BBT1235676.1.2.3.0],Conns=[delta wye],kvs=[13.8 0.22],kvas=[75.000000000 75.000000000],Taps=[1,1.000000000],%loadloss=1.340000000,%noloadloss=0.340000000
new transformer.145293 Phases=3,Windings=2,Buses=[BMT176431077.1.2.3 BBT1235823.1.2.3.0],Conns=[delta wye],kvs=[13.8 0.22],kvas=[75.000000000 75.000000000],Taps=[1,1.000000000],%loadloss=1.340000000,%noloadloss=0.340000000
new transformer.145538 Phases=3,Windings=2,Buses=[BMT158163313.1.2.3 BBT1238504.1.2.3.0],Conns=[delta wye],kvs=[13.8 0.22],kvas=[45.000000000 45.000000000],Taps=[1,1.000000000],%loadloss=1.522000000,%noloadloss=0.377777778
new transformer.145545 Phases=1,Windings=3,Buses=[BMT170423140.1 BBT1238609.1.0 BBT1238609.0.2],Conns=[wye wye wye],kvs=[7.967 0.12 0.12],kvas=[35.000000000 35.000000000 35.000000000],Taps=[1,1.000000000,1.000000000],%loadloss=1.410000000,%noloadloss=0.433000000
new transformer.145552 Phases=3,Windings=2,Buses=[BMT158241909.1.2.3 BBT1238672.1.2.3.0],Conns=[delta wye],kvs=[13.8 0.22],kvas=[75.000000000 75.000000000],Taps=[1,1.000000000],%loadloss=1.340000000,%noloadloss=0.340000000
new transformer.145566 Phases=3,Windings=2,Buses=[BMT165235917.1.2.3 BBT1238938.1.2.3.0],Conns=[delta wye],kvs=[13.8 0.22],kvas=[45.000000000 45.000000000],Taps=[1,1.000000000],%loadloss=1.522000000,%noloadloss=0.377777778
new transformer.145804 Phases=3,Windings=2,Buses=[BMT168024083.1.2.3 BBT1241668.1.2.3.0],Conns=[delta wye],kvs=[13.8 0.22],kvas=[45.000000000 45.000000000],Taps=[1,1.000000000],%loadloss=1.522000000,%noloadloss=0.377777778
new transformer.145825 Phases=3,Windings=2,Buses=[BMT174903324.1.2.3 BBT1241885.1.2.3.0],Conns=[delta wye],kvs=[13.8 0.22],kvas=[75.000000000 75.000000000],Taps=[1,1.000000000],%loadloss=1.340000000,%noloadloss=0.340000000
new transformer.146091 Phases=3,Windings=2,Buses=[BMT176254080.1.2.3 BBT1245245.1.2.3.0],Conns=[delta wye],kvs=[13.8 0.22],kvas=[30.000000000 30.000000000],Taps=[1,1.000000000],%loadloss=1.667000000,%noloadloss=0.433333333
new transformer.146126 Phases=3,Windings=2,Buses=[BMT170340267.1.2.3 BBT1245721.1.2.3.0],Conns=[delta wye],kvs=[13.8 0.22],kvas=[45.000000000 45.000000000],Taps=[1,1.000000000],%loadloss=1.522000000,%noloadloss=0.377777778
new transformer.146343 Phases=3,Windings=2,Buses=[BMT158163415.1.2.3 BBT1247954.1.2.3.0],Conns=[delta wye],kvs=[13.8 0.22],kvas=[45.000000000 45.000000000],Taps=[1,1.000000000],%loadloss=1.522000000,%noloadloss=0.377777778
new transformer.146350 Phases=1,Windings=3,Buses=[BMT170423469.1 BBT1248080.1.0 BBT1248080.0.2],Conns=[wye wye wye],kvs=[7.967 0.12 0.12],kvas=[35.000000000 35.000000000 35.000000000],Taps=[1,1.000000000,1.000000000],%loadloss=1.410000000,%noloadloss=0.433000000
new transformer.146357 Phases=3,Windings=2,Buses=[BMT158163306.1.2.3 BBT1248157.1.2.3.0],Conns=[delta wye],kvs=[13.8 0.22],kvas=[75.000000000 75.000000000],Taps=[1,1.000000000],%loadloss=1.340000000,%noloadloss=0.340000000
new transformer.146364 Phases=3,Windings=2,Buses=[BMT158163419.1.2.3 BBT1248283.1.2.3.0],Conns=[delta wye],kvs=[13.8 0.22],kvas=[45.000000000 45.000000000],Taps=[1,1.000000000],%loadloss=1.522000000,%noloadloss=0.377777778
new transformer.146371 Phases=3,Windings=2,Buses=[BMT170339933.1.2.3 BBT1248388.1.2.3.0],Conns=[delta wye],kvs=[13.8 0.22],kvas=[30.000000000 30.000000000],Taps=[1,1.000000000],%loadloss=1.667000000,%noloadloss=0.433333333
new transformer.146385 Phases=3,Windings=2,Buses=[BMT176249062.1.2.3 BBT1248626.1.2.3.0],Conns=[delta wye],kvs=[13.8 0.22],kvas=[45.000000000 45.000000000],Taps=[1,1.000000000],%loadloss=1.522000000,%noloadloss=0.377777778
new transformer.146679 Phases=3,Windings=2,Buses=[BMT170340269.1.2.3 BBT1252343.1.2.3.0],Conns=[delta wye],kvs=[13.8 0.22],kvas=[45.000000000 45.000000000],Taps=[1,1.000000000],%loadloss=1.522000000,%noloadloss=0.377777778
new transformer.146693 Phases=3,Windings=2,Buses=[BMT169647890.1.2.3 BBT1252581.1.2.3.0],Conns=[delta wye],kvs=[13.8 0.22],kvas=[45.000000000 45.000000000],Taps=[1,1.000000000],%loadloss=1.522000000,%noloadloss=0.377777778
new transformer.146546 Phases=3,Windings=2,Buses=[BMT170336548.1.2.3 BBT1250446.1.2.3.0],Conns=[delta wye],kvs=[13.8 0.22],kvas=[75.000000000 75.000000000],Taps=[1,1.000000000],%loadloss=1.340000000,%noloadloss=0.340000000
new transformer.146553 Phases=3,Windings=2,Buses=[BMT158163473.1.2.3 BBT1250586.1.2.3.0],Conns=[delta wye],kvs=[13.8 0.22],kvas=[30.000000000 30.000000000],Taps=[1,1.000000000],%loadloss=1.667000000,%noloadloss=0.433333333
new transformer.146560 Phases=3,Windings=2,Buses=[BMT176378526.1.2.3 BBT1250670.1.2.3.0],Conns=[delta wye],kvs=[13.8 0.22],kvas=[45.000000000 45.000000000],Taps=[1,1.000000000],%loadloss=1.522000000,%noloadloss=0.377777778
new transformer.146567 Phases=3,Windings=2,Buses=[BMT167027725.1.2.3 BBT1250838.1.2.3.0],Conns=[delta wye],kvs=[13.8 0.22],kvas=[45.000000000 45.000000000],Taps=[1,1.000000000],%loadloss=1.522000000,%noloadloss=0.377777778
new transformer.146574 Phases=3,Windings=2,Buses=[BMT169647899.1.2.3 BBT1250936.1.2.3.0],Conns=[delta wye],kvs=[13.8 0.22],kvas=[75.000000000 75.000000000],Taps=[1,1.000000000],%loadloss=1.340000000,%noloadloss=0.340000000
new transformer.146805 Phases=3,Windings=2,Buses=[BMT170423465.1.2.3 BBT1253785.1.2.3.0],Conns=[delta wye],kvs=[13.8 0.22],kvas=[45.000000000 45.000000000],Taps=[1,1.000000000],%loadloss=1.522000000,%noloadloss=0.377777778
new transformer.146812 Phases=3,Windings=2,Buses=[BMT169647896.1.2.3 BBT1253862.1.2.3.0],Conns=[delta wye],kvs=[13.8 0.22],kvas=[30.000000000 30.000000000],Taps=[1,1.000000000],%loadloss=1.667000000,%noloadloss=0.433333333
new transformer.146847 Phases=3,Windings=2,Buses=[BMT170424078.1.2.3 BBT1254408.1.2.3.0],Conns=[delta wye],kvs=[13.8 0.22],kvas=[75.000000000 75.000000000],Taps=[1,1.000000000],%loadloss=1.340000000,%noloadloss=0.340000000
new transformer.146854 Phases=3,Windings=2,Buses=[BMT170423467.1.2.3 BBT1254485.1.2.3.0],Conns=[delta wye],kvs=[13.8 0.22],kvas=[75.000000000 75.000000000],Taps=[1,1.000000000],%loadloss=1.340000000,%noloadloss=0.340000000
new transformer.147078 Phases=3,Windings=2,Buses=[BMT173623651.1.2.3 BBT1256921.1.2.3.0],Conns=[delta wye],kvs=[13.8 0.22],kvas=[45.000000000 45.000000000],Taps=[1,1.000000000],%loadloss=1.522000000,%noloadloss=0.377777778
new transformer.147085 Phases=3,Windings=2,Buses=[BMT167027722.1.2.3 BBT1256998.1.2.3.0],Conns=[delta wye],kvs=[13.8 0.22],kvas=[100.000000000 100.000000000],Taps=[1,1.000000000],%loadloss=1.330000000,%noloadloss=0.390000000
new transformer.147092 Phases=3,Windings=2,Buses=[BMT169666745.1.2.3 BBT1257089.1.2.3.0],Conns=[delta wye],kvs=[13.8 0.22],kvas=[30.000000000 30.000000000],Taps=[1,1.000000000],%loadloss=1.667000000,%noloadloss=0.433333333
new transformer.147372 Phases=3,Windings=2,Buses=[BMT169646332.1.2.3 BBT1260407.1.2.3.0],Conns=[delta wye],kvs=[13.8 0.22],kvas=[75.000000000 75.000000000],Taps=[1,1.000000000],%loadloss=1.340000000,%noloadloss=0.340000000
new transformer.147862 Phases=1,Windings=3,Buses=[BMT174523135.3 BBT1266889.1.0 BBT1266889.0.2],Conns=[wye wye wye],kvs=[7.967 0.12 0.12],kvas=[35.000000000 35.000000000 35.000000000],Taps=[1,1.000000000,1.000000000],%loadloss=1.410000000,%noloadloss=0.433000000
new transformer.148352 Phases=3,Windings=2,Buses=[BMT174523133.1.2.3 BBT1273063.1.2.3.0],Conns=[delta wye],kvs=[13.8 0.22],kvas=[30.000000000 30.000000000],Taps=[1,1.000000000],%loadloss=1.667000000,%noloadloss=0.433333333
new transformer.148359 Phases=3,Windings=2,Buses=[BMT174523128.1.2.3 BBT1273154.1.2.3.0],Conns=[delta wye],kvs=[13.8 0.22],kvas=[75.000000000 75.000000000],Taps=[1,1.000000000],%loadloss=1.340000000,%noloadloss=0.340000000
new transformer.148373 Phases=1,Windings=3,Buses=[BMT169451543.2 BBT1273350.1.0 BBT1273350.0.2],Conns=[wye wye wye],kvs=[7.967 0.12 0.12],kvas=[35.000000000 35.000000000 35.000000000],Taps=[1,1.000000000,1.000000000],%loadloss=1.410000000,%noloadloss=0.433000000
new transformer.192193 Phases=3,Windings=2,Buses=[BMT169625792.1.2.3 BBT1526295.1.2.3.0],Conns=[delta wye],kvs=[13.8 0.22],kvas=[75.000000000 75.000000000],Taps=[1,1.000000000],%loadloss=1.340000000,%noloadloss=0.340000000
new transformer.192704 Phases=3,Windings=2,Buses=[BMT169625796.1.2.3 BBT1530579.1.2.3.0],Conns=[delta wye],kvs=[13.8 0.22],kvas=[45.000000000 45.000000000],Taps=[1,1.000000000],%loadloss=1.522000000,%noloadloss=0.377777778
new transformer.194797 Phases=1,Windings=3,Buses=[BMT158163060.1 BBT1552377.1.0 BBT1552377.0.2],Conns=[wye wye wye],kvs=[7.967 0.12 0.12],kvas=[15.000000000 15.000000000 15.000000000],Taps=[1,1.000000000,1.000000000],%loadloss=1.600000000,%noloadloss=0.400000000
new transformer.194881 Phases=3,Windings=2,Buses=[BMT169625799.1.2.3 BBT1552972.1.2.3.0],Conns=[delta wye],kvs=[13.8 0.22],kvas=[30.000000000 30.000000000],Taps=[1,1.000000000],%loadloss=1.667000000,%noloadloss=0.433333333
new transformer.194909 Phases=3,Windings=2,Buses=[BMT169625786.1.2.3 BBT1553280.1.2.3.0],Conns=[delta wye],kvs=[13.8 0.22],kvas=[75.000000000 75.000000000],Taps=[1,1.000000000],%loadloss=1.340000000,%noloadloss=0.340000000
new transformer.194937 Phases=3,Windings=2,Buses=[BMT176615685.1.2.3 BBT1553665.1.2.3.0],Conns=[delta wye],kvs=[13.8 0.22],kvas=[30.000000000 30.000000000],Taps=[1,1.000000000],%loadloss=1.667000000,%noloadloss=0.433333333
new transformer.195238 Phases=3,Windings=2,Buses=[BMT169625798.1.2.3 BBT1557011.1.2.3.0],Conns=[delta wye],kvs=[13.8 0.22],kvas=[45.000000000 45.000000000],Taps=[1,1.000000000],%loadloss=1.522000000,%noloadloss=0.377777778
new transformer.146623 Phases=3,Windings=2,Buses=[BMT158163465.1.2.3 BBT1251678.1.2.3.0],Conns=[delta wye],kvs=[13.8 0.22],kvas=[30.000000000 30.000000000],Taps=[1,1.000000000],%loadloss=1.667000000,%noloadloss=0.433333333
new transformer.146665 Phases=3,Windings=2,Buses=[BMT158163468.1.2.3 BBT1252140.1.2.3.0],Conns=[delta wye],kvs=[13.8 0.22],kvas=[30.000000000 30.000000000],Taps=[1,1.000000000],%loadloss=1.667000000,%noloadloss=0.433333333
new transformer.146889 Phases=3,Windings=2,Buses=[BMT169647897.1.2.3 BBT1254954.1.2.3.0],Conns=[delta wye],kvs=[13.8 0.22],kvas=[45.000000000 45.000000000],Taps=[1,1.000000000],%loadloss=1.522000000,%noloadloss=0.377777778
new transformer.146924 Phases=3,Windings=2,Buses=[BMT170340268.1.2.3 BBT1255395.1.2.3.0],Conns=[delta wye],kvs=[13.8 0.22],kvas=[45.000000000 45.000000000],Taps=[1,1.000000000],%loadloss=1.522000000,%noloadloss=0.377777778
new transformer.146931 Phases=1,Windings=3,Buses=[BMT176159623.2 BBT1255486.1.0 BBT1255486.0.2],Conns=[wye wye wye],kvs=[7.967 0.12 0.12],kvas=[35.000000000 35.000000000 35.000000000],Taps=[1,1.000000000,1.000000000],%loadloss=1.410000000,%noloadloss=0.433000000
new transformer.147141 Phases=3,Windings=2,Buses=[BMT170336547.1.2.3 BBT1257677.1.2.3.0],Conns=[delta wye],kvs=[13.8 0.22],kvas=[75.000000000 75.000000000],Taps=[1,1.000000000],%loadloss=1.340000000,%noloadloss=0.340000000
new transformer.147162 Phases=3,Windings=2,Buses=[BMT169666750.1.2.3 BBT1258034.1.2.3.0],Conns=[delta wye],kvs=[13.8 0.22],kvas=[30.000000000 30.000000000],Taps=[1,1.000000000],%loadloss=1.667000000,%noloadloss=0.433333333
new transformer.147169 Phases=3,Windings=2,Buses=[BMT170423468.1.2.3 BBT1258125.1.2.3.0],Conns=[delta wye],kvs=[13.8 0.22],kvas=[75.000000000 75.000000000],Taps=[1,1.000000000],%loadloss=1.340000000,%noloadloss=0.340000000
new transformer.147183 Phases=3,Windings=2,Buses=[BMT176159627.1.2.3 BBT1258265.1.2.3.0],Conns=[delta wye],kvs=[13.8 0.22],kvas=[45.000000000 45.000000000],Taps=[1,1.000000000],%loadloss=1.522000000,%noloadloss=0.377777778
new transformer.147421 Phases=3,Windings=2,Buses=[BMT164629668.1.2.3 BBT1260967.1.2.3.0],Conns=[delta wye],kvs=[13.8 0.22],kvas=[45.000000000 45.000000000],Taps=[1,1.000000000],%loadloss=1.522000000,%noloadloss=0.377777778
new transformer.147428 Phases=3,Windings=2,Buses=[BMT169666747.1.2.3 BBT1261051.1.2.3.0],Conns=[delta wye],kvs=[13.8 0.22],kvas=[45.000000000 45.000000000],Taps=[1,1.000000000],%loadloss=1.522000000,%noloadloss=0.377777778
new transformer.147687 Phases=3,Windings=2,Buses=[BMT169647892.1.2.3 BBT1264530.1.2.3.0],Conns=[delta wye],kvs=[13.8 0.22],kvas=[45.000000000 45.000000000],Taps=[1,1.000000000],%loadloss=1.522000000,%noloadloss=0.377777778
new transformer.147715 Phases=3,Windings=2,Buses=[BMT176378520.1.2.3 BBT1264950.1.2.3.0],Conns=[delta wye],kvs=[13.8 0.22],kvas=[75.000000000 75.000000000],Taps=[1,1.000000000],%loadloss=1.340000000,%noloadloss=0.340000000