new line.11082436 bus1=BBT3306465.1.2.3.0,bus2=BBT3306472.1.2.3.0,Phases=3,Linecode=BT809_BT809_4_3_4,Length=0.030010000,Units=km
new line.11082471 bus1=BBT3306472.1.2.3.0,bus2=BBT3306479.1.2.3.0,Phases=3,Linecode=BT809_BT809_4_3_4,Length=0.027812000,Units=km
new line.14023283 bus1=BBT4741304.1.2.0,bus2=BBT4741325.1.2.0,Phases=2,Linecode=BT808_BT808_4_2_3,Length=0.030468000,Units=km
new line.14023290 bus1=BBT4741304.1.2.0,bus2=BBT4741311.1.2.0,Phases=2,Linecode=BT808_BT808_4_2_3,Length=0.026324000,Units=km
new line.14023304 bus1=BBT4741297.1.2.0,bus2=BBT4741304.1.2.0,Phases=2,Linecode=BT808_BT808_4_2_3,Length=0.035849000,Units=km
new line.14023318 bus1=BBT4741290.1.2.0,bus2=BBT4741297.1.2.0,Phases=2,Linecode=BT808_BT808_4_2_3,Length=0.028679000,Units=km
new line.14023332 bus1=BBT4741311.1.2.0,bus2=BBT4741318.1.2.0,Phases=2,Linecode=BT808_BT808_4_2_3,Length=0.028398000,Units=km
new line.14023374 bus1=BBT4741080.1.2.3.0,bus2=BBT4741108.1.2.3.0,Phases=3,Linecode=BT810_BT810_4_3_4,Length=0.030091000,Units=km
new line.14023388 bus1=BBT4741073.1.2.3.0,bus2=BBT4741080.1.2.3.0,Phases=3,Linecode=BT810_BT810_4_3_4,Length=0.037097000,Units=km
new line.14023395 bus1=BBT4741066.1.2.3.0,bus2=BBT4741073.1.2.3.0,Phases=3,Linecode=BT810_BT810_4_3_4,Length=0.030940000,Units=km
new line.14023409 bus1=BBT4741024.1.2.3.0,bus2=BBT4741066.1.2.3.0,Phases=3,Linecode=BT810_BT810_4_3_4,Length=0.031818000,Units=km
new line.14023423 bus1=BBT4741017.1.2.3.0,bus2=BBT4741024.1.2.3.0,Phases=3,Linecode=BT810_BT810_4_3_4,Length=0.034281000,Units=km
new line.14023437 bus1=BBT4741059.1.2.3.0,bus2=BBT4741115.1.2.3.0,Phases=3,Linecode=BT810_BT810_4_3_4,Length=0.032647000,Units=km
new line.14023444 bus1=BBT4741052.1.2.3.0,bus2=BBT4741059.1.2.3.0,Phases=3,Linecode=BT810_BT810_4_3_4,Length=0.038658000,Units=km
new line.14023465 bus1=BBT4741045.1.2.3.0,bus2=BBT4741052.1.2.3.0,Phases=3,Linecode=BT810_BT810_4_3_4,Length=0.035415000,Units=km
new line.14023479 bus1=BBT4741038.1.2.3.0,bus2=BBT4741045.1.2.3.0,Phases=3,Linecode=BT810_BT810_4_3_4,Length=0.031818000,Units=km
new line.14023493 bus1=BBT4741031.1.2.3.0,bus2=BBT4741038.1.2.3.0,Phases=3,Linecode=BT810_BT810_4_3_4,Length=0.031967000,Units=km
new line.14023640 bus1=BBT4741283.1.2.0,bus2=BBT4741290.1.2.0,Phases=2,Linecode=BT808_BT808_4_2_3,Length=0.024208000,Units=km
new line.14120191 bus1=BBT4948063.1.3.0,bus2=BBT4948070.1.3.0,Phases=2,Linecode=BT503_BT503_7_2_1,Length=0.031155000,Units=km
new line.14120212 bus1=BBT4948070.1.3.0,bus2=BBT4948077.1.3.0,Phases=2,Linecode=BT503_BT503_7_2_1,Length=0.005002000,Units=km
new line.14120219 bus1=BBT4948070.1.3.0,bus2=BBT4948084.1.3.0,Phases=2,Linecode=BT503_BT503_7_2_1,Length=0.027468000,Units=km
new line.14120233 bus1=BBT4948084.1.3.0,bus2=BBT4948091.1.3.0,Phases=2,Linecode=BT503_BT503_7_2_1,Length=0.005002000,Units=km
new line.14120240 bus1=BBT4948084.1.3.0,bus2=BBT4948098.1.3.0,Phases=2,Linecode=BT503_BT503_7_2_1,Length=0.025247000,Units=km
new line.14120254 bus1=BBT4948098.1.3.0,bus2=BBT4948105.1.3.0,Phases=2,Linecode=BT503_BT503_7_2_1,Length=0.005002000,Units=km
new line.14120261 bus1=BBT4948098.1.3.0,bus2=BBT4948112.1.3.0,Phases=2,Linecode=BT503_BT503_7_2_1,Length=0.026636000,Units=km
new line.14120275 bus1=BBT4948112.1.3.0,bus2=BBT4948119.1.3.0,Phases=2,Linecode=BT503_BT503_7_2_1,Length=0.005002000,Units=km
new line.14126680 bus1=BBT4963750.1.2.3.0,bus2=BBT4963757.1.2.3.0,Phases=3,Linecode=BT810_BT810_4_3_4,Length=0.039472000,Units=km
new line.14126694 bus1=BBT4963757.1.2.3.0,bus2=BBT4963764.1.2.3.0,Phases=3,Linecode=BT810_BT810_4_3_4,Length=0.041607000,Units=km
new line.14126701 bus1=BBT4963771.1.2.3.0,bus2=BBT158754032.1.2.3.0,Phases=3,Linecode=BT805_BT805_4_3_4,Length=0.040621000,Units=km
new line.14126708 bus1=BBT4963799.1.2.3.0,bus2=BBT4963771.1.2.3.0,Phases=3,Linecode=BT805_BT805_4_3_4,Length=0.040461000,Units=km
new line.14126729 bus1=BBT4963785.1.2.3.0,bus2=BBT4963799.1.2.3.0,Phases=3,Linecode=BT805_BT805_4_3_4,Length=0.040063000,Units=km
new line.14126736 bus1=BBT4963778.1.2.3.0,bus2=BBT4963785.1.2.3.0,Phases=3,Linecode=BT805_BT805_4_3_4,Length=0.038065000,Units=km
new line.16640828 bus1=BBT1250929.1.2.3.0,bus2=BBT54060827.1.2.3.0,Phases=3,Linecode=BT810_BT810_4_3_4,Length=0.040013000,Units=km
new line.17119572 bus1=BBT1265650.1.2.3.0,bus2=BBT48618012.1.2.3.0,Phases=3,Linecode=BT810_BT810_4_3_4,Length=0.026692000,Units=km
new line.17119579 bus1=BBT48618012.1.2.3.0,bus2=BBT48618033.1.2.3.0,Phases=3,Linecode=BT810_BT810_4_3_4,Length=0.026935000,Units=km
new line.17119586 bus1=BBT48618145.1.2.3.0,bus2=BBT48618152.1.2.3.0,Phases=3,Linecode=BT513_BT513_7_3_1,Length=0.000501000,Units=km
new line.17119593 bus1=BBT48618789.1.2.3.0,bus2=BBT48618796.1.2.3.0,Phases=3,Linecode=BT513_BT513_7_3_1,Length=0.000501000,Units=km
new line.17119600 bus1=BBT48618152.1.2.3.0,bus2=BBT48619083.1.2.3.0,Phases=3,Linecode=BT805_BT805_4_3_4,Length=0.025719000,Units=km
new line.17119607 bus1=BBT48619083.1.2.3.0,bus2=BBT48619090.1.2.3.0,Phases=3,Linecode=BT805_BT805_4_3_4,Length=0.051940000,Units=km
new line.17119614 bus1=BBT48619090.1.2.3.0,bus2=BBT48619286.1.2.3.0,Phases=3,Linecode=BT803_BT803_4_3_4,Length=0.035183000,Units=km
new line.17119621 bus1=BBT48619286.1.2.3.0,bus2=BBT48619335.1.2.3.0,Phases=3,Linecode=BT803_BT803_4_3_4,Length=0.034940000,Units=km
new line.17119628 bus1=BBT48618796.1.2.3.0,bus2=BBT48619580.1.2.3.0,Phases=3,Linecode=BT803_BT803_4_3_4,Length=0.038340000,Units=km
new line.17119635 bus1=BBT48619580.1.2.3.0,bus2=BBT48619587.1.2.3.0,Phases=3,Linecode=BT803_BT803_4_3_4,Length=0.027902000,Units=km
new line.17119642 bus1=BBT48619587.1.2.3.0,bus2=BBT48619615.1.2.3.0,Phases=3,Linecode=BT803_BT803_4_3_4,Length=0.025970000,Units=km
new line.17119649 bus1=BBT48619580.1.2.3.0,bus2=BBT48619636.1.2.3.0,Phases=3,Linecode=BT803_BT803_4_3_4,Length=0.040535000,Units=km
new line.17119656 bus1=BBT48619615.1.2.3.0,bus2=BBT48619643.1.2.3.0,Phases=3,Linecode=BT803_BT803_4_3_4,Length=0.039064000,Units=km
new line.17119663 bus1=BBT48618796.1.2.3.0,bus2=BBT48619650.1.2.3.0,Phases=3,Linecode=BT803_BT803_4_3_4,Length=0.038340000,Units=km
new line.17119670 bus1=BBT48619650.1.2.3.0,bus2=BBT48619657.1.2.3.0,Phases=3,Linecode=BT803_BT803_4_3_4,Length=0.038340000,Units=km
new line.17119677 bus1=BBT48619657.1.2.3.0,bus2=BBT48619748.1.2.3.0,Phases=3,Linecode=BT803_BT803_4_3_4,Length=0.032291000,Units=km
new line.17119684 bus1=BBT48618152.1.2.3.0,bus2=BBT48619755.1.2.3.0,Phases=3,Linecode=BT805_BT805_4_3_4,Length=0.025970000,Units=km
new line.17119691 bus1=BBT48619755.1.2.3.0,bus2=BBT48619762.1.2.3.0,Phases=3,Linecode=BT805_BT805_4_3_4,Length=0.052904000,Units=km
new line.17119698 bus1=BBT48619762.1.2.3.0,bus2=BBT48619769.1.2.3.0,Phases=3,Linecode=BT805_BT805_4_3_4,Length=0.031059000,Units=km
new line.17119705 bus1=BBT48619090.1.2.3.0,bus2=BBT48620154.1.2.3.0,Phases=3,Linecode=BT803_BT803_4_3_4,Length=0.038340000,Units=km
new line.17119712 bus1=BBT48620154.1.2.3.0,bus2=BBT48620203.1.2.3.0,Phases=3,Linecode=BT803_BT803_4_3_4,Length=0.038340000,Units=km
new line.17119719 bus1=BBT48619083.1.2.3.0,bus2=BBT48620217.1.2.3.0,Phases=3,Linecode=BT803_BT803_4_3_4,Length=0.036151000,Units=km
new line.17119733 bus1=BBT48620217.1.2.3.0,bus2=BBT48620224.1.2.3.0,Phases=3,Linecode=BT803_BT803_4_3_4,Length=0.034217000,Units=km
new line.17119740 bus1=BBT48619755.1.2.3.0,bus2=BBT48620231.1.2.3.0,Phases=3,Linecode=BT803_BT803_4_3_4,Length=0.035183000,Units=km
new line.11127936 bus1=BBT3323216.1.2.3.0,bus2=BBT3323223.1.2.3.0,Phases=3,Linecode=BT809_BT809_4_3_4,Length=0.030162000,Units=km
new line.11127950 bus1=BBT3323223.1.2.3.0,bus2=BBT3323230.1.2.3.0,Phases=3,Linecode=BT809_BT809_4_3_4,Length=0.032160000,Units=km
new line.11425856 bus1=BBT3421013.1.2.0,bus2=BBT1238385.1.2.0,Phases=2,Linecode=BT503_BT503_5_2_1,Length=0.013606000,Units=km
new line.11425863 bus1=BBT3421013.1.2.0,bus2=BBT1238406.1.2.0,Phases=2,Linecode=BT503_BT503_5_2_1,Length=0.010634000,Units=km
new line.11427165 bus1=BBT3421860.1.2.0,bus2=BBT3421867.1.2.0,Phases=2,Linecode=BT505_BT505_5_2_1,Length=0.019856000,Units=km
new line.11427186 bus1=BBT3421790.1.2.0,bus2=BBT3421797.1.2.0,Phases=2,Linecode=BT505_BT505_5_2_1,Length=0.019216000,Units=km
new line.11427207 bus1=BBT3421783.1.2.3.0,bus2=BBT3421790.1.2.3.0,Phases=3,Linecode=BT505_BT505_5_3_1,Length=0.020623000,Units=km
new line.11427235 bus1=BBT3421853.1.2.3.0,bus2=BBT3421860.1.2.3.0,Phases=3,Linecode=BT505_BT505_5_3_1,Length=0.020007000,Units=km
new line.11427256 bus1=BBT3421832.1.2.3.0,bus2=BBT3421839.1.2.3.0,Phases=3,Linecode=BT505_BT505_5_3_1,Length=0.020104000,Units=km
new line.11427277 bus1=BBT3421839.1.2.0,bus2=BBT3421846.1.2.0,Phases=2,Linecode=BT505_BT505_5_2_1,Length=0.020713000,Units=km
new line.11427319 bus1=BBT3421804.1.2.3.0,bus2=BBT3421811.1.2.3.0,Phases=3,Linecode=BT505_BT505_5_3_1,Length=0.020111000,Units=km
new line.11427340 bus1=BBT3421811.1.2.3.0,bus2=BBT3421818.1.2.3.0,Phases=3,Linecode=BT505_BT505_5_3_1,Length=0.020925000,Units=km
new line.11427361 bus1=BBT3421818.1.2.0,bus2=BBT3421825.1.2.0,Phases=2,Linecode=BT505_BT505_5_2_1,Length=0.019302000,Units=km
new line.12330046 bus1=BBT3760919.1.2.3.0,bus2=BBT3763369.1.2.3.0,Phases=3,Linecode=BT503_BT503_5_3_1,Length=0.031427000,Units=km
new line.12332895 bus1=BBT3763348.1.2.3.0,bus2=BBT3763355.1.2.3.0,Phases=3,Linecode=BT503_BT503_5_3_1,Length=0.039129000,Units=km
new line.12332916 bus1=BBT3763355.1.2.3.0,bus2=BBT3763362.1.2.3.0,Phases=3,Linecode=BT503_BT503_5_3_1,Length=0.030709000,Units=km
new line.12332986 bus1=BBT3763369.1.2.3.0,bus2=BBT3763376.1.2.3.0,Phases=3,Linecode=BT503_BT503_5_3_1,Length=0.037135000,Units=km
new line.17209298 bus1=BBT1260414.1.2.3.0,bus2=BBT54060652.1.2.3.0,Phases=3,Linecode=BT810_BT810_4_3_4,Length=0.035395000,Units=km
new line.17344545 bus1=BBT1244447.1.2.3.0,bus2=BBT61239579.1.2.3.0,Phases=3,Linecode=BT803_BT803_4_3_4,Length=0.012087000,Units=km
new line.17344552 bus1=BBT61239579.1.2.0,bus2=BBT61239628.1.2.0,Phases=2,Linecode=BT808_BT808_4_2_3,Length=0.022855000,Units=km
new line.17803689 bus1=BBT1238413.1.2.0,bus2=BBT87015854.1.2.0,Phases=2,Linecode=BT808_BT808_4_2_3,Length=0.028610000,Units=km
new line.17803696 bus1=BBT87015854.1.2.0,bus2=BBT87016162.1.2.0,Phases=2,Linecode=BT808_BT808_4_2_3,Length=0.029027000,Units=km
new line.17803703 bus1=BBT87016162.1.2.0,bus2=BBT87016267.1.2.0,Phases=2,Linecode=BT808_BT808_4_2_3,Length=0.028294000,Units=km
new line.17803710 bus1=BBT4319211.1.2.0,bus2=BBT87016372.1.2.0,Phases=2,Linecode=BT808_BT808_4_2_3,Length=0.020623000,Units=km
new line.17803724 bus1=BBT87016372.1.2.0,bus2=BBT87016379.1.2.0,Phases=2,Linecode=BT808_BT808_4_2_3,Length=0.022030000,Units=km
new line.18296671 bus1=BBT138357662.1.2.3.0,bus2=BBT138357718.1.2.3.0,Phases=3,Linecode=BT803_BT803_4_3_4,Length=0.009447000,Units=km
new line.18296678 bus1=BBT138357718.1.2.3.0,bus2=BBT138357725.1.2.3.0,Phases=3,Linecode=BT803_BT803_4_3_4,Length=0.035131000,Units=km
new line.18296685 bus1=BBT138357725.1.2.3.0,bus2=BBT138357732.1.2.3.0,Phases=3,Linecode=BT803_BT803_4_3_4,Length=0.030104000,Units=km
new line.18296692 bus1=BBT138357662.1.2.3.0,bus2=BBT138357739.1.2.3.0,Phases=3,Linecode=BT803_BT803_4_3_4,Length=0.015530000,Units=km
new line.18296699 bus1=BBT138357739.1.2.3.0,bus2=BBT138357746.1.2.3.0,Phases=3,Linecode=BT803_BT803_4_3_4,Length=0.036080000,Units=km
new line.18685381 bus1=BBT148083629.1.2.3.0,bus2=BBT1563171.1.2.3.0,Phases=3,Linecode=BT803_BT803_4_3_4,Length=0.040126000,Units=km
new line.18685459 bus1=BBT148085677.1.2.3.0,bus2=BBT148085678.1.2.3.0,Phases=3,Linecode=BT514_BT514_7_3_1,Length=0.000501000,Units=km
new line.18728091 bus1=BBT149325137.1.2.3.0,bus2=BBT149325138.1.2.3.0,Phases=3,Linecode=BT518_BT518_7_3_1,Length=0.000501000,Units=km
new line.18728137 bus1=BBT149326369.1.2.3.0,bus2=BBT149326370.1.2.3.0,Phases=3,Linecode=BT518_BT518_7_3_1,Length=0.000501000,Units=km
new line.18728146 bus1=BBT149326370.1.2.3.0,bus2=BBT149326714.1.2.3.0,Phases=3,Linecode=BT803_BT803_4_3_4,Length=0.037066000,Units=km
new line.18728147 bus1=BBT149326714.1.2.3.0,bus2=BBT149326715.1.2.3.0,Phases=3,Linecode=BT803_BT803_4_3_4,Length=0.037134000,Units=km
new line.18728148 bus1=BBT149326715.1.2.3.0,bus2=BBT149326716.1.2.3.0,Phases=3,Linecode=BT803_BT803_4_3_4,Length=0.034070000,Units=km
new line.18728149 bus1=BBT149326716.1.2.3.0,bus2=BBT149326719.1.2.3.0,Phases=3,Linecode=BT803_BT803_4_3_4,Length=0.034144000,Units=km
new line.18728150 bus1=BBT149326719.1.2.3.0,bus2=BBT149326728.1.2.3.0,Phases=3,Linecode=BT803_BT803_4_3_4,Length=0.033104000,Units=km
new line.18728151 bus1=BBT149326370.1.2.3.0,bus2=BBT149326738.1.2.3.0,Phases=3,Linecode=BT803_BT803_4_3_4,Length=0.038131000,Units=km
new line.18728152 bus1=BBT149326738.1.2.3.0,bus2=BBT149326751.1.2.3.0,Phases=3,Linecode=BT803_BT803_4_3_4,Length=0.038065000,Units=km
new line.18728153 bus1=BBT149326751.1.2.3.0,bus2=BBT149326764.1.2.3.0,Phases=3,Linecode=BT803_BT803_4_3_4,Length=0.038223000,Units=km
new line.18728155 bus1=BBT149326764.1.2.3.0,bus2=BBT149326768.1.2.3.0,Phases=3,Linecode=BT803_BT803_4_3_4,Length=0.037228000,Units=km
new line.18728156 bus1=BBT149326768.1.2.3.0,bus2=BBT149326770.1.2.3.0,Phases=3,Linecode=BT803_BT803_4_3_4,Length=0.038340000,Units=km
new line.18728157 bus1=BBT149325138.1.2.3.0,bus2=BBT149326782.1.2.3.0,Phases=3,Linecode=BT803_BT803_4_3_4,Length=0.038497000,Units=km
new line.18728158 bus1=BBT149325138.1.2.3.0,bus2=BBT149326785.1.2.3.0,Phases=3,Linecode=BT803_BT803_4_3_4,Length=0.037709000,Units=km
new line.18728159 bus1=BBT149326785.1.2.3.0,bus2=BBT149326786.1.2.3.0,Phases=3,Linecode=BT803_BT803_4_3_4,Length=0.017470000,Units=km
new line.18728160 bus1=BBT149326786.1.2.3.0,bus2=BBT149326791.1.2.3.0,Phases=3,Linecode=BT803_BT803_4_3_4,Length=0.030077000,Units=km
new line.18728161 bus1=BBT149326791.1.2.3.0,bus2=BBT149326792.1.2.3.0,Phases=3,Linecode=BT803_BT803_4_3_4,Length=0.049026000,Units=km
new line.18728162 bus1=BBT149326792.1.2.3.0,bus2=BBT149326795.1.2.3.0,Phases=3,Linecode=BT803_BT803_4_3_4,Length=0.038065000,Units=km
new line.18728163 bus1=BBT149326795.1.2.3.0,bus2=BBT149326798.1.2.3.0,Phases=3,Linecode=BT803_BT803_4_3_4,Length=0.036413000,Units=km
new line.18728180 bus1=BBT149327368.1.2.3.0,bus2=BBT5106900.1.2.3.0,Phases=3,Linecode=BT513_BT513_7_3_1,Length=0.000501000,Units=km
new line.18728186 bus1=BBT5106907.1.2.3.0,bus2=BBT149327716.1.2.3.0,Phases=3,Linecode=BT803_BT803_4_3_4,Length=0.037669000,Units=km
new line.18728192 bus1=BBT149327716.1.2.3.0,bus2=BBT149327928.1.2.3.0,Phases=3,Linecode=BT803_BT803_4_3_4,Length=0.031027000,Units=km
new line.18728193 bus1=BBT149327928.1.2.3.0,bus2=BBT149327989.1.2.3.0,Phases=3,Linecode=BT803_BT803_4_3_4,Length=0.033011000,Units=km
new line.18728194 bus1=BBT149327989.1.2.3.0,bus2=BBT149327990.1.2.3.0,Phases=3,Linecode=BT803_BT803_4_3_4,Length=0.038065000,Units=km
new line.17119747 bus1=BBT48620231.1.2.3.0,bus2=BBT48620238.1.2.3.0,Phases=3,Linecode=BT803_BT803_4_3_4,Length=0.035183000,Units=km
new line.17119754 bus1=BBT48619762.1.2.3.0,bus2=BBT48620245.1.2.3.0,Phases=3,Linecode=BT803_BT803_4_3_4,Length=0.035183000,Units=km
new line.17119761 bus1=BBT48620245.1.2.3.0,bus2=BBT48620252.1.2.3.0,Phases=3,Linecode=BT803_BT803_4_3_4,Length=0.035452000,Units=km
new line.17119768 bus1=BBT48619083.1.2.3.0,bus2=BBT48620294.1.2.3.0,Phases=3,Linecode=BT803_BT803_4_3_4,Length=0.035183000,Units=km
new line.17119775 bus1=BBT48620294.1.2.3.0,bus2=BBT48620301.1.2.3.0,Phases=3,Linecode=BT803_BT803_4_3_4,Length=0.034217000,Units=km
new line.17119782 bus1=BBT48620301.1.2.3.0,bus2=BBT48620308.1.2.3.0,Phases=3,Linecode=BT803_BT803_4_3_4,Length=0.036413000,Units=km
new line.17119789 bus1=BBT48620308.1.2.3.0,bus2=BBT48620315.1.2.3.0,Phases=3,Linecode=BT803_BT803_4_3_4,Length=0.035183000,Units=km
new line.17119796 bus1=BBT48619755.1.2.3.0,bus2=BBT48620364.1.2.3.0,Phases=3,Linecode=BT803_BT803_4_3_4,Length=0.038613000,Units=km
new line.17119810 bus1=BBT48620364.1.2.3.0,bus2=BBT48620616.1.2.3.0,Phases=3,Linecode=BT803_BT803_4_3_4,Length=0.037375000,Units=km
new line.17119817 bus1=BBT48620616.1.2.3.0,bus2=BBT48620651.1.2.3.0,Phases=3,Linecode=BT803_BT803_4_3_4,Length=0.038091000,Units=km
new line.17119824 bus1=BBT48619762.1.2.3.0,bus2=BBT48620658.1.2.3.0,Phases=3,Linecode=BT803_BT803_4_3_4,Length=0.036151000,Units=km
new line.17119831 bus1=BBT48620658.1.2.3.0,bus2=BBT48620665.1.2.3.0,Phases=3,Linecode=BT803_BT803_4_3_4,Length=0.035183000,Units=km
new line.17119838 bus1=BBT48620665.1.2.3.0,bus2=BBT48620672.1.2.3.0,Phases=3,Linecode=BT803_BT803_4_3_4,Length=0.035183000,Units=km
new line.17119845 bus1=BBT48619769.1.2.3.0,bus2=BBT48620679.1.2.3.0,Phases=3,Linecode=BT803_BT803_4_3_4,Length=0.038613000,Units=km
new line.17119852 bus1=BBT48620679.1.2.3.0,bus2=BBT48620686.1.2.3.0,Phases=3,Linecode=BT803_BT803_4_3_4,Length=0.037375000,Units=km
new line.17119859 bus1=BBT48620203.1.2.3.0,bus2=BBT48620742.1.2.3.0,Phases=3,Linecode=BT803_BT803_4_3_4,Length=0.037375000,Units=km
new line.17119866 bus1=BBT48620742.1.2.3.0,bus2=BBT48620749.1.2.3.0,Phases=3,Linecode=BT803_BT803_4_3_4,Length=0.039307000,Units=km
new line.17119873 bus1=BBT48619769.1.2.3.0,bus2=BBT48620756.1.2.3.0,Phases=3,Linecode=BT803_BT803_4_3_4,Length=0.035183000,Units=km
new line.17119880 bus1=BBT48620756.1.2.3.0,bus2=BBT48620763.1.2.3.0,Phases=3,Linecode=BT803_BT803_4_3_4,Length=0.035183000,Units=km
new line.17366000 bus1=BBT1250600.1.2.3.0,bus2=BBT83396938.1.2.3.0,Phases=3,Linecode=BT810_BT810_4_3_4,Length=0.039064000,Units=km
new line.17366014 bus1=BBT83396938.1.2.3.0,bus2=BBT83396945.1.2.3.0,Phases=3,Linecode=BT810_BT810_4_3_4,Length=0.040535000,Units=km
new line.18158435 bus1=BBT109403086.1.2.3.0,bus2=BBT1253883.1.2.3.0,Phases=3,Linecode=BT518_BT518_7_3_1,Length=0.000507000,Units=km
new line.18166793 bus1=BBT48619636.1.2.3.0,bus2=BBT123129120.1.2.3.0,Phases=3,Linecode=BT803_BT803_4_3_4,Length=0.037120000,Units=km
new line.18166814 bus1=BBT123129120.1.2.3.0,bus2=BBT123129127.1.2.3.0,Phases=3,Linecode=BT803_BT803_4_3_4,Length=0.037375000,Units=km
new line.18166821 bus1=BBT123129127.1.2.3.0,bus2=BBT123129134.1.2.3.0,Phases=3,Linecode=BT803_BT803_4_3_4,Length=0.036151000,Units=km
new line.18166863 bus1=BBT48619643.1.2.3.0,bus2=BBT123129162.1.2.3.0,Phases=3,Linecode=BT803_BT803_4_3_4,Length=0.038340000,Units=km
new line.18166870 bus1=BBT123129162.1.2.3.0,bus2=BBT123129169.1.2.3.0,Phases=3,Linecode=BT803_BT803_4_3_4,Length=0.036151000,Units=km
new line.18166877 bus1=BBT123129169.1.2.3.0,bus2=BBT123129176.1.2.3.0,Phases=3,Linecode=BT803_BT803_4_3_4,Length=0.037120000,Units=km
new line.18555664 bus1=BBT135034447.1.2.3.0,bus2=BBT1580160.1.2.3.0,Phases=3,Linecode=BT518_BT518_7_3_1,Length=0.000503000,Units=km
new line.18556252 bus1=BBT135046809.1.2.3.0,bus2=BBT1580202.1.2.3.0,Phases=3,Linecode=BT518_BT518_7_3_1,Length=0.000502000,Units=km
new line.18742362 bus1=BBT149749880.1.2.3.0,bus2=BBT1241416.1.2.3.0,Phases=3,Linecode=BT108_BT107_7_3_1,Length=0.018795000,Units=km
new line.18742369 bus1=BBT149749880.1.2.3.0,bus2=BBT149750011.1.2.3.0,Phases=3,Linecode=BT803_BT803_4_3_4,Length=0.035126000,Units=km
new line.18742388 bus1=BBT149750011.1.2.3.0,bus2=BBT149750372.1.2.3.0,Phases=3,Linecode=BT803_BT803_4_3_4,Length=0.034187000,Units=km
new line.18742422 bus1=BBT149750372.1.2.3.0,bus2=BBT149751039.1.2.3.0,Phases=3,Linecode=BT803_BT803_4_3_4,Length=0.033627000,Units=km
new line.18742425 bus1=BBT149751039.1.2.3.0,bus2=BBT149751297.1.2.3.0,Phases=3,Linecode=BT803_BT803_4_3_4,Length=0.036413000,Units=km
new line.18742430 bus1=BBT1239757.1.2.3.0,bus2=BBT149751695.1.2.3.0,Phases=3,Linecode=BT803_BT803_4_3_4,Length=0.022216000,Units=km
new line.18742448 bus1=BBT149751695.1.2.3.0,bus2=BBT149752258.1.2.3.0,Phases=3,Linecode=BT803_BT803_4_3_4,Length=0.033423000,Units=km
new line.18742449 bus1=BBT149752258.1.2.3.0,bus2=BBT149752271.1.2.3.0,Phases=3,Linecode=BT803_BT803_4_3_4,Length=0.032484000,Units=km
new line.18742450 bus1=BBT149752271.1.2.3.0,bus2=BBT149752272.1.2.3.0,Phases=3,Linecode=BT803_BT803_4_3_4,Length=0.030093000,Units=km
new line.18742463 bus1=BBT149753006.1.2.3.0,bus2=BBT1587916.1.2.3.0,Phases=3,Linecode=BT518_BT518_7_3_1,Length=0.000504000,Units=km
new line.18742477 bus1=BBT149753143.1.2.3.0,bus2=BBT149753111.1.2.3.0,Phases=3,Linecode=BT803_BT803_4_3_4,Length=0.019978000,Units=km
new line.18742501 bus1=BBT149753143.1.2.3.0,bus2=BBT149753453.1.2.3.0,Phases=3,Linecode=BT803_BT803_4_3_4,Length=0.015134000,Units=km
new line.18742502 bus1=BBT149753453.1.2.3.0,bus2=BBT149753462.1.2.3.0,Phases=3,Linecode=BT803_BT803_4_3_4,Length=0.024198000,Units=km
new line.18742525 bus1=BBT149753143.1.2.3.0,bus2=BBT149754187.1.2.3.0,Phases=3,Linecode=BT803_BT803_4_3_4,Length=0.032960000,Units=km
new line.18742548 bus1=BBT149753462.1.2.3.0,bus2=BBT149754510.1.2.3.0,Phases=3,Linecode=BT803_BT803_4_3_4,Length=0.034596000,Units=km
new line.18742551 bus1=BBT149754510.1.2.3.0,bus2=BBT149754527.1.2.3.0,Phases=3,Linecode=BT803_BT803_4_3_4,Length=0.032960000,Units=km
new line.18742553 bus1=BBT156142612.1.2.3.0,bus2=BBT149754790.1.2.3.0,Phases=3,Linecode=BT803_BT803_4_3_4,Length=0.019348000,Units=km
new line.18742554 bus1=BBT149754790.1.2.3.0,bus2=BBT149754796.1.2.3.0,Phases=3,Linecode=BT803_BT803_4_3_4,Length=0.036481000,Units=km
new line.18742555 bus1=BBT149754796.1.2.3.0,bus2=BBT149754805.1.2.3.0,Phases=3,Linecode=BT803_BT803_4_3_4,Length=0.035901000,Units=km
new line.18742559 bus1=BBT149755108.1.2.3.0,bus2=BBT1588581.1.2.3.0,Phases=3,Linecode=BT106_BT106_7_3_1,Length=0.019190000,Units=km
new line.18742563 bus1=BBT149754187.1.2.3.0,bus2=BBT149755473.1.2.3.0,Phases=3,Linecode=BT803_BT803_4_3_4,Length=0.026436000,Units=km
new line.18742577 bus1=BBT149755108.1.2.3.0,bus2=BBT149755747.1.2.3.0,Phases=3,Linecode=BT803_BT803_4_3_4,Length=0.026339000,Units=km
new line.18742596 bus1=BBT149755897.1.2.3.0,bus2=BBT1588679.1.2.3.0,Phases=3,Linecode=BT108_BT107_7_3_1,Length=0.018267000,Units=km
new line.18742603 bus1=BBT149755747.1.2.3.0,bus2=BBT149755937.1.2.3.0,Phases=3,Linecode=BT803_BT803_4_3_4,Length=0.029824000,Units=km
new line.18742615 bus1=BBT149755897.1.2.3.0,bus2=BBT149756056.1.2.3.0,Phases=3,Linecode=BT803_BT803_4_3_4,Length=0.024766000,Units=km
new line.11109547 bus1=BBT3316972.1.2.3.0,bus2=BBT3316958.1.2.3.0,Phases=3,Linecode=BT809_BT809_4_3_4,Length=0.036234000,Units=km
new line.11109589 bus1=BBT3316965.1.2.3.0,bus2=BBT3316972.1.2.3.0,Phases=3,Linecode=BT809_BT809_4_3_4,Length=0.033147000,Units=km
new line.11109743 bus1=BBT3316937.1.2.3.0,bus2=BBT3316965.1.2.3.0,Phases=3,Linecode=BT803_BT803_4_3_4,Length=0.033147000,Units=km
new line.11109862 bus1=BBT3316853.1.2.3.0,bus2=BBT1551187.1.2.3.0,Phases=3,Linecode=BT803_BT803_4_3_4,Length=0.022098000,Units=km
new line.11109869 bus1=BBT3316853.1.2.3.0,bus2=BBT3316986.1.2.3.0,Phases=3,Linecode=BT809_BT809_4_3_4,Length=0.037376000,Units=km
new line.11110107 bus1=BBT3316986.1.2.3.0,bus2=BBT3317049.1.2.3.0,Phases=3,Linecode=BT809_BT809_4_3_4,Length=0.032996000,Units=km
new line.11110142 bus1=BBT3317049.1.2.3.0,bus2=BBT3316993.1.2.3.0,Phases=3,Linecode=BT809_BT809_4_3_4,Length=0.028872000,Units=km
new line.11110149 bus1=BBT3317049.1.2.3.0,bus2=BBT3317056.1.2.3.0,Phases=3,Linecode=BT809_BT809_4_3_4,Length=0.037228000,Units=km
new line.11110205 bus1=BBT3316993.1.2.3.0,bus2=BBT3317000.1.2.3.0,Phases=3,Linecode=BT809_BT809_4_3_4,Length=0.026485000,Units=km
new line.11110814 bus1=BBT3317035.1.2.3.0,bus2=BBT3317042.1.2.3.0,Phases=3,Linecode=BT809_BT809_4_3_4,Length=0.034070000,Units=km
new line.11110996 bus1=BBT3317028.1.2.3.0,bus2=BBT3317035.1.2.3.0,Phases=3,Linecode=BT809_BT809_4_3_4,Length=0.030276000,Units=km
new line.11113754 bus1=BBT3317700.1.2.3.0,bus2=BBT3317686.1.2.3.0,Phases=3,Linecode=BT803_BT803_4_3_4,Length=0.030406000,Units=km
new line.11113810 bus1=BBT3317623.1.2.3.0,bus2=BBT3317700.1.2.3.0,Phases=3,Linecode=BT803_BT803_4_3_4,Length=0.033770000,Units=km
new line.11113817 bus1=BBT3317616.1.2.3.0,bus2=BBT3317623.1.2.3.0,Phases=3,Linecode=BT518_BT518_7_3_1,Length=0.000503000,Units=km
new line.11113824 bus1=BBT3317623.1.2.3.0,bus2=BBT3317630.1.2.3.0,Phases=3,Linecode=BT803_BT803_4_3_4,Length=0.031816000,Units=km
new line.11113873 bus1=BBT3317630.1.2.3.0,bus2=BBT3317637.1.2.3.0,Phases=3,Linecode=BT803_BT803_4_3_4,Length=0.032027000,Units=km
new line.11113887 bus1=BBT3317637.1.2.3.0,bus2=BBT3317644.1.2.3.0,Phases=3,Linecode=BT803_BT803_4_3_4,Length=0.031791000,Units=km
new line.11113929 bus1=BBT3317644.1.2.3.0,bus2=BBT3317665.1.2.3.0,Phases=3,Linecode=BT809_BT809_4_3_4,Length=0.025167000,Units=km
new line.11113936 bus1=BBT3317644.1.2.3.0,bus2=BBT3317672.1.2.3.0,Phases=3,Linecode=BT809_BT809_4_3_4,Length=0.038183000,Units=km
new line.11113971 bus1=BBT3317672.1.2.3.0,bus2=BBT3317679.1.2.3.0,Phases=3,Linecode=BT809_BT809_4_3_4,Length=0.047167000,Units=km
new line.11520412 bus1=BBT3451323.1.2.3.0,bus2=BBT3532019.1.2.3.0,Phases=3,Linecode=BT810_BT810_4_3_4,Length=0.034493000,Units=km
new line.13756926 bus1=BBT4443342.1.2.3.0,bus2=BBT4443349.1.2.3.0,Phases=3,Linecode=BT803_BT803_4_3_4,Length=0.038288000,Units=km
new line.13756940 bus1=BBT4443349.1.2.3.0,bus2=BBT4443356.1.2.3.0,Phases=3,Linecode=BT803_BT803_4_3_4,Length=0.037349000,Units=km
new line.13756954 bus1=BBT4443356.1.2.0,bus2=BBT13131267.1.2.0,Phases=2,Linecode=BT808_BT808_4_2_3,Length=0.031964000,Units=km
new line.17016280 bus1=BBT1246071.1.2.3.0,bus2=BBT43959022.1.2.3.0,Phases=3,Linecode=BT803_BT803_4_3_4,Length=0.015302000,Units=km
new line.17016301 bus1=BBT43959022.1.2.3.0,bus2=BBT43960919.1.2.3.0,Phases=3,Linecode=BT810_BT810_4_3_4,Length=0.013346000,Units=km
new line.17016308 bus1=BBT43959022.1.2.3.0,bus2=BBT43960926.1.2.3.0,Phases=3,Linecode=BT810_BT810_4_3_4,Length=0.011184000,Units=km
new line.17925370 bus1=BBT93433076.1.2.3.0,bus2=BBT93433083.1.2.3.0,Phases=3,Linecode=BT518_BT518_7_3_1,Length=0.000501000,Units=km
new line.17937270 bus1=BBT1582659.1.2.0,bus2=BBT93995792.1.2.0,Phases=2,Linecode=BT106_BT106_7_2_1,Length=0.018086000,Units=km
new line.17937298 bus1=BBT93996464.1.2.3.0,bus2=BBT1582673.1.2.3.0,Phases=3,Linecode=BT803_BT803_4_3_4,Length=0.015878000,Units=km
new line.17937319 bus1=BBT93996464.1.2.0,bus2=BBT93996968.1.2.0,Phases=2,Linecode=BT808_BT808_4_2_3,Length=0.032926000,Units=km
new line.17937333 bus1=BBT1580132.1.2.3.0,bus2=BBT93997199.1.2.3.0,Phases=3,Linecode=BT803_BT803_4_3_4,Length=0.015711000,Units=km
new line.17937340 bus1=BBT93997199.1.2.3.0,bus2=BBT93997304.1.2.3.0,Phases=3,Linecode=BT810_BT810_4_3_4,Length=0.037375000,Units=km
new line.17937347 bus1=BBT93997304.1.2.3.0,bus2=BBT93997311.1.2.3.0,Phases=3,Linecode=BT810_BT810_4_3_4,Length=0.034212000,Units=km
new line.17937354 bus1=BBT93997199.1.2.3.0,bus2=BBT93997416.1.2.3.0,Phases=3,Linecode=BT810_BT810_4_3_4,Length=0.010783000,Units=km
new line.17937382 bus1=BBT93997416.1.2.3.0,bus2=BBT93998431.1.2.3.0,Phases=3,Linecode=BT810_BT810_4_3_4,Length=0.035507000,Units=km
new line.17937389 bus1=BBT93998431.1.2.3.0,bus2=BBT93998438.1.2.3.0,Phases=3,Linecode=BT810_BT810_4_3_4,Length=0.035482000,Units=km
new line.17937396 bus1=BBT93999551.1.2.3.0,bus2=BBT1582085.1.2.3.0,Phases=3,Linecode=BT107_BT106_7_3_1,Length=0.017135000,Units=km
new line.17937403 bus1=BBT93999551.1.2.3.0,bus2=BBT93999579.1.2.3.0,Phases=3,Linecode=BT810_BT810_4_3_4,Length=0.038290000,Units=km
new line.17937410 bus1=BBT93999551.1.2.3.0,bus2=BBT93999978.1.2.3.0,Phases=3,Linecode=BT810_BT810_4_3_4,Length=0.044616000,Units=km
new line.18039778 bus1=BBT98146596.1.2.3.0,bus2=BBT98146603.1.2.3.0,Phases=3,Linecode=BT513_BT513_7_3_1,Length=0.000504000,Units=km
new line.18040821 bus1=BBT98196212.1.2.3.0,bus2=BBT1273196.1.2.3.0,Phases=3,Linecode=BT509_BT509_7_3_1,Length=0.000501000,Units=km
new line.18233958 bus1=BBT1582463.1.2.3.0,bus2=BBT127038725.1.2.3.0,Phases=3,Linecode=BT803_BT803_4_3_4,Length=0.019087000,Units=km
new line.18639293 bus1=BBT138357662.1.2.3.0,bus2=BBT1582456.1.2.3.0,Phases=3,Linecode=BT803_BT803_4_3_4,Length=0.022322000,Units=km
new line.18660797 bus1=BBT1580083.1.2.0,bus2=BBT139136041.1.2.0,Phases=2,Linecode=BT807_BT807_4_2_3,Length=0.021197000,Units=km
new line.18737914 bus1=BBT149632521.1.2.0,bus2=BBT1240275.1.2.0,Phases=2,Linecode=BT803_BT803_4_2_4,Length=0.016769000,Units=km
new line.18737955 bus1=BBT149634017.1.2.3.0,bus2=BBT149634018.1.2.3.0,Phases=3,Linecode=BT514_BT514_7_3_1,Length=0.000501000,Units=km
new line.18737964 bus1=BBT149634486.1.2.3.0,bus2=BBT149634487.1.2.3.0,Phases=3,Linecode=BT514_BT514_7_3_1,Length=0.000501000,Units=km
new line.18737969 bus1=BBT149634657.1.2.3.0,bus2=BBT149634658.1.2.3.0,Phases=3,Linecode=BT514_BT514_7_3_1,Length=0.000501000,Units=km
new line.18737997 bus1=BBT149635033.1.2.3.0,bus2=BBT149635035.1.2.3.0,Phases=3,Linecode=BT513_BT513_7_3_1,Length=0.000501000,Units=km
new line.18738005 bus1=BBT149635173.1.2.3.0,bus2=BBT149635174.1.2.3.0,Phases=3,Linecode=BT514_BT514_7_3_1,Length=0.000501000,Units=km
new line.18738015 bus1=BBT149635174.1.2.3.0,bus2=BBT149635478.1.2.3.0,Phases=3,Linecode=BT805_BT805_4_3_4,Length=0.033253000,Units=km
new line.18738021 bus1=BBT149634487.1.2.3.0,bus2=BBT149635559.1.2.3.0,Phases=3,Linecode=BT805_BT805_4_3_4,Length=0.018435000,Units=km
new line.18738023 bus1=BBT149635559.1.2.3.0,bus2=BBT149635579.1.2.3.0,Phases=3,Linecode=BT805_BT805_4_3_4,Length=0.018452000,Units=km
new line.18738024 bus1=BBT149635579.1.2.3.0,bus2=BBT149635580.1.2.3.0,Phases=3,Linecode=BT805_BT805_4_3_4,Length=0.026853000,Units=km
new line.18738026 bus1=BBT149635580.1.2.3.0,bus2=BBT149635626.1.2.3.0,Phases=3,Linecode=BT805_BT805_4_3_4,Length=0.029540000,Units=km
new line.18728195 bus1=BBT149327990.1.2.3.0,bus2=BBT149327991.1.2.3.0,Phases=3,Linecode=BT803_BT803_4_3_4,Length=0.032905000,Units=km
new line.18728197 bus1=BBT149328035.1.2.3.0,bus2=BBT1563185.1.2.3.0,Phases=3,Linecode=BT803_BT803_4_3_4,Length=0.038065000,Units=km
new line.18728210 bus1=BBT149328884.1.2.3.0,bus2=BBT1563150.1.2.3.0,Phases=3,Linecode=BT803_BT803_4_3_4,Length=0.038065000,Units=km
new line.18728228 bus1=BBT153031511.1.2.3.0,bus2=BBT149329706.1.2.3.0,Phases=3,Linecode=BT803_BT803_4_3_4,Length=0.018034000,Units=km