new line.10105243 bus1=BBT2931377.1.2.3.0,bus2=BBT2931384.1.2.3.0,Phases=3,Linecode=BT808_BT808_4_3_3,Length=0.010299000,Units=km
new line.10105264 bus1=BBT2931384.1.2.3.0,bus2=BBT2931391.1.2.3.0,Phases=3,Linecode=BT808_BT808_4_3_3,Length=0.017725000,Units=km
new line.10105292 bus1=BBT2931391.1.2.3.0,bus2=BBT2931398.1.2.3.0,Phases=3,Linecode=BT808_BT808_4_3_3,Length=0.010773000,Units=km
new line.10614332 bus1=BBT3119656.1.2.3.0,bus2=BBT3119663.1.2.3.0,Phases=3,Linecode=BT503_BT503_5_3_1,Length=0.012373000,Units=km
new line.11221456 bus1=BBT3358860.1.2.0,bus2=BBT3358867.1.2.0,Phases=2,Linecode=BT803_BT803_4_2_4,Length=0.028800000,Units=km
new line.11221491 bus1=BBT3358867.1.2.0,bus2=BBT3358874.1.2.0,Phases=2,Linecode=BT803_BT803_4_2_4,Length=0.028643000,Units=km
new line.11635226 bus1=BBT3499049.1.2.3.0,bus2=BBT3499056.1.2.3.0,Phases=3,Linecode=BT803_BT803_4_3_4,Length=0.039822000,Units=km
new line.11635289 bus1=BBT3499028.1.2.3.0,bus2=BBT3499042.1.2.3.0,Phases=3,Linecode=BT803_BT803_4_3_4,Length=0.040035000,Units=km
new line.11635310 bus1=BBT3499000.1.2.3.0,bus2=BBT3499021.1.2.3.0,Phases=3,Linecode=BT803_BT803_4_3_4,Length=0.039061000,Units=km
new line.11635352 bus1=BBT3498972.1.2.3.0,bus2=BBT3498993.1.2.3.0,Phases=3,Linecode=BT803_BT803_4_3_4,Length=0.026690000,Units=km
new line.11635380 bus1=BBT3498881.1.2.3.0,bus2=BBT3498888.1.2.3.0,Phases=3,Linecode=BT803_BT803_4_3_4,Length=0.028869000,Units=km
new line.11635401 bus1=BBT3498867.1.2.3.0,bus2=BBT3498874.1.2.3.0,Phases=3,Linecode=BT803_BT803_4_3_4,Length=0.016283000,Units=km
new line.11635422 bus1=BBT3498860.1.2.3.0,bus2=BBT3498867.1.2.3.0,Phases=3,Linecode=BT803_BT803_4_3_4,Length=0.037117000,Units=km
new line.11635443 bus1=BBT3498930.1.2.3.0,bus2=BBT3498832.1.2.3.0,Phases=3,Linecode=BT803_BT803_4_3_4,Length=0.027666000,Units=km
new line.11635464 bus1=BBT3498832.1.2.3.0,bus2=BBT3498839.1.2.3.0,Phases=3,Linecode=BT803_BT803_4_3_4,Length=0.026690000,Units=km
new line.11635485 bus1=BBT3498839.1.2.3.0,bus2=BBT3498846.1.2.3.0,Phases=3,Linecode=BT803_BT803_4_3_4,Length=0.036887000,Units=km
new line.11635688 bus1=BBT3498475.1.2.3.0,bus2=BBT3498482.1.2.3.0,Phases=3,Linecode=BT805_BT805_4_3_4,Length=0.046852000,Units=km
new line.11635709 bus1=BBT3498461.1.2.3.0,bus2=BBT3498468.1.2.3.0,Phases=3,Linecode=BT805_BT805_4_3_4,Length=0.021195000,Units=km
new line.11635730 bus1=BBT3498419.1.2.3.0,bus2=BBT3498461.1.2.3.0,Phases=3,Linecode=BT805_BT805_4_3_4,Length=0.039860000,Units=km
new line.11635737 bus1=BBT3498412.1.2.3.0,bus2=BBT3498419.1.2.3.0,Phases=3,Linecode=BT518_BT518_7_3_1,Length=0.000501000,Units=km
new line.11635744 bus1=BBT3498419.1.2.3.0,bus2=BBT3498433.1.2.3.0,Phases=3,Linecode=BT805_BT805_4_3_4,Length=0.018979000,Units=km
new line.11635758 bus1=BBT3498440.1.2.3.0,bus2=BBT3498454.1.2.3.0,Phases=3,Linecode=BT805_BT805_4_3_4,Length=0.039570000,Units=km
new line.11635814 bus1=BBT3498538.1.2.3.0,bus2=BBT2645574.1.2.3.0,Phases=3,Linecode=BT803_BT803_4_3_4,Length=0.025968000,Units=km
new line.11635821 bus1=BBT3498538.1.2.3.0,bus2=BBT3498545.1.2.3.0,Phases=3,Linecode=BT803_BT803_4_3_4,Length=0.036148000,Units=km
new line.11635828 bus1=BBT3498531.1.2.3.0,bus2=BBT3498538.1.2.3.0,Phases=3,Linecode=BT518_BT518_7_3_1,Length=0.000501000,Units=km
new line.11635863 bus1=BBT3498363.1.2.3.0,bus2=BBT3498370.1.2.3.0,Phases=3,Linecode=BT810_BT810_4_3_4,Length=0.036806000,Units=km
new line.11635884 bus1=BBT3498356.1.2.3.0,bus2=BBT3498363.1.2.3.0,Phases=3,Linecode=BT810_BT810_4_3_4,Length=0.028608000,Units=km
new line.11635898 bus1=BBT3498349.1.2.3.0,bus2=BBT3498356.1.2.3.0,Phases=3,Linecode=BT803_BT803_4_3_4,Length=0.034141000,Units=km
new line.11635926 bus1=BBT3498335.1.2.3.0,bus2=BBT3498349.1.2.3.0,Phases=3,Linecode=BT803_BT803_4_3_4,Length=0.031788000,Units=km
new line.11635933 bus1=BBT3498328.1.2.3.0,bus2=BBT3498335.1.2.3.0,Phases=3,Linecode=BT518_BT518_7_3_1,Length=0.000501000,Units=km
new line.11635940 bus1=BBT3498335.1.2.3.0,bus2=BBT3498384.1.2.3.0,Phases=3,Linecode=BT810_BT810_4_3_4,Length=0.033846000,Units=km
new line.11635961 bus1=BBT3498384.1.2.3.0,bus2=BBT3498391.1.2.3.0,Phases=3,Linecode=BT810_BT810_4_3_4,Length=0.043749000,Units=km
new line.11635982 bus1=BBT3498391.1.2.3.0,bus2=BBT3498398.1.2.3.0,Phases=3,Linecode=BT810_BT810_4_3_4,Length=0.023201000,Units=km
new line.11636759 bus1=BBT3498433.1.2.3.0,bus2=BBT3498447.1.2.3.0,Phases=3,Linecode=BT803_BT803_4_3_4,Length=0.014322000,Units=km
new line.11636766 bus1=BBT3498433.1.2.3.0,bus2=BBT2648871.1.2.3.0,Phases=3,Linecode=BT803_BT803_4_3_4,Length=0.020401000,Units=km
new line.11636773 bus1=BBT3498433.1.2.3.0,bus2=BBT3498440.1.2.3.0,Phases=3,Linecode=BT805_BT805_4_3_4,Length=0.021846000,Units=km
new line.11636822 bus1=BBT3498468.1.2.3.0,bus2=BBT3498475.1.2.3.0,Phases=3,Linecode=BT805_BT805_4_3_4,Length=0.017725000,Units=km
new line.11637011 bus1=BBT3498587.1.2.3.0,bus2=BBT2645581.1.2.3.0,Phases=3,Linecode=BT107_BT107_7_3_1,Length=0.024048000,Units=km
new line.11637396 bus1=BBT2660120.1.2.3.0,bus2=BBT2654156.1.2.3.0,Phases=3,Linecode=BT805_BT805_4_3_4,Length=0.030372000,Units=km
new line.11637732 bus1=BBT3498853.1.2.3.0,bus2=BBT2712088.1.2.3.0,Phases=3,Linecode=BT803_BT803_4_3_4,Length=0.009222000,Units=km
new line.11637739 bus1=BBT3498853.1.2.3.0,bus2=BBT3697590.1.2.3.0,Phases=3,Linecode=BT803_BT803_4_3_4,Length=0.015816000,Units=km
new line.11637746 bus1=BBT3498853.1.2.3.0,bus2=BBT3498860.1.2.3.0,Phases=3,Linecode=BT803_BT803_4_3_4,Length=0.016283000,Units=km
new line.11637781 bus1=BBT3498874.1.2.3.0,bus2=BBT3498881.1.2.3.0,Phases=3,Linecode=BT803_BT803_4_3_4,Length=0.019422000,Units=km
new line.11637851 bus1=BBT3498916.1.2.3.0,bus2=BBT3498930.1.2.3.0,Phases=3,Linecode=BT803_BT803_4_3_4,Length=0.025968000,Units=km
new line.11637858 bus1=BBT3498916.1.2.3.0,bus2=BBT3498853.1.2.3.0,Phases=3,Linecode=BT803_BT803_4_3_4,Length=0.010443000,Units=km
new line.11637865 bus1=BBT3498923.1.2.3.0,bus2=BBT3498916.1.2.3.0,Phases=3,Linecode=BT513_BT513_7_3_1,Length=0.000501000,Units=km
new line.11637956 bus1=BBT3498958.1.2.3.0,bus2=BBT2713089.1.2.3.0,Phases=3,Linecode=BT805_BT805_4_3_4,Length=0.017725000,Units=km
new line.11637963 bus1=BBT3498958.1.2.3.0,bus2=BBT3498972.1.2.3.0,Phases=3,Linecode=BT803_BT803_4_3_4,Length=0.011405000,Units=km
new line.11637970 bus1=BBT3498958.1.2.3.0,bus2=BBT3498965.1.2.3.0,Phases=3,Linecode=BT803_BT803_4_3_4,Length=0.021219000,Units=km
new line.11637998 bus1=BBT3499014.1.2.3.0,bus2=BBT2713999.1.2.3.0,Phases=3,Linecode=BT805_BT805_4_3_4,Length=0.021593000,Units=km
new line.11638005 bus1=BBT3499014.1.2.3.0,bus2=BBT3499028.1.2.3.0,Phases=3,Linecode=BT803_BT803_4_3_4,Length=0.021593000,Units=km
new line.11638012 bus1=BBT3499014.1.2.3.0,bus2=BBT3499000.1.2.3.0,Phases=3,Linecode=BT803_BT803_4_3_4,Length=0.010773000,Units=km
new line.11638033 bus1=BBT3499063.1.2.3.0,bus2=BBT2700139.1.2.3.0,Phases=3,Linecode=BT107_BT107_7_3_1,Length=0.016497000,Units=km
new line.12502372 bus1=BBT3922822.1.2.3.0,bus2=BBT5238689.1.2.3.0,Phases=3,Linecode=BT805_BT805_4_3_4,Length=0.020621000,Units=km
new line.12525941 bus1=BBT3940812.1.2.0,bus2=BBT2693860.1.2.0,Phases=2,Linecode=BT108_BT107_7_2_1,Length=0.019240000,Units=km
new line.12529007 bus1=BBT3942765.1.2.3.0,bus2=BBT2611050.1.2.3.0,Phases=3,Linecode=BT107_BT107_7_3_1,Length=0.016283000,Units=km
new line.12529532 bus1=BBT3943052.1.2.3.0,bus2=BBT2585584.1.2.3.0,Phases=3,Linecode=BT803_BT803_4_3_4,Length=0.013605000,Units=km
new line.17460402 bus1=BBT68846388.1.2.3.0,bus2=BBT2558648.1.2.3.0,Phases=3,Linecode=BT521_BT521_5_3_1,Length=0.004001000,Units=km
new line.13577607 bus1=BBT4298379.1.2.0,bus2=BBT4298386.1.2.0,Phases=2,Linecode=BT503_BT503_5_2_1,Length=0.024704000,Units=km
new line.13577642 bus1=BBT4298386.1.2.0,bus2=BBT4298393.1.2.0,Phases=2,Linecode=BT503_BT503_5_2_1,Length=0.017034000,Units=km
new line.13577649 bus1=BBT4298386.1.2.0,bus2=BBT4298400.1.2.0,Phases=2,Linecode=BT503_BT503_5_2_1,Length=0.017004000,Units=km
new line.13577684 bus1=BBT4298400.1.2.0,bus2=BBT4298407.1.2.0,Phases=2,Linecode=BT503_BT503_5_2_1,Length=0.021029000,Units=km
new line.14174077 bus1=BBT5077395.1.2.0,bus2=BBT5077402.1.2.0,Phases=2,Linecode=BT808_BT808_4_2_3,Length=0.023713000,Units=km
new line.17773680 bus1=BBT2718612.1.2.3.0,bus2=BBT90779138.1.2.3.0,Phases=3,Linecode=BT810_BT810_4_3_4,Length=0.028291000,Units=km
new line.18021935 bus1=BBT2742370.1.2.3.0,bus2=BBT97387089.1.2.3.0,Phases=3,Linecode=BT805_BT805_4_3_4,Length=0.016497000,Units=km
new line.18238585 bus1=BBT2632981.1.2.0,bus2=BBT113800843.1.2.0,Phases=2,Linecode=BT503_BT503_5_2_1,Length=0.004125000,Units=km
new line.18238599 bus1=BBT113800843.1.2.0,bus2=BBT113800857.1.2.0,Phases=2,Linecode=BT503_BT503_5_2_1,Length=0.014146000,Units=km
new line.18238606 bus1=BBT113800857.1.2.0,bus2=BBT113801039.1.2.0,Phases=2,Linecode=BT503_BT503_5_2_1,Length=0.011665000,Units=km
new line.18238613 bus1=BBT113801039.1.2.0,bus2=BBT113801053.1.2.0,Phases=2,Linecode=BT503_BT503_5_2_1,Length=0.010773000,Units=km
new line.18238620 bus1=BBT113801053.1.2.0,bus2=BBT113801060.1.2.0,Phases=2,Linecode=BT503_BT503_5_2_1,Length=0.014146000,Units=km
new line.18238627 bus1=BBT113801060.1.2.0,bus2=BBT113801074.1.2.0,Phases=2,Linecode=BT503_BT503_5_2_1,Length=0.012533000,Units=km
new line.18238634 bus1=BBT113800857.1.2.0,bus2=BBT113801088.1.2.0,Phases=2,Linecode=BT503_BT503_5_2_1,Length=0.008488000,Units=km
new line.18238641 bus1=BBT113801088.1.2.0,bus2=BBT113801137.1.2.0,Phases=2,Linecode=BT503_BT503_5_2_1,Length=0.012653000,Units=km
new line.18238648 bus1=BBT113801137.1.2.0,bus2=BBT113801151.1.2.0,Phases=2,Linecode=BT503_BT503_5_2_1,Length=0.015816000,Units=km
new line.18238655 bus1=BBT113801151.1.2.0,bus2=BBT113801158.1.2.0,Phases=2,Linecode=BT503_BT503_5_2_1,Length=0.020254000,Units=km
new line.18238669 bus1=BBT113800857.1.2.0,bus2=BBT113801179.1.2.0,Phases=2,Linecode=BT503_BT503_5_2_1,Length=0.014322000,Units=km
new line.18238676 bus1=BBT113801179.1.2.0,bus2=BBT113801235.1.2.0,Phases=2,Linecode=BT503_BT503_5_2_1,Length=0.012045000,Units=km
new line.18238683 bus1=BBT113801179.1.2.0,bus2=BBT113801270.1.2.0,Phases=2,Linecode=BT503_BT503_5_2_1,Length=0.011405000,Units=km
new line.18238697 bus1=BBT113801270.1.2.0,bus2=BBT113801284.1.2.0,Phases=2,Linecode=BT503_BT503_5_2_1,Length=0.020005000,Units=km
new line.18238704 bus1=BBT113801284.1.2.0,bus2=BBT113801417.1.2.0,Phases=2,Linecode=BT503_BT503_5_2_1,Length=0.009490000,Units=km
new line.18238711 bus1=BBT113801417.1.2.0,bus2=BBT113801431.1.2.0,Phases=2,Linecode=BT503_BT503_5_2_1,Length=0.010299000,Units=km
new line.18238718 bus1=BBT113801431.1.2.0,bus2=BBT113801529.1.2.0,Phases=2,Linecode=BT503_BT503_5_2_1,Length=0.012169000,Units=km
new line.18238725 bus1=BBT113801529.1.2.0,bus2=BBT113801627.1.2.0,Phases=2,Linecode=BT503_BT503_5_2_1,Length=0.012169000,Units=km
new line.18238760 bus1=BBT113801074.1.2.0,bus2=BBT113803559.1.2.0,Phases=2,Linecode=BT503_BT503_5_2_1,Length=0.004244000,Units=km
new line.18238774 bus1=BBT113801060.1.2.0,bus2=BBT113803566.1.2.0,Phases=2,Linecode=BT503_BT503_5_2_1,Length=0.004474000,Units=km
new line.18238781 bus1=BBT113801053.1.2.0,bus2=BBT113803797.1.2.0,Phases=2,Linecode=BT503_BT503_5_2_1,Length=0.004125000,Units=km
new line.18238788 bus1=BBT113801039.1.2.0,bus2=BBT113803832.1.2.0,Phases=2,Linecode=BT503_BT503_5_2_1,Length=0.004474000,Units=km
new line.18238795 bus1=BBT113801179.1.2.0,bus2=BBT113803839.1.2.0,Phases=2,Linecode=BT503_BT503_5_2_1,Length=0.004244000,Units=km
new line.18238802 bus1=BBT113801088.1.2.0,bus2=BBT113803846.1.2.0,Phases=2,Linecode=BT503_BT503_5_2_1,Length=0.004244000,Units=km
new line.18238809 bus1=BBT113801137.1.2.0,bus2=BBT113803853.1.2.0,Phases=2,Linecode=BT503_BT503_5_2_1,Length=0.005101000,Units=km
new line.18238816 bus1=BBT113801151.1.2.0,bus2=BBT113803860.1.2.0,Phases=2,Linecode=BT503_BT503_5_2_1,Length=0.004001000,Units=km
new line.18238844 bus1=BBT113801235.1.2.0,bus2=BBT113804168.1.2.0,Phases=2,Linecode=BT503_BT503_5_2_1,Length=0.005002000,Units=km
new line.18238851 bus1=BBT113801270.1.2.0,bus2=BBT113804224.1.2.0,Phases=2,Linecode=BT503_BT503_5_2_1,Length=0.004125000,Units=km
new line.18238858 bus1=BBT113801284.1.2.0,bus2=BBT113804322.1.2.0,Phases=2,Linecode=BT503_BT503_5_2_1,Length=0.004001000,Units=km
new line.18238865 bus1=BBT113801417.1.2.0,bus2=BBT113804371.1.2.0,Phases=2,Linecode=BT503_BT503_5_2_1,Length=0.004474000,Units=km
new line.18238872 bus1=BBT113801431.1.2.0,bus2=BBT113804378.1.2.0,Phases=2,Linecode=BT503_BT503_5_2_1,Length=0.003164000,Units=km
new line.18238879 bus1=BBT113801529.1.2.0,bus2=BBT113804455.1.2.0,Phases=2,Linecode=BT503_BT503_5_2_1,Length=0.005002000,Units=km
new line.18238886 bus1=BBT113801627.1.2.0,bus2=BBT113804490.1.2.0,Phases=2,Linecode=BT503_BT503_5_2_1,Length=0.004001000,Units=km
new line.19348324 bus1=BBT168899192.1.2.3.0,bus2=BBT168899193.1.2.3.0,Phases=3,Linecode=BT518_BT518_7_3_1,Length=0.000501000,Units=km
new line.19348345 bus1=BBT168899193.1.2.3.0,bus2=BBT168899660.1.2.3.0,Phases=3,Linecode=BT805_BT805_4_3_4,Length=0.030091000,Units=km
new line.19348350 bus1=BBT168899660.1.2.3.0,bus2=BBT2558669.1.2.3.0,Phases=3,Linecode=BT803_BT803_4_3_4,Length=0.016557000,Units=km
new line.19348365 bus1=BBT168899660.1.2.3.0,bus2=BBT168900014.1.2.3.0,Phases=3,Linecode=BT805_BT805_4_3_4,Length=0.030091000,Units=km
new line.19348366 bus1=BBT168899193.1.2.3.0,bus2=BBT168900015.1.2.3.0,Phases=3,Linecode=BT805_BT805_4_3_4,Length=0.038636000,Units=km
new line.19348367 bus1=BBT168900015.1.2.3.0,bus2=BBT168900035.1.2.3.0,Phases=3,Linecode=BT805_BT805_4_3_4,Length=0.025502000,Units=km
new line.19348369 bus1=BBT168900035.1.2.3.0,bus2=BBT168900054.1.2.3.0,Phases=3,Linecode=BT805_BT805_4_3_4,Length=0.027466000,Units=km
new line.19348399 bus1=BBT2561882.1.2.3.0,bus2=BBT2558704.1.2.3.0,Phases=3,Linecode=BT803_BT803_4_3_4,Length=0.030684000,Units=km
new line.19348447 bus1=BBT165650654.1.2.0,bus2=BBT168901741.1.2.0,Phases=2,Linecode=BT808_BT808_4_2_3,Length=0.031121000,Units=km
new line.8289933 bus1=BBT2600515.1.2.3.0,bus2=BBT2600508.1.2.3.0,Phases=3,Linecode=BT810_BT810_4_3_4,Length=0.027210000,Units=km
new line.8289940 bus1=BBT2600515.1.2.3.0,bus2=BBT2600529.1.2.3.0,Phases=3,Linecode=BT107_BT107_7_3_1,Length=0.024048000,Units=km
new line.8289968 bus1=BBT2600522.1.2.3.0,bus2=BBT2600515.1.2.3.0,Phases=3,Linecode=BT810_BT810_4_3_4,Length=0.037211000,Units=km
new line.8289996 bus1=BBT2600536.1.2.3.0,bus2=BBT2600543.1.2.3.0,Phases=3,Linecode=BT810_BT810_4_3_4,Length=0.021546000,Units=km
new line.8290003 bus1=BBT2600536.1.2.3.0,bus2=BBT2600522.1.2.3.0,Phases=3,Linecode=BT810_BT810_4_3_4,Length=0.032811000,Units=km
new line.8290024 bus1=BBT2600550.1.2.3.0,bus2=BBT2600536.1.2.3.0,Phases=3,Linecode=BT803_BT803_4_3_4,Length=0.036065000,Units=km
new line.12452637 bus1=BBT3876902.2.3.0,bus2=BBT3876909.2.3.0,Phases=2,Linecode=BT305_BT305_5_2_1,Length=0.011317000,Units=km
new line.12452672 bus1=BBT3876909.2.3.0,bus2=BBT3876923.2.3.0,Phases=2,Linecode=BT305_BT305_5_2_1,Length=0.012169000,Units=km
new line.12452679 bus1=BBT3876909.2.3.0,bus2=BBT3876916.2.3.0,Phases=2,Linecode=BT305_BT305_5_2_1,Length=0.012210000,Units=km
new line.12952927 bus1=BBT4058076.1.2.3.0,bus2=BBT4058083.1.2.3.0,Phases=3,Linecode=BT803_BT803_4_3_4,Length=0.018005000,Units=km
new line.16254540 bus1=BBT16778050.1.2.3.0,bus2=BBT16778057.1.2.3.0,Phases=3,Linecode=BT810_BT810_4_3_4,Length=0.012373000,Units=km
new line.16254547 bus1=BBT16778057.1.2.3.0,bus2=BBT16778064.1.2.3.0,Phases=3,Linecode=BT810_BT810_4_3_4,Length=0.016283000,Units=km
new line.17989560 bus1=BBT96193176.1.2.3.0,bus2=BBT2696051.1.2.3.0,Phases=3,Linecode=BT518_BT518_7_3_1,Length=0.000501000,Units=km
new line.17989602 bus1=BBT96195409.1.2.3.0,bus2=BBT2715735.1.2.3.0,Phases=3,Linecode=BT107_BT107_7_3_1,Length=0.018444000,Units=km
new line.18209402 bus1=BBT68846507.1.2.3.0,bus2=BBT112263398.1.2.3.0,Phases=3,Linecode=BT521_BT521_5_3_1,Length=0.013345000,Units=km
new line.18676449 bus1=BBT139629380.1.2.3.0,bus2=BBT139629387.1.2.3.0,Phases=3,Linecode=BT518_BT518_7_3_1,Length=0.000501000,Units=km
new line.18676456 bus1=BBT139629387.1.2.3.0,bus2=BBT139629548.1.2.3.0,Phases=3,Linecode=BT803_BT803_4_3_4,Length=0.043277000,Units=km
new line.18676463 bus1=BBT139629548.1.2.3.0,bus2=BBT139629555.1.2.3.0,Phases=3,Linecode=BT803_BT803_4_3_4,Length=0.045233000,Units=km
new line.18676470 bus1=BBT139629555.1.2.3.0,bus2=BBT139629562.1.2.3.0,Phases=3,Linecode=BT803_BT803_4_3_4,Length=0.044833000,Units=km
new line.18676477 bus1=BBT139629562.1.2.3.0,bus2=BBT139629569.1.2.3.0,Phases=3,Linecode=BT803_BT803_4_3_4,Length=0.014146000,Units=km
new line.18676484 bus1=BBT139629387.1.2.3.0,bus2=BBT139629695.1.2.3.0,Phases=3,Linecode=BT803_BT803_4_3_4,Length=0.029689000,Units=km
new line.18676491 bus1=BBT139629695.1.2.3.0,bus2=BBT139629702.1.2.3.0,Phases=3,Linecode=BT803_BT803_4_3_4,Length=0.028800000,Units=km
new line.18676498 bus1=BBT139629702.1.2.3.0,bus2=BBT139629709.1.2.3.0,Phases=3,Linecode=BT803_BT803_4_3_4,Length=0.026083000,Units=km
new line.18676505 bus1=BBT139629709.1.2.3.0,bus2=BBT139629716.1.2.3.0,Phases=3,Linecode=BT803_BT803_4_3_4,Length=0.028450000,Units=km
new line.18676533 bus1=BBT139629716.1.2.3.0,bus2=BBT139631704.1.2.3.0,Phases=3,Linecode=BT803_BT803_4_3_4,Length=0.028869000,Units=km
new line.18676547 bus1=BBT139631704.1.2.3.0,bus2=BBT139631711.1.2.3.0,Phases=3,Linecode=BT803_BT803_4_3_4,Length=0.033979000,Units=km
new line.18676554 bus1=BBT139631711.1.2.3.0,bus2=BBT139631970.1.2.3.0,Phases=3,Linecode=BT803_BT803_4_3_4,Length=0.029554000,Units=km
new line.18676638 bus1=BBT139636555.1.2.3.0,bus2=BBT139636562.1.2.3.0,Phases=3,Linecode=BT518_BT518_7_3_1,Length=0.000501000,Units=km
new line.18676645 bus1=BBT139636562.1.2.3.0,bus2=BBT139636569.1.2.3.0,Phases=3,Linecode=BT803_BT803_4_3_4,Length=0.044609000,Units=km
new line.18676652 bus1=BBT139636569.1.2.3.0,bus2=BBT160535268.1.2.3.0,Phases=3,Linecode=BT803_BT803_4_3_4,Length=0.030683000,Units=km
new line.18676659 bus1=BBT139636639.1.2.3.0,bus2=BBT160535297.1.2.3.0,Phases=3,Linecode=BT803_BT803_4_3_4,Length=0.022142000,Units=km
new line.18676666 bus1=BBT139636646.1.2.3.0,bus2=BBT139636772.1.2.3.0,Phases=3,Linecode=BT803_BT803_4_3_4,Length=0.041447000,Units=km
new line.18676680 bus1=BBT139636562.1.2.3.0,bus2=BBT139636863.1.2.3.0,Phases=3,Linecode=BT803_BT803_4_3_4,Length=0.033743000,Units=km
new line.18676932 bus1=BBT139636863.1.2.3.0,bus2=BBT139640076.1.2.3.0,Phases=3,Linecode=BT803_BT803_4_3_4,Length=0.025026000,Units=km
new line.18676939 bus1=BBT139640076.1.2.3.0,bus2=BBT139640097.1.2.3.0,Phases=3,Linecode=BT803_BT803_4_3_4,Length=0.020030000,Units=km
new line.18676960 bus1=BBT139640097.1.2.3.0,bus2=BBT139640223.1.2.3.0,Phases=3,Linecode=BT803_BT803_4_3_4,Length=0.024027000,Units=km
new line.18676967 bus1=BBT139640223.1.2.3.0,bus2=BBT139640230.1.2.3.0,Phases=3,Linecode=BT803_BT803_4_3_4,Length=0.019031000,Units=km
new line.18676974 bus1=BBT139640230.1.2.3.0,bus2=BBT139640237.1.2.3.0,Phases=3,Linecode=BT803_BT803_4_3_4,Length=0.036023000,Units=km
new line.18676981 bus1=BBT139640237.1.2.3.0,bus2=BBT139640258.1.2.3.0,Phases=3,Linecode=BT803_BT803_4_3_4,Length=0.018793000,Units=km
new line.19037113 bus1=BBT158477637.1.2.3.0,bus2=BBT2624161.1.2.3.0,Phases=3,Linecode=BT803_BT803_4_3_4,Length=0.015816000,Units=km
new line.8178731 bus1=BBT2565410.1.2.3.0,bus2=BBT2565403.1.2.3.0,Phases=3,Linecode=BT803_BT803_4_3_4,Length=0.037131000,Units=km
new line.8178738 bus1=BBT2565410.1.2.3.0,bus2=BBT2565417.1.2.3.0,Phases=3,Linecode=BT803_BT803_4_3_4,Length=0.035856000,Units=km
new line.8178766 bus1=BBT2565424.1.2.3.0,bus2=BBT2565410.1.2.3.0,Phases=3,Linecode=BT107_BT107_7_3_1,Length=0.039061000,Units=km
new line.8178794 bus1=BBT2565431.1.2.3.0,bus2=BBT2565424.1.2.3.0,Phases=3,Linecode=BT108_BT107_7_3_1,Length=0.029840000,Units=km
new line.8178822 bus1=BBT2565438.1.2.3.0,bus2=BBT2565445.1.2.3.0,Phases=3,Linecode=BT108_BT107_7_3_1,Length=0.035912000,Units=km
new line.8178829 bus1=BBT2565438.1.2.3.0,bus2=BBT2565431.1.2.3.0,Phases=3,Linecode=BT108_BT107_7_3_1,Length=0.035912000,Units=km
new line.8178836 bus1=BBT2565396.1.2.3.0,bus2=BBT2565438.1.2.3.0,Phases=3,Linecode=BT309_BT309_7_3_1,Length=0.000501000,Units=km
new line.8178850 bus1=BBT2565452.1.2.3.0,bus2=BBT2565466.1.2.3.0,Phases=3,Linecode=BT107_BT107_7_3_1,Length=0.036629000,Units=km
new line.8178871 bus1=BBT2565459.1.2.3.0,bus2=BBT2565473.1.2.3.0,Phases=3,Linecode=BT108_BT107_7_3_1,Length=0.037117000,Units=km
new line.8178948 bus1=BBT2565473.1.2.3.0,bus2=BBT2565480.1.2.3.0,Phases=3,Linecode=BT803_BT803_4_3_4,Length=0.037864000,Units=km
new line.8178962 bus1=BBT2565480.1.2.3.0,bus2=BBT2565494.1.2.3.0,Phases=3,Linecode=BT803_BT803_4_3_4,Length=0.034722000,Units=km
new line.8179011 bus1=BBT2565494.1.2.3.0,bus2=BBT2565508.1.2.3.0,Phases=3,Linecode=BT803_BT803_4_3_4,Length=0.035912000,Units=km
new line.8182231 bus1=BBT165651180.1.2.0,bus2=BBT2566530.1.2.0,Phases=2,Linecode=BT808_BT808_4_2_3,Length=0.036806000,Units=km
new line.8182245 bus1=BBT165651180.1.2.0,bus2=BBT2566544.1.2.0,Phases=2,Linecode=BT808_BT808_4_2_3,Length=0.042070000,Units=km
new line.8182287 bus1=BBT2566544.1.2.0,bus2=BBT2566551.1.2.0,Phases=2,Linecode=BT808_BT808_4_2_3,Length=0.031393000,Units=km
new line.8194187 bus1=BBT2570205.1.2.3.0,bus2=BBT2570198.1.2.3.0,Phases=3,Linecode=BT805_BT805_4_3_4,Length=0.038023000,Units=km
new line.8194194 bus1=BBT2570191.1.2.3.0,bus2=BBT2570205.1.2.3.0,Phases=3,Linecode=BT518_BT518_7_3_1,Length=0.000501000,Units=km
new line.8194201 bus1=BBT2570205.1.2.3.0,bus2=BBT2570212.1.2.3.0,Phases=3,Linecode=BT805_BT805_4_3_4,Length=0.022209000,Units=km
new line.8196623 bus1=BBT2570968.1.2.0,bus2=BBT2570982.1.2.0,Phases=2,Linecode=BT513_BT513_7_2_1,Length=0.000501000,Units=km
new line.8196630 bus1=BBT2570982.1.2.0,bus2=BBT2570989.1.2.0,Phases=2,Linecode=BT808_BT808_4_2_3,Length=0.031329000,Units=km
new line.8196637 bus1=BBT2570982.1.2.0,bus2=BBT2570996.1.2.0,Phases=2,Linecode=BT808_BT808_4_2_3,Length=0.029435000,Units=km
new line.8196658 bus1=BBT2570989.1.2.0,bus2=BBT2570975.1.2.0,Phases=2,Linecode=BT808_BT808_4_2_3,Length=0.012653000,Units=km
new line.11226475 bus1=BBT3457539.1.2.0,bus2=BBT3457546.1.2.0,Phases=2,Linecode=BT803_BT803_4_2_4,Length=0.039022000,Units=km
new line.12492383 bus1=BBT3915997.1.2.3.0,bus2=BBT2700412.1.2.3.0,Phases=3,Linecode=BT803_BT803_4_3_4,Length=0.028167000,Units=km
new line.12492390 bus1=BBT3915997.1.2.3.0,bus2=BBT2700419.1.2.3.0,Phases=3,Linecode=BT805_BT805_4_3_4,Length=0.005101000,Units=km
new line.12492397 bus1=BBT3915997.1.2.3.0,bus2=BBT2700426.1.2.3.0,Phases=3,Linecode=BT803_BT803_4_3_4,Length=0.005002000,Units=km
new line.12492509 bus1=BBT3916130.1.2.3.0,bus2=BBT2700461.1.2.3.0,Phases=3,Linecode=BT803_BT803_4_3_4,Length=0.023006000,Units=km
new line.12492516 bus1=BBT3916130.1.2.3.0,bus2=BBT2700475.1.2.3.0,Phases=3,Linecode=BT803_BT803_4_3_4,Length=0.006085000,Units=km
new line.12492523 bus1=BBT3916130.1.2.3.0,bus2=BBT2700482.1.2.3.0,Phases=3,Linecode=BT805_BT805_4_3_4,Length=0.043277000,Units=km
new line.12492831 bus1=BBT3917047.1.2.3.0,bus2=BBT2687035.1.2.3.0,Phases=3,Linecode=BT107_BT107_7_3_1,Length=0.008249000,Units=km
new line.12492838 bus1=BBT3917047.1.2.3.0,bus2=BBT2687042.1.2.3.0,Phases=3,Linecode=BT107_BT107_7_3_1,Length=0.016129000,Units=km
new line.12492845 bus1=BBT3917047.1.2.3.0,bus2=BBT2687077.1.2.3.0,Phases=3,Linecode=BT107_BT107_7_3_1,Length=0.016129000,Units=km
new line.12498151 bus1=BBT3920141.1.2.3.0,bus2=BBT2638763.1.2.3.0,Phases=3,Linecode=BT108_BT107_7_3_1,Length=0.007813000,Units=km
new line.12500188 bus1=BBT4117891.1.2.3.0,bus2=BBT4117898.1.2.3.0,Phases=3,Linecode=BT810_BT810_4_3_4,Length=0.030421000,Units=km
new line.14260436 bus1=BBT5298567.1.2.3.0,bus2=BBT3922822.1.2.3.0,Phases=3,Linecode=BT805_BT805_4_3_4,Length=0.015816000,Units=km
new line.16315090 bus1=BBT20130168.1.2.3.0,bus2=BBT3926441.1.2.3.0,Phases=3,Linecode=BT805_BT805_4_3_4,Length=0.023093000,Units=km
new line.17330559 bus1=BBT2667232.1.2.3.0,bus2=BBT60520721.1.2.3.0,Phases=3,Linecode=BT810_BT810_4_3_4,Length=0.037372000,Units=km
new line.17597987 bus1=BBT2667001.1.2.0,bus2=BBT75371935.1.2.0,Phases=2,Linecode=BT807_BT807_4_2_3,Length=0.016497000,Units=km
new line.18046351 bus1=BBT2742391.1.2.3.0,bus2=BBT103842461.1.2.3.0,Phases=3,Linecode=BT805_BT805_4_3_4,Length=0.017469000,Units=km
new line.18776758 bus1=BBT2656690.1.2.3.0,bus2=BBT150755271.1.2.3.0,Phases=3,Linecode=BT803_BT803_4_3_4,Length=0.015037000,Units=km
new line.18776759 bus1=BBT150755271.1.2.3.0,bus2=BBT150755293.1.2.3.0,Phases=3,Linecode=BT803_BT803_4_3_4,Length=0.024172000,Units=km
new line.18776763 bus1=BBT150755293.1.2.3.0,bus2=BBT150755478.1.2.3.0,Phases=3,Linecode=BT803_BT803_4_3_4,Length=0.024704000,Units=km
new line.18995514 bus1=BBT2669780.1.2.3.0,bus2=BBT157315566.1.2.3.0,Phases=3,Linecode=BT803_BT803_4_3_4,Length=0.025968000,Units=km
new line.18995516 bus1=BBT157315566.1.2.3.0,bus2=BBT157315610.1.2.3.0,Phases=3,Linecode=BT803_BT803_4_3_4,Length=0.022809000,Units=km
new line.8150122 bus1=BBT2556450.1.2.3.0,bus2=BBT2556443.1.2.3.0,Phases=3,Linecode=BT803_BT803_4_3_4,Length=0.029622000,Units=km
new line.8150129 bus1=BBT2556450.1.2.3.0,bus2=BBT2556457.1.2.3.0,Phases=3,Linecode=BT803_BT803_4_3_4,Length=0.036779000,Units=km
new line.8150157 bus1=BBT2556457.1.2.3.0,bus2=BBT2556471.1.2.3.0,Phases=3,Linecode=BT107_BT107_7_3_1,Length=0.035477000,Units=km
new line.8150185 bus1=BBT2556464.1.2.3.0,bus2=BBT2556450.1.2.3.0,Phases=3,Linecode=BT803_BT803_4_3_4,Length=0.035912000,Units=km
new line.8150213 bus1=BBT2556471.1.2.3.0,bus2=BBT2556478.1.2.3.0,Phases=3,Linecode=BT107_BT107_7_3_1,Length=0.038023000,Units=km
new line.8150241 bus1=BBT2565445.1.2.3.0,bus2=BBT2565452.1.2.3.0,Phases=3,Linecode=BT107_BT107_7_3_1,Length=0.035814000,Units=km
new line.8150248 bus1=BBT2565445.1.2.3.0,bus2=BBT2565459.1.2.3.0,Phases=3,Linecode=BT108_BT107_7_3_1,Length=0.036887000,Units=km
new line.8150276 bus1=BBT2556485.1.2.3.0,bus2=BBT2556464.1.2.3.0,Phases=3,Linecode=BT108_BT107_7_3_1,Length=0.036887000,Units=km
new line.8150283 bus1=BBT2556436.1.2.3.0,bus2=BBT2556485.1.2.3.0,Phases=3,Linecode=BT513_BT513_7_3_1,Length=0.000501000,Units=km
new line.8150290 bus1=BBT2556485.1.2.3.0,bus2=BBT2556492.1.2.3.0,Phases=3,Linecode=BT108_BT107_7_3_1,Length=0.033964000,Units=km
new line.8150318 bus1=BBT2556492.1.2.3.0,bus2=BBT2556499.1.2.3.0,Phases=3,Linecode=BT107_BT107_7_3_1,Length=0.035912000,Units=km
new line.8150332 bus1=BBT2556499.1.2.3.0,bus2=BBT2556506.1.2.3.0,Phases=3,Linecode=BT107_BT107_7_3_1,Length=0.039061000,Units=km
new line.8156401 bus1=BBT2558676.1.2.3.0,bus2=BBT168900459.1.2.3.0,Phases=3,Linecode=BT803_BT803_4_3_4,Length=0.043473000,Units=km
new line.8157563 bus1=BBT2558669.1.2.3.0,bus2=BBT2558655.1.2.3.0,Phases=3,Linecode=BT803_BT803_4_3_4,Length=0.024048000,Units=km
new line.8157626 bus1=BBT168899747.1.2.3.0,bus2=BBT68846507.1.2.3.0,Phases=3,Linecode=BT521_BT521_5_3_1,Length=0.004474000,Units=km
new line.8157640 bus1=BBT2558669.1.2.3.0,bus2=BBT168899747.1.2.3.0,Phases=3,Linecode=BT805_BT805_4_3_4,Length=0.030024000,Units=km
new line.8157675 bus1=BBT2558669.1.2.3.0,bus2=BBT2558683.1.2.3.0,Phases=3,Linecode=BT805_BT805_4_3_4,Length=0.026577000,Units=km
new line.8157696 bus1=BBT2558690.1.2.3.0,bus2=BBT2558676.1.2.3.0,Phases=3,Linecode=BT803_BT803_4_3_4,Length=0.034023000,Units=km
new line.8157724 bus1=BBT2558683.1.2.3.0,bus2=BBT2558697.1.2.3.0,Phases=3,Linecode=BT803_BT803_4_3_4,Length=0.042953000,Units=km
new line.8157745 bus1=BBT2558704.1.2.3.0,bus2=BBT2558690.1.2.3.0,Phases=3,Linecode=BT803_BT803_4_3_4,Length=0.035364000,Units=km
new line.8157801 bus1=BBT2558697.1.2.3.0,bus2=BBT2558711.1.2.3.0,Phases=3,Linecode=BT803_BT803_4_3_4,Length=0.031899000,Units=km
new line.8167454 bus1=BBT2561812.1.2.3.0,bus2=BBT2561805.1.2.3.0,Phases=3,Linecode=BT803_BT803_4_3_4,Length=0.034937000,Units=km
new line.8167489 bus1=BBT2561819.1.2.3.0,bus2=BBT2561812.1.2.3.0,Phases=3,Linecode=BT803_BT803_4_3_4,Length=0.034447000,Units=km
new line.8167524 bus1=BBT2561826.1.2.3.0,bus2=BBT2561819.1.2.3.0,Phases=3,Linecode=BT803_BT803_4_3_4,Length=0.034009000,Units=km
new line.8167552 bus1=BBT2561833.1.2.3.0,bus2=BBT2561826.1.2.3.0,Phases=3,Linecode=BT805_BT805_4_3_4,Length=0.034009000,Units=km
new line.8167559 bus1=BBT2561798.1.2.3.0,bus2=BBT2561833.1.2.3.0,Phases=3,Linecode=BT508_BT508_7_3_1,Length=0.000501000,Units=km
new line.8167566 bus1=BBT2561833.1.2.3.0,bus2=BBT2561840.1.2.3.0,Phases=3,Linecode=BT805_BT805_4_3_4,Length=0.027810000,Units=km
new line.8167587 bus1=BBT2561840.1.2.3.0,bus2=BBT2561847.1.2.3.0,Phases=3,Linecode=BT803_BT803_4_3_4,Length=0.027593000,Units=km
new line.8167608 bus1=BBT2561847.1.2.3.0,bus2=BBT2561854.1.2.3.0,Phases=3,Linecode=BT803_BT803_4_3_4,Length=0.027025000,Units=km
new line.8167629 bus1=BBT2561854.1.2.3.0,bus2=BBT2561861.1.2.3.0,Phases=3,Linecode=BT803_BT803_4_3_4,Length=0.010299000,Units=km
new line.8167657 bus1=BBT2561861.1.2.3.0,bus2=BBT2561868.1.2.3.0,Phases=3,Linecode=BT803_BT803_4_3_4,Length=0.022853000,Units=km
new line.8167685 bus1=BBT2561868.1.2.3.0,bus2=BBT2561875.1.2.3.0,Phases=3,Linecode=BT803_BT803_4_3_4,Length=0.035364000,Units=km
new line.8167706 bus1=BBT2561875.1.2.3.0,bus2=BBT2561882.1.2.3.0,Phases=3,Linecode=BT803_BT803_4_3_4,Length=0.030422000,Units=km
new line.8338275 bus1=BBT2615824.1.2.3.0,bus2=BBT2615838.1.2.3.0,Phases=3,Linecode=BT805_BT805_4_3_4,Length=0.035744000,Units=km
new line.8338310 bus1=BBT2615831.1.2.3.0,bus2=BBT2615824.1.2.3.0,Phases=3,Linecode=BT805_BT803_4_3_4,Length=0.035237000,Units=km
new line.17460423 bus1=BBT112263398.1.2.3.0,bus2=BBT68846388.1.2.3.0,Phases=3,Linecode=BT521_BT521_5_3_1,Length=0.018686000,Units=km
new line.17460437 bus1=BBT68847130.1.2.3.0,bus2=BBT2617399.1.2.3.0,Phases=3,Linecode=BT521_BT521_5_3_1,Length=0.004474000,Units=km
new line.17460444 bus1=BBT68847130.1.2.3.0,bus2=BBT68847284.1.2.3.0,Phases=3,Linecode=BT521_BT521_5_3_1,Length=0.029418000,Units=km
new line.17460451 bus1=BBT2617406.1.2.3.0,bus2=BBT68847291.1.2.3.0,Phases=3,Linecode=BT521_BT521_5_3_1,Length=0.025086000,Units=km