! manter este comentario para compatibilidade do C#
new circuit.alimBHHR10 bus1=BMT99044794.1.2.3,basekv=13.800000000,pu=1.040000000