new line.RML10012969 bus1=BBT2666210.1.2.0,bus2=RML1060012969.1.2.0,Phases=2,Linecode=CABBTG05_4_2,Length=0.017000000,Units=km
new line.RML10013137 bus1=BBT2708539.1.2.0,bus2=RML1060013137.1.2.0,Phases=2,Linecode=CABBTG05_4_2,Length=0.017000000,Units=km
new line.RML10013172 bus1=BBT2698158.1.0,bus2=RML1060013172.1.0,Phases=1,Linecode=CABBTG02_4_1,Length=0.017000000,Units=km
new line.RML10024967 bus1=BBT2688778.1.2.3.0,bus2=RML1060024967.1.2.3.0,Phases=3,Linecode=CABBTG06_4_3,Length=0.017000000,Units=km
new line.RML10024981 bus1=BBT2715777.1.2.0,bus2=RML1060024981.1.2.0,Phases=2,Linecode=CABBTG05_4_2,Length=0.017000000,Units=km
new line.RML10039086 bus1=BBT110972395.1.2.3.0,bus2=RML1060039086.1.2.3.0,Phases=3,Linecode=CABBTG08_4_3,Length=0.017000000,Units=km
new line.RML10040376 bus1=BBT2712067.1.0,bus2=RML1060040376.1.0,Phases=1,Linecode=CABBTG02_4_1,Length=0.017000000,Units=km
new line.RML10040438 bus1=BBT2612898.1.2.3.0,bus2=RML1060040438.1.2.3.0,Phases=3,Linecode=CABBTG06_4_3,Length=0.017000000,Units=km
new line.RML10040474 bus1=BBT2618092.1.2.3.0,bus2=RML1060040474.1.2.3.0,Phases=3,Linecode=CABBTG06_4_3,Length=0.017000000,Units=km
new line.RML10040651 bus1=BBT2700132.1.0,bus2=RML1060040651.1.0,Phases=1,Linecode=CABBTG02_4_1,Length=0.017000000,Units=km
new line.RML10058667 bus1=BBT2858661.1.2.0,bus2=RML1060058667.1.2.0,Phases=2,Linecode=CABBTG05_4_2,Length=0.017000000,Units=km
new line.RML10058702 bus1=BBT2700440.1.2.3.0,bus2=RML1060058702.1.2.3.0,Phases=3,Linecode=CABBTG06_4_3,Length=0.017000000,Units=km
new line.RML10058889 bus1=BBT2706796.1.2.3.0,bus2=RML1060058889.1.2.3.0,Phases=3,Linecode=CABBT815_4_3,Length=0.017000000,Units=km
new line.RML10077458 bus1=BBT2761599.1.2.3.0,bus2=RML1060077458.1.2.3.0,Phases=3,Linecode=CABBTG06_4_3,Length=0.017000000,Units=km
new line.RML10077469 bus1=BBT2669822.2.3.0,bus2=RML1060077469.2.3.0,Phases=2,Linecode=CABBTG05_4_2,Length=0.017000000,Units=km
new line.RML10078206 bus1=BBT2640170.1.0,bus2=RML1060078206.1.0,Phases=1,Linecode=CABBTG02_4_1,Length=0.017000000,Units=km
new line.RML10079404 bus1=BBT2678173.1.2.3.0,bus2=RML1060079404.1.2.3.0,Phases=3,Linecode=CABBTG06_4_3,Length=0.017000000,Units=km
new line.RML10079450 bus1=BBT2611078.1.2.3.0,bus2=RML1060079450.1.2.3.0,Phases=3,Linecode=CABBTG06_4_3,Length=0.017000000,Units=km
new line.RML10084755 bus1=BBT2583155.1.2.0,bus2=RML1060084755.1.2.0,Phases=2,Linecode=CABBTG05_4_2,Length=0.017000000,Units=km
new line.RML10084762 bus1=BBT2607172.1.2.0,bus2=RML1060084762.1.2.0,Phases=2,Linecode=CABBTG05_4_2,Length=0.017000000,Units=km
new line.RML10095485 bus1=BBT2647674.3.0,bus2=RML1060095485.3.0,Phases=1,Linecode=CABBTG02_4_1,Length=0.017000000,Units=km
new line.RML10095571 bus1=BBT2654114.1.2.3.0,bus2=RML1060095571.1.2.3.0,Phases=3,Linecode=CABBTG06_4_3,Length=0.017000000,Units=km
new line.RML10095584 bus1=BBT2685971.1.0,bus2=RML1060095584.1.0,Phases=1,Linecode=CABBTG02_4_1,Length=0.017000000,Units=km
new line.RML10108182 bus1=BBT2678152.1.2.0,bus2=RML1060108182.1.2.0,Phases=2,Linecode=CABBTG05_4_2,Length=0.017000000,Units=km
new line.RML10112130 bus1=BBT2712032.1.2.0,bus2=RML1060112130.1.2.0,Phases=2,Linecode=CABBTG05_4_2,Length=0.017000000,Units=km
new line.RML10113040 bus1=BBT2717254.2.0,bus2=RML1060113040.2.0,Phases=1,Linecode=CABBTG02_4_1,Length=0.017000000,Units=km
new line.RML10113469 bus1=BBT2708504.2.0,bus2=RML1060113469.2.0,Phases=1,Linecode=CABBTG02_4_1,Length=0.017000000,Units=km
new line.RML10116565 bus1=BBT2666210.1.2.0,bus2=RML1060116565.1.2.0,Phases=2,Linecode=CABBTG05_4_2,Length=0.017000000,Units=km
new line.RML10116807 bus1=BBT2688813.1.2.0,bus2=RML1060116807.1.2.0,Phases=2,Linecode=CABBTG04_4_2,Length=0.017000000,Units=km
new line.RML10118959 bus1=BBT2635130.1.2.0,bus2=RML1060118959.1.2.0,Phases=2,Linecode=CABBTG04_4_2,Length=0.017000000,Units=km
new line.RML10124109 bus1=BBT2713110.1.0,bus2=RML1060124109.1.0,Phases=1,Linecode=CABBTG02_4_1,Length=0.015000000,Units=km
new line.RML10131775 bus1=BBT2708525.1.0,bus2=RML1060131775.1.0,Phases=1,Linecode=CABBTG02_4_1,Length=0.017000000,Units=km
new line.RML10131793 bus1=BBT2678138.1.0,bus2=RML1060131793.1.0,Phases=1,Linecode=CABBTG02_4_1,Length=0.017000000,Units=km
new line.RML10132516 bus1=BBT2661268.1.0,bus2=RML1060132516.1.0,Phases=1,Linecode=CABBTG02_4_1,Length=0.017000000,Units=km
new line.RML10132570 bus1=BBT3358860.1.2.0,bus2=RML1060132570.1.2.0,Phases=2,Linecode=CABBTG05_4_2,Length=0.017000000,Units=km
new line.RML10134556 bus1=BBT3404619.1.0,bus2=RML1060134556.1.0,Phases=1,Linecode=CABBTG02_4_1,Length=0.017000000,Units=km
new line.RML10139126 bus1=BBT2714020.3.0,bus2=RML1060139126.3.0,Phases=1,Linecode=CABBTG02_4_1,Length=0.029000000,Units=km
new line.RML10140823 bus1=BBT2648017.1.0,bus2=RML1060140823.1.0,Phases=1,Linecode=CABBTG02_4_1,Length=0.017000000,Units=km
new line.RML10142216 bus1=BBT2712641.1.2.0,bus2=RML1060142216.1.2.0,Phases=2,Linecode=CABBTG05_4_2,Length=0.017000000,Units=km
new line.RML10148853 bus1=BBT2655080.1.2.0,bus2=RML1060148853.1.2.0,Phases=2,Linecode=CABBTG05_4_2,Length=0.017000000,Units=km
new line.RML10160659 bus1=BBT2584940.1.2.3.0,bus2=RML1060160659.1.2.3.0,Phases=3,Linecode=CABBTG06_4_3,Length=0.029000000,Units=km
new line.RML10160684 bus1=BBT2683857.3.0,bus2=RML1060160684.3.0,Phases=1,Linecode=CABBTG02_4_1,Length=0.017000000,Units=km
new line.RML10163264 bus1=BBT2718605.2.0,bus2=RML1060163264.2.0,Phases=1,Linecode=CABBTG01_4_1,Length=0.017000000,Units=km
new line.RML10165894 bus1=BBT2612835.3.0,bus2=RML1060165894.3.0,Phases=1,Linecode=CABBTG02_4_1,Length=0.017000000,Units=km
new line.RML10171576 bus1=BBT2636124.1.0,bus2=RML1060171576.1.0,Phases=1,Linecode=CABBTG02_4_1,Length=0.017000000,Units=km
new line.RML10178845 bus1=BBT2649193.2.0,bus2=RML1060178845.2.0,Phases=1,Linecode=CABBTG02_4_1,Length=0.017000000,Units=km
new line.RML10194177 bus1=BBT2695953.1.2.0,bus2=RML1060194177.1.2.0,Phases=2,Linecode=CABBTG13_4_2,Length=0.017000000,Units=km
new line.RML10194199 bus1=BBT2712039.1.2.0,bus2=RML1060194199.1.2.0,Phases=2,Linecode=CABBTG13_4_2,Length=0.029000000,Units=km
new line.RML10194207 bus1=BBT2718640.2.0,bus2=RML1060194207.2.0,Phases=1,Linecode=CABBTG02_4_1,Length=0.017000000,Units=km
new line.RML10205009 bus1=BBT2677620.1.2.3.0,bus2=RML1060205009.1.2.3.0,Phases=3,Linecode=CABBTG12_4_3,Length=0.017000000,Units=km
new line.RML10206251 bus1=BBT2717100.1.2.3.0,bus2=RML1060206251.1.2.3.0,Phases=3,Linecode=CABBTG12_4_3,Length=0.017000000,Units=km
new line.RML10207422 bus1=BBT2707790.1.2.0,bus2=RML1060207422.1.2.0,Phases=2,Linecode=CABBTG05_4_2,Length=0.017000000,Units=km
new line.RML10213212 bus1=BBT2700034.1.0,bus2=RML1060213212.1.0,Phases=1,Linecode=CABBTG02_4_1,Length=0.017000000,Units=km
new line.RML10224895 bus1=BBT2657194.1.2.3.0,bus2=RML1060224895.1.2.3.0,Phases=3,Linecode=CABBTG10_4_3,Length=0.017000000,Units=km
new line.RML10224897 bus1=BBT2652014.1.2.0,bus2=RML1060224897.1.2.0,Phases=2,Linecode=CABBTG13_4_2,Length=0.017000000,Units=km
new line.RML10224900 bus1=BBT3498356.2.0,bus2=RML1060224900.2.0,Phases=1,Linecode=CABBTG02_4_1,Length=0.017000000,Units=km
new line.RML10231354 bus1=BBT2678117.1.0,bus2=RML1060231354.1.0,Phases=1,Linecode=CABBTG02_4_1,Length=0.017000000,Units=km
new line.RML10231747 bus1=BBT2661275.2.3.0,bus2=RML1060231747.2.3.0,Phases=2,Linecode=CABBTG05_4_2,Length=0.017000000,Units=km
new line.RML10231819 bus1=BBT2672020.1.2.3.0,bus2=RML1060231819.1.2.3.0,Phases=3,Linecode=CABBTG06_4_3,Length=0.017000000,Units=km
new line.RML10233031 bus1=BBT2752982.1.0,bus2=RML1060233031.1.0,Phases=1,Linecode=CABBTG02_4_1,Length=0.017000000,Units=km
new line.RML10236145 bus1=BBT2689730.1.0,bus2=RML1060236145.1.0,Phases=1,Linecode=CABBTG02_4_1,Length=0.017000000,Units=km
new line.RML10237790 bus1=BBT2650985.1.0,bus2=RML1060237790.1.0,Phases=1,Linecode=CABBTG02_4_1,Length=0.017000000,Units=km
new line.RML10238348 bus1=BBT2644258.1.0,bus2=RML1060238348.1.0,Phases=1,Linecode=CABBTG02_4_1,Length=0.017000000,Units=km
new line.RML10238463 bus1=BBT2655073.1.2.3.0,bus2=RML1060238463.1.2.3.0,Phases=3,Linecode=CABBTG06_4_3,Length=0.017000000,Units=km
new line.RML10243916 bus1=BBT2694147.1.0,bus2=RML1060243916.1.0,Phases=1,Linecode=CABBTG02_4_1,Length=0.017000000,Units=km
new line.RML10244294 bus1=BBT2677564.1.2.3.0,bus2=RML1060244294.1.2.3.0,Phases=3,Linecode=CABBTG06_4_3,Length=0.029000000,Units=km
new line.RML10255032 bus1=BBT2685691.1.2.0,bus2=RML1060255032.1.2.0,Phases=2,Linecode=CABBTG05_4_2,Length=0.017000000,Units=km
new line.RML10258138 bus1=BBT2645651.1.2.3.0,bus2=RML1060258138.1.2.3.0,Phases=3,Linecode=CABBTG06_4_3,Length=0.017000000,Units=km
new line.RML10261067 bus1=BBT2585598.1.2.3.0,bus2=RML1060261067.1.2.3.0,Phases=3,Linecode=CABBTG06_4_3,Length=0.017000000,Units=km
new line.RML10265319 bus1=BBT3404311.2.0,bus2=RML1060265319.2.0,Phases=1,Linecode=CABBTG02_4_1,Length=0.017000000,Units=km
new line.RML10265321 bus1=BBT2676423.2.0,bus2=RML1060265321.2.0,Phases=1,Linecode=CABBTG02_4_1,Length=0.017000000,Units=km
new line.RML10267080 bus1=BBT2858668.1.2.3.0,bus2=RML1060267080.1.2.3.0,Phases=3,Linecode=CABBTG06_4_3,Length=0.017000000,Units=km
new line.RML10267144 bus1=BBT5019302.2.0,bus2=RML1060267144.2.0,Phases=1,Linecode=CABBTG02_4_1,Length=0.017000000,Units=km
new line.RML10268157 bus1=BBT4263967.2.0,bus2=RML1060268157.2.0,Phases=1,Linecode=CABBTG02_4_1,Length=0.017000000,Units=km
new line.RML10272021 bus1=BBT2621228.1.2.0,bus2=RML1060272021.1.2.0,Phases=2,Linecode=CABBTG05_4_2,Length=0.017000000,Units=km
new line.RML10272024 bus1=BBT2677669.1.2.0,bus2=RML1060272024.1.2.0,Phases=2,Linecode=CABBTG05_4_2,Length=0.017000000,Units=km
new line.RML10272944 bus1=BBT2685719.1.2.3.0,bus2=RML1060272944.1.2.3.0,Phases=3,Linecode=CABBTG06_4_3,Length=0.017000000,Units=km
new line.RML10274221 bus1=BBT2688813.1.2.0,bus2=RML1060274221.1.2.0,Phases=2,Linecode=CABBTG13_4_2,Length=0.017000000,Units=km
new line.RML10274437 bus1=BBT2696849.2.3.0,bus2=RML1060274437.2.3.0,Phases=2,Linecode=CABBTG05_4_2,Length=0.017000000,Units=km
new line.RML10275105 bus1=BBT2707762.1.2.0,bus2=RML1060275105.1.2.0,Phases=2,Linecode=CABBTG05_4_2,Length=0.017000000,Units=km
new line.RML10275111 bus1=BBT2707762.2.0,bus2=RML1060275111.2.0,Phases=1,Linecode=CABBTG02_4_1,Length=0.017000000,Units=km
new line.RML10276890 bus1=BBT2700041.2.0,bus2=RML1060276890.2.0,Phases=1,Linecode=CABBTG02_4_1,Length=0.017000000,Units=km
new line.RML10277478 bus1=BBT2636110.1.2.0,bus2=RML1060277478.1.2.0,Phases=2,Linecode=CABBTG05_4_2,Length=0.017000000,Units=km
new line.RML10283502 bus1=BBT2634920.1.2.3.0,bus2=RML1060283502.1.2.3.0,Phases=3,Linecode=CABBTG06_4_3,Length=0.017000000,Units=km
new line.RML10288501 bus1=BBT2662724.1.2.0,bus2=RML1060288501.1.2.0,Phases=2,Linecode=CABBTG13_4_2,Length=0.017000000,Units=km
new line.RML10290424 bus1=BBT2583190.2.0,bus2=RML1060290424.2.0,Phases=1,Linecode=CABBTG02_4_1,Length=0.017000000,Units=km
new line.RML10298013 bus1=BBT2663018.2.0,bus2=RML1060298013.2.0,Phases=1,Linecode=CABBTG02_4_1,Length=0.017000000,Units=km
new line.RML10298511 bus1=BBT3498566.1.2.3.0,bus2=RML1060298511.1.2.3.0,Phases=3,Linecode=CABBTG06_4_3,Length=0.015000000,Units=km
new line.RML10302261 bus1=BBT2605870.1.2.3.0,bus2=RML1060302261.1.2.3.0,Phases=3,Linecode=CABBTG06_4_3,Length=0.017000000,Units=km
new line.RML10303043 bus1=BBT2720047.2.0,bus2=RML1060303043.2.0,Phases=1,Linecode=CABBTG02_4_1,Length=0.017000000,Units=km
new line.RML10304003 bus1=BBT2618106.1.0,bus2=RML1060304003.1.0,Phases=1,Linecode=CABBTG02_4_1,Length=0.017000000,Units=km
new line.RML10307527 bus1=BBT2636159.1.2.3.0,bus2=RML1060307527.1.2.3.0,Phases=3,Linecode=CABBTG06_4_3,Length=0.017000000,Units=km
new line.RML10308265 bus1=BBT2662696.1.2.0,bus2=RML1060308265.1.2.0,Phases=2,Linecode=CABBTG05_4_2,Length=0.017000000,Units=km
new line.RML10308433 bus1=BBT2607473.1.2.3.0,bus2=RML1060308433.1.2.3.0,Phases=3,Linecode=CABBTG06_4_3,Length=0.017000000,Units=km
new line.RML10309785 bus1=BBT2663032.1.2.0,bus2=RML1060309785.1.2.0,Phases=2,Linecode=CABBTG05_4_2,Length=0.029000000,Units=km
new line.RML10310328 bus1=BBT2663018.1.0,bus2=RML1060310328.1.0,Phases=1,Linecode=CABBTG02_4_1,Length=0.017000000,Units=km
new line.RML10311019 bus1=BBT2611092.1.2.0,bus2=RML1060311019.1.2.0,Phases=2,Linecode=CABBTG05_4_2,Length=0.017000000,Units=km
new line.RML10313361 bus1=BBT2707734.1.2.3.0,bus2=RML1060313361.1.2.3.0,Phases=3,Linecode=CABBTG06_4_3,Length=0.017000000,Units=km
new line.RML10313366 bus1=BBT2607179.2.3.0,bus2=RML1060313366.2.3.0,Phases=2,Linecode=CABBTG05_4_2,Length=0.017000000,Units=km
new line.RML10316832 bus1=BBT2645469.1.2.0,bus2=RML1060316832.1.2.0,Phases=2,Linecode=CABBTG05_4_2,Length=0.017000000,Units=km
new line.RML10317762 bus1=BBT2757287.1.2.3.0,bus2=RML1060317762.1.2.3.0,Phases=3,Linecode=CABBTG06_4_3,Length=0.017000000,Units=km
new line.RML10317763 bus1=BBT2757287.1.2.3.0,bus2=RML1060317763.1.2.3.0,Phases=3,Linecode=CABBTG06_4_3,Length=0.017000000,Units=km
new line.RML10318940 bus1=BBT2600599.2.0,bus2=RML1060318940.2.0,Phases=1,Linecode=CABBTG02_4_1,Length=0.017000000,Units=km
new line.RML10322466 bus1=BBT2713880.1.3.0,bus2=RML1060322466.1.3.0,Phases=2,Linecode=CABBTG05_4_2,Length=0.017000000,Units=km
new line.RML10322644 bus1=BBT2645630.1.0,bus2=RML1060322644.1.0,Phases=1,Linecode=CABBTG02_4_1,Length=0.017000000,Units=km
new line.RML10323104 bus1=BBT2695946.1.2.3.0,bus2=RML1060323104.1.2.3.0,Phases=3,Linecode=CABBTG06_4_3,Length=0.017000000,Units=km
new line.RML10323105 bus1=BBT2695946.1.2.3.0,bus2=RML1060323105.1.2.3.0,Phases=3,Linecode=CABBTG06_4_3,Length=0.017000000,Units=km
new line.RML10328963 bus1=BBT2757217.2.0,bus2=RML1060328963.2.0,Phases=1,Linecode=CABBTG02_4_1,Length=0.017000000,Units=km
new line.RML10328978 bus1=BBT2754459.1.0,bus2=RML1060328978.1.0,Phases=1,Linecode=CABBTG02_4_1,Length=0.017000000,Units=km
new line.RML10329302 bus1=BBT2636117.1.0,bus2=RML1060329302.1.0,Phases=1,Linecode=CABBTG02_4_1,Length=0.017000000,Units=km
new line.RML10329935 bus1=BBT2707783.1.2.0,bus2=RML1060329935.1.2.0,Phases=2,Linecode=CABBTG05_4_2,Length=0.017000000,Units=km
new line.RML10331815 bus1=BBT2570989.1.2.0,bus2=RML1060331815.1.2.0,Phases=2,Linecode=CABBTG05_4_2,Length=0.017000000,Units=km
new line.RML10331821 bus1=BBT2583183.1.2.3.0,bus2=RML1060331821.1.2.3.0,Phases=3,Linecode=CABBTG06_4_3,Length=0.017000000,Units=km
new line.RML10333965 bus1=BBT2695946.1.2.3.0,bus2=RML1060333965.1.2.3.0,Phases=3,Linecode=CABBTG06_4_3,Length=0.017000000,Units=km
new line.RML10333966 bus1=BBT2707776.1.2.3.0,bus2=RML1060333966.1.2.3.0,Phases=3,Linecode=CABBTG06_4_3,Length=0.017000000,Units=km
new line.RML10333967 bus1=BBT2707776.1.2.3.0,bus2=RML1060333967.1.2.3.0,Phases=3,Linecode=CABBTG06_4_3,Length=0.017000000,Units=km
new line.RML10337508 bus1=BBT2677669.2.0,bus2=RML1060337508.2.0,Phases=1,Linecode=CABBTG02_4_1,Length=0.017000000,Units=km
new line.RML10338168 bus1=BBT2677634.2.0,bus2=RML1060338168.2.0,Phases=1,Linecode=CABBTG02_4_1,Length=0.017000000,Units=km
new line.RML10344018 bus1=BBT150755478.1.0,bus2=RML1060344018.1.0,Phases=1,Linecode=CABBTG02_4_1,Length=0.017000000,Units=km
new line.RML10344953 bus1=BBT120290795.3.0,bus2=RML1060344953.3.0,Phases=1,Linecode=CABBTG02_4_1,Length=0.017000000,Units=km
new line.RML10347455 bus1=BBT2677690.1.0,bus2=RML1060347455.1.0,Phases=1,Linecode=CABBTG02_4_1,Length=0.017000000,Units=km
new line.RML10349979 bus1=BBT2636502.1.2.3.0,bus2=RML1060349979.1.2.3.0,Phases=3,Linecode=CABBTG06_4_3,Length=0.017000000,Units=km
new line.RML10358978 bus1=BBT2715805.2.0,bus2=RML1060358978.2.0,Phases=1,Linecode=CABBTG02_4_1,Length=0.017000000,Units=km
new line.RML10358992 bus1=BBT2720075.1.2.0,bus2=RML1060358992.1.2.0,Phases=2,Linecode=CABBTG05_4_2,Length=0.017000000,Units=km
new line.RML10359028 bus1=BBT2615859.1.0,bus2=RML1060359028.1.0,Phases=1,Linecode=CABBTG02_4_1,Length=0.017000000,Units=km
new line.RML10359041 bus1=BBT139636562.1.2.3.0,bus2=RML1060359041.1.2.3.0,Phases=3,Linecode=CABBTG06_4_3,Length=0.017000000,Units=km
new line.RML10397497 bus1=BBT5019302.1.2.0,bus2=RML1060397497.1.2.0,Phases=2,Linecode=CABBTG05_4_2,Length=0.017000000,Units=km
new line.RML10400480 bus1=BBT2645574.1.0,bus2=RML1060400480.1.0,Phases=1,Linecode=CABBTG02_4_1,Length=0.017000000,Units=km
new line.RML10413930 bus1=BBT2677571.3.0,bus2=RML1060413930.3.0,Phases=1,Linecode=CABBTG02_4_1,Length=0.017000000,Units=km
new line.RML10426532 bus1=BBT2685943.1.2.0,bus2=RML1060426532.1.2.0,Phases=2,Linecode=CABBTG05_4_2,Length=0.017000000,Units=km
new line.RML10427130 bus1=BBT2667253.1.0,bus2=RML1060427130.1.0,Phases=1,Linecode=CABBTG02_4_1,Length=0.017000000,Units=km
new line.RML10428296 bus1=BBT2704346.1.0,bus2=RML1060428296.1.0,Phases=1,Linecode=CABBTG02_4_1,Length=0.017000000,Units=km
new line.RML10428299 bus1=BBT2698165.1.2.3.0,bus2=RML1060428299.1.2.3.0,Phases=3,Linecode=CABBTG07_4_3,Length=0.017000000,Units=km
new line.RML10428325 bus1=BBT2558655.1.2.3.0,bus2=RML1060428325.1.2.3.0,Phases=3,Linecode=CABBTG06_4_3,Length=0.017000000,Units=km
new line.RML10435503 bus1=BBT2570989.1.2.0,bus2=RML1060435503.1.2.0,Phases=2,Linecode=CABBTG05_4_2,Length=0.017000000,Units=km
new line.RML10438093 bus1=BBT2656669.1.2.0,bus2=RML1060438093.1.2.0,Phases=2,Linecode=CABBTG05_4_2,Length=0.029000000,Units=km
new line.RML10439053 bus1=BBT2648108.1.2.0,bus2=RML1060439053.1.2.0,Phases=2,Linecode=CABBTG05_4_2,Length=0.017000000,Units=km
new line.RML10439057 bus1=BBT3457539.2.0,bus2=RML1060439057.2.0,Phases=1,Linecode=CABBTG02_4_1,Length=0.017000000,Units=km
new line.RML10439813 bus1=BBT2648003.1.0,bus2=RML1060439813.1.0,Phases=1,Linecode=CABBTG02_4_1,Length=0.017000000,Units=km
new line.RML10440099 bus1=BBT2713096.1.2.0,bus2=RML1060440099.1.2.0,Phases=2,Linecode=CABBTG05_4_2,Length=0.017000000,Units=km
new line.RML10440604 bus1=BBT2636131.1.2.3.0,bus2=RML1060440604.1.2.3.0,Phases=3,Linecode=CABBTG06_4_3,Length=0.017000000,Units=km
new line.RML10440663 bus1=BBT2688435.1.0,bus2=RML1060440663.1.0,Phases=1,Linecode=CABBTG02_4_1,Length=0.017000000,Units=km
new line.RML10445468 bus1=BBT2717191.1.2.0,bus2=RML1060445468.1.2.0,Phases=2,Linecode=CABBTG05_4_2,Length=0.017000000,Units=km
new line.RML10466682 bus1=BBT2660127.1.2.3.0,bus2=RML1060466682.1.2.3.0,Phases=3,Linecode=CABBTG06_4_3,Length=0.017000000,Units=km
new line.RML10467848 bus1=BBT2717184.1.2.0,bus2=RML1060467848.1.2.0,Phases=2,Linecode=CABBTG05_4_2,Length=0.017000000,Units=km
new line.RML10474554 bus1=BBT2677592.1.2.3.0,bus2=RML1060474554.1.2.3.0,Phases=3,Linecode=CABBTG07_4_3,Length=0.017000000,Units=km
new line.RML10480966 bus1=BBT2674477.1.2.0,bus2=RML1060480966.1.2.0,Phases=2,Linecode=CABBTG05_4_2,Length=0.009000000,Units=km
new line.RML10486726 bus1=BBT2678131.1.0,bus2=RML1060486726.1.0,Phases=1,Linecode=CABBTG02_4_1,Length=0.017000000,Units=km
new line.RML10487176 bus1=BBT2583211.2.0,bus2=RML1060487176.2.0,Phases=1,Linecode=CABBTG02_4_1,Length=0.017000000,Units=km
new line.RML10488285 bus1=BBT2742342.1.2.3.0,bus2=RML1060488285.1.2.3.0,Phases=3,Linecode=CABBTG06_4_3,Length=0.017000000,Units=km
new line.RML10493995 bus1=BBT2678131.1.2.0,bus2=RML1060493995.1.2.0,Phases=2,Linecode=CABBTG05_4_2,Length=0.017000000,Units=km
new line.RML10494042 bus1=BBT2661380.2.3.0,bus2=RML1060494042.2.3.0,Phases=2,Linecode=CABBTG05_4_2,Length=0.013000000,Units=km
new line.RML10494074 bus1=BBT2607172.1.2.0,bus2=RML1060494074.1.2.0,Phases=2,Linecode=CABBTG05_4_2,Length=0.015000000,Units=km
new line.RML10495122 bus1=BBT2761606.2.3.0,bus2=RML1060495122.2.3.0,Phases=2,Linecode=CABBTG05_4_2,Length=0.017000000,Units=km
new line.RML10499142 bus1=BBT2655108.1.2.3.0,bus2=RML1060499142.1.2.3.0,Phases=3,Linecode=CABBTG06_4_3,Length=0.022000000,Units=km
new line.RML10499194 bus1=BBT4117891.1.2.0,bus2=RML1060499194.1.2.0,Phases=2,Linecode=CABBTG05_4_2,Length=0.024000000,Units=km
new line.RML10506725 bus1=BBT2666154.1.2.0,bus2=RML1060506725.1.2.0,Phases=2,Linecode=CABBTG05_4_2,Length=0.017000000,Units=km
new line.RML10508961 bus1=BBT2656690.1.2.0,bus2=RML1060508961.1.2.0,Phases=2,Linecode=CABBTG05_4_2,Length=0.012000000,Units=km
new line.RML10516569 bus1=BBT2660099.1.2.0,bus2=RML1060516569.1.2.0,Phases=2,Linecode=CABBTG05_4_2,Length=0.014000000,Units=km
new line.RML10533604 bus1=BBT2719963.1.2.3.0,bus2=RML1060533604.1.2.3.0,Phases=3,Linecode=CABBT815_4_3,Length=0.014000000,Units=km
new line.RML10541641 bus1=BBT2719963.1.2.0,bus2=RML1060541641.1.2.0,Phases=2,Linecode=CABBTG05_4_2,Length=0.017000000,Units=km
new line.RML10551347 bus1=BBT2696863.2.3.0,bus2=RML1060551347.2.3.0,Phases=2,Linecode=CABBTG05_4_2,Length=0.017000000,Units=km
new line.RML10559228 bus1=BBT2678173.1.0,bus2=RML1060559228.1.0,Phases=1,Linecode=CABBTG02_4_1,Length=0.017000000,Units=km
new line.RML10568677 bus1=BBT96193288.1.2.3.0,bus2=RML1060568677.1.2.3.0,Phases=3,Linecode=CABBTG06_4_3,Length=0.017000000,Units=km
new line.RML10568687 bus1=BBT2757252.1.2.0,bus2=RML1060568687.1.2.0,Phases=2,Linecode=CABBTG05_4_2,Length=0.006000000,Units=km
new line.RML10568721 bus1=BBT2585570.1.0,bus2=RML1060568721.1.0,Phases=1,Linecode=CABBTG02_4_1,Length=0.016000000,Units=km
new line.RML10569089 bus1=BBT2713894.1.2.3.0,bus2=RML1060569089.1.2.3.0,Phases=3,Linecode=CABBTG06_4_3,Length=0.017000000,Units=km
new line.RML10569099 bus1=BBT2705424.1.0,bus2=RML1060569099.1.0,Phases=1,Linecode=CABBTG02_4_1,Length=0.007000000,Units=km
new line.RML10569204 bus1=BBT2757259.1.2.3.0,bus2=RML1060569204.1.2.3.0,Phases=3,Linecode=CABBTG06_4_3,Length=0.017000000,Units=km
new line.RML10569278 bus1=BBT2700993.1.0,bus2=RML1060569278.1.0,Phases=1,Linecode=CABBTG02_4_1,Length=0.009000000,Units=km
new line.RML10573860 bus1=BBT2761585.3.0,bus2=RML1060573860.3.0,Phases=1,Linecode=CABBTG02_4_1,Length=0.014000000,Units=km
new line.RML10573932 bus1=BBT2858661.1.2.0,bus2=RML1060573932.1.2.0,Phases=2,Linecode=CABBTG05_4_2,Length=0.009000000,Units=km
new line.RML10587101 bus1=BBT2585934.1.2.0,bus2=RML1060587101.1.2.0,Phases=2,Linecode=CABBTG05_4_2,Length=0.018000000,Units=km
new line.RML10587372 bus1=BBT2704332.1.0,bus2=RML1060587372.1.0,Phases=1,Linecode=CABBTG02_4_1,Length=0.007000000,Units=km
new line.RML10595452 bus1=BBT150755478.1.2.0,bus2=RML1060595452.1.2.0,Phases=2,Linecode=CABBTG05_4_2,Length=0.011000000,Units=km
new line.RML10603820 bus1=BBT2705424.1.2.0,bus2=RML1060603820.1.2.0,Phases=2,Linecode=CABBTG05_4_2,Length=0.017000000,Units=km
new line.RML10604175 bus1=BBT2696002.2.0,bus2=RML1060604175.2.0,Phases=1,Linecode=CABBTG02_4_1,Length=0.016000000,Units=km
new line.RML10604468 bus1=BBT2632974.2.0,bus2=RML1060604468.2.0,Phases=1,Linecode=CABBTG02_4_1,Length=0.006000000,Units=km
new line.RML10612427 bus1=BBT2581685.1.2.3.0,bus2=RML1060612427.1.2.3.0,Phases=3,Linecode=CABBTG06_4_3,Length=0.013000000,Units=km
new line.RML10623857 bus1=BBT2695974.3.0,bus2=RML1060623857.3.0,Phases=1,Linecode=CABBTG02_4_1,Length=0.016000000,Units=km
new line.RML10623866 bus1=BBT2700027.1.2.3.0,bus2=RML1060623866.1.2.3.0,Phases=3,Linecode=CABBTG06_4_3,Length=0.017000000,Units=km
new line.RML10624069 bus1=BBT2858661.1.2.3.0,bus2=RML1060624069.1.2.3.0,Phases=3,Linecode=CABBTG06_4_3,Length=0.016000000,Units=km
new line.RML10635106 bus1=BBT2667295.3.0,bus2=RML1060635106.3.0,Phases=1,Linecode=CABBTG02_4_1,Length=0.013000000,Units=km
new line.RML10637528 bus1=BBT2635144.1.2.3.0,bus2=RML1060637528.1.2.3.0,Phases=3,Linecode=CABBTG06_4_3,Length=0.019000000,Units=km
new line.RML10650644 bus1=BBT3404311.1.0,bus2=RML1060650644.1.0,Phases=1,Linecode=CABBTG02_4_1,Length=0.017000000,Units=km
new line.RML10654653 bus1=BBT2708546.1.0,bus2=RML1060654653.1.0,Phases=1,Linecode=CABBTG02_4_1,Length=0.017000000,Units=km
new line.RML10663055 bus1=BBT2768459.1.0,bus2=RML1060663055.1.0,Phases=1,Linecode=CABBTG02_4_1,Length=0.017000000,Units=km
new line.RML10663058 bus1=BBT2705431.1.0,bus2=RML1060663058.1.0,Phases=1,Linecode=CABBTG02_4_1,Length=0.017000000,Units=km
new line.RML10663170 bus1=BBT2645483.1.0,bus2=RML1060663170.1.0,Phases=1,Linecode=CABBTG02_4_1,Length=0.017000000,Units=km
new line.RML10666633 bus1=BBT4263995.1.2.0,bus2=RML1060666633.1.2.0,Phases=2,Linecode=CABBTG05_4_2,Length=0.015000000,Units=km
new line.RML10669336 bus1=BBT2605835.2.0,bus2=RML1060669336.2.0,Phases=1,Linecode=CABBT802_4_1,Length=0.013000000,Units=km
new line.RML10670138 bus1=BBT2645469.2.3.0,bus2=RML1060670138.2.3.0,Phases=2,Linecode=CABBT811_4_2,Length=0.019000000,Units=km
new line.RML10671870 bus1=BBT2754459.1.0,bus2=RML1060671870.1.0,Phases=1,Linecode=CABBTG02_4_1,Length=0.017000000,Units=km
new line.RML10672449 bus1=BBT2676486.1.2.3.0,bus2=RML1060672449.1.2.3.0,Phases=3,Linecode=CABBTG06_4_3,Length=0.017000000,Units=km
new line.RML10672541 bus1=BBT2688372.1.0,bus2=RML1060672541.1.0,Phases=1,Linecode=CABBTG02_4_1,Length=0.016000000,Units=km
new line.RML10672615 bus1=BBT2705431.1.0,bus2=RML1060672615.1.0,Phases=1,Linecode=CABBTG02_4_1,Length=0.007000000,Units=km
new line.RML10672731 bus1=BBT2688379.1.0,bus2=RML1060672731.1.0,Phases=1,Linecode=CABBTG02_4_1,Length=0.012000000,Units=km
new line.RML10678812 bus1=BBT2667232.1.2.0,bus2=RML1060678812.1.2.0,Phases=2,Linecode=CABBTG05_4_2,Length=0.017000000,Units=km
new line.RML10678831 bus1=BBT2667295.1.2.0,bus2=RML1060678831.1.2.0,Phases=2,Linecode=CABBTG05_4_2,Length=0.017000000,Units=km
new line.RML10689344 bus1=BBT2667246.1.2.0,bus2=RML1060689344.1.2.0,Phases=2,Linecode=CABBTG05_4_2,Length=0.017000000,Units=km
new line.RML10692928 bus1=BBT2691116.2.3.0,bus2=RML1060692928.2.3.0,Phases=2,Linecode=CABBT811_4_2,Length=0.012000000,Units=km
new line.RML10695820 bus1=BBT2597218.2.3.0,bus2=RML1060695820.2.3.0,Phases=2,Linecode=CABBTG05_4_2,Length=0.006000000,Units=km
new line.RML10710006 bus1=BBT2644293.1.2.0,bus2=RML1060710006.1.2.0,Phases=2,Linecode=CABBT811_4_2,Length=0.006000000,Units=km
new line.RML10710338 bus1=BBT2700118.2.3.0,bus2=RML1060710338.2.3.0,Phases=2,Linecode=CABBTG05_4_2,Length=0.019000000,Units=km
new line.RML10713238 bus1=BBT2705431.1.0,bus2=RML1060713238.1.0,Phases=1,Linecode=CABBTG02_4_1,Length=0.017000000,Units=km
new line.RML10713289 bus1=BBT2705431.1.0,bus2=RML1060713289.1.0,Phases=1,Linecode=CABBTG02_4_1,Length=0.017000000,Units=km
new line.RML10726067 bus1=BBT2700062.3.0,bus2=RML1060726067.3.0,Phases=1,Linecode=CABBTG02_4_1,Length=0.007000000,Units=km
new line.RML10731406 bus1=BBT2603938.1.2.0,bus2=RML1060731406.1.2.0,Phases=2,Linecode=CABBTG05_4_2,Length=0.007000000,Units=km
new line.RML10739002 bus1=BBT2700062.1.2.3.0,bus2=RML1060739002.1.2.3.0,Phases=3,Linecode=CABBTG07_4_3,Length=0.015000000,Units=km
new line.RML10739027 bus1=BBT2691158.1.2.3.0,bus2=RML1060739027.1.2.3.0,Phases=3,Linecode=CABBTG07_4_3,Length=0.015000000,Units=km
new line.RML10739028 bus1=BBT2605835.1.2.3.0,bus2=RML1060739028.1.2.3.0,Phases=3,Linecode=CABBTG07_4_3,Length=0.015000000,Units=km
new line.RML10739047 bus1=BBT2753003.1.2.3.0,bus2=RML1060739047.1.2.3.0,Phases=3,Linecode=CABBTG07_4_3,Length=0.015000000,Units=km
new line.RML10739063 bus1=BBT2618239.1.2.3.0,bus2=RML1060739063.1.2.3.0,Phases=3,Linecode=CABBTG07_4_3,Length=0.029000000,Units=km
new line.RML10739081 bus1=BBT2615901.1.0,bus2=RML1060739081.1.0,Phases=1,Linecode=CABBTG01_4_1,Length=0.015000000,Units=km
new line.RML10739099 bus1=BBT2674834.1.0,bus2=RML1060739099.1.0,Phases=1,Linecode=CABBTG01_4_1,Length=0.015000000,Units=km
new line.RML10739102 bus1=BBT2688386.1.2.3.0,bus2=RML1060739102.1.2.3.0,Phases=3,Linecode=CABBTG07_4_3,Length=0.015000000,Units=km
new line.RML10740477 bus1=BBT2603924.1.2.3.0,bus2=RML1060740477.1.2.3.0,Phases=3,Linecode=CABBTG07_4_3,Length=0.015000000,Units=km
new line.RML10740961 bus1=BBT2700062.1.2.3.0,bus2=RML1060740961.1.2.3.0,Phases=3,Linecode=CABBTG07_4_3,Length=0.015000000,Units=km
new line.RML10741841 bus1=BBT2678159.1.3.0,bus2=RML1060741841.1.3.0,Phases=2,Linecode=CABBTG05_4_2,Length=0.015000000,Units=km
new line.RML10741937 bus1=BBT2585941.1.2.3.0,bus2=RML1060741937.1.2.3.0,Phases=3,Linecode=CABBTG07_4_3,Length=0.015000000,Units=km
new line.RML10745287 bus1=BBT2678159.1.2.0,bus2=RML1060745287.1.2.0,Phases=2,Linecode=CABBTG05_4_2,Length=0.015000000,Units=km
new line.RML10748167 bus1=BBT2602965.1.2.3.0,bus2=RML1060748167.1.2.3.0,Phases=3,Linecode=CABBTG07_4_3,Length=0.015000000,Units=km
new line.RML10748174 bus1=BBT2672020.1.2.3.0,bus2=RML1060748174.1.2.3.0,Phases=3,Linecode=CABBTG07_4_3,Length=0.015000000,Units=km
new line.RML10751599 bus1=BBT2688372.1.2.3.0,bus2=RML1060751599.1.2.3.0,Phases=3,Linecode=CABBTG07_4_3,Length=0.015000000,Units=km
new line.RML10754906 bus1=BBT139629387.1.2.0,bus2=RML1060754906.1.2.0,Phases=2,Linecode=CABBTG04_4_2,Length=0.030000000,Units=km
new line.RML10754907 bus1=BBT139629387.1.3.0,bus2=RML1060754907.1.3.0,Phases=2,Linecode=CABBTG04_4_2,Length=0.021000000,Units=km
new line.RML10758766 bus1=BBT2700965.2.3.0,bus2=RML1060758766.2.3.0,Phases=2,Linecode=CABBT811_4_2,Length=0.011000000,Units=km
new line.RML10768590 bus1=BBT2717163.1.0,bus2=RML1060768590.1.0,Phases=1,Linecode=CABBTG02_4_1,Length=0.017000000,Units=km
new line.RML10769532 bus1=BBT2674764.1.0,bus2=RML1060769532.1.0,Phases=1,Linecode=CABBTG02_4_1,Length=0.017000000,Units=km
new line.RML10776105 bus1=BBT160535268.1.2.0,bus2=RML1060776105.1.2.0,Phases=2,Linecode=CABBTG05_4_2,Length=0.030000000,Units=km
new line.RML10795723 bus1=BBT2705431.1.0,bus2=RML1060795723.1.0,Phases=1,Linecode=CABBTG02_4_1,Length=0.017000000,Units=km
new line.RML10795725 bus1=BBT2705431.1.0,bus2=RML1060795725.1.0,Phases=1,Linecode=CABBTG02_4_1,Length=0.017000000,Units=km
new line.RML10795744 bus1=BBT2695995.1.0,bus2=RML1060795744.1.0,Phases=1,Linecode=CABBTG02_4_1,Length=0.017000000,Units=km
new line.RML10795809 bus1=BBT2705452.1.0,bus2=RML1060795809.1.0,Phases=1,Linecode=CABBTG02_4_1,Length=0.017000000,Units=km
new line.RML10807028 bus1=BBT2715777.1.0,bus2=RML1060807028.1.0,Phases=1,Linecode=CABBTG02_4_1,Length=0.011000000,Units=km
new line.RML10811595 bus1=BBT2654170.1.2.0,bus2=RML1060811595.1.2.0,Phases=2,Linecode=CABBTG05_4_2,Length=0.017000000,Units=km
new line.RML10818192 bus1=BBT3498881.1.0,bus2=RML1060818192.1.0,Phases=1,Linecode=CABBTG02_4_1,Length=0.013000000,Units=km