new load.3001063367M1 bus1=RML1055659543.1.2.0,Phases=2,kv=0.22,kW=0.33424,pf=0.92,Vminpu=0.92,Vmaxpu=1.5,model=8,zipv=[0.5,0,0.5,1,0,0,0],daily=RES2_27,status=variable
new load.3001063368M1 bus1=RML1055659557.2.3.0,Phases=2,kv=0.22,kW=0.39632,pf=0.92,Vminpu=0.92,Vmaxpu=1.5,model=8,zipv=[0.5,0,0.5,1,0,0,0],daily=RES2_27,status=variable
new load.3001063369M1 bus1=RML1055659557.2.3.0,Phases=2,kv=0.22,kW=0.8664,pf=0.92,Vminpu=0.92,Vmaxpu=1.5,model=8,zipv=[0.5,0,0.5,1,0,0,0],daily=RES3_20,status=variable
new load.3001063370M1 bus1=RML1055659557.2.3.0,Phases=2,kv=0.22,kW=0.69802,pf=0.92,Vminpu=0.92,Vmaxpu=1.5,model=8,zipv=[0.5,0,0.5,1,0,0,0],daily=RES3_20,status=variable
new load.3001063371M1 bus1=RML1055659550.1.3.0,Phases=2,kv=0.22,kW=0.5725,pf=0.92,Vminpu=0.92,Vmaxpu=1.5,model=8,zipv=[0.5,0,0.5,1,0,0,0],daily=RES3_20,status=variable
new load.3001063372M1 bus1=RML1055659613.1.2.0,Phases=2,kv=0.22,kW=0.82602,pf=0.92,Vminpu=0.92,Vmaxpu=1.5,model=8,zipv=[0.5,0,0.5,1,0,0,0],daily=RES4_20,status=variable
new load.3001065061M1 bus1=RML1055737992.2.3.0,Phases=2,kv=0.22,kW=0.48004,pf=0.92,Vminpu=0.92,Vmaxpu=1.5,model=8,zipv=[0.5,0,0.5,1,0,0,0],daily=COM1_25,status=variable
new load.3001065062M1 bus1=RML1055738006.1.2.3.0,Phases=3,kv=0.22,kW=0.06106,pf=0.92,Vminpu=0.92,Vmaxpu=1.5,model=8,zipv=[0.5,0,0.5,1,0,0,0],daily=RES1_25,status=variable
new load.3001065065M1 bus1=RML1055738006.1.2.3.0,Phases=3,kv=0.22,kW=0.68048,pf=0.92,Vminpu=0.92,Vmaxpu=1.5,model=8,zipv=[0.5,0,0.5,1,0,0,0],daily=RES1_25,status=variable
new load.3001065066M1 bus1=RML1055738006.1.2.3.0,Phases=3,kv=0.22,kW=0.46078,pf=0.92,Vminpu=0.92,Vmaxpu=1.5,model=8,zipv=[0.5,0,0.5,1,0,0,0],daily=RES2_27,status=variable
new load.3001065067M1 bus1=RML1055738006.1.2.3.0,Phases=3,kv=0.22,kW=0.32948,pf=0.92,Vminpu=0.92,Vmaxpu=1.5,model=8,zipv=[0.5,0,0.5,1,0,0,0],daily=RES2_27,status=variable
new load.3001065069M1 bus1=RML1055738055.2.3.0,Phases=2,kv=0.22,kW=0.51586,pf=0.92,Vminpu=0.92,Vmaxpu=1.5,model=8,zipv=[0.5,0,0.5,1,0,0,0],daily=COM1_25,status=variable
new load.3001065070M1 bus1=RML1055738013.1.2.0,Phases=2,kv=0.22,kW=0.24114,pf=0.92,Vminpu=0.92,Vmaxpu=1.5,model=8,zipv=[0.5,0,0.5,1,0,0,0],daily=RES2_27,status=variable
new load.3001065071M1 bus1=RML1055738020.2.0,Phases=1,kv=0.127,kW=0.6603,pf=0.92,Vminpu=0.92,Vmaxpu=1.5,model=8,zipv=[0.5,0,0.5,1,0,0,0],daily=RES4_20,status=variable
new load.3001065073M1 bus1=RML1055737999.1.2.3.0,Phases=3,kv=0.22,kW=0.13848,pf=0.92,Vminpu=0.92,Vmaxpu=1.5,model=8,zipv=[0.5,0,0.5,1,0,0,0],daily=RES2_27,status=variable
new load.3001065075M1 bus1=RML1055737999.1.2.3.0,Phases=3,kv=0.22,kW=0.40588,pf=0.92,Vminpu=0.92,Vmaxpu=1.5,model=8,zipv=[0.5,0,0.5,1,0,0,0],daily=RES2_27,status=variable
new load.3001065076M1 bus1=RML1055737999.1.2.3.0,Phases=3,kv=0.22,kW=0.09596,pf=0.92,Vminpu=0.92,Vmaxpu=1.5,model=8,zipv=[0.5,0,0.5,1,0,0,0],daily=RES1_25,status=variable
new load.3001065352M1 bus1=RML1055737887.1.2.0,Phases=2,kv=0.22,kW=0.30082,pf=0.92,Vminpu=0.92,Vmaxpu=1.5,model=8,zipv=[0.5,0,0.5,1,0,0,0],daily=RES2_27,status=variable
new load.3001065353M1 bus1=RML1055737887.1.2.0,Phases=2,kv=0.22,kW=0.20772,pf=0.92,Vminpu=0.92,Vmaxpu=1.5,model=8,zipv=[0.5,0,0.5,1,0,0,0],daily=RES2_27,status=variable
new load.3001065354M1 bus1=RML1055737887.1.2.0,Phases=2,kv=0.22,kW=0.63686,pf=0.92,Vminpu=0.92,Vmaxpu=1.5,model=8,zipv=[0.5,0,0.5,1,0,0,0],daily=RES1_25,status=variable
new load.3001065355M1 bus1=RML1055737908.3.0,Phases=1,kv=0.127,kW=0.2483,pf=0.92,Vminpu=0.92,Vmaxpu=1.5,model=8,zipv=[0.5,0,0.5,1,0,0,0],daily=RES2_27,status=variable
new load.3001065360M1 bus1=RML1055737943.3.0,Phases=1,kv=0.127,kW=0.398,pf=0.92,Vminpu=0.92,Vmaxpu=1.5,model=8,zipv=[0.5,0,0.5,1,0,0,0],daily=RES3_20,status=variable
new load.3001065361M1 bus1=RML1055737936.1.3.0,Phases=2,kv=0.22,kW=0.70108,pf=0.92,Vminpu=0.92,Vmaxpu=1.5,model=8,zipv=[0.5,0,0.5,1,0,0,0],daily=RES3_20,status=variable
new load.3001065362M1 bus1=RML1055737929.1.2.3.0,Phases=3,kv=0.22,kW=0.9229,pf=0.92,Vminpu=0.92,Vmaxpu=1.5,model=8,zipv=[0.5,0,0.5,1,0,0,0],daily=RES4_20,status=variable
new load.3001065363M1 bus1=RML1055737929.1.2.3.0,Phases=3,kv=0.22,kW=0.00872,pf=0.92,Vminpu=0.92,Vmaxpu=1.5,model=8,zipv=[0.5,0,0.5,1,0,0,0],daily=RES1_25,status=variable
new load.3001065364M1 bus1=RML1055737950.1.0,Phases=1,kv=0.127,kW=0.21726,pf=0.92,Vminpu=0.92,Vmaxpu=1.5,model=8,zipv=[0.5,0,0.5,1,0,0,0],daily=RES2_27,status=variable
new load.3001065365M1 bus1=RML1055742675.1.2.3.0,Phases=3,kv=0.22,kW=0.48372,pf=0.92,Vminpu=0.92,Vmaxpu=1.5,model=8,zipv=[0.5,0,0.5,1,0,0,0],daily=RES3_20,status=variable
new load.3001065366M1 bus1=RML1055742675.1.2.3.0,Phases=3,kv=0.22,kW=0.29604,pf=0.92,Vminpu=0.92,Vmaxpu=1.5,model=8,zipv=[0.5,0,0.5,1,0,0,0],daily=RES2_27,status=variable
new load.3001065367M1 bus1=RML1055737922.1.3.0,Phases=2,kv=0.22,kW=0.48984,pf=0.92,Vminpu=0.92,Vmaxpu=1.5,model=8,zipv=[0.5,0,0.5,1,0,0,0],daily=RES3_20,status=variable
new load.3001065368M1 bus1=RML1055737915.1.2.3.0,Phases=3,kv=0.22,kW=0.51422,pf=0.92,Vminpu=0.92,Vmaxpu=1.5,model=8,zipv=[0.5,0,0.5,1,0,0,0],daily=RES5_20,status=variable
new load.3001065370M1 bus1=RML1055737901.2.3.0,Phases=2,kv=0.22,kW=0.39632,pf=0.92,Vminpu=0.92,Vmaxpu=1.5,model=8,zipv=[0.5,0,0.5,1,0,0,0],daily=RES2_27,status=variable
new load.3001065371M1 bus1=RML1055737880.1.2.3.0,Phases=3,kv=0.22,kW=0.52046,pf=0.92,Vminpu=0.92,Vmaxpu=1.5,model=8,zipv=[0.5,0,0.5,1,0,0,0],daily=RES3_20,status=variable
new load.3001065372M1 bus1=RML1055737894.1.2.3.0,Phases=3,kv=0.22,kW=0.26978,pf=0.92,Vminpu=0.92,Vmaxpu=1.5,model=8,zipv=[0.5,0,0.5,1,0,0,0],daily=RES2_27,status=variable
new load.3001065373M1 bus1=RML1055737894.1.2.3.0,Phases=3,kv=0.22,kW=0.57862,pf=0.92,Vminpu=0.92,Vmaxpu=1.5,model=8,zipv=[0.5,0,0.5,1,0,0,0],daily=RES3_20,status=variable
new load.3001065497M1 bus1=RML1055664709.1.3.0,Phases=2,kv=0.22,kW=0.35096,pf=0.92,Vminpu=0.92,Vmaxpu=1.5,model=8,zipv=[0.5,0,0.5,1,0,0,0],daily=RES2_27,status=variable
new load.3001065499M1 bus1=RML1055664709.1.3.0,Phases=2,kv=0.22,kW=0.4362,pf=0.92,Vminpu=0.92,Vmaxpu=1.5,model=8,zipv=[0.5,0,0.5,1,0,0,0],daily=RES1_25,status=variable
new load.3001065501M1 bus1=RML1055664716.1.2.0,Phases=2,kv=0.22,kW=0.2674,pf=0.92,Vminpu=0.92,Vmaxpu=1.5,model=8,zipv=[0.5,0,0.5,1,0,0,0],daily=RES2_27,status=variable
new load.3001065502M1 bus1=RML1055664716.1.2.0,Phases=2,kv=0.22,kW=0.6858,pf=0.92,Vminpu=0.92,Vmaxpu=1.5,model=8,zipv=[0.5,0,0.5,1,0,0,0],daily=RES4_20,status=variable
new load.3001065503M1 bus1=RML1055664730.1.2.3.0,Phases=3,kv=0.22,kW=0.47034,pf=0.92,Vminpu=0.92,Vmaxpu=1.5,model=8,zipv=[0.5,0,0.5,1,0,0,0],daily=RES2_27,status=variable
new load.3001065510M1 bus1=RML1055728444.2.3.0,Phases=2,kv=0.22,kW=0.34858,pf=0.92,Vminpu=0.92,Vmaxpu=1.5,model=8,zipv=[0.5,0,0.5,1,0,0,0],daily=RES2_27,status=variable
new load.3001065512M1 bus1=RML1055728430.1.2.3.0,Phases=3,kv=0.22,kW=0.7164,pf=0.92,Vminpu=0.92,Vmaxpu=1.5,model=8,zipv=[0.5,0,0.5,1,0,0,0],daily=RES3_20,status=variable
new load.3001065513M1 bus1=RML1055664702.2.0,Phases=1,kv=0.127,kW=0.4711,pf=0.92,Vminpu=0.92,Vmaxpu=1.5,model=8,zipv=[0.5,0,0.5,1,0,0,0],daily=RES1_25,status=variable
new load.3001065522M1 bus1=RML1055728423.1.2.3.0,Phases=3,kv=0.22,kW=0.60312,pf=0.92,Vminpu=0.92,Vmaxpu=1.5,model=8,zipv=[0.5,0,0.5,1,0,0,0],daily=RES3_20,status=variable
new load.3001065523M1 bus1=RML1056734995.1.2.3.0,Phases=3,kv=0.22,kW=0.30322,pf=0.92,Vminpu=0.92,Vmaxpu=1.5,model=8,zipv=[0.5,0,0.5,1,0,0,0],daily=RES2_27,status=variable
new load.3001065524M1 bus1=RML1056734995.1.2.3.0,Phases=3,kv=0.22,kW=0.81742,pf=0.92,Vminpu=0.92,Vmaxpu=1.5,model=8,zipv=[0.5,0,0.5,1,0,0,0],daily=RES3_20,status=variable
new load.3001065525M1 bus1=RML1056734995.1.2.3.0,Phases=3,kv=0.22,kW=0.74394,pf=0.92,Vminpu=0.92,Vmaxpu=1.5,model=8,zipv=[0.5,0,0.5,1,0,0,0],daily=RES3_20,status=variable
new load.3001065526M1 bus1=RML1056734995.1.2.3.0,Phases=3,kv=0.22,kW=0.35208,pf=0.92,Vminpu=0.92,Vmaxpu=1.5,model=8,zipv=[0.5,0,0.5,1,0,0,0],daily=RES3_20,status=variable
new load.3001065529M1 bus1=RML1056734995.1.2.3.0,Phases=3,kv=0.22,kW=0.30308,pf=0.92,Vminpu=0.92,Vmaxpu=1.5,model=8,zipv=[0.5,0,0.5,1,0,0,0],daily=RES3_20,status=variable
new load.3001065531M1 bus1=RML1056734995.1.2.3.0,Phases=3,kv=0.22,kW=0.30002,pf=0.92,Vminpu=0.92,Vmaxpu=1.5,model=8,zipv=[0.5,0,0.5,1,0,0,0],daily=RES3_20,status=variable
new load.3001065532M1 bus1=RML1056734995.1.2.3.0,Phases=3,kv=0.22,kW=0.56638,pf=0.92,Vminpu=0.92,Vmaxpu=1.5,model=8,zipv=[0.5,0,0.5,1,0,0,0],daily=RES3_20,status=variable
new load.3001065533M1 bus1=RML1056734995.1.2.3.0,Phases=3,kv=0.22,kW=0.25546,pf=0.92,Vminpu=0.92,Vmaxpu=1.5,model=8,zipv=[0.5,0,0.5,1,0,0,0],daily=RES2_27,status=variable
new load.3001065534M1 bus1=RML1056734995.1.2.3.0,Phases=3,kv=0.22,kW=0.78268,pf=0.92,Vminpu=0.92,Vmaxpu=1.5,model=8,zipv=[0.5,0,0.5,1,0,0,0],daily=RES4_20,status=variable
new load.3001065535M1 bus1=RML1056734995.1.2.3.0,Phases=3,kv=0.22,kW=0.90926,pf=0.92,Vminpu=0.92,Vmaxpu=1.5,model=8,zipv=[0.5,0,0.5,1,0,0,0],daily=RES3_20,status=variable
new load.3001065536M1 bus1=RML1055664723.1.2.3.0,Phases=3,kv=0.22,kW=0.29662,pf=0.92,Vminpu=0.92,Vmaxpu=1.5,model=8,zipv=[0.5,0,0.5,1,0,0,0],daily=RES1_25,status=variable
new load.3001065537M1 bus1=RML1055664723.1.2.3.0,Phases=3,kv=0.22,kW=0.25784,pf=0.92,Vminpu=0.92,Vmaxpu=1.5,model=8,zipv=[0.5,0,0.5,1,0,0,0],daily=RES2_27,status=variable
new load.3001065538M1 bus1=RML1055664723.1.2.3.0,Phases=3,kv=0.22,kW=0.66434,pf=0.92,Vminpu=0.92,Vmaxpu=1.5,model=8,zipv=[0.5,0,0.5,1,0,0,0],daily=RES3_20,status=variable
new load.3001065539M1 bus1=RML1055664723.1.2.3.0,Phases=3,kv=0.22,kW=0.19338,pf=0.92,Vminpu=0.92,Vmaxpu=1.5,model=8,zipv=[0.5,0,0.5,1,0,0,0],daily=RES2_27,status=variable
new load.3001065540M1 bus1=RML1055664723.1.2.3.0,Phases=3,kv=0.22,kW=0.54494,pf=0.92,Vminpu=0.92,Vmaxpu=1.5,model=8,zipv=[0.5,0,0.5,1,0,0,0],daily=RES3_20,status=variable
new load.3001065541M1 bus1=RML1055664723.1.2.3.0,Phases=3,kv=0.22,kW=0.31408,pf=0.92,Vminpu=0.92,Vmaxpu=1.5,model=8,zipv=[0.5,0,0.5,1,0,0,0],daily=RES1_25,status=variable
new load.3001065542M1 bus1=RML1055664723.1.2.3.0,Phases=3,kv=0.22,kW=0.44884,pf=0.92,Vminpu=0.92,Vmaxpu=1.5,model=8,zipv=[0.5,0,0.5,1,0,0,0],daily=RES2_27,status=variable
new load.3001065594M1 bus1=RML1055664562.2.3.0,Phases=2,kv=0.22,kW=0.72542,pf=0.92,Vminpu=0.92,Vmaxpu=1.5,model=8,zipv=[0.5,0,0.5,1,0,0,0],daily=RES5_20,status=variable
new load.3001065595M1 bus1=RML1055664590.2.3.0,Phases=2,kv=0.22,kW=0.95864,pf=0.92,Vminpu=0.92,Vmaxpu=1.5,model=8,zipv=[0.5,0,0.5,1,0,0,0],daily=RES5_20,status=variable
new load.3001065596M1 bus1=RML1055664590.2.3.0,Phases=2,kv=0.22,kW=0.83376,pf=0.92,Vminpu=0.92,Vmaxpu=1.5,model=8,zipv=[0.5,0,0.5,1,0,0,0],daily=RES5_20,status=variable
new load.3001065597M1 bus1=RML1055664590.2.3.0,Phases=2,kv=0.22,kW=0.30798,pf=0.92,Vminpu=0.92,Vmaxpu=1.5,model=8,zipv=[0.5,0,0.5,1,0,0,0],daily=RES2_27,status=variable
new load.3001065598M1 bus1=RML1055664625.2.3.0,Phases=2,kv=0.22,kW=0.79542,pf=0.92,Vminpu=0.92,Vmaxpu=1.5,model=8,zipv=[0.5,0,0.5,1,0,0,0],daily=RES4_20,status=variable
new load.3001065599M1 bus1=RML1055664583.1.3.0,Phases=2,kv=0.22,kW=0.24592,pf=0.92,Vminpu=0.92,Vmaxpu=1.5,model=8,zipv=[0.5,0,0.5,1,0,0,0],daily=RES2_27,status=variable
new load.3001065600M1 bus1=RML1055664583.1.3.0,Phases=2,kv=0.22,kW=1.03252,pf=0.92,Vminpu=0.92,Vmaxpu=1.5,model=8,zipv=[0.5,0,0.5,1,0,0,0],daily=RES4_20,status=variable
new load.3001065601M1 bus1=RML1055664611.1.2.0,Phases=2,kv=0.22,kW=0.28172,pf=0.92,Vminpu=0.92,Vmaxpu=1.5,model=8,zipv=[0.5,0,0.5,1,0,0,0],daily=RES2_27,status=variable
new load.3001065602M1 bus1=RML1055664639.2.3.0,Phases=2,kv=0.22,kW=0.8664,pf=0.92,Vminpu=0.92,Vmaxpu=1.5,model=8,zipv=[0.5,0,0.5,1,0,0,0],daily=RES3_20,status=variable
new load.3001065603M1 bus1=RML1055664639.2.3.0,Phases=2,kv=0.22,kW=0.54494,pf=0.92,Vminpu=0.92,Vmaxpu=1.5,model=8,zipv=[0.5,0,0.5,1,0,0,0],daily=RES3_20,status=variable
new load.3001065604M1 bus1=RML1055664653.1.2.3.0,Phases=3,kv=0.22,kW=0.87866,pf=0.92,Vminpu=0.92,Vmaxpu=1.5,model=8,zipv=[0.5,0,0.5,1,0,0,0],daily=RES3_20,status=variable
new load.3001065605M1 bus1=RML1055664653.1.2.3.0,Phases=3,kv=0.22,kW=0.74954,pf=0.92,Vminpu=0.92,Vmaxpu=1.5,model=8,zipv=[0.5,0,0.5,1,0,0,0],daily=RES4_20,status=variable
new load.3001065614M1 bus1=RML1055664646.1.2.3.0,Phases=3,kv=0.22,kW=0.6892,pf=0.92,Vminpu=0.92,Vmaxpu=1.5,model=8,zipv=[0.5,0,0.5,1,0,0,0],daily=RES1_25,status=variable
new load.3001065615M1 bus1=RML1055664646.1.2.3.0,Phases=3,kv=0.22,kW=0.6674,pf=0.92,Vminpu=0.92,Vmaxpu=1.5,model=8,zipv=[0.5,0,0.5,1,0,0,0],daily=RES3_20,status=variable
new load.3001065616M1 bus1=RML1055664646.1.2.3.0,Phases=3,kv=0.22,kW=0.3228,pf=0.92,Vminpu=0.92,Vmaxpu=1.5,model=8,zipv=[0.5,0,0.5,1,0,0,0],daily=RES1_25,status=variable
new load.3001065617M1 bus1=RML1055664646.1.2.3.0,Phases=3,kv=0.22,kW=0.4362,pf=0.92,Vminpu=0.92,Vmaxpu=1.5,model=8,zipv=[0.5,0,0.5,1,0,0,0],daily=RES1_25,status=variable
new load.3001065618M1 bus1=RML1055664646.1.2.3.0,Phases=3,kv=0.22,kW=0.65822,pf=0.92,Vminpu=0.92,Vmaxpu=1.5,model=8,zipv=[0.5,0,0.5,1,0,0,0],daily=RES3_20,status=variable
new load.3001065619M1 bus1=RML1055664646.1.2.3.0,Phases=3,kv=0.22,kW=0.18622,pf=0.92,Vminpu=0.92,Vmaxpu=1.5,model=8,zipv=[0.5,0,0.5,1,0,0,0],daily=RES2_27,status=variable
new load.3001065620M1 bus1=RML1055664618.1.3.0,Phases=2,kv=0.22,kW=0.86936,pf=0.92,Vminpu=0.92,Vmaxpu=1.5,model=8,zipv=[0.5,0,0.5,1,0,0,0],daily=RES4_20,status=variable
new load.3001065621M1 bus1=RML1055664632.1.2.0,Phases=2,kv=0.22,kW=0.01224,pf=0.92,Vminpu=0.92,Vmaxpu=1.5,model=8,zipv=[0.5,0,0.5,1,0,0,0],daily=RES3_20,status=variable
new load.3001065623M1 bus1=RML1055664576.1.2.0,Phases=2,kv=0.22,kW=0.57618,pf=0.92,Vminpu=0.92,Vmaxpu=1.5,model=8,zipv=[0.5,0,0.5,1,0,0,0],daily=RES4_20,status=variable
new load.3001065624M1 bus1=RML1055664555.1.2.3.0,Phases=3,kv=0.22,kW=0.63374,pf=0.92,Vminpu=0.92,Vmaxpu=1.5,model=8,zipv=[0.5,0,0.5,1,0,0,0],daily=RES3_20,status=variable
new load.3001065630M1 bus1=RML1055664569.1.2.0,Phases=2,kv=0.22,kW=0.75112,pf=0.92,Vminpu=0.92,Vmaxpu=1.5,model=8,zipv=[0.5,0,0.5,1,0,0,0],daily=RES5_20,status=variable
new load.3001065697M1 bus1=RML1055659571.1.2.3.0,Phases=3,kv=0.22,kW=1.70482,pf=0.92,Vminpu=0.92,Vmaxpu=1.5,model=8,zipv=[0.5,0,0.5,1,0,0,0],daily=IND1_27,status=variable
new load.3001065698M1 bus1=RML1055659669.1.2.3.0,Phases=3,kv=0.22,kW=0.12654,pf=0.92,Vminpu=0.92,Vmaxpu=1.5,model=8,zipv=[0.5,0,0.5,1,0,0,0],daily=RES2_27,status=variable
new load.3001065699M1 bus1=RML1055659669.1.2.3.0,Phases=3,kv=0.22,kW=0.72558,pf=0.92,Vminpu=0.92,Vmaxpu=1.5,model=8,zipv=[0.5,0,0.5,1,0,0,0],daily=RES3_20,status=variable
new load.3001065700M1 bus1=RML1055659669.1.2.3.0,Phases=3,kv=0.22,kW=0.2674,pf=0.92,Vminpu=0.92,Vmaxpu=1.5,model=8,zipv=[0.5,0,0.5,1,0,0,0],daily=RES2_27,status=variable
new load.3001065701M1 bus1=RML1055659669.1.2.3.0,Phases=3,kv=0.22,kW=0.77762,pf=0.92,Vminpu=0.92,Vmaxpu=1.5,model=8,zipv=[0.5,0,0.5,1,0,0,0],daily=RES3_20,status=variable
new load.3001065702M1 bus1=RML1055659669.1.2.3.0,Phases=3,kv=0.22,kW=0.2674,pf=0.92,Vminpu=0.92,Vmaxpu=1.5,model=8,zipv=[0.5,0,0.5,1,0,0,0],daily=RES2_27,status=variable
new load.3001065703M1 bus1=RML1055659669.1.2.3.0,Phases=3,kv=0.22,kW=0.42258,pf=0.92,Vminpu=0.92,Vmaxpu=1.5,model=8,zipv=[0.5,0,0.5,1,0,0,0],daily=RES2_27,status=variable
new load.3001065704M1 bus1=RML1055659669.1.2.3.0,Phases=3,kv=0.22,kW=0.59394,pf=0.92,Vminpu=0.92,Vmaxpu=1.5,model=8,zipv=[0.5,0,0.5,1,0,0,0],daily=RES3_20,status=variable
new load.3001065705M1 bus1=RML1055659669.1.2.3.0,Phases=3,kv=0.22,kW=0.44494,pf=0.92,Vminpu=0.92,Vmaxpu=1.5,model=8,zipv=[0.5,0,0.5,1,0,0,0],daily=RES1_25,status=variable
new load.3001065706M1 bus1=RML1055659669.1.2.3.0,Phases=3,kv=0.22,kW=0.30534,pf=0.92,Vminpu=0.92,Vmaxpu=1.5,model=8,zipv=[0.5,0,0.5,1,0,0,0],daily=RES1_25,status=variable
new load.3001065707M1 bus1=RML1055659669.1.2.3.0,Phases=3,kv=0.22,kW=0.76844,pf=0.92,Vminpu=0.92,Vmaxpu=1.5,model=8,zipv=[0.5,0,0.5,1,0,0,0],daily=RES3_20,status=variable
new load.3001065708M1 bus1=RML1055659669.1.2.3.0,Phases=3,kv=0.22,kW=0.63986,pf=0.92,Vminpu=0.92,Vmaxpu=1.5,model=8,zipv=[0.5,0,0.5,1,0,0,0],daily=RES3_20,status=variable
new load.3001065709M1 bus1=RML1055659669.1.2.3.0,Phases=3,kv=0.22,kW=0.29366,pf=0.92,Vminpu=0.92,Vmaxpu=1.5,model=8,zipv=[0.5,0,0.5,1,0,0,0],daily=RES2_27,status=variable
new load.3001065715M1 bus1=RML1055659662.1.2.0,Phases=2,kv=0.22,kW=0.57556,pf=0.92,Vminpu=0.92,Vmaxpu=1.5,model=8,zipv=[0.5,0,0.5,1,0,0,0],daily=RES3_20,status=variable
new load.3001065716M1 bus1=RML1055659662.1.2.0,Phases=2,kv=0.22,kW=0.01836,pf=0.92,Vminpu=0.92,Vmaxpu=1.5,model=8,zipv=[0.5,0,0.5,1,0,0,0],daily=RES3_20,status=variable
new load.3001065717M1 bus1=RML1055659648.2.3.0,Phases=2,kv=0.22,kW=0.8923,pf=0.92,Vminpu=0.92,Vmaxpu=1.5,model=8,zipv=[0.5,0,0.5,1,0,0,0],daily=RES4_20,status=variable
new load.3001065719M1 bus1=RML1055659655.1.2.3.0,Phases=3,kv=0.22,kW=0.93294,pf=0.92,Vminpu=0.92,Vmaxpu=1.5,model=8,zipv=[0.5,0,0.5,1,0,0,0],daily=RES5_20,status=variable
new load.3001065721M1 bus1=RML1055659634.1.3.0,Phases=2,kv=0.22,kW=0.75664,pf=0.92,Vminpu=0.92,Vmaxpu=1.5,model=8,zipv=[0.5,0,0.5,1,0,0,0],daily=RES5_20,status=variable
new load.3001065722M1 bus1=RML1055659627.2.0,Phases=1,kv=0.127,kW=0.33186,pf=0.92,Vminpu=0.92,Vmaxpu=1.5,model=8,zipv=[0.5,0,0.5,1,0,0,0],daily=RES2_27,status=variable
new load.3001065724M1 bus1=RML1055659620.1.2.3.0,Phases=3,kv=0.22,kW=0.39258,pf=0.92,Vminpu=0.92,Vmaxpu=1.5,model=8,zipv=[0.5,0,0.5,1,0,0,0],daily=RES1_25,status=variable
new load.3001065725M1 bus1=RML1055659620.1.2.3.0,Phases=3,kv=0.22,kW=0.24352,pf=0.92,Vminpu=0.92,Vmaxpu=1.5,model=8,zipv=[0.5,0,0.5,1,0,0,0],daily=RES2_27,status=variable
new load.3001065726M1 bus1=RML1055659620.1.2.3.0,Phases=3,kv=0.22,kW=0.53218,pf=0.92,Vminpu=0.92,Vmaxpu=1.5,model=8,zipv=[0.5,0,0.5,1,0,0,0],daily=RES1_25,status=variable
new load.3001065727M1 bus1=RML1055659620.1.2.3.0,Phases=3,kv=0.22,kW=0.50208,pf=0.92,Vminpu=0.92,Vmaxpu=1.5,model=8,zipv=[0.5,0,0.5,1,0,0,0],daily=RES3_20,status=variable
new load.3001065728M1 bus1=RML1055659620.1.2.3.0,Phases=3,kv=0.22,kW=0.93376,pf=0.92,Vminpu=0.92,Vmaxpu=1.5,model=8,zipv=[0.5,0,0.5,1,0,0,0],daily=RES3_20,status=variable
new load.3001065729M1 bus1=RML1055659620.1.2.3.0,Phases=3,kv=0.22,kW=0.37722,pf=0.92,Vminpu=0.92,Vmaxpu=1.5,model=8,zipv=[0.5,0,0.5,1,0,0,0],daily=RES2_27,status=variable
new load.3001065730M1 bus1=RML1055659620.1.2.3.0,Phases=3,kv=0.22,kW=0.36768,pf=0.92,Vminpu=0.92,Vmaxpu=1.5,model=8,zipv=[0.5,0,0.5,1,0,0,0],daily=RES2_27,status=variable
new load.3001065731M1 bus1=RML1055659620.1.2.3.0,Phases=3,kv=0.22,kW=0.37044,pf=0.92,Vminpu=0.92,Vmaxpu=1.5,model=8,zipv=[0.5,0,0.5,1,0,0,0],daily=RES3_20,status=variable
new load.3001065732M1 bus1=RML1055659620.1.2.3.0,Phases=3,kv=0.22,kW=0.20772,pf=0.92,Vminpu=0.92,Vmaxpu=1.5,model=8,zipv=[0.5,0,0.5,1,0,0,0],daily=RES2_27,status=variable
new load.3001065733M1 bus1=RML1055659620.1.2.3.0,Phases=3,kv=0.22,kW=0.41542,pf=0.92,Vminpu=0.92,Vmaxpu=1.5,model=8,zipv=[0.5,0,0.5,1,0,0,0],daily=RES2_27,status=variable
new load.3001065734M1 bus1=RML1055659585.1.2.3.0,Phases=3,kv=0.22,kW=0.74562,pf=0.92,Vminpu=0.92,Vmaxpu=1.5,model=8,zipv=[0.5,0,0.5,1,0,0,0],daily=RES5_20,status=variable
new load.3001065735M1 bus1=RML1055659585.1.2.3.0,Phases=3,kv=0.22,kW=0.22682,pf=0.92,Vminpu=0.92,Vmaxpu=1.5,model=8,zipv=[0.5,0,0.5,1,0,0,0],daily=RES2_27,status=variable
new load.3001065736M1 bus1=RML1055659585.1.2.3.0,Phases=3,kv=0.22,kW=0.5409,pf=0.92,Vminpu=0.92,Vmaxpu=1.5,model=8,zipv=[0.5,0,0.5,1,0,0,0],daily=RES1_25,status=variable
new load.3001065737M1 bus1=RML1055659585.1.2.3.0,Phases=3,kv=0.22,kW=0.26262,pf=0.92,Vminpu=0.92,Vmaxpu=1.5,model=8,zipv=[0.5,0,0.5,1,0,0,0],daily=RES2_27,status=variable
new load.3001065738M1 bus1=RML1055659585.1.2.3.0,Phases=3,kv=0.22,kW=0.25308,pf=0.92,Vminpu=0.92,Vmaxpu=1.5,model=8,zipv=[0.5,0,0.5,1,0,0,0],daily=RES2_27,status=variable
new load.3001065739M1 bus1=RML1055659585.1.2.3.0,Phases=3,kv=0.22,kW=0.23398,pf=0.92,Vminpu=0.92,Vmaxpu=1.5,model=8,zipv=[0.5,0,0.5,1,0,0,0],daily=RES2_27,status=variable
new load.3001065740M1 bus1=RML1055659585.1.2.3.0,Phases=3,kv=0.22,kW=0.23158,pf=0.92,Vminpu=0.92,Vmaxpu=1.5,model=8,zipv=[0.5,0,0.5,1,0,0,0],daily=RES2_27,status=variable
new load.3001065741M1 bus1=RML1055659585.1.2.3.0,Phases=3,kv=0.22,kW=0.16234,pf=0.92,Vminpu=0.92,Vmaxpu=1.5,model=8,zipv=[0.5,0,0.5,1,0,0,0],daily=RES2_27,status=variable
new load.3001065742M1 bus1=RML1055659585.1.2.3.0,Phases=3,kv=0.22,kW=0.21964,pf=0.92,Vminpu=0.92,Vmaxpu=1.5,model=8,zipv=[0.5,0,0.5,1,0,0,0],daily=RES2_27,status=variable
new load.3001065743M1 bus1=RML1055659585.1.2.3.0,Phases=3,kv=0.22,kW=0.17428,pf=0.92,Vminpu=0.92,Vmaxpu=1.5,model=8,zipv=[0.5,0,0.5,1,0,0,0],daily=RES2_27,status=variable
new load.3001065745M1 bus1=RML1055659585.1.2.3.0,Phases=3,kv=0.22,kW=0.64644,pf=0.92,Vminpu=0.92,Vmaxpu=1.5,model=8,zipv=[0.5,0,0.5,1,0,0,0],daily=RES5_20,status=variable
new load.3001065746M1 bus1=RML1055659585.1.2.3.0,Phases=3,kv=0.22,kW=0.56708,pf=0.92,Vminpu=0.92,Vmaxpu=1.5,model=8,zipv=[0.5,0,0.5,1,0,0,0],daily=RES1_25,status=variable
new load.3001065750M1 bus1=RML1055659578.1.2.3.0,Phases=3,kv=0.22,kW=0.27584,pf=0.92,Vminpu=0.92,Vmaxpu=1.5,model=8,zipv=[0.5,0,0.5,1,0,0,0],daily=COM1_25,status=variable
new load.3001065751M1 bus1=RML1055659578.1.2.3.0,Phases=3,kv=0.22,kW=0.30322,pf=0.92,Vminpu=0.92,Vmaxpu=1.5,model=8,zipv=[0.5,0,0.5,1,0,0,0],daily=RES2_27,status=variable
new load.3001065752M1 bus1=RML1055659578.1.2.3.0,Phases=3,kv=0.22,kW=0.75006,pf=0.92,Vminpu=0.92,Vmaxpu=1.5,model=8,zipv=[0.5,0,0.5,1,0,0,0],daily=RES3_20,status=variable
new load.3001065753M1 bus1=RML1055659606.1.2.3.0,Phases=3,kv=0.22,kW=1.61648,pf=0.92,Vminpu=0.92,Vmaxpu=1.5,model=8,zipv=[0.5,0,0.5,1,0,0,0],daily=COM2_29,status=variable
new load.3001065903M1 bus1=RML1055619265.1.2.3.0,Phases=3,kv=0.22,kW=0.07348,pf=0.92,Vminpu=0.92,Vmaxpu=1.5,model=8,zipv=[0.5,0,0.5,1,0,0,0],daily=RES3_20,status=variable
new load.3001065904M1 bus1=RML1055619258.2.3.0,Phases=2,kv=0.22,kW=0.41024,pf=0.92,Vminpu=0.92,Vmaxpu=1.5,model=8,zipv=[0.5,0,0.5,1,0,0,0],daily=RES3_20,status=variable
new load.3001065906M1 bus1=RML1055619272.1.2.3.0,Phases=3,kv=0.22,kW=0.64598,pf=0.92,Vminpu=0.92,Vmaxpu=1.5,model=8,zipv=[0.5,0,0.5,1,0,0,0],daily=RES3_20,status=variable
new load.3001065909M1 bus1=RML1055619286.1.2.3.0,Phases=3,kv=0.22,kW=0.2101,pf=0.92,Vminpu=0.92,Vmaxpu=1.5,model=8,zipv=[0.5,0,0.5,1,0,0,0],daily=RES2_27,status=variable
new load.3001065912M1 bus1=RML1060739063.1.2.3.0,Phases=3,kv=0.22,kW=0.16952,pf=0.92,Vminpu=0.92,Vmaxpu=1.5,model=8,zipv=[0.5,0,0.5,1,0,0,0],daily=RES2_27,status=variable
new load.3001065917M1 bus1=RML1055659676.1.0,Phases=1,kv=0.127,kW=1.10646,pf=0.92,Vminpu=0.92,Vmaxpu=1.5,model=8,zipv=[0.5,0,0.5,1,0,0,0],daily=RES4_20,status=variable
new load.3001065918M1 bus1=RML1055659690.1.2.3.0,Phases=3,kv=0.22,kW=0.6123,pf=0.92,Vminpu=0.92,Vmaxpu=1.5,model=8,zipv=[0.5,0,0.5,1,0,0,0],daily=RES3_20,status=variable
new load.3001065919M1 bus1=RML1055659697.3.0,Phases=1,kv=0.127,kW=0.32232,pf=0.92,Vminpu=0.92,Vmaxpu=1.5,model=8,zipv=[0.5,0,0.5,1,0,0,0],daily=RES2_27,status=variable
new load.3001065920M1 bus1=RML1055659697.3.0,Phases=1,kv=0.127,kW=0.7241,pf=0.92,Vminpu=0.92,Vmaxpu=1.5,model=8,zipv=[0.5,0,0.5,1,0,0,0],daily=RES1_25,status=variable
new load.3001065921M1 bus1=RML1055664534.1.2.3.0,Phases=3,kv=0.22,kW=0.31502,pf=0.92,Vminpu=0.92,Vmaxpu=1.5,model=8,zipv=[0.5,0,0.5,1,0,0,0],daily=IND1_27,status=variable
new load.3001065922M1 bus1=RML1055664548.1.2.3.0,Phases=3,kv=0.22,kW=4.79352,pf=0.92,Vminpu=0.92,Vmaxpu=1.5,model=8,zipv=[0.5,0,0.5,1,0,0,0],daily=COM3_25,status=variable
new load.3001065923M1 bus1=RML1055664548.1.2.3.0,Phases=3,kv=0.22,kW=0.79528,pf=0.92,Vminpu=0.92,Vmaxpu=1.5,model=8,zipv=[0.5,0,0.5,1,0,0,0],daily=COM1_25,status=variable
new load.3001065924M1 bus1=RML1055664548.1.2.3.0,Phases=3,kv=0.22,kW=0.67354,pf=0.92,Vminpu=0.92,Vmaxpu=1.5,model=8,zipv=[0.5,0,0.5,1,0,0,0],daily=RES3_20,status=variable
new load.3001065925M1 bus1=RML1055664548.1.2.3.0,Phases=3,kv=0.22,kW=8.94036,pf=0.92,Vminpu=0.92,Vmaxpu=1.5,model=8,zipv=[0.5,0,0.5,1,0,0,0],daily=RES6_17,status=variable
new load.3001065926M1 bus1=RML1055664597.1.2.3.0,Phases=3,kv=0.22,kW=0.26502,pf=0.92,Vminpu=0.92,Vmaxpu=1.5,model=8,zipv=[0.5,0,0.5,1,0,0,0],daily=RES2_27,status=variable
new load.3001065928M1 bus1=RML1055664597.1.2.3.0,Phases=3,kv=0.22,kW=0.27694,pf=0.92,Vminpu=0.92,Vmaxpu=1.5,model=8,zipv=[0.5,0,0.5,1,0,0,0],daily=RES2_27,status=variable
new load.3001065929M1 bus1=RML1055664597.1.2.3.0,Phases=3,kv=0.22,kW=0.21488,pf=0.92,Vminpu=0.92,Vmaxpu=1.5,model=8,zipv=[0.5,0,0.5,1,0,0,0],daily=RES2_27,status=variable
new load.3001065930M1 bus1=RML1055664597.1.2.3.0,Phases=3,kv=0.22,kW=0.30798,pf=0.92,Vminpu=0.92,Vmaxpu=1.5,model=8,zipv=[0.5,0,0.5,1,0,0,0],daily=RES2_27,status=variable
new load.3001065931M1 bus1=RML1055664597.1.2.3.0,Phases=3,kv=0.22,kW=0.92152,pf=0.92,Vminpu=0.92,Vmaxpu=1.5,model=8,zipv=[0.5,0,0.5,1,0,0,0],daily=RES3_20,status=variable
new load.3001065932M1 bus1=RML1055664597.1.2.3.0,Phases=3,kv=0.22,kW=0.2483,pf=0.92,Vminpu=0.92,Vmaxpu=1.5,model=8,zipv=[0.5,0,0.5,1,0,0,0],daily=RES2_27,status=variable
new load.3001065933M1 bus1=RML1055664674.1.2.3.0,Phases=3,kv=0.22,kW=0.84896,pf=0.92,Vminpu=0.92,Vmaxpu=1.5,model=8,zipv=[0.5,0,0.5,1,0,0,0],daily=RES4_20,status=variable
new load.3001065934M1 bus1=RML1055664744.1.0,Phases=1,kv=0.127,kW=0.99174,pf=0.92,Vminpu=0.92,Vmaxpu=1.5,model=8,zipv=[0.5,0,0.5,1,0,0,0],daily=RES4_20,status=variable
new load.3001065935M1 bus1=RML1055664772.1.0,Phases=1,kv=0.127,kW=0.6919,pf=0.92,Vminpu=0.92,Vmaxpu=1.5,model=8,zipv=[0.5,0,0.5,1,0,0,0],daily=RES3_20,status=variable
new load.3001065936M1 bus1=RML1055664779.1.3.0,Phases=2,kv=0.22,kW=0.19578,pf=0.92,Vminpu=0.92,Vmaxpu=1.5,model=8,zipv=[0.5,0,0.5,1,0,0,0],daily=RES2_27,status=variable
new load.3001065937M1 bus1=RML1055664793.2.0,Phases=1,kv=0.127,kW=0.54962,pf=0.92,Vminpu=0.92,Vmaxpu=1.5,model=8,zipv=[0.5,0,0.5,1,0,0,0],daily=RES1_25,status=variable
new load.3001065939M1 bus1=RML1055664800.1.2.3.0,Phases=3,kv=0.22,kW=0.54962,pf=0.92,Vminpu=0.92,Vmaxpu=1.5,model=8,zipv=[0.5,0,0.5,1,0,0,0],daily=RES1_25,status=variable
new load.3001065940M1 bus1=RML1055664800.1.2.3.0,Phases=3,kv=0.22,kW=0.2674,pf=0.92,Vminpu=0.92,Vmaxpu=1.5,model=8,zipv=[0.5,0,0.5,1,0,0,0],daily=RES2_27,status=variable
new load.3001065941M1 bus1=RML1055664800.1.2.3.0,Phases=3,kv=0.22,kW=0.24592,pf=0.92,Vminpu=0.92,Vmaxpu=1.5,model=8,zipv=[0.5,0,0.5,1,0,0,0],daily=RES2_27,status=variable
new load.3001065942M1 bus1=RML1055664800.1.2.3.0,Phases=3,kv=0.22,kW=0.24592,pf=0.92,Vminpu=0.92,Vmaxpu=1.5,model=8,zipv=[0.5,0,0.5,1,0,0,0],daily=RES2_27,status=variable
new load.3001065943M1 bus1=RML1055664800.1.2.3.0,Phases=3,kv=0.22,kW=0.66304,pf=0.92,Vminpu=0.92,Vmaxpu=1.5,model=8,zipv=[0.5,0,0.5,1,0,0,0],daily=RES1_25,status=variable
new load.3001065944M1 bus1=RML1055737873.2.0,Phases=1,kv=0.127,kW=0.22442,pf=0.92,Vminpu=0.92,Vmaxpu=1.5,model=8,zipv=[0.5,0,0.5,1,0,0,0],daily=RES2_27,status=variable
new load.3001065945M1 bus1=RML1055737873.2.0,Phases=1,kv=0.127,kW=0.3056,pf=0.92,Vminpu=0.92,Vmaxpu=1.5,model=8,zipv=[0.5,0,0.5,1,0,0,0],daily=RES2_27,status=variable
new load.3001065950M1 bus1=RML1055738041.2.3.0,Phases=2,kv=0.22,kW=0.90992,pf=0.92,Vminpu=0.92,Vmaxpu=1.5,model=8,zipv=[0.5,0,0.5,1,0,0,0],daily=COM1_25,status=variable
new load.3001065951M1 bus1=RML1055738041.2.3.0,Phases=2,kv=0.22,kW=0.19578,pf=0.92,Vminpu=0.92,Vmaxpu=1.5,model=8,zipv=[0.5,0,0.5,1,0,0,0],daily=RES2_27,status=variable
new load.3001065952M1 bus1=RML1055738062.2.3.0,Phases=2,kv=0.22,kW=0.35812,pf=0.92,Vminpu=0.92,Vmaxpu=1.5,model=8,zipv=[0.5,0,0.5,1,0,0,0],daily=RES2_27,status=variable
new load.3001065953M1 bus1=RML1055738062.2.3.0,Phases=2,kv=0.22,kW=0.31514,pf=0.92,Vminpu=0.92,Vmaxpu=1.5,model=8,zipv=[0.5,0,0.5,1,0,0,0],daily=RES2_27,status=variable
new load.3001065954M1 bus1=RML1055738062.2.3.0,Phases=2,kv=0.22,kW=0.32146,pf=0.92,Vminpu=0.92,Vmaxpu=1.5,model=8,zipv=[0.5,0,0.5,1,0,0,0],daily=RES3_20,status=variable
new load.3001065955M1 bus1=RML1056733119.1.2.3.0,Phases=3,kv=0.22,kW=0.8266,pf=0.92,Vminpu=0.92,Vmaxpu=1.5,model=8,zipv=[0.5,0,0.5,1,0,0,0],daily=RES3_20,status=variable
new load.3001065958M1 bus1=RML1056733700.1.2.3.0,Phases=3,kv=0.22,kW=0.34618,pf=0.92,Vminpu=0.92,Vmaxpu=1.5,model=8,zipv=[0.5,0,0.5,1,0,0,0],daily=RES2_27,status=variable
new load.3001065959M1 bus1=RML1055820249.1.2.3.0,Phases=3,kv=0.22,kW=0.76738,pf=0.92,Vminpu=0.92,Vmaxpu=1.5,model=8,zipv=[0.5,0,0.5,1,0,0,0],daily=RES4_20,status=variable
new load.3001065960M1 bus1=RML1055820235.3.0,Phases=1,kv=0.127,kW=0.31514,pf=0.92,Vminpu=0.92,Vmaxpu=1.5,model=8,zipv=[0.5,0,0.5,1,0,0,0],daily=RES2_27,status=variable
new load.3001065961M1 bus1=RML1055820235.3.0,Phases=1,kv=0.127,kW=0.42498,pf=0.92,Vminpu=0.92,Vmaxpu=1.5,model=8,zipv=[0.5,0,0.5,1,0,0,0],daily=RES2_27,status=variable
new load.3001065962M1 bus1=RML1055820242.1.2.3.0,Phases=3,kv=0.22,kW=0.5758,pf=0.92,Vminpu=0.92,Vmaxpu=1.5,model=8,zipv=[0.5,0,0.5,1,0,0,0],daily=RES1_25,status=variable
new load.3001065963M1 bus1=RML1055820242.1.2.3.0,Phases=3,kv=0.22,kW=0.44494,pf=0.92,Vminpu=0.92,Vmaxpu=1.5,model=8,zipv=[0.5,0,0.5,1,0,0,0],daily=RES1_25,status=variable
new load.3001065964M1 bus1=RML1055820242.1.2.3.0,Phases=3,kv=0.22,kW=0.54802,pf=0.92,Vminpu=0.92,Vmaxpu=1.5,model=8,zipv=[0.5,0,0.5,1,0,0,0],daily=RES3_20,status=variable
new load.3001065965M1 bus1=RML1055820221.3.0,Phases=1,kv=0.127,kW=0.82092,pf=0.92,Vminpu=0.92,Vmaxpu=1.5,model=8,zipv=[0.5,0,0.5,1,0,0,0],daily=RES4_20,status=variable
new load.3001065966M1 bus1=RML1055820214.1.0,Phases=1,kv=0.127,kW=0.9109,pf=0.92,Vminpu=0.92,Vmaxpu=1.5,model=8,zipv=[0.5,0,0.5,1,0,0,0],daily=RES5_20,status=variable
new load.3001065969M1 bus1=RML1055820200.1.2.0,Phases=2,kv=0.22,kW=0.43892,pf=0.92,Vminpu=0.92,Vmaxpu=1.5,model=8,zipv=[0.5,0,0.5,1,0,0,0],daily=RES5_20,status=variable