new line.TR10689547 bus1=BMT130448810.1.2.3,bus2=BMT165878955.1.2.3,Phases=3,Linecode=CABA08_3_3,Length=0.035449000,Units=km
new line.TR12014416 bus1=BMT2202369B.1.2.3,bus2=BMT135631267.1.2.3,Phases=3,Linecode=CABA08_3_3,Length=0.025968000,Units=km
new line.TR12014423 bus1=BMT2202334B.1.2.3,bus2=BMT135631267.1.2.3,Phases=3,Linecode=CABA08_3_3,Length=0.005002000,Units=km
new line.TR12014430 bus1=BMT135631267.1.2.3,bus2=BMT135631281.1.2.3,Phases=3,Linecode=CABA06_3_3,Length=0.026255000,Units=km
new line.TR12014437 bus1=BMT135631267.1.2.3,bus2=BMT2202341B.1.2.3,Phases=3,Linecode=CABA06_3_3,Length=0.004474000,Units=km
new line.TR12016523 bus1=BMT161295708.1.2.3,bus2=BMT2269051B.1.2.3,Phases=3,Linecode=CABA06_3_3,Length=0.029840000,Units=km
new line.TR12016530 bus1=BMT2269051B.1.2.3,bus2=BMT2254820B.1.2.3,Phases=3,Linecode=CABA06_3_3,Length=0.031583000,Units=km
new line.TR12016537 bus1=BMT2254820B.1.2.3,bus2=BMT2254813B.1.2.3,Phases=3,Linecode=CABA06_3_3,Length=0.032566000,Units=km
new line.TR12016544 bus1=BMT2254813B.1.2.3,bus2=BMT2254792B.1.2.3,Phases=3,Linecode=CABA06_3_3,Length=0.038088000,Units=km
new line.TR12016551 bus1=BMT2254792B.1.2.3,bus2=BMT133375993.1.2.3,Phases=3,Linecode=CABA06_3_3,Length=0.044283000,Units=km
new line.TR12018777 bus1=BMT135872872.1.2.3,bus2=BMT2223593B.1.2.3,Phases=3,Linecode=CABA08_3_3,Length=0.018390000,Units=km
new line.TR12205082 bus1=BMT2179157B.1.2.3,bus2=BMT2179164B.1.2.3,Phases=3,Linecode=CAB108_3_3,Length=0.025305000,Units=km
new line.TR12205090 bus1=BMT173055414.1.2.3,bus2=BMT2185443B.1.2.3,Phases=3,Linecode=CAB108_3_3,Length=0.035449000,Units=km
new line.TR12675772 bus1=BMT168899294.1.2.3,bus2=BMT168899296.1.2.3,Phases=3,Linecode=CABA06_3_3,Length=0.054050000,Units=km
new line.TR12675776 bus1=BMT168899057.1.2.3,bus2=BMT9284690B.1.2.3,Phases=3,Linecode=CABA06_3_3,Length=0.025502000,Units=km
new line.TR12675777 bus1=BMT9284690B.1.2.3,bus2=BMT168900264.1.2.3,Phases=3,Linecode=CABA06_3_3,Length=0.038636000,Units=km
new line.TR12675831 bus1=BMT168900262.1.2.3,bus2=BMT168899057.1.2.3,Phases=3,Linecode=CABA06_3_3,Length=0.027466000,Units=km
new line.TR12798878 bus1=BMT173086939.1.2.3,bus2=BMT173086938.1.2.3,Phases=3,Linecode=CABA08_3_3,Length=0.017725000,Units=km
new line.TR12798879 bus1=BMT173086937.1.2.3,bus2=BMT99056022.1.2.3,Phases=3,Linecode=CABA08_3_3,Length=0.016767000,Units=km
new line.TR4117387 bus1=BMT2166893B.1.2.3,bus2=BMT3034508B.1.2.3,Phases=3,Linecode=CAB103_3_3,Length=0.010443000,Units=km
new line.TR4117401 bus1=BMT2166900B.1.2.3,bus2=BMT2166893B.1.2.3,Phases=3,Linecode=CAB103_3_3,Length=0.036697000,Units=km
new line.TR4117429 bus1=BMT99046691.1.2.3,bus2=BMT2166900B.1.2.3,Phases=3,Linecode=CAB103_3_3,Length=0.034491000,Units=km
new line.TR4117436 bus1=BMT99046691.1.2.3,bus2=BMT2166914B.1.2.3,Phases=3,Linecode=CAB103_3_3,Length=0.027864000,Units=km
new line.TR4117464 bus1=BMT2166914B.1.2.3,bus2=BMT99046705.1.2.3,Phases=3,Linecode=CAB103_3_3,Length=0.029128000,Units=km
new line.TR4117492 bus1=BMT99046684.1.2.3,bus2=BMT99046691.1.2.3,Phases=3,Linecode=CAB103_3_3,Length=0.021195000,Units=km
new line.TR4117499 bus1=BMT99045417.1.2.3,bus2=BMT99045424.1.2.3,Phases=3,Linecode=CAB108_3_3,Length=0.029214000,Units=km
new line.TR4117513 bus1=BMT135631232.1.2.3,bus2=BMT103826305.1.2.3,Phases=3,Linecode=CAB108_3_3,Length=0.030422000,Units=km
new line.TR4117534 bus1=BMT103826305.1.2.3,bus2=BMT2195488B.1.2.3,Phases=3,Linecode=CAB108_3_3,Length=0.025619000,Units=km
new line.TR4121475 bus1=BMT2168391B.1.2.3,bus2=BMT173055416.1.2.3,Phases=3,Linecode=CAB103_3_3,Length=0.035744000,Units=km
new line.TR4121496 bus1=BMT2168398B.1.2.3,bus2=BMT2168391B.1.2.3,Phases=3,Linecode=CAB103_3_3,Length=0.027210000,Units=km
new line.TR4121517 bus1=BMT2168405B.1.2.3,bus2=BMT2168398B.1.2.3,Phases=3,Linecode=CAB103_3_3,Length=0.019930000,Units=km
new line.TR4122917 bus1=BMT2168888B.1.2.3,bus2=BMT173055898.1.2.3,Phases=3,Linecode=CABA06_3_3,Length=0.030814000,Units=km
new line.TR4122945 bus1=BMT173055898.1.2.3,bus2=BMT2168902B.1.2.3,Phases=3,Linecode=CABA06_3_3,Length=0.030008000,Units=km
new line.TR4122959 bus1=BMT2168902B.1.2.3,bus2=BMT2168909B.1.2.3,Phases=3,Linecode=CABA06_3_3,Length=0.027210000,Units=km
new line.TR4122980 bus1=BMT2168909B.1.2.3,bus2=BMT2168916B.1.2.3,Phases=3,Linecode=CABA06_3_3,Length=0.032211000,Units=km
new line.TR4123001 bus1=BMT2168916B.1.2.3,bus2=BMT2186696B.1.2.3,Phases=3,Linecode=CABA06_3_3,Length=0.031631000,Units=km
new line.TR4123729 bus1=BMT2169161B.1.2.3,bus2=BMT173055418.1.2.3,Phases=3,Linecode=CAB103_3_3,Length=0.028167000,Units=km
new line.TR4123750 bus1=BMT2169168B.1.2.3,bus2=BMT2169161B.1.2.3,Phases=3,Linecode=CAB103_3_3,Length=0.026256000,Units=km
new line.TR4123771 bus1=BMT2169175B.1.2.3,bus2=BMT2169168B.1.2.3,Phases=3,Linecode=CAB103_3_3,Length=0.027210000,Units=km
new line.TR4124625 bus1=BMT2169476B.1.2.3,bus2=BMT168900260.1.2.3,Phases=3,Linecode=CAB103_3_3,Length=0.029214000,Units=km
new line.TR4124709 bus1=BMT2169518B.1.2.3,bus2=BMT173055413.1.2.3,Phases=3,Linecode=CAB108_3_3,Length=0.028167000,Units=km
new line.TR4124723 bus1=BMT2169525B.1.2.3,bus2=BMT2169518B.1.2.3,Phases=3,Linecode=CAB108_3_3,Length=0.028238000,Units=km
new line.TR4165057 bus1=BMT2183875B.1.2.3,bus2=BMT135833322.1.2.3,Phases=3,Linecode=CABA08_3_3,Length=0.023415000,Units=km
new line.TR4165113 bus1=BMT135833322.1.2.3,bus2=BMT135833329.1.2.3,Phases=3,Linecode=CABA06_3_3,Length=0.023860000,Units=km
new line.TR4169166 bus1=BMT173055412.1.2.3,bus2=BMT2169525B.1.2.3,Phases=3,Linecode=CAB108_3_3,Length=0.013042000,Units=km
new line.TR4169173 bus1=BMT173055412.1.2.3,bus2=BMT173055414.1.2.3,Phases=3,Linecode=CAB108_3_3,Length=0.029128000,Units=km
new line.TR4169208 bus1=BMT2185443B.1.2.3,bus2=BMT173055415.1.2.3,Phases=3,Linecode=CAB108_3_3,Length=0.005387000,Units=km
new line.TR4169236 bus1=BMT2185457B.1.2.3,bus2=BMT2186486B.1.2.3,Phases=3,Linecode=CAB108_3_3,Length=0.029128000,Units=km
new line.TR4171973 bus1=BMT2186486B.1.2.3,bus2=BMT173055417.1.2.3,Phases=3,Linecode=CAB108_3_3,Length=0.023093000,Units=km
new line.TR4171987 bus1=BMT173055417.1.2.3,bus2=BMT2169175B.1.2.3,Phases=3,Linecode=CAB103_3_3,Length=0.035744000,Units=km
new line.TR4171994 bus1=BMT173055417.1.2.3,bus2=BMT173055419.1.2.3,Phases=3,Linecode=CAB108_3_3,Length=0.028167000,Units=km
new line.TR4172008 bus1=BMT173055419.1.2.3,bus2=BMT2186507B.1.2.3,Phases=3,Linecode=CAB108_3_3,Length=0.026577000,Units=km
new line.TR4172022 bus1=BMT2186507B.1.2.3,bus2=BMT99045417.1.2.3,Phases=3,Linecode=CAB108_3_3,Length=0.025560000,Units=km
new line.TR4172470 bus1=BMT2186696B.1.2.3,bus2=BMT173055902.1.2.3,Phases=3,Linecode=CABA06_3_3,Length=0.035009000,Units=km
new line.TR4232005 bus1=BMT2206618B.1.2.3,bus2=BMT135631288.1.2.3,Phases=3,Linecode=CAB103_3_3,Length=0.035449000,Units=km
new line.TR10157771 bus1=BMT6278057B.1.2.3,bus2=BMT104575676.1.2.3,Phases=3,Linecode=CAB108_3_3,Length=0.011049000,Units=km
new line.TR12103456 bus1=BMT163882625.1.2.3,bus2=BMT2264207B.1.2.3,Phases=3,Linecode=CABA06_3_3,Length=0.020254000,Units=km
new line.TR12103463 bus1=BMT2264207B.1.2.3,bus2=BMT2264186B.1.2.3,Phases=3,Linecode=CABA06_3_3,Length=0.020886000,Units=km
new line.TR12103470 bus1=BMT2264186B.1.2.3,bus2=BMT8224995B.1.2.3,Phases=3,Linecode=CABA06_3_3,Length=0.014146000,Units=km
new line.TR12103477 bus1=BMT8224995B.1.2.3,bus2=BMT8225002B.1.2.3,Phases=3,Linecode=CABA06_3_3,Length=0.044833000,Units=km
new line.TR12103484 bus1=BMT8225002B.1.2.3,bus2=BMT8225009B.1.2.3,Phases=3,Linecode=CABA06_3_3,Length=0.045233000,Units=km
new line.TR12103491 bus1=BMT8225009B.1.2.3,bus2=BMT163882626.1.2.3,Phases=3,Linecode=CABA06_3_3,Length=0.043277000,Units=km
new line.TR12103498 bus1=BMT163882626.1.2.3,bus2=BMT8225023B.1.2.3,Phases=3,Linecode=CABA06_3_3,Length=0.029689000,Units=km
new line.TR12103505 bus1=BMT8225023B.1.2.3,bus2=BMT8225030B.1.2.3,Phases=3,Linecode=CABA06_3_3,Length=0.028800000,Units=km
new line.TR12103512 bus1=BMT8225030B.1.2.3,bus2=BMT8225037B.1.2.3,Phases=3,Linecode=CABA06_3_3,Length=0.026083000,Units=km
new line.TR12103519 bus1=BMT8225037B.1.2.3,bus2=BMT8225044B.1.2.3,Phases=3,Linecode=CABA06_3_3,Length=0.028450000,Units=km
new line.TR12103554 bus1=BMT8225044B.1.2.3,bus2=BMT8225051B.1.2.3,Phases=3,Linecode=CABA06_3_3,Length=0.028869000,Units=km
new line.TR12103561 bus1=BMT8225051B.1.2.3,bus2=BMT8225058B.1.2.3,Phases=3,Linecode=CABA06_3_3,Length=0.033979000,Units=km
new line.TR12103575 bus1=BMT8225058B.1.2.3,bus2=BMT8225065B.1.2.3,Phases=3,Linecode=CABA06_3_3,Length=0.029554000,Units=km
new line.TR12103610 bus1=BMT8225065B.1.2.3,bus2=BMT8225072B.1.2.3,Phases=3,Linecode=CABA06_3_3,Length=0.041447000,Units=km
new line.TR12103652 bus1=BMT8225086B.1.2.3,bus2=BMT163882627.1.2.3,Phases=3,Linecode=CABA06_3_3,Length=0.044609000,Units=km
new line.TR4069255 bus1=BMT2149344B.1.2.3,bus2=BMT168899295.1.2.3,Phases=3,Linecode=CABA06_3_3,Length=0.027810000,Units=km
new line.TR4069283 bus1=BMT2149351B.1.2.3,bus2=BMT2149344B.1.2.3,Phases=3,Linecode=CABA06_3_3,Length=0.027593000,Units=km
new line.TR4069304 bus1=BMT2149358B.1.2.3,bus2=BMT2149351B.1.2.3,Phases=3,Linecode=CABA06_3_3,Length=0.027025000,Units=km
new line.TR4069332 bus1=BMT2149365B.1.2.3,bus2=BMT2149358B.1.2.3,Phases=3,Linecode=CABA06_3_3,Length=0.010299000,Units=km
new line.TR4069367 bus1=BMT2149372B.1.2.3,bus2=BMT2149365B.1.2.3,Phases=3,Linecode=CABA06_3_3,Length=0.022853000,Units=km
new line.TR4069388 bus1=BMT2149379B.1.2.3,bus2=BMT2149372B.1.2.3,Phases=3,Linecode=CABA06_3_3,Length=0.035364000,Units=km
new line.TR4069416 bus1=BMT168899294.1.2.3,bus2=BMT2149379B.1.2.3,Phases=3,Linecode=CABA06_3_3,Length=0.030422000,Units=km
new line.TR4135594 bus1=BMT2173438B.1.2.3,bus2=BMT2169476B.1.2.3,Phases=3,Linecode=CAB103_3_3,Length=0.027025000,Units=km
new line.TR4135636 bus1=BMT2173452B.1.2.3,bus2=BMT2173438B.1.2.3,Phases=3,Linecode=CAB103_3_3,Length=0.032581000,Units=km
new line.TR4135678 bus1=BMT2173473B.1.2.3,bus2=BMT2173452B.1.2.3,Phases=3,Linecode=CAB103_3_3,Length=0.035449000,Units=km
new line.TR4135699 bus1=BMT2173480B.1.2.3,bus2=BMT173055900.1.2.3,Phases=3,Linecode=CABA06_3_3,Length=0.033609000,Units=km
new line.TR4135720 bus1=BMT2173487B.1.2.3,bus2=BMT173055901.1.2.3,Phases=3,Linecode=CABA08_3_3,Length=0.037117000,Units=km
new line.TR4135727 bus1=BMT2173494B.1.2.3,bus2=BMT99045298.1.2.3,Phases=3,Linecode=CABA06_3_3,Length=0.027810000,Units=km
new line.TR4135748 bus1=BMT99046712.1.2.3,bus2=BMT2173515B.1.2.3,Phases=3,Linecode=CABA06_3_3,Length=0.030814000,Units=km
new line.TR4135769 bus1=BMT173055901.1.2.3,bus2=BMT3937473.1.2.3,Phases=3,Linecode=CAB108_3_3,Length=0.039570000,Units=km
new line.TR4135776 bus1=BMT173055929.1.2.3,bus2=BMT99045305.1.2.3,Phases=3,Linecode=CAB108_3_3,Length=0.028025000,Units=km
new line.TR4135790 bus1=BMT2173515B.1.2.3,bus2=BMT2173522B.1.2.3,Phases=3,Linecode=CABA06_3_3,Length=0.031409000,Units=km
new line.TR4135825 bus1=BMT2173522B.1.2.3,bus2=BMT2181215B.1.2.3,Phases=3,Linecode=CABA06_3_3,Length=0.027210000,Units=km
new line.TR4204012 bus1=BMT2197091B.1.2.3,bus2=BMT172076706.1.2.3,Phases=3,Linecode=CAB103_3_3,Length=0.036258000,Units=km
new line.TR4204040 bus1=BMT172076706.1.2.3,bus2=BMT2193626B.1.2.3,Phases=3,Linecode=CAB103_3_3,Length=0.041411000,Units=km
new line.TR4204047 bus1=BMT172076706.1.2.3,bus2=BMT172076708.1.2.3,Phases=3,Linecode=CAB103_3_3,Length=0.027521000,Units=km
new line.TR4204096 bus1=BMT172076708.1.2.3,bus2=BMT2197119B.1.2.3,Phases=3,Linecode=CAB103_3_3,Length=0.024358000,Units=km
new line.TR4204131 bus1=BMT2197119B.1.2.3,bus2=BMT2197126B.1.2.3,Phases=3,Linecode=CAB103_3_3,Length=0.032024000,Units=km
new line.TR4204152 bus1=BMT2197126B.1.2.3,bus2=BMT2197133B.1.2.3,Phases=3,Linecode=CAB103_3_3,Length=0.037117000,Units=km
new line.TR4204166 bus1=BMT2197133B.1.2.3,bus2=BMT2197140B.1.2.3,Phases=3,Linecode=CAB103_3_3,Length=0.025305000,Units=km
new line.TR4204194 bus1=BMT2197140B.1.2.3,bus2=BMT2197147B.1.2.3,Phases=3,Linecode=CAB103_3_3,Length=0.031249000,Units=km
new line.TR4204215 bus1=BMT2197147B.1.2.3,bus2=BMT2210461B.1.2.3,Phases=3,Linecode=CAB103_3_3,Length=0.029076000,Units=km
new line.TR4206980 bus1=BMT2198050B.1.2.3,bus2=BMT135833322.1.2.3,Phases=3,Linecode=CABA08_3_3,Length=0.022478000,Units=km
new line.TR4207036 bus1=BMT135833336.1.2.3,bus2=BMT2198050B.1.2.3,Phases=3,Linecode=CABA08_3_3,Length=0.039010000,Units=km
new line.TR4207043 bus1=BMT135833336.1.2.3,bus2=BMT2198085B.1.2.3,Phases=3,Linecode=CABA08_3_3,Length=0.031056000,Units=km
new line.TR4207078 bus1=BMT2198085B.1.2.3,bus2=BMT2198106B.1.2.3,Phases=3,Linecode=CABA08_3_3,Length=0.036148000,Units=km
new line.TR4207148 bus1=BMT2198106B.1.2.3,bus2=BMT2198113B.1.2.3,Phases=3,Linecode=CABA08_3_3,Length=0.034214000,Units=km
new line.TR4240356 bus1=BMT2209418B.1.2.3,bus2=BMT2198113B.1.2.3,Phases=3,Linecode=CABA08_3_3,Length=0.030091000,Units=km
new line.TR4240363 bus1=BMT2209418B.1.2.3,bus2=BMT2209446B.1.2.3,Phases=3,Linecode=CABA08_3_3,Length=0.030602000,Units=km
new line.TR4240391 bus1=BMT2209432B.1.2.3,bus2=BMT135833343.1.2.3,Phases=3,Linecode=CABA08_3_3,Length=0.009058000,Units=km
new line.TR4240888 bus1=BMT135833364.1.2.3,bus2=BMT2191225B.1.2.3,Phases=3,Linecode=CAB108_3_3,Length=0.037652000,Units=km
new line.TR4240895 bus1=BMT135833364.1.2.3,bus2=BMT135833350.1.2.3,Phases=3,Linecode=CAB108_3_3,Length=0.031329000,Units=km
new line.TR4240902 bus1=BMT135833364.1.2.3,bus2=BMT135833378.1.2.3,Phases=3,Linecode=CAB108_3_3,Length=0.027521000,Units=km
new line.TR4240923 bus1=BMT135833378.1.2.3,bus2=BMT130530297.1.2.3,Phases=3,Linecode=CAB108_3_3,Length=0.029418000,Units=km
new line.TR11638103 bus1=BMT3421349B.1.2.3,bus2=BMT110972591.1.2.3,Phases=3,Linecode=CAB108_3_3,Length=0.040172000,Units=km
new line.TR11638131 bus1=BMT110972591.1.2.3,bus2=BMT110972598.1.2.3,Phases=3,Linecode=CAB108_3_3,Length=0.021846000,Units=km
new line.TR11638166 bus1=BMT110972605.1.2.3,bus2=BMT110972612.1.2.3,Phases=3,Linecode=CAB902_4_3,Length=0.010443000,Units=km
new line.TR11977491 bus1=BMT136586480.1.2.3,bus2=BMT136586501.1.2.3,Phases=3,Linecode=CABA06_3_3,Length=0.029025000,Units=km
new line.TR3996392 bus1=BMT150339787.1.2.3,bus2=BMT99045151.1.2.3,Phases=3,Linecode=CAB108_3_3,Length=0.025305000,Units=km
new line.TR3996413 bus1=BMT169934925.1.2.3,bus2=BMT2123794B.1.2.3,Phases=3,Linecode=CAB108_3_3,Length=0.021407000,Units=km
new line.TR3996434 bus1=BMT2123794B.1.2.3,bus2=BMT169934926.1.2.3,Phases=3,Linecode=CAB108_3_3,Length=0.025006000,Units=km
new line.TR3996448 bus1=BMT169934926.1.2.3,bus2=BMT169934927.1.2.3,Phases=3,Linecode=CAB108_3_3,Length=0.022367000,Units=km
new line.TR3996469 bus1=BMT169934927.1.2.3,bus2=BMT4385718.1.2.3,Phases=3,Linecode=CABA08_3_3,Length=0.024419000,Units=km
new line.TR4114069 bus1=BMT2165549B.1.2.3,bus2=BMT172617900.1.2.3,Phases=3,Linecode=CAB103_3_3,Length=0.033609000,Units=km
new line.TR4114097 bus1=BMT172617898.1.2.3,bus2=BMT172617899.1.2.3,Phases=3,Linecode=CAB108_3_3,Length=0.035702000,Units=km
new line.TR4114104 bus1=BMT172617898.1.2.3,bus2=BMT2165549B.1.2.3,Phases=3,Linecode=CAB103_3_3,Length=0.035814000,Units=km
new line.TR4114111 bus1=BMT172617898.1.2.3,bus2=BMT2165570B.1.2.3,Phases=3,Linecode=CAB108_3_3,Length=0.025717000,Units=km
new line.TR4114139 bus1=BMT2165563B.1.2.3,bus2=BMT172617898.1.2.3,Phases=3,Linecode=CAB108_3_3,Length=0.030814000,Units=km
new line.TR4114153 bus1=BMT2165570B.1.2.3,bus2=BMT172617901.1.2.3,Phases=3,Linecode=CAB108_3_3,Length=0.028643000,Units=km
new line.TR4114181 bus1=BMT99045249.1.2.3,bus2=BMT2165584B.1.2.3,Phases=3,Linecode=CABA08_3_3,Length=0.028450000,Units=km
new line.TR4114202 bus1=BMT2165584B.1.2.3,bus2=BMT173055897.1.2.3,Phases=3,Linecode=CABA08_3_3,Length=0.011183000,Units=km
new line.TR4116435 bus1=BMT2166459B.1.2.3,bus2=BMT172617934.1.2.3,Phases=3,Linecode=CAB108_3_3,Length=0.029418000,Units=km
new line.TR4116526 bus1=BMT135833315.1.2.3,bus2=BMT2166522B.1.2.3,Phases=3,Linecode=CABA08_3_3,Length=0.034937000,Units=km
new line.TR4116561 bus1=BMT2166522B.1.2.3,bus2=BMT2183875B.1.2.3,Phases=3,Linecode=CABA08_3_3,Length=0.025502000,Units=km
new line.TR4150210 bus1=BMT2178380B.1.2.3,bus2=BMT2178373B.1.2.3,Phases=3,Linecode=CAB103_3_3,Length=0.020401000,Units=km
new line.TR4150217 bus1=BMT2178380B.1.2.3,bus2=BMT135833413.1.2.3,Phases=3,Linecode=CAB103_3_3,Length=0.036697000,Units=km
new line.TR4150238 bus1=BMT2178387B.1.2.3,bus2=BMT2178380B.1.2.3,Phases=3,Linecode=CAB103_3_3,Length=0.029740000,Units=km
new line.TR4150252 bus1=BMT2178394B.1.2.3,bus2=BMT2178387B.1.2.3,Phases=3,Linecode=CAB103_3_3,Length=0.029128000,Units=km
new line.TR4152527 bus1=BMT2179164B.1.2.3,bus2=BMT173055410.1.2.3,Phases=3,Linecode=CAB108_3_3,Length=0.006327000,Units=km
new line.TR4152555 bus1=BMT172076702.1.2.3,bus2=BMT2179178B.1.2.3,Phases=3,Linecode=CAB103_3_3,Length=0.029418000,Units=km
new line.TR4152583 bus1=BMT2179178B.1.2.3,bus2=BMT172076703.1.2.3,Phases=3,Linecode=CAB103_3_3,Length=0.038610000,Units=km
new line.TR4152611 bus1=BMT172076703.1.2.3,bus2=BMT2179192B.1.2.3,Phases=3,Linecode=CAB103_3_3,Length=0.033535000,Units=km
new line.TR4152632 bus1=BMT2179192B.1.2.3,bus2=BMT172076704.1.2.3,Phases=3,Linecode=CAB103_3_3,Length=0.033250000,Units=km
new line.TR4152702 bus1=BMT172076704.1.2.3,bus2=BMT172076705.1.2.3,Phases=3,Linecode=CAB002_3_3,Length=0.027521000,Units=km
new line.TR4152709 bus1=BMT172076704.1.2.3,bus2=BMT2179227B.1.2.3,Phases=3,Linecode=CAB103_3_3,Length=0.031329000,Units=km
new line.TR4152730 bus1=BMT172076705.1.2.3,bus2=BMT2197091B.1.2.3,Phases=3,Linecode=CAB103_3_3,Length=0.031329000,Units=km
new line.TR4219671 bus1=BMT135631253.1.2.3,bus2=BMT2202313B.1.2.3,Phases=3,Linecode=CABA08_3_3,Length=0.032288000,Units=km
new line.TR4219692 bus1=BMT2202313B.1.2.3,bus2=BMT135631260.1.2.3,Phases=3,Linecode=CABA08_3_3,Length=0.035912000,Units=km
new line.TR4219713 bus1=BMT135631260.1.2.3,bus2=BMT2202334B.1.2.3,Phases=3,Linecode=CABA08_3_3,Length=0.028869000,Units=km
new line.TR4219811 bus1=BMT135631281.1.2.3,bus2=BMT2202362B.1.2.3,Phases=3,Linecode=CAB103_3_3,Length=0.027210000,Units=km
new line.TR4219825 bus1=BMT2202362B.1.2.3,bus2=BMT2206618B.1.2.3,Phases=3,Linecode=CAB103_3_3,Length=0.031056000,Units=km
new line.TR4219853 bus1=BMT2202369B.1.2.3,bus2=BMT2218357B.1.2.3,Phases=3,Linecode=CABA08_3_3,Length=0.030372000,Units=km
new line.TR4271121 bus1=BMT173086532.1.2.3,bus2=BMT2220184B.1.2.3,Phases=3,Linecode=CAB108_3_3,Length=0.029128000,Units=km
new line.TR4271142 bus1=BMT2220184B.1.2.3,bus2=BMT2220191B.1.2.3,Phases=3,Linecode=CAB108_3_3,Length=0.030372000,Units=km
new line.TR4271163 bus1=BMT2220191B.1.2.3,bus2=BMT173086533.1.2.3,Phases=3,Linecode=CAB108_3_3,Length=0.029128000,Units=km
new line.TR4271177 bus1=BMT173086533.1.2.3,bus2=BMT173086534.1.2.3,Phases=3,Linecode=CABA08_3_3,Length=0.028800000,Units=km
new line.TR4271891 bus1=BMT164567802.1.2.3,bus2=BMT2220443B.1.2.3,Phases=3,Linecode=CABA06_3_3,Length=0.036410000,Units=km
new line.TR4271926 bus1=BMT2220478B.1.2.3,bus2=BMT164567802.1.2.3,Phases=3,Linecode=CAB103_3_3,Length=0.037652000,Units=km
new line.TR4271954 bus1=BMT164567801.1.2.3,bus2=BMT2220478B.1.2.3,Phases=3,Linecode=CAB103_3_3,Length=0.035449000,Units=km
new line.TR4271982 bus1=BMT2220492B.1.2.3,bus2=BMT164567801.1.2.3,Phases=3,Linecode=CAB103_3_3,Length=0.038337000,Units=km
new line.TR4273599 bus1=BMT2221031B.1.2.3,bus2=BMT153140004.1.2.3,Phases=3,Linecode=CAB103_3_3,Length=0.033250000,Units=km
new line.TR4273620 bus1=BMT2221038B.1.2.3,bus2=BMT2221031B.1.2.3,Phases=3,Linecode=CAB103_3_3,Length=0.032581000,Units=km
new line.TR4273641 bus1=BMT153140002.1.2.3,bus2=BMT2221038B.1.2.3,Phases=3,Linecode=CAB103_3_3,Length=0.030372000,Units=km
new line.TR4273648 bus1=BMT153140002.1.2.3,bus2=BMT2227450B.1.2.3,Phases=3,Linecode=CAB103_3_3,Length=0.037009000,Units=km
new line.TR4273655 bus1=BMT153140002.1.2.3,bus2=BMT2227457B.1.2.3,Phases=3,Linecode=CAB103_3_3,Length=0.038610000,Units=km
new line.TR4273683 bus1=BMT2221052B.1.2.3,bus2=BMT99045844.1.2.3,Phases=3,Linecode=CABA08_3_3,Length=0.041495000,Units=km
new line.TR4273711 bus1=BMT165878953.1.2.3,bus2=BMT2221052B.1.2.3,Phases=3,Linecode=CABA08_3_3,Length=0.042070000,Units=km
new line.TR4273739 bus1=BMT165878950.1.2.3,bus2=BMT165878953.1.2.3,Phases=3,Linecode=CABA08_3_3,Length=0.037652000,Units=km
new line.TR4273746 bus1=BMT165878950.1.2.3,bus2=BMT165878954.1.2.3,Phases=3,Linecode=CABA06_3_3,Length=0.025305000,Units=km
new line.TR11582194 bus1=BMT151993775.1.2.3,bus2=BMT151993776.1.2.3,Phases=3,Linecode=CABA06_3_3,Length=0.032993000,Units=km
new line.TR11582215 bus1=BMT151993776.1.2.3,bus2=BMT2280510B.1.2.3,Phases=3,Linecode=CAB902_4_3,Length=0.032765000,Units=km
new line.TR11582222 bus1=BMT2280510B.1.2.3,bus2=BMT151993777.1.2.3,Phases=3,Linecode=CAB902_4_3,Length=0.027900000,Units=km
new line.TR11582229 bus1=BMT151993777.1.2.3,bus2=BMT2274210B.1.2.3,Phases=3,Linecode=CABA06_3_3,Length=0.021937000,Units=km
new line.TR11582236 bus1=BMT2274210B.1.2.3,bus2=BMT2280524B.1.2.3,Phases=3,Linecode=CABA06_3_3,Length=0.031072000,Units=km
new line.TR11582243 bus1=BMT2280524B.1.2.3,bus2=BMT2278193B.1.2.3,Phases=3,Linecode=CABA06_3_3,Length=0.034141000,Units=km
new line.TR11582257 bus1=BMT2278193B.1.2.3,bus2=BMT2278179B.1.2.3,Phases=3,Linecode=CABA06_3_3,Length=0.034994000,Units=km
new line.TR11582264 bus1=BMT2278179B.1.2.3,bus2=BMT151993778.1.2.3,Phases=3,Linecode=CABA06_3_3,Length=0.032765000,Units=km
new line.TR12514750 bus1=BMT163077655.1.2.3,bus2=BMT2212680B.1.2.3,Phases=3,Linecode=CAB103_3_3,Length=0.029128000,Units=km
new line.TR12514754 bus1=BMT163077653.1.2.3,bus2=BMT2212680B.1.2.3,Phases=3,Linecode=CAB103_3_3,Length=0.006327000,Units=km
new line.TR4142370 bus1=BMT172617897.1.2.3,bus2=BMT2165563B.1.2.3,Phases=3,Linecode=CAB108_3_3,Length=0.043611000,Units=km
new line.TR4142391 bus1=BMT172617932.1.2.3,bus2=BMT172431481.1.2.3,Phases=3,Linecode=CAB108_3_3,Length=0.033023000,Units=km
new line.TR4142398 bus1=BMT172617932.1.2.3,bus2=BMT2175706B.1.2.3,Phases=3,Linecode=CAB108_3_3,Length=0.030814000,Units=km
new line.TR4142419 bus1=BMT2175706B.1.2.3,bus2=BMT172617933.1.2.3,Phases=3,Linecode=CAB108_3_3,Length=0.043022000,Units=km
new line.TR4142440 bus1=BMT172617933.1.2.3,bus2=BMT2175720B.1.2.3,Phases=3,Linecode=CAB108_3_3,Length=0.033023000,Units=km
new line.TR4142468 bus1=BMT2175720B.1.2.3,bus2=BMT2175727B.1.2.3,Phases=3,Linecode=CAB108_3_3,Length=0.035814000,Units=km
new line.TR4142496 bus1=BMT2175727B.1.2.3,bus2=BMT2166459B.1.2.3,Phases=3,Linecode=CAB108_3_3,Length=0.035814000,Units=km
new line.TR4213959 bus1=BMT2200409B.1.2.3,bus2=BMT165878959.1.2.3,Phases=3,Linecode=CAB103_3_3,Length=0.029128000,Units=km
new line.TR4213994 bus1=BMT165878949.1.2.3,bus2=BMT2200409B.1.2.3,Phases=3,Linecode=CAB103_3_3,Length=0.030372000,Units=km
new line.TR4214022 bus1=BMT165878948.1.2.3,bus2=BMT165878949.1.2.3,Phases=3,Linecode=CABA06_3_3,Length=0.030372000,Units=km
new line.TR4214029 bus1=BMT165878948.1.2.3,bus2=BMT165878950.1.2.3,Phases=3,Linecode=CABA08_3_3,Length=0.041772000,Units=km
new line.TR4214036 bus1=BMT165878948.1.2.3,bus2=BMT165878951.1.2.3,Phases=3,Linecode=CABA06_3_3,Length=0.030372000,Units=km
new line.TR4214085 bus1=BMT165878956.1.2.3,bus2=BMT2207948B.1.2.3,Phases=3,Linecode=CABA08_3_3,Length=0.008065000,Units=km
new line.TR4214092 bus1=BMT165878956.1.2.3,bus2=BMT2207969B.1.2.3,Phases=3,Linecode=CAB103_3_3,Length=0.014870000,Units=km
new line.TR4214127 bus1=BMT2200444B.1.2.3,bus2=BMT165878956.1.2.3,Phases=3,Linecode=CABA08_3_3,Length=0.018686000,Units=km
new line.TR4214169 bus1=BMT130448859.1.2.3,bus2=BMT130448866.1.2.3,Phases=3,Linecode=CABA06_3_3,Length=0.026007000,Units=km
new line.TR4214204 bus1=BMT158874407.1.2.3,bus2=BMT158874408.1.2.3,Phases=3,Linecode=CAB103_3_3,Length=0.033964000,Units=km
new line.TR4263141 bus1=BMT2217363B.1.2.3,bus2=BMT161489237.1.2.3,Phases=3,Linecode=CAB103_3_3,Length=0.037372000,Units=km
new line.TR4263176 bus1=BMT2217377B.1.2.3,bus2=BMT2217363B.1.2.3,Phases=3,Linecode=CAB103_3_3,Length=0.037957000,Units=km
new line.TR4263218 bus1=BMT2217391B.1.2.3,bus2=BMT2217377B.1.2.3,Phases=3,Linecode=CAB103_3_3,Length=0.038337000,Units=km
new line.TR4265976 bus1=BMT2218357B.1.2.3,bus2=BMT135631274.1.2.3,Phases=3,Linecode=CABA08_3_3,Length=0.030372000,Units=km
new line.TR4266004 bus1=BMT135619409.1.2.3,bus2=BMT2218371B.1.2.3,Phases=3,Linecode=CABA08_3_3,Length=0.028468000,Units=km
new line.TR4266032 bus1=BMT2218371B.1.2.3,bus2=BMT135633913.1.2.3,Phases=3,Linecode=CABA08_3_3,Length=0.003164000,Units=km
new line.TR4266060 bus1=BMT165878946.1.2.3,bus2=BMT165878947.1.2.3,Phases=3,Linecode=CABA08_3_3,Length=0.038337000,Units=km
new line.TR4266095 bus1=BMT2218392B.1.2.3,bus2=BMT130589797.1.2.3,Phases=3,Linecode=CABA08_3_3,Length=0.024006000,Units=km
new line.TR4266123 bus1=BMT164085912.1.2.3,bus2=BMT164085913.1.2.3,Phases=3,Linecode=CABA08_3_3,Length=0.034490000,Units=km
new line.TR4266151 bus1=BMT164085913.1.2.3,bus2=BMT2218413B.1.2.3,Phases=3,Linecode=CABA08_3_3,Length=0.033534000,Units=km
new line.TR4266179 bus1=BMT2218413B.1.2.3,bus2=BMT2218420B.1.2.3,Phases=3,Linecode=CABA08_3_3,Length=0.032288000,Units=km
new line.TR4266207 bus1=BMT2218420B.1.2.3,bus2=BMT2218427B.1.2.3,Phases=3,Linecode=CABA08_3_3,Length=0.030372000,Units=km
new line.TR4266221 bus1=BMT2218427B.1.2.3,bus2=BMT2226064B.1.2.3,Phases=3,Linecode=CABA08_3_3,Length=0.041772000,Units=km
new line.TR4266599 bus1=BMT2218567B.1.2.3,bus2=BMT158874410.1.2.3,Phases=3,Linecode=CAB103_3_3,Length=0.026255000,Units=km
new line.TR4266620 bus1=BMT2218574B.1.2.3,bus2=BMT2218567B.1.2.3,Phases=3,Linecode=CAB103_3_3,Length=0.027900000,Units=km
new line.TR4266648 bus1=BMT2218581B.1.2.3,bus2=BMT2218574B.1.2.3,Phases=3,Linecode=CAB103_3_3,Length=0.025305000,Units=km
new line.TR4266676 bus1=BMT158874409.1.2.3,bus2=BMT2218581B.1.2.3,Phases=3,Linecode=CAB103_3_3,Length=0.026577000,Units=km
new line.TR4266683 bus1=BMT158874409.1.2.3,bus2=BMT99045942.1.2.3,Phases=3,Linecode=CAB103_3_3,Length=0.021383000,Units=km
new line.TR4323691 bus1=BMT2238202B.1.2.3,bus2=BMT157315357.1.2.3,Phases=3,Linecode=CAB103_3_3,Length=0.030091000,Units=km
new line.TR4323712 bus1=BMT157315356.1.2.3,bus2=BMT2238202B.1.2.3,Phases=3,Linecode=CAB103_3_3,Length=0.030372000,Units=km
new line.TR4323719 bus1=BMT157315356.1.2.3,bus2=BMT2238216B.1.2.3,Phases=3,Linecode=CAB103_3_3,Length=0.042022000,Units=km
new line.TR4323761 bus1=BMT2238216B.1.2.3,bus2=BMT2255975B.1.2.3,Phases=3,Linecode=CAB103_3_3,Length=0.041022000,Units=km
new line.TR4323782 bus1=BMT2238223B.1.2.3,bus2=BMT157315356.1.2.3,Phases=3,Linecode=CAB103_3_3,Length=0.043335000,Units=km
new line.TR4323824 bus1=BMT157315355.1.2.3,bus2=BMT2238223B.1.2.3,Phases=3,Linecode=CAB103_3_3,Length=0.042070000,Units=km
new line.TR4323852 bus1=BMT136587859.1.2.3,bus2=BMT99045991.1.2.3,Phases=3,Linecode=CABA06_3_3,Length=0.018686000,Units=km
new line.TR4323859 bus1=BMT136587859.1.2.3,bus2=BMT136587866.1.2.3,Phases=3,Linecode=CABA08_3_3,Length=0.017809000,Units=km
new line.TR4328997 bus1=BMT2240169B.1.2.3,bus2=BMT99045963.1.2.3,Phases=3,Linecode=CAB103_3_3,Length=0.029128000,Units=km
new line.TR4388511 bus1=BMT2260525B.1.2.3,bus2=BMT2260532B.1.2.3,Phases=3,Linecode=CAB103_3_3,Length=0.020401000,Units=km
new line.TR4240937 bus1=BMT165878940.1.2.3,bus2=BMT165878941.1.2.3,Phases=3,Linecode=CAB108_3_3,Length=0.033535000,Units=km
new line.TR4240958 bus1=BMT165878941.1.2.3,bus2=BMT165878942.1.2.3,Phases=3,Linecode=CAB108_3_3,Length=0.018033000,Units=km
new line.TR4240965 bus1=BMT165878941.1.2.3,bus2=BMT99055931.1.2.3,Phases=3,Linecode=CAB108_3_3,Length=0.044396000,Units=km
new line.TR4241014 bus1=BMT173086530.1.2.3,bus2=BMT2213786B.1.2.3,Phases=3,Linecode=CAB108_3_3,Length=0.036410000,Units=km
new line.TR4243128 bus1=BMT2210454B.1.2.3,bus2=BMT172076709.1.2.3,Phases=3,Linecode=CAB103_3_3,Length=0.033609000,Units=km
new line.TR4243163 bus1=BMT2210461B.1.2.3,bus2=BMT2210468B.1.2.3,Phases=3,Linecode=CAB103_3_3,Length=0.029282000,Units=km
new line.TR4243198 bus1=BMT2210468B.1.2.3,bus2=BMT2210454B.1.2.3,Phases=3,Linecode=CAB103_3_3,Length=0.035449000,Units=km
new line.TR4243933 bus1=BMT2210748B.1.2.3,bus2=BMT2210776B.1.2.3,Phases=3,Linecode=CAB108_3_3,Length=0.020105000,Units=km
new line.TR4243982 bus1=BMT2210762B.1.2.3,bus2=BMT104575690.1.2.3,Phases=3,Linecode=CAB108_3_3,Length=0.006085000,Units=km
new line.TR4244003 bus1=BMT104575683.1.2.3,bus2=BMT2210762B.1.2.3,Phases=3,Linecode=CAB108_3_3,Length=0.024745000,Units=km
new line.TR4244031 bus1=BMT2210776B.1.2.3,bus2=BMT2210790B.1.2.3,Phases=3,Linecode=CAB108_3_3,Length=0.007213000,Units=km
new line.TR4244073 bus1=BMT2210783B.1.2.3,bus2=BMT104575683.1.2.3,Phases=3,Linecode=CAB108_3_3,Length=0.026933000,Units=km
new line.TR4244094 bus1=BMT2210790B.1.2.3,bus2=BMT2210783B.1.2.3,Phases=3,Linecode=CAB108_3_3,Length=0.013345000,Units=km
new line.TR4244178 bus1=BMT2210811B.1.2.3,bus2=BMT104575711.1.2.3,Phases=3,Linecode=CAB108_3_3,Length=0.030024000,Units=km
new line.TR4245725 bus1=BMT2211301B.1.2.3,bus2=BMT2189594B.1.2.3,Phases=3,Linecode=CAB103_3_3,Length=0.030372000,Units=km
new line.TR4245774 bus1=BMT130546040.1.2.3,bus2=BMT2211301B.1.2.3,Phases=3,Linecode=CAB103_3_3,Length=0.036410000,Units=km
new line.TR4245802 bus1=BMT2211329B.1.2.3,bus2=BMT165878943.1.2.3,Phases=3,Linecode=CABA08_3_3,Length=0.022366000,Units=km
new line.TR4245830 bus1=BMT165878944.1.2.3,bus2=BMT130543702.1.2.3,Phases=3,Linecode=CABA06_3_3,Length=0.019652000,Units=km
new line.TR4245837 bus1=BMT165878944.1.2.3,bus2=BMT2211329B.1.2.3,Phases=3,Linecode=CABA08_3_3,Length=0.019240000,Units=km
new line.TR4314731 bus1=BMT153140001.1.2.3,bus2=BMT2227443B.1.2.3,Phases=3,Linecode=CAB103_3_3,Length=0.040815000,Units=km
new line.TR4314738 bus1=BMT153140001.1.2.3,bus2=BMT2235073B.1.2.3,Phases=3,Linecode=CAB103_3_3,Length=0.034490000,Units=km
new line.TR4314759 bus1=BMT2235073B.1.2.3,bus2=BMT2235080B.1.2.3,Phases=3,Linecode=CAB103_3_3,Length=0.033534000,Units=km
new line.TR4314780 bus1=BMT2235080B.1.2.3,bus2=BMT153140003.1.2.3,Phases=3,Linecode=CAB103_3_3,Length=0.038610000,Units=km
new line.TR4316649 bus1=BMT2235710B.3,bus2=BMT99056519.3,Phases=1,Linecode=CAB103_3_1,Length=0.015137000,Units=km