new line.RML10035433 bus1=BBT1198223.1.2.3.0,bus2=RML1060035433.1.2.3.0,Phases=3,Linecode=CABBTG06_4_3,Length=0.017000000,Units=km
new line.RML10035659 bus1=BBT1200022.1.0,bus2=RML1060035659.1.0,Phases=1,Linecode=CABBTG02_4_1,Length=0.017000000,Units=km
new line.RML10035665 bus1=BBT1202535.1.0,bus2=RML1060035665.1.0,Phases=1,Linecode=CABBTG02_4_1,Length=0.029000000,Units=km
new line.RML10036092 bus1=BBT138814008.1.2.0,bus2=RML1060036092.1.2.0,Phases=2,Linecode=CABBTG05_4_2,Length=0.017000000,Units=km
new line.RML10036134 bus1=BBT1202444.1.2.0,bus2=RML1060036134.1.2.0,Phases=2,Linecode=CABBTG05_4_2,Length=0.029000000,Units=km
new line.RML10037977 bus1=BBT1336242.1.0,bus2=RML1060037977.1.0,Phases=1,Linecode=CABBTG02_4_1,Length=0.017000000,Units=km
new line.RML10041026 bus1=BBT2617900.2.3.0,bus2=RML1060041026.2.3.0,Phases=2,Linecode=CABBTG05_4_2,Length=0.017000000,Units=km
new line.RML10041439 bus1=BBT1189305.1.2.0,bus2=RML1060041439.1.2.0,Phases=2,Linecode=CABBTG05_4_2,Length=0.017000000,Units=km
new line.RML10041577 bus1=BBT1200155.1.2.3.0,bus2=RML1060041577.1.2.3.0,Phases=3,Linecode=CABBTG06_4_3,Length=0.017000000,Units=km
new line.RML10041760 bus1=BBT2071830.1.2.0,bus2=RML1060041760.1.2.0,Phases=2,Linecode=CABBTG05_4_2,Length=0.017000000,Units=km
new line.RML10041787 bus1=BBT1199735.1.0,bus2=RML1060041787.1.0,Phases=1,Linecode=CABBTG02_4_1,Length=0.017000000,Units=km
new line.RML10042044 bus1=BBT1196676.1.0,bus2=RML1060042044.1.0,Phases=1,Linecode=CABBTG02_4_1,Length=0.017000000,Units=km
new line.RML10042142 bus1=BBT1199147.1.0,bus2=RML1060042142.1.0,Phases=1,Linecode=CABBTG02_4_1,Length=0.017000000,Units=km
new line.RML10042176 bus1=BBT144735812.1.2.3.0,bus2=RML1060042176.1.2.3.0,Phases=3,Linecode=CABBTG06_4_3,Length=0.029000000,Units=km
new line.RML10042978 bus1=BBT1952592.1.2.0,bus2=RML1060042978.1.2.0,Phases=2,Linecode=CABBTG05_4_2,Length=0.017000000,Units=km
new line.RML10043018 bus1=BBT1191510.1.0,bus2=RML1060043018.1.0,Phases=1,Linecode=CABBTG02_4_1,Length=0.017000000,Units=km
new line.RML10043023 bus1=BBT1204950.1.2.3.0,bus2=RML1060043023.1.2.3.0,Phases=3,Linecode=CABBTG06_4_3,Length=0.017000000,Units=km
new line.RML10043051 bus1=BBT1202472.1.0,bus2=RML1060043051.1.0,Phases=1,Linecode=CABBTG02_4_1,Length=0.017000000,Units=km
new line.RML10043057 bus1=BBT1200155.1.2.3.0,bus2=RML1060043057.1.2.3.0,Phases=3,Linecode=CABBTG06_4_3,Length=0.017000000,Units=km
new line.RML10043315 bus1=BBT1203893.1.2.0,bus2=RML1060043315.1.2.0,Phases=2,Linecode=CABBTG05_4_2,Length=0.017000000,Units=km
new line.RML10043327 bus1=BBT1199203.1.2.0,bus2=RML1060043327.1.2.0,Phases=2,Linecode=CABBTG05_4_2,Length=0.017000000,Units=km
new line.RML10043418 bus1=BBT1202500.1.0,bus2=RML1060043418.1.0,Phases=1,Linecode=CABBTG02_4_1,Length=0.017000000,Units=km
new line.RML10043591 bus1=BBT1202444.1.2.0,bus2=RML1060043591.1.2.0,Phases=2,Linecode=CABBTG05_4_2,Length=0.029000000,Units=km
new line.RML10043603 bus1=BBT1200288.1.0,bus2=RML1060043603.1.0,Phases=1,Linecode=CABBTG02_4_1,Length=0.017000000,Units=km
new line.RML10046493 bus1=BBT2092137.1.0,bus2=RML1060046493.1.0,Phases=1,Linecode=CABBTG02_4_1,Length=0.017000000,Units=km
new line.RML10046514 bus1=BBT1205020.1.2.0,bus2=RML1060046514.1.2.0,Phases=2,Linecode=CABBTG05_4_2,Length=0.017000000,Units=km
new line.RML10046992 bus1=BBT2119549.1.0,bus2=RML1060046992.1.0,Phases=1,Linecode=CABBTG02_4_1,Length=0.017000000,Units=km
new line.RML10048579 bus1=BBT2406577.1.0,bus2=RML1060048579.1.0,Phases=1,Linecode=CABBTG02_4_1,Length=0.017000000,Units=km
new line.RML10050725 bus1=BBT146500281.1.2.0,bus2=RML1060050725.1.2.0,Phases=2,Linecode=CABBTG05_4_2,Length=0.010000000,Units=km
new line.RML10054213 bus1=BBT1242344.1.2.3.0,bus2=RML1060054213.1.2.3.0,Phases=3,Linecode=CABBTG07_4_3,Length=0.015000000,Units=km
new line.RML10054282 bus1=BBT148393768.1.2.0,bus2=RML1060054282.1.2.0,Phases=2,Linecode=CABBTG05_4_2,Length=0.024000000,Units=km
new line.RML10064815 bus1=BBT3331739.1.2.3.0,bus2=RML1060064815.1.2.3.0,Phases=3,Linecode=CABBTG06_4_3,Length=0.008000000,Units=km
new line.RML10069857 bus1=BBT1202108.2.3.0,bus2=RML1060069857.2.3.0,Phases=2,Linecode=CABBTG05_4_2,Length=0.010000000,Units=km
new line.RML10071021 bus1=BBT2278729.1.0,bus2=RML1060071021.1.0,Phases=1,Linecode=CABBTG01_4_1,Length=0.022000000,Units=km
new line.RML10074497 bus1=BBT147561579.1.2.0,bus2=RML1060074497.1.2.0,Phases=2,Linecode=CABBTG05_4_2,Length=0.017000000,Units=km
new line.RML10074584 bus1=BBT5538174.1.2.0,bus2=RML1060074584.1.2.0,Phases=2,Linecode=CABBTG05_4_2,Length=0.017000000,Units=km
new line.RML10075404 bus1=BBT2496282.1.0,bus2=RML1060075404.1.0,Phases=1,Linecode=CABBTG02_4_1,Length=0.017000000,Units=km
new line.RML10075693 bus1=BBT3038880.1.2.0,bus2=RML1060075693.1.2.0,Phases=2,Linecode=CABBTG05_4_2,Length=0.017000000,Units=km
new line.RML10075801 bus1=BBT1333897.1.2.0,bus2=RML1060075801.1.2.0,Phases=2,Linecode=CABBTG05_4_2,Length=0.017000000,Units=km
new line.RML10075884 bus1=BBT1420564.1.2.0,bus2=RML1060075884.1.2.0,Phases=2,Linecode=CABBTG05_4_2,Length=0.017000000,Units=km
new line.RML10076136 bus1=BBT3592419.1.2.0,bus2=RML1060076136.1.2.0,Phases=2,Linecode=CABBTG05_4_2,Length=0.017000000,Units=km
new line.RML10076461 bus1=BBT1333813.1.2.0,bus2=RML1060076461.1.2.0,Phases=2,Linecode=CABBTG05_4_2,Length=0.017000000,Units=km
new line.RML10077010 bus1=BBT1409588.1.2.0,bus2=RML1060077010.1.2.0,Phases=2,Linecode=CABBTG05_4_2,Length=0.017000000,Units=km
new line.RML10077516 bus1=BBT137235683.1.2.0,bus2=RML1060077516.1.2.0,Phases=2,Linecode=CABBTG05_4_2,Length=0.017000000,Units=km
new line.RML10078284 bus1=BBT1333813.1.2.0,bus2=RML1060078284.1.2.0,Phases=2,Linecode=CABBTG05_4_2,Length=0.017000000,Units=km
new line.RML10078297 bus1=BBT143052823.1.2.0,bus2=RML1060078297.1.2.0,Phases=2,Linecode=CABBTG05_4_2,Length=0.010000000,Units=km
new line.RML10078303 bus1=BBT143052837.1.2.0,bus2=RML1060078303.1.2.0,Phases=2,Linecode=CABBTG05_4_2,Length=0.017000000,Units=km
new line.RML10078402 bus1=BBT147411709.1.2.0,bus2=RML1060078402.1.2.0,Phases=2,Linecode=CABBTG05_4_2,Length=0.017000000,Units=km
new line.RML10078834 bus1=BBT1334359.1.2.0,bus2=RML1060078834.1.2.0,Phases=2,Linecode=CABBTG05_4_2,Length=0.017000000,Units=km
new line.RML10116899 bus1=BBT2254124.1.2.0,bus2=RML1060116899.1.2.0,Phases=2,Linecode=CABBTG05_4_2,Length=0.015000000,Units=km
new line.RML10121895 bus1=BBT1193463.1.2.0,bus2=RML1060121895.1.2.0,Phases=2,Linecode=CABBTG05_4_2,Length=0.017000000,Units=km
new line.RML10126437 bus1=BBT1199609.1.0,bus2=RML1060126437.1.0,Phases=1,Linecode=CABBTG02_4_1,Length=0.017000000,Units=km
new line.RML10126474 bus1=BBT1412829.1.2.0,bus2=RML1060126474.1.2.0,Phases=2,Linecode=CABBTG05_4_2,Length=0.017000000,Units=km
new line.RML10127189 bus1=BBT1241112.1.0,bus2=RML1060127189.1.0,Phases=1,Linecode=CABBTG02_4_1,Length=0.017000000,Units=km
new line.RML10127666 bus1=BBT1401041.1.2.0,bus2=RML1060127666.1.2.0,Phases=2,Linecode=CABBTG05_4_2,Length=0.017000000,Units=km
new line.RML10146837 bus1=BBT1191041.1.2.0,bus2=RML1060146837.1.2.0,Phases=2,Linecode=CABBTG05_4_2,Length=0.017000000,Units=km
new line.RML10147449 bus1=BBT127740778.1.2.0,bus2=RML1060147449.1.2.0,Phases=2,Linecode=CABBTG05_4_2,Length=0.017000000,Units=km
new line.RML10147735 bus1=BBT3592524.1.2.3.0,bus2=RML1060147735.1.2.3.0,Phases=3,Linecode=CABBTG10_4_3,Length=0.017000000,Units=km
new line.RML10147845 bus1=BBT2008480.1.2.3.0,bus2=RML1060147845.1.2.3.0,Phases=3,Linecode=CABBTG06_4_3,Length=0.017000000,Units=km
new line.RML10164570 bus1=BBT1188535.1.2.0,bus2=RML1060164570.1.2.0,Phases=2,Linecode=CABBTG05_4_2,Length=0.017000000,Units=km
new line.RML10164857 bus1=BBT1205832.1.2.0,bus2=RML1060164857.1.2.0,Phases=2,Linecode=CABBTG05_4_2,Length=0.017000000,Units=km
new line.RML10166307 bus1=BBT1189998.1.2.3.0,bus2=RML1060166307.1.2.3.0,Phases=3,Linecode=CABBTG06_4_3,Length=0.017000000,Units=km
new line.RML10166308 bus1=BBT5538174.1.0,bus2=RML1060166308.1.0,Phases=1,Linecode=CABBTG02_4_1,Length=0.017000000,Units=km
new line.RML10166764 bus1=BBT3331704.1.2.0,bus2=RML1060166764.1.2.0,Phases=2,Linecode=CABBTG05_4_2,Length=0.017000000,Units=km
new line.RML10167427 bus1=BBT148211864.1.2.0,bus2=RML1060167427.1.2.0,Phases=2,Linecode=CABBTG05_4_2,Length=0.017000000,Units=km
new line.RML10167498 bus1=BBT1333897.1.2.0,bus2=RML1060167498.1.2.0,Phases=2,Linecode=CABBTG05_4_2,Length=0.017000000,Units=km
new line.RML10167675 bus1=BBT1206560.1.2.3.0,bus2=RML1060167675.1.2.3.0,Phases=3,Linecode=CABBTG06_4_3,Length=0.017000000,Units=km
new line.RML10167730 bus1=BBT3331718.1.2.3.0,bus2=RML1060167730.1.2.3.0,Phases=3,Linecode=CABBTG06_4_3,Length=0.017000000,Units=km
new line.RML10167869 bus1=BBT1242358.1.2.3.0,bus2=RML1060167869.1.2.3.0,Phases=3,Linecode=CABBTG07_4_3,Length=0.017000000,Units=km
new line.RML10167929 bus1=BBT1204929.1.2.0,bus2=RML1060167929.1.2.0,Phases=2,Linecode=CABBTG05_4_2,Length=0.017000000,Units=km
new line.RML10167955 bus1=BBT1204929.1.2.0,bus2=RML1060167955.1.2.0,Phases=2,Linecode=CABBTG05_4_2,Length=0.017000000,Units=km
new line.RML10167962 bus1=BBT1189305.1.2.0,bus2=RML1060167962.1.2.0,Phases=2,Linecode=CABBTG05_4_2,Length=0.017000000,Units=km
new line.RML10167975 bus1=BBT1205727.1.2.3.0,bus2=RML1060167975.1.2.3.0,Phases=3,Linecode=CABBTG11_4_3,Length=0.029000000,Units=km
new line.RML10168217 bus1=BBT1335906.1.2.0,bus2=RML1060168217.1.2.0,Phases=2,Linecode=CABBTG05_4_2,Length=0.017000000,Units=km
new line.RML10168533 bus1=BBT2008424.2.0,bus2=RML1060168533.2.0,Phases=1,Linecode=CABBTG02_4_1,Length=0.028000000,Units=km
new line.RML10168538 bus1=BBT1199742.1.2.3.0,bus2=RML1060168538.1.2.3.0,Phases=3,Linecode=CABBTG06_4_3,Length=0.015000000,Units=km
new line.RML10168643 bus1=BBT1241084.2.0,bus2=RML1060168643.2.0,Phases=1,Linecode=CABBTG02_4_1,Length=0.023000000,Units=km
new line.RML10186531 bus1=BBT149193377.1.2.3.0,bus2=RML1060186531.1.2.3.0,Phases=3,Linecode=CABBTG06_4_3,Length=0.017000000,Units=km
new line.RML10195160 bus1=BBT1334359.1.0,bus2=RML1060195160.1.0,Phases=1,Linecode=CABBTG02_4_1,Length=0.017000000,Units=km
new line.RML10207702 bus1=BBT2319007.1.2.3.0,bus2=RML1060207702.1.2.3.0,Phases=3,Linecode=CABBTG06_4_3,Length=0.017000000,Units=km
new line.RML10209123 bus1=BBT1196452.2.3.0,bus2=RML1060209123.2.3.0,Phases=2,Linecode=CABBTG05_4_2,Length=0.017000000,Units=km
new line.RML10209127 bus1=BBT1205020.1.2.3.0,bus2=RML1060209127.1.2.3.0,Phases=3,Linecode=CABBTG06_4_3,Length=0.017000000,Units=km
new line.RML10209129 bus1=BBT1200526.1.0,bus2=RML1060209129.1.0,Phases=1,Linecode=CABBTG02_4_1,Length=0.017000000,Units=km
new line.RML10209134 bus1=BBT2318993.1.2.3.0,bus2=RML1060209134.1.2.3.0,Phases=3,Linecode=CABBTG06_4_3,Length=0.017000000,Units=km
new line.RML10210095 bus1=BBT172849506.1.2.3.0,bus2=RML1060210095.1.2.3.0,Phases=3,Linecode=CABBTG06_4_3,Length=0.017000000,Units=km
new line.RML10211875 bus1=BBT149583109.1.0,bus2=RML1060211875.1.0,Phases=1,Linecode=CABBTG02_4_1,Length=0.017000000,Units=km
new line.RML10227088 bus1=BBT3331746.2.0,bus2=RML1060227088.2.0,Phases=1,Linecode=CABBTG02_4_1,Length=0.017000000,Units=km
new line.RML10273871 bus1=BBT144735812.1.2.3.0,bus2=RML1060273871.1.2.3.0,Phases=3,Linecode=CABBTG06_4_3,Length=0.029000000,Units=km
new line.RML10274111 bus1=BBT1201744.1.2.0,bus2=RML1060274111.1.2.0,Phases=2,Linecode=CABBTG05_4_2,Length=0.017000000,Units=km
new line.RML10275129 bus1=BBT144735812.1.2.3.0,bus2=RML1060275129.1.2.3.0,Phases=3,Linecode=CABBTG06_4_3,Length=0.029000000,Units=km
new line.RML10275970 bus1=BBT1202542.1.2.3.0,bus2=RML1060275970.1.2.3.0,Phases=3,Linecode=CABBTG06_4_3,Length=0.029000000,Units=km
new line.RML10276075 bus1=BBT1194156.1.0,bus2=RML1060276075.1.0,Phases=1,Linecode=CABBTG02_4_1,Length=0.017000000,Units=km
new line.RML10276112 bus1=BBT1336186.1.0,bus2=RML1060276112.1.0,Phases=1,Linecode=CABBTG02_4_1,Length=0.017000000,Units=km
new line.RML10276489 bus1=BBT2008424.1.2.3.0,bus2=RML1060276489.1.2.3.0,Phases=3,Linecode=CABBTG06_4_3,Length=0.017000000,Units=km
new line.RML10278707 bus1=BBT2126115.2.0,bus2=RML1060278707.2.0,Phases=1,Linecode=CABBTG02_4_1,Length=0.017000000,Units=km
new line.RML10278874 bus1=BBT11576229.1.2.0,bus2=RML1060278874.1.2.0,Phases=2,Linecode=CABBTG05_4_2,Length=0.017000000,Units=km
new line.RML10296414 bus1=BBT1201632.1.2.3.0,bus2=RML1060296414.1.2.3.0,Phases=3,Linecode=CABBTG06_4_3,Length=0.017000000,Units=km
new line.RML10296484 bus1=BBT148580908.1.2.0,bus2=RML1060296484.1.2.0,Phases=2,Linecode=CABBTG05_4_2,Length=0.017000000,Units=km
new line.RML10298745 bus1=BBT150131714.1.2.3.0,bus2=RML1060298745.1.2.3.0,Phases=3,Linecode=CABBTG06_4_3,Length=0.017000000,Units=km
new line.RML10300762 bus1=BBT142908987.1.2.0,bus2=RML1060300762.1.2.0,Phases=2,Linecode=CABBTG05_4_2,Length=0.017000000,Units=km
new line.RML10322327 bus1=BBT1201632.1.2.3.0,bus2=RML1060322327.1.2.3.0,Phases=3,Linecode=CABBTG07_4_3,Length=0.017000000,Units=km
new line.RML10326492 bus1=BBT2119458.1.2.0,bus2=RML1060326492.1.2.0,Phases=2,Linecode=CABBTG05_4_2,Length=0.017000000,Units=km
new line.RML10331043 bus1=BBT1333743.1.2.0,bus2=RML1060331043.1.2.0,Phases=2,Linecode=CABBTG05_4_2,Length=0.017000000,Units=km
new line.RML10340947 bus1=BBT150134549.1.2.3.0,bus2=RML1060340947.1.2.3.0,Phases=3,Linecode=CABBTG06_4_3,Length=0.017000000,Units=km
new line.RML10340954 bus1=BBT1192322.1.2.0,bus2=RML1060340954.1.2.0,Phases=2,Linecode=CABBTG05_4_2,Length=0.017000000,Units=km
new line.RML10344513 bus1=BBT1242365.1.2.3.0,bus2=RML1060344513.1.2.3.0,Phases=3,Linecode=CABBTG06_4_3,Length=0.017000000,Units=km
new line.RML10344642 bus1=BBT3331697.1.2.0,bus2=RML1060344642.1.2.0,Phases=2,Linecode=CABBTG05_4_2,Length=0.017000000,Units=km
new line.RML10353556 bus1=BBT1195969.1.2.0,bus2=RML1060353556.1.2.0,Phases=2,Linecode=CABBTG05_4_2,Length=0.017000000,Units=km
new line.RML10353590 bus1=BBT1203907.1.2.0,bus2=RML1060353590.1.2.0,Phases=2,Linecode=CABBTG05_4_2,Length=0.017000000,Units=km
new line.RML10365412 bus1=BBT2617907.1.2.0,bus2=RML1060365412.1.2.0,Phases=2,Linecode=CABBTG05_4_2,Length=0.017000000,Units=km
new line.RML10371372 bus1=BBT3251197.1.2.0,bus2=RML1060371372.1.2.0,Phases=2,Linecode=CABBTG05_4_2,Length=0.017000000,Units=km
new line.RML10372195 bus1=BBT1205972.1.2.0,bus2=RML1060372195.1.2.0,Phases=2,Linecode=CABBTG05_4_2,Length=0.017000000,Units=km
new line.RML10372964 bus1=BBT4031039.1.2.3.0,bus2=RML1060372964.1.2.3.0,Phases=3,Linecode=CABBTG06_4_3,Length=0.017000000,Units=km
new line.RML10387823 bus1=BBT1333897.1.0,bus2=RML1060387823.1.0,Phases=1,Linecode=CABBTG02_4_1,Length=0.017000000,Units=km
new line.RML10395494 bus1=BBT1336158.1.0,bus2=RML1060395494.1.0,Phases=1,Linecode=CABBTG02_4_1,Length=0.012000000,Units=km
new line.RML10396629 bus1=BBT1204117.2.0,bus2=RML1060396629.2.0,Phases=1,Linecode=CABBTG02_4_1,Length=0.017000000,Units=km
new line.RML10397857 bus1=BBT163805273.1.0,bus2=RML1060397857.1.0,Phases=1,Linecode=CABBTG02_4_1,Length=0.017000000,Units=km
new line.RML10397957 bus1=BBT163804806.1.2.0,bus2=RML1060397957.1.2.0,Phases=2,Linecode=CABBTG05_4_2,Length=0.017000000,Units=km
new line.RML10398131 bus1=BBT1203466.1.2.0,bus2=RML1060398131.1.2.0,Phases=2,Linecode=CABBTG05_4_2,Length=0.017000000,Units=km
new line.RML10403402 bus1=BBT149193533.1.2.0,bus2=RML1060403402.1.2.0,Phases=2,Linecode=CABBTG04_4_2,Length=0.028000000,Units=km
new line.RML10403405 bus1=BBT5538174.1.2.0,bus2=RML1060403405.1.2.0,Phases=2,Linecode=CABBTG05_4_2,Length=0.017000000,Units=km
new line.RML10405016 bus1=BBT1192245.1.2.0,bus2=RML1060405016.1.2.0,Phases=2,Linecode=CABBTG05_4_2,Length=0.017000000,Units=km
new line.RML10405024 bus1=BBT1192714.1.2.0,bus2=RML1060405024.1.2.0,Phases=2,Linecode=CABBTG05_4_2,Length=0.017000000,Units=km
new line.RML10407655 bus1=BBT137437437.1.2.0,bus2=RML1060407655.1.2.0,Phases=2,Linecode=CABBTG05_4_2,Length=0.017000000,Units=km
new line.RML10407725 bus1=BBT1190915.2.3.0,bus2=RML1060407725.2.3.0,Phases=2,Linecode=CABBTG05_4_2,Length=0.017000000,Units=km
new line.RML10418715 bus1=BBT2008473.1.2.3.0,bus2=RML1060418715.1.2.3.0,Phases=3,Linecode=CABBTG06_4_3,Length=0.017000000,Units=km
new line.RML10419822 bus1=BBT1241091.1.0,bus2=RML1060419822.1.0,Phases=1,Linecode=CABBTG02_4_1,Length=0.017000000,Units=km
new line.RML10420752 bus1=BBT1190656.1.2.3.0,bus2=RML1060420752.1.2.3.0,Phases=3,Linecode=CABBTG06_4_3,Length=0.017000000,Units=km
new line.RML10424031 bus1=BBT1203515.1.0,bus2=RML1060424031.1.0,Phases=1,Linecode=CABBTG02_4_1,Length=0.017000000,Units=km
new line.RML10428802 bus1=BBT1200589.1.0,bus2=RML1060428802.1.0,Phases=1,Linecode=CABBTG02_4_1,Length=0.017000000,Units=km
new line.RML10430896 bus1=BBT2092137.1.2.3.0,bus2=RML1060430896.1.2.3.0,Phases=3,Linecode=CABBTG07_4_3,Length=0.017000000,Units=km
new line.RML10434189 bus1=BBT1192308.1.2.0,bus2=RML1060434189.1.2.0,Phases=2,Linecode=CABBTG05_4_2,Length=0.017000000,Units=km
new line.RML10438816 bus1=BBT1188801.1.0,bus2=RML1060438816.1.0,Phases=1,Linecode=CABBTG02_4_1,Length=0.017000000,Units=km
new line.RML10440858 bus1=BBT1194198.1.2.0,bus2=RML1060440858.1.2.0,Phases=2,Linecode=CABBTG05_4_2,Length=0.017000000,Units=km
new line.RML10444073 bus1=BBT2278617.1.2.0,bus2=RML1060444073.1.2.0,Phases=2,Linecode=CABBTG05_4_2,Length=0.017000000,Units=km
new line.RML10444145 bus1=BBT154209528.1.2.0,bus2=RML1060444145.1.2.0,Phases=2,Linecode=CABBTG05_4_2,Length=0.023000000,Units=km
new line.RML10444173 bus1=BBT1188528.2.0,bus2=RML1060444173.2.0,Phases=1,Linecode=CABBTG02_4_1,Length=0.017000000,Units=km
new line.RML10447138 bus1=BBT1201583.1.2.3.0,bus2=RML1060447138.1.2.3.0,Phases=3,Linecode=CABBTG09_4_3,Length=0.017000000,Units=km
new line.RML10447140 bus1=BBT1351978.1.0,bus2=RML1060447140.1.0,Phases=1,Linecode=CABBTG02_4_1,Length=0.017000000,Units=km
new line.RML10450120 bus1=BBT1310636.1.2.0,bus2=RML1060450120.1.2.0,Phases=2,Linecode=CABBTG05_4_2,Length=0.029000000,Units=km
new line.RML10450226 bus1=BBT1189459.1.0,bus2=RML1060450226.1.0,Phases=1,Linecode=CABBTG02_4_1,Length=0.017000000,Units=km
new line.RML10452258 bus1=BBT153895194.2.0,bus2=RML1060452258.2.0,Phases=1,Linecode=CABBTG02_4_1,Length=0.017000000,Units=km
new line.RML10456030 bus1=BBT1201751.1.2.3.0,bus2=RML1060456030.1.2.3.0,Phases=3,Linecode=CABBTG06_4_3,Length=0.017000000,Units=km
new line.RML10456038 bus1=BBT1336256.1.2.0,bus2=RML1060456038.1.2.0,Phases=2,Linecode=CABBTG05_4_2,Length=0.017000000,Units=km
new line.RML10456466 bus1=BBT2008459.1.2.0,bus2=RML1060456466.1.2.0,Phases=2,Linecode=CABBTG05_4_2,Length=0.017000000,Units=km
new line.RML10462786 bus1=BBT1193890.1.2.0,bus2=RML1060462786.1.2.0,Phases=2,Linecode=CABBTG05_4_2,Length=0.017000000,Units=km
new line.RML10467085 bus1=BBT1242379.1.3.0,bus2=RML1060467085.1.3.0,Phases=2,Linecode=CABBTG05_4_2,Length=0.013000000,Units=km
new line.RML10472096 bus1=BBT2939445.1.2.0,bus2=RML1060472096.1.2.0,Phases=2,Linecode=CABBTG05_4_2,Length=0.025000000,Units=km
new line.RML10490198 bus1=BBT154123214.1.0,bus2=RML1060490198.1.0,Phases=1,Linecode=CABBTG02_4_1,Length=0.017000000,Units=km
new line.RML10491727 bus1=BBT1192294.1.2.3.0,bus2=RML1060491727.1.2.3.0,Phases=3,Linecode=CABBTG06_4_3,Length=0.011000000,Units=km
new line.RML10492577 bus1=BBT1194765.1.0,bus2=RML1060492577.1.0,Phases=1,Linecode=CABBTG02_4_1,Length=0.017000000,Units=km
new line.RML10502636 bus1=BBT2008508.1.2.3.0,bus2=RML1060502636.1.2.3.0,Phases=3,Linecode=CABBTG06_4_3,Length=0.022000000,Units=km
new line.RML10512688 bus1=BBT2617263.1.2.0,bus2=RML1060512688.1.2.0,Phases=2,Linecode=CABBTG05_4_2,Length=0.010000000,Units=km
new line.RML10519155 bus1=BBT1200603.1.2.3.0,bus2=RML1060519155.1.2.3.0,Phases=3,Linecode=CABBTG06_4_3,Length=0.017000000,Units=km
new line.RML10521358 bus1=BBT1333687.1.0,bus2=RML1060521358.1.0,Phases=1,Linecode=CABBTG02_4_1,Length=0.010000000,Units=km
new line.RML10531363 bus1=BBT2868136.1.0,bus2=RML1060531363.1.0,Phases=1,Linecode=CABBTG02_4_1,Length=0.017000000,Units=km
new line.RML10532536 bus1=BBT156450897.2.0,bus2=RML1060532536.2.0,Phases=1,Linecode=CABBTG02_4_1,Length=0.009000000,Units=km
new line.RML10535823 bus1=BBT155239477.1.2.3.0,bus2=RML1060535823.1.2.3.0,Phases=3,Linecode=CABBTG06_4_3,Length=0.025000000,Units=km
new line.RML10535825 bus1=BBT147411709.1.2.0,bus2=RML1060535825.1.2.0,Phases=2,Linecode=CABBTG05_4_2,Length=0.024000000,Units=km
new line.RML10535841 bus1=BBT147411709.1.2.0,bus2=RML1060535841.1.2.0,Phases=2,Linecode=CABBTG05_4_2,Length=0.027000000,Units=km
new line.RML10535843 bus1=BBT1201247.1.2.0,bus2=RML1060535843.1.2.0,Phases=2,Linecode=CABBTG05_4_2,Length=0.017000000,Units=km
new line.RML10537195 bus1=BBT1205755.1.2.3.0,bus2=RML1060537195.1.2.3.0,Phases=3,Linecode=CABBTG06_4_3,Length=0.029000000,Units=km
new line.RML10537758 bus1=BBT1193498.2.0,bus2=RML1060537758.2.0,Phases=1,Linecode=CABBTG02_4_1,Length=0.012000000,Units=km
new line.RML10537760 bus1=BBT3271371.2.0,bus2=RML1060537760.2.0,Phases=1,Linecode=CABBTG02_4_1,Length=0.010000000,Units=km
new line.RML10544011 bus1=BBT156469312.1.2.0,bus2=RML1060544011.1.2.0,Phases=2,Linecode=CABBTG05_4_2,Length=0.020000000,Units=km
new line.RML10544255 bus1=BBT2119500.1.3.0,bus2=RML1060544255.1.3.0,Phases=2,Linecode=CABBTG05_4_2,Length=0.025000000,Units=km
new line.RML10550507 bus1=BBT155235860.1.2.3.0,bus2=RML1060550507.1.2.3.0,Phases=3,Linecode=CABBTG06_4_3,Length=0.020000000,Units=km
new line.RML10553331 bus1=BBT119252788.1.0,bus2=RML1060553331.1.0,Phases=1,Linecode=CABBTG02_4_1,Length=0.020000000,Units=km
new line.RML10554825 bus1=BBT2119493.1.2.0,bus2=RML1060554825.1.2.0,Phases=2,Linecode=CABBT811_4_2,Length=0.012000000,Units=km
new line.RML10558991 bus1=BBT1336312.1.2.0,bus2=RML1060558991.1.2.0,Phases=2,Linecode=CABBTG05_4_2,Length=0.014000000,Units=km
new line.RML10558995 bus1=BBT1336368.1.2.0,bus2=RML1060558995.1.2.0,Phases=2,Linecode=CABBTG05_4_2,Length=0.024000000,Units=km
new line.RML10563333 bus1=BBT2319042.1.2.0,bus2=RML1060563333.1.2.0,Phases=2,Linecode=CABBTG05_4_2,Length=0.017000000,Units=km
new line.RML10575850 bus1=BBT157618358.1.2.0,bus2=RML1060575850.1.2.0,Phases=2,Linecode=CABBTG05_4_2,Length=0.010000000,Units=km
new line.RML10575916 bus1=BBT1200694.1.2.3.0,bus2=RML1060575916.1.2.3.0,Phases=3,Linecode=CABBTG07_4_3,Length=0.029000000,Units=km
new line.RML10575921 bus1=BBT164705559.1.2.0,bus2=RML1060575921.1.2.0,Phases=2,Linecode=CABBTG05_4_2,Length=0.017000000,Units=km
new line.RML10575946 bus1=BBT1412857.1.2.3.0,bus2=RML1060575946.1.2.3.0,Phases=3,Linecode=CABBTG07_4_3,Length=0.013000000,Units=km
new line.RML10575995 bus1=BBT2319042.1.2.3.0,bus2=RML1060575995.1.2.3.0,Phases=3,Linecode=CABBTG06_4_3,Length=0.011000000,Units=km
new line.RML10580567 bus1=BBT1197075.2.0,bus2=RML1060580567.2.0,Phases=1,Linecode=CABBTG02_4_1,Length=0.017000000,Units=km
new line.RML10582204 bus1=BBT157771988.1.2.0,bus2=RML1060582204.1.2.0,Phases=2,Linecode=CABBTG05_4_2,Length=0.022000000,Units=km
new line.RML10582404 bus1=BBT157773358.1.0,bus2=RML1060582404.1.0,Phases=1,Linecode=CABBTG02_4_1,Length=0.019000000,Units=km
new line.RML10583108 bus1=BBT157771988.1.0,bus2=RML1060583108.1.0,Phases=1,Linecode=CABBTG02_4_1,Length=0.026000000,Units=km
new line.RML10583703 bus1=BBT157065061.1.2.3.0,bus2=RML1060583703.1.2.3.0,Phases=3,Linecode=CABBT804_4_3,Length=0.020000000,Units=km
new line.RML10586262 bus1=BBT2119465.1.2.3.0,bus2=RML1060586262.1.2.3.0,Phases=3,Linecode=CABBTG06_4_3,Length=0.016000000,Units=km
new line.RML10591903 bus1=BBT1201240.1.0,bus2=RML1060591903.1.0,Phases=1,Linecode=CABBTG02_4_1,Length=0.030000000,Units=km
new line.RML10594151 bus1=BBT1334625.1.0,bus2=RML1060594151.1.0,Phases=1,Linecode=CABBTG02_4_1,Length=0.014000000,Units=km
new line.RML10594187 bus1=BBT1241028.1.2.0,bus2=RML1060594187.1.2.0,Phases=2,Linecode=CABBTG05_4_2,Length=0.010000000,Units=km
new line.RML10599563 bus1=BBT2494854.1.2.0,bus2=RML1060599563.1.2.0,Phases=2,Linecode=CABBT811_4_2,Length=0.006000000,Units=km
new line.RML10603333 bus1=BBT2000913.1.0,bus2=RML1060603333.1.0,Phases=1,Linecode=CABBTG02_4_1,Length=0.030000000,Units=km
new line.RML10603344 bus1=BBT1197670.1.2.0,bus2=RML1060603344.1.2.0,Phases=2,Linecode=CABBTG05_4_2,Length=0.009000000,Units=km
new line.RML10612667 bus1=BBT1242344.1.2.0,bus2=RML1060612667.1.2.0,Phases=2,Linecode=CABBTG05_4_2,Length=0.017000000,Units=km
new line.RML10613656 bus1=BBT1190950.1.2.3.0,bus2=RML1060613656.1.2.3.0,Phases=3,Linecode=CABBTG06_4_3,Length=0.013000000,Units=km
new line.RML10622429 bus1=BBT2602031.1.2.0,bus2=RML1060622429.1.2.0,Phases=2,Linecode=CABBTG05_4_2,Length=0.014000000,Units=km
new line.RML10622467 bus1=BBT3331760.1.2.3.0,bus2=RML1060622467.1.2.3.0,Phases=3,Linecode=CABBTG06_4_3,Length=0.017000000,Units=km
new line.RML10622475 bus1=BBT1200526.1.2.0,bus2=RML1060622475.1.2.0,Phases=2,Linecode=CABBTG05_4_2,Length=0.025000000,Units=km
new line.RML10622498 bus1=BBT1244276.2.0,bus2=RML1060622498.2.0,Phases=1,Linecode=CABBTG02_4_1,Length=0.017000000,Units=km
new line.RML10622501 bus1=BBT2254103.1.2.0,bus2=RML1060622501.1.2.0,Phases=2,Linecode=CABBTG05_4_2,Length=0.011000000,Units=km
new line.RML10622503 bus1=BBT1196438.1.2.0,bus2=RML1060622503.1.2.0,Phases=2,Linecode=CABBTG05_4_2,Length=0.017000000,Units=km
new line.RML10622505 bus1=BBT1200939.1.0,bus2=RML1060622505.1.0,Phases=1,Linecode=CABBTG02_4_1,Length=0.017000000,Units=km
new line.RML10623591 bus1=BBT2008501.2.3.0,bus2=RML1060623591.2.3.0,Phases=2,Linecode=CABBTG05_4_2,Length=0.017000000,Units=km
new line.RML10625106 bus1=BBT2119500.1.3.0,bus2=RML1060625106.1.3.0,Phases=2,Linecode=CABBTG05_4_2,Length=0.012000000,Units=km
new line.RML10625111 bus1=BBT1200946.1.2.0,bus2=RML1060625111.1.2.0,Phases=2,Linecode=CABBTG05_4_2,Length=0.010000000,Units=km
new line.RML10636129 bus1=BBT88526162.1.2.3.0,bus2=RML1060636129.1.2.3.0,Phases=3,Linecode=CABBTG06_4_3,Length=0.015000000,Units=km
new line.RML10638362 bus1=BBT2126108.2.3.0,bus2=RML1060638362.2.3.0,Phases=2,Linecode=CABBTG05_4_2,Length=0.008000000,Units=km
new line.RML10644414 bus1=BBT1202402.1.2.3.0,bus2=RML1060644414.1.2.3.0,Phases=3,Linecode=CABBT809_4_3,Length=0.018000000,Units=km
new line.RML10647710 bus1=BBT1336312.1.0,bus2=RML1060647710.1.0,Phases=1,Linecode=CABBTG02_4_1,Length=0.017000000,Units=km
new line.RML10647715 bus1=BBT1336312.1.2.0,bus2=RML1060647715.1.2.0,Phases=2,Linecode=CABBTG05_4_2,Length=0.017000000,Units=km
new line.RML10647718 bus1=BBT1336312.1.0,bus2=RML1060647718.1.0,Phases=1,Linecode=CABBTG02_4_1,Length=0.017000000,Units=km
new line.RML10647723 bus1=BBT1194331.1.2.0,bus2=RML1060647723.1.2.0,Phases=2,Linecode=CABBTG05_4_2,Length=0.016000000,Units=km
new line.RML10660110 bus1=BBT1201240.1.2.0,bus2=RML1060660110.1.2.0,Phases=2,Linecode=CABBTG05_4_2,Length=0.015000000,Units=km
new line.RML10664178 bus1=BBT1196886.1.2.3.0,bus2=RML1060664178.1.2.3.0,Phases=3,Linecode=CABBT812_4_3,Length=0.020000000,Units=km
new line.RML10666484 bus1=BBT1199413.1.2.0,bus2=RML1060666484.1.2.0,Phases=2,Linecode=CABBTG05_4_2,Length=0.020000000,Units=km
new line.RML10670577 bus1=BBT1192420.1.2.3.0,bus2=RML1060670577.1.2.3.0,Phases=3,Linecode=CABBTG06_4_3,Length=0.017000000,Units=km
new line.RML10678668 bus1=BBT149583109.1.2.0,bus2=RML1060678668.1.2.0,Phases=2,Linecode=CABBTG05_4_2,Length=0.017000000,Units=km
new line.RML10679225 bus1=BBT1205692.2.0,bus2=RML1060679225.2.0,Phases=1,Linecode=CABBTG01_4_1,Length=0.017000000,Units=km
new line.RML10682406 bus1=BBT1196774.1.2.0,bus2=RML1060682406.1.2.0,Phases=2,Linecode=CABBTG05_4_2,Length=0.029000000,Units=km
new line.RML10692279 bus1=BBT2131638.1.2.0,bus2=RML1060692279.1.2.0,Phases=2,Linecode=CABBTG05_4_2,Length=0.017000000,Units=km
new line.RML10696807 bus1=BBT1350144.1.2.0,bus2=RML1060696807.1.2.0,Phases=2,Linecode=CABBTG05_4_2,Length=0.017000000,Units=km
new line.RML10697676 bus1=BBT161704876.1.2.0,bus2=RML1060697676.1.2.0,Phases=2,Linecode=CABBT801_4_2,Length=0.018000000,Units=km
new line.RML10699564 bus1=BBT1197824.1.3.0,bus2=RML1060699564.1.3.0,Phases=2,Linecode=CABBTG05_4_2,Length=0.017000000,Units=km
new line.RML10699569 bus1=BBT1189074.3.0,bus2=RML1060699569.3.0,Phases=1,Linecode=CABBTG02_4_1,Length=0.017000000,Units=km
new line.RML10704378 bus1=BBT2617900.1.2.3.0,bus2=RML1060704378.1.2.3.0,Phases=3,Linecode=CABBTG06_4_3,Length=0.015000000,Units=km
new line.RML10704381 bus1=BBT3331746.1.2.0,bus2=RML1060704381.1.2.0,Phases=2,Linecode=CABBTG05_4_2,Length=0.017000000,Units=km
new line.RML10705436 bus1=BBT162151459.1.0,bus2=RML1060705436.1.0,Phases=1,Linecode=CABBTG02_4_1,Length=0.017000000,Units=km
new line.RML10705656 bus1=BBT1412864.1.2.3.0,bus2=RML1060705656.1.2.3.0,Phases=3,Linecode=CABBTG06_4_3,Length=0.010000000,Units=km
new line.RML10712081 bus1=BBT2494868.1.0,bus2=RML1060712081.1.0,Phases=1,Linecode=CABBTG02_4_1,Length=0.017000000,Units=km
new line.RML10712084 bus1=BBT2319042.1.2.0,bus2=RML1060712084.1.2.0,Phases=2,Linecode=CABBTG05_4_2,Length=0.012000000,Units=km
new line.RML10712086 bus1=BBT1350004.1.2.0,bus2=RML1060712086.1.2.0,Phases=2,Linecode=CABBTG05_4_2,Length=0.015000000,Units=km
new line.RML10717530 bus1=BBT162926637.1.0,bus2=RML1060717530.1.0,Phases=1,Linecode=CABBTG02_4_1,Length=0.020000000,Units=km
new line.RML10717531 bus1=BBT156469312.1.0,bus2=RML1060717531.1.0,Phases=1,Linecode=CABBTG02_4_1,Length=0.020000000,Units=km
new line.RML10717625 bus1=BBT2319042.1.2.0,bus2=RML1060717625.1.2.0,Phases=2,Linecode=CABBT811_4_2,Length=0.009000000,Units=km
new line.RML10718029 bus1=BBT1336312.1.2.0,bus2=RML1060718029.1.2.0,Phases=2,Linecode=CABBTG05_4_2,Length=0.017000000,Units=km
new line.RML10718031 bus1=BBT2254103.1.0,bus2=RML1060718031.1.0,Phases=1,Linecode=CABBTG02_4_1,Length=0.017000000,Units=km
new line.RML10719947 bus1=BBT1199602.1.0,bus2=RML1060719947.1.0,Phases=1,Linecode=CABBTG02_4_1,Length=0.017000000,Units=km
new line.RML10721214 bus1=BBT1311350.1.0,bus2=RML1060721214.1.0,Phases=1,Linecode=CABBTG02_4_1,Length=0.017000000,Units=km
new line.RML10721219 bus1=BBT155235958.1.2.3.0,bus2=RML1060721219.1.2.3.0,Phases=3,Linecode=CABBTG06_4_3,Length=0.017000000,Units=km