new line.CTR100840 bus1=BMT126745700.1.2.3,bus2=BMT169212064.1.2.3,Phases=3,LineCode=tieSwitch,Length=0.001,Units=km,switch=T !numEQ 77797
new line.CTR100847 bus1=BMT126745749.1.2.3,bus2=BMT152971332.1.2.3,Phases=3,LineCode=tieSwitch,Length=0.001,Units=km,switch=T !numEQ 76651
new line.CTR100854 bus1=BMT126745777.1.2.3,bus2=BMT164344871.1.2.3,Phases=3,LineCode=tieSwitch,Length=0.001,Units=km,switch=T !numEQ 75719
new line.CTR100875 bus1=BMT157419789.1.2.3,bus2=BMT126745847.1.2.3,Phases=3,LineCode=tieSwitch,Length=0.001,Units=km,switch=T !numEQ 76649
new line.CTR100882 bus1=BMT126745882.1.2.3,bus2=BMT126745959.1.2.3,Phases=3,LineCode=tieSwitch,Length=0.001,Units=km,switch=T !numEQ 8139
new line.CTR100889 bus1=BMT126745798.1.2.3,bus2=BMT157419797.1.2.3,Phases=3,LineCode=tieSwitch,Length=0.001,Units=km,switch=T !numEQ 76647
open line.CTR100889 term=1
new line.CTR100896 bus1=BMT126745910.1.2.3,bus2=BMT148858758.1.2.3,Phases=3,LineCode=tieSwitch,Length=0.001,Units=km,switch=T !numEQ 75542
new line.CTR100903 bus1=BMT148858762.1.2.3,bus2=BMT156820988.1.2.3,Phases=3,LineCode=tieSwitch,Length=0.001,Units=km,switch=T !numEQ 25687
new line.CTR100924 bus1=BMT126746092.1.2.3,bus2=BMT169125765.1.2.3,Phases=3,LineCode=tieSwitch,Length=0.001,Units=km,switch=T !numEQ 76658
new line.CTR100931 bus1=BMT126746435.1.2.3,bus2=BMT126753148.1.2.3,Phases=3,LineCode=tieSwitch,Length=0.001,Units=km,switch=T !numEQ 75546
new line.CTR100952 bus1=BMT126746407.1.2.3,bus2=BMT168991601.1.2.3,Phases=3,LineCode=tieSwitch,Length=0.001,Units=km,switch=T !numEQ 76673
new line.CTR100966 bus1=BMT126746526.1.2.3,bus2=BMT165045047.1.2.3,Phases=3,LineCode=tieSwitch,Length=0.001,Units=km,switch=T !numEQ 75894
new line.CTR100973 bus1=BMT157063055.1.2.3,bus2=BMT157063060.1.2.3,Phases=3,LineCode=tieSwitch,Length=0.001,Units=km,switch=T !numEQ 76544
new line.CTR100980 bus1=BMT126746183.1.2.3,bus2=BMT156992941.1.2.3,Phases=3,LineCode=tieSwitch,Length=0.001,Units=km,switch=T !numEQ 74031
new line.CTR100987 bus1=BMT126746190.1.2.3,bus2=BMT138775585.1.2.3,Phases=3,LineCode=tieSwitch,Length=0.001,Units=km,switch=T !numEQ 76662
new line.CTR100994 bus1=BMT126746211.1.2.3,bus2=BMT126746295.1.2.3,Phases=3,LineCode=tieSwitch,Length=0.001,Units=km,switch=T !numEQ 76661
new line.CTR101008 bus1=BMT126747513.1.2.3,bus2=BMT171120786.1.2.3,Phases=3,LineCode=tieSwitch,Length=0.001,Units=km,switch=T !numEQ 75627
new line.CTR101022 bus1=BMT126752924.1.2.3,bus2=BMT126752938.1.2.3,Phases=3,LineCode=tieSwitch,Length=0.001,Units=km,switch=T !numEQ 75892
new line.CTR101043 bus1=BMT126747730.2,bus2=BMT126747737.2,Phases=1,LineCode=tieSwitch1,Length=0.001,Units=km,switch=T !numEQ 26447
new line.CTR101092 bus1=BMT126748745.1,bus2=BMT163805430.1,Phases=1,LineCode=tieSwitch1,Length=0.001,Units=km,switch=T !numEQ 77882
new line.CTR101099 bus1=BMT127226719.3,bus2=BMT127226747.3,Phases=1,LineCode=tieSwitch1,Length=0.001,Units=km,switch=T !numEQ 8066
new line.CTR101190 bus1=BMT126751748.1,bus2=BMT169408021.1,Phases=1,LineCode=tieSwitch1,Length=0.001,Units=km,switch=T !numEQ 75751
new line.CTR101197 bus1=BMT126752147.1,bus2=BMT169272776.1,Phases=1,LineCode=tieSwitch1,Length=0.001,Units=km,switch=T !numEQ 75538
new line.CTR101204 bus1=BMT126752217.1,bus2=BMT126752392.1,Phases=1,LineCode=tieSwitch1,Length=0.001,Units=km,switch=T !numEQ 74457
new line.CTR101218 bus1=BMT126751853.1,bus2=BMT168923504.1,Phases=1,LineCode=tieSwitch1,Length=0.001,Units=km,switch=T !numEQ 75353
new line.CTR101232 bus1=BMT126750705.3,bus2=BMT126751251.3,Phases=1,LineCode=tieSwitch1,Length=0.001,Units=km,switch=T !numEQ 25776
new line.CTR101239 bus1=BMT126750803.3,bus2=BMT126751230.3,Phases=1,LineCode=tieSwitch1,Length=0.001,Units=km,switch=T !numEQ 75254
new line.CTR101246 bus1=BMT126750817.3,bus2=BMT152970798.3,Phases=1,LineCode=tieSwitch1,Length=0.001,Units=km,switch=T !numEQ 8039
new line.CTR101253 bus1=BMT126750859.3,bus2=BMT173119442.3,Phases=1,LineCode=tieSwitch1,Length=0.001,Units=km,switch=T !numEQ 8042
new line.CTR101267 bus1=BMT126751363.2,bus2=BMT126751510.2,Phases=1,LineCode=tieSwitch1,Length=0.001,Units=km,switch=T !numEQ 74919
new line.CTR101274 bus1=BMT126751398.2,bus2=BMT126751419.2,Phases=1,LineCode=tieSwitch1,Length=0.001,Units=km,switch=T !numEQ 25703
new line.CTR101281 bus1=BMT126746127.1.2.3,bus2=BMT126746148.1.2.3,Phases=3,LineCode=tieSwitch,Length=0.001,Units=km,switch=T !numEQ 75547
new line.CTR101295 bus1=BMT157071858.1.2.3,bus2=BMT2097240.1.2.3,Phases=3,LineCode=tieSwitch,Length=0.001,Units=km,switch=T !numEQ 76645
open line.CTR101295 term=1
new line.CTR101302 bus1=BMT126753309.1.2.3,bus2=BMT126753337.1.2.3,Phases=3,LineCode=tieSwitch,Length=0.001,Units=km,switch=T !numEQ 75567
new line.CTR101309 bus1=BMT126753211.1.2.3,bus2=BMT126753253.1.2.3,Phases=3,LineCode=tieSwitch,Length=0.001,Units=km,switch=T !numEQ 76654
new line.CTR101323 bus1=BMT148858763.1.2.3,bus2=BMT1696343.1.2.3,Phases=3,LineCode=tieSwitch,Length=0.001,Units=km,switch=T !numEQ 76666
open line.CTR101323 term=1
new line.CTR12801 bus1=BMT126746638.1.2.3,bus2=BMT173192119.1.2.3,Phases=3,LineCode=tieSwitch,Length=0.001,Units=km,switch=T !numEQ 125188
new line.CTR12850 bus1=BMT126746050.1.2.3,bus2=BMT126746057.1.2.3,Phases=3,LineCode=tieSwitch,Length=0.001,Units=km,switch=T !numEQ 76657
new line.CTR12871 bus1=BMT126745693.1.2.3,bus2=BMT126753414.1.2.3,Phases=3,LineCode=tieSwitch,Length=0.001,Units=km,switch=T !numEQ 125199
new line.CTR129155 bus1=BMT126752875.1.2.3,bus2=BMT149192899.1.2.3,Phases=3,LineCode=tieSwitch,Length=0.001,Units=km,switch=T !numEQ 74034
new line.CTR356803 bus1=BMT126751384.2,bus2=BMT126751482.2,Phases=1,LineCode=tieSwitch1,Length=0.001,Units=km,switch=T !numEQ 229878
new line.CTR3575 bus1=BMT152971345.1.2.3,bus2=BMT2098220.1.2.3,Phases=3,LineCode=tieSwitch,Length=0.001,Units=km,switch=T !numEQ 76652
open line.CTR3575 term=1
new line.CTR45771 bus1=BMT126747548.2,bus2=BMT126753099.2,Phases=1,LineCode=tieSwitch1,Length=0.001,Units=km,switch=T !numEQ 110590
new line.CTR868479 bus1=BMT155236335.1.2.3,bus2=BMT164382308.1.2.3,Phases=3,LineCode=tieSwitch,Length=0.001,Units=km,switch=T !numEQ 385069
new line.CTR868491 bus1=BMT155238873.3,bus2=BMT169148551.3,Phases=1,LineCode=tieSwitch1,Length=0.001,Units=km,switch=T !numEQ 385070
new line.CTR868492 bus1=BMT155238920.1.2.3,bus2=BMT160817209.1.2.3,Phases=3,LineCode=tieSwitch,Length=0.001,Units=km,switch=T !numEQ 242183
new line.CTR868643 bus1=BMT172200365.1.2.3,bus2=BMT172200366.1.2.3,Phases=3,LineCode=tieSwitch,Length=0.001,Units=km,switch=T !numEQ 242245
new line.CTR887932 bus1=BMT162152165.2,bus2=BMT162152210.2,Phases=1,LineCode=tieSwitch1,Length=0.001,Units=km,switch=T !numEQ 242124
new line.CTR11303 bus1=BMT171120787.1.2.3,bus2=BMT171120788.1.2.3,Phases=3,LineCode=tieSwitch,Length=0.001,Units=km,switch=T !numEQ 75552
new line.CTR113776 bus1=BMT127338929.1.2.3,bus2=BMT141676623.1.2.3,Phases=3,LineCode=tieSwitch,Length=0.001,Units=km,switch=T !numEQ 75711
new line.CTR155489 bus1=BMT126752252.1,bus2=BMT126752294.1,Phases=1,LineCode=tieSwitch1,Length=0.001,Units=km,switch=T !numEQ 115897
new line.CTR156777 bus1=BMT126753197.1.2.3,bus2=BMT135453686.1.2.3,Phases=3,LineCode=tieSwitch,Length=0.001,Units=km,switch=T !numEQ 76655
new line.CTR15678 bus1=BMT126747604.1.2.3,bus2=BMT173076834.1.2.3,Phases=3,LineCode=tieSwitch,Length=0.001,Units=km,switch=T !numEQ 74032
new line.CTR18597 bus1=BMT126750292.3,bus2=BMT127219838.3,Phases=1,LineCode=tieSwitch1,Length=0.001,Units=km,switch=T !numEQ 75065
new line.CTR33010 bus1=BMT126751818.1,bus2=BMT140945235.1,Phases=1,LineCode=tieSwitch1,Length=0.001,Units=km,switch=T !numEQ 77881
new line.CTR416205 bus1=BMT134255860.1.2.3,bus2=BMT134255902.1.2.3,Phases=3,LineCode=tieSwitch,Length=0.001,Units=km,switch=T !numEQ 209697
new line.CTR449182 bus1=BMT142913355.3,bus2=BMT142913635.3,Phases=1,LineCode=tieSwitch1,Length=0.001,Units=km,switch=T !numEQ 309564
new line.CTR449742 bus1=BMT143057128.2,bus2=BMT162195729.2,Phases=1,LineCode=tieSwitch1,Length=0.001,Units=km,switch=T !numEQ 313353
new line.CTR44987 bus1=BMT126753015.1.2.3,bus2=BMT172849467.1.2.3,Phases=3,LineCode=tieSwitch,Length=0.001,Units=km,switch=T !numEQ 154693
new line.CTR860234 bus1=BMT152859454.2,bus2=BMT152859474.2,Phases=1,LineCode=tieSwitch1,Length=0.001,Units=km,switch=T !numEQ 385642
new line.CTR860471 bus1=BMT152918014.1,bus2=BMT152918018.1,Phases=1,LineCode=tieSwitch1,Length=0.001,Units=km,switch=T !numEQ 235621
new line.CTR860767 bus1=BMT152970807.3,bus2=BMT160849907.3,Phases=1,LineCode=tieSwitch1,Length=0.001,Units=km,switch=T !numEQ 235607
new line.CTR872449 bus1=BMT156450911.2,bus2=BMT156450912.2,Phases=1,LineCode=tieSwitch1,Length=0.001,Units=km,switch=T !numEQ 238691
new line.CTR884634 bus1=BMT160867226.2,bus2=BMT169125346.2,Phases=1,LineCode=tieSwitch1,Length=0.001,Units=km,switch=T !numEQ 242240
new line.CTR914268 bus1=BMT171496304.1,bus2=BMT171496933.1,Phases=1,LineCode=tieSwitch1,Length=0.001,Units=km,switch=T !numEQ 232258
new line.CTR915058 bus1=BMT171713719.2,bus2=BMT171713753.2,Phases=1,LineCode=tieSwitch1,Length=0.001,Units=km,switch=T !numEQ 274293
new line.CTR915059 bus1=BMT171713783.1.2.3,bus2=BMT171714062.1.2.3,Phases=3,LineCode=tieSwitch,Length=0.001,Units=km,switch=T !numEQ 274294
new line.CTR915060 bus1=BMT171714063.1.2.3,bus2=BMT173266272.1.2.3,Phases=3,LineCode=tieSwitch,Length=0.001,Units=km,switch=T !numEQ 274295
new line.CTR915064 bus1=BMT173266288.1,bus2=BMT173266300.1,Phases=1,LineCode=tieSwitch1,Length=0.001,Units=km,switch=T !numEQ 274296
new line.CTR915622 bus1=BMT171903564.3,bus2=BMT171903575.3,Phases=1,LineCode=tieSwitch1,Length=0.001,Units=km,switch=T !numEQ 325715
new line.CTR103990 bus1=BMT2091395.1.2.3,bus2=BMT170061453.1.2.3,Phases=3,LineCode=tieSwitch,Length=0.001,Units=km,switch=T !numEQ 74037
new line.CTR10456 bus1=BMT126752868.1.2.3,bus2=BMT126752882.1.2.3,Phases=3,LineCode=tieSwitch,Length=0.001,Units=km,switch=T !numEQ 74035
new line.CTR11695 bus1=BMT126746757.1.2.3,bus2=BMT159224356.1.2.3,Phases=3,LineCode=tieSwitch,Length=0.001,Units=km,switch=T !numEQ 76678
new line.CTR117374 bus1=BMT152973260.2,bus2=BMT152973268.2,Phases=1,LineCode=tieSwitch1,Length=0.001,Units=km,switch=T !numEQ 136866
new line.CTR131724 bus1=BMT126751762.1,bus2=BMT126751993.1,Phases=1,LineCode=tieSwitch1,Length=0.001,Units=km,switch=T !numEQ 153549
new line.CTR132704 bus1=BMT164705617.1.2.3,bus2=BMT157627355.1.2.3,Phases=3,LineCode=tieSwitch,Length=0.001,Units=km,switch=T !numEQ 112219
open line.CTR132704 term=1
new line.CTR13298 bus1=BMT126746862.1.2.3,bus2=BMT173099347.1.2.3,Phases=3,LineCode=tieSwitch,Length=0.001,Units=km,switch=T !numEQ 75561
new line.CTR33262 bus1=BMT126747618.1.2.3,bus2=BMT126748556.1.2.3,Phases=3,LineCode=tieSwitch,Length=0.001,Units=km,switch=T !numEQ 137175
new line.CTR8965 bus1=BMT126748591.1.2.3,bus2=BMT161718260.1.2.3,Phases=3,LineCode=tieSwitch,Length=0.001,Units=km,switch=T !numEQ 117436
new line.CTR907225 bus1=BMT169147428.3,bus2=BMT169718431.3,Phases=1,LineCode=tieSwitch1,Length=0.001,Units=km,switch=T !numEQ 154896
new line.CTR908025 bus1=BMT170061454.1.2.3,bus2=BMT169429363.1.2.3,Phases=3,LineCode=tieSwitch,Length=0.001,Units=km,switch=T !numEQ 277522
new line.CTRR117 bus1=BMT126747457.1.2.3,bus2=BMT164705612.1.2.3,Phases=3,LineCode=tieSwitch,Length=0.001,Units=km,switch=T !numEQ 105771
new line.CTRR16148 bus1=BMT126746064.1.2.3,bus2=BMT126746071.1.2.3,Phases=3,LineCode=tieSwitch,Length=0.001,Units=km,switch=T !numEQ 232346
new line.CTRR16155 bus1=BMT172200460.1.2.3,bus2=BMT172200461.1.2.3,Phases=3,LineCode=tieSwitch,Length=0.001,Units=km,switch=T !numEQ 232312
new line.CTR11065 bus1=BMT90672236.1.2.3,bus2=BMT126743243.1.2.3,Phases=3,LineCode=tieSwitch,Length=0.001,Units=km,switch=T !numEQ 74030
new line.CTR11093 bus1=BMT126746540.1.2.3,bus2=BMT158080178.1.2.3,Phases=3,LineCode=tieSwitch,Length=0.001,Units=km,switch=T !numEQ 75545
new line.CTR12388 bus1=BMT157065261.1.2.3,bus2=BMT157065327.1.2.3,Phases=3,LineCode=tieSwitch,Length=0.001,Units=km,switch=T !numEQ 125823
new line.CTR153935 bus1=BMT126747807.2,bus2=BMT126748486.2,Phases=1,LineCode=tieSwitch1,Length=0.001,Units=km,switch=T !numEQ 138839
new line.CTR183615 bus1=BMT126747870.2,bus2=BMT126748465.2,Phases=1,LineCode=tieSwitch1,Length=0.001,Units=km,switch=T !numEQ 25709
new line.CTR19878 bus1=BMT127224675.3,bus2=BMT127225970.3,Phases=1,LineCode=tieSwitch1,Length=0.001,Units=km,switch=T !numEQ 142221
new line.CTR44259 bus1=BMT126746022.1.2.3,bus2=BMT148875593.1.2.3,Phases=3,LineCode=tieSwitch,Length=0.001,Units=km,switch=T !numEQ 75543
new line.CTR464610 bus1=BMT147180562.2,bus2=BMT168200127.2,Phases=1,LineCode=tieSwitch1,Length=0.001,Units=km,switch=T !numEQ 305437
new line.CTR464624 bus1=BMT147183670.2,bus2=BMT147201534.2,Phases=1,LineCode=tieSwitch1,Length=0.001,Units=km,switch=T !numEQ 305439
new line.CTR465289 bus1=BMT147410827.3,bus2=BMT147432891.3,Phases=1,LineCode=tieSwitch1,Length=0.001,Units=km,switch=T !numEQ 312045
new line.CTR64370 bus1=BMT126746708.1.2.3,bus2=BMT126747226.1.2.3,Phases=3,LineCode=tieSwitch,Length=0.001,Units=km,switch=T !numEQ 75570
new line.CTR847686 bus1=BMT149192906.1.2.3,bus2=BMT162354189.1.2.3,Phases=3,LineCode=tieSwitch,Length=0.001,Units=km,switch=T !numEQ 316613
new line.CTR889627 bus1=BMT171714481.1,bus2=BMT171714504.1,Phases=1,LineCode=tieSwitch1,Length=0.001,Units=km,switch=T !numEQ 154255
new line.CTR9356897 bus1=BMT2201105197.1.2.3,bus2=BMT2009357209.1.2.3,Phases=3,LineCode=tieSwitch,Length=0.001,Units=km,switch=T !numEQ 
new line.CTR9356913 bus1=BMT2009356648.1.2.3,bus2=BMT2201105197.1.2.3,Phases=3,LineCode=tieSwitch,Length=0.001,Units=km,switch=T !numEQ 
new line.CTR9357355 bus1=BMT2009357209.1.2.3,bus2=BMT2009357356.1.2.3,Phases=3,LineCode=tieSwitch,Length=0.001,Units=km,switch=T !numEQ 
new line.CTR94617 bus1=BMT126752231.1,bus2=BMT162500383.1,Phases=1,LineCode=tieSwitch1,Length=0.001,Units=km,switch=T !numEQ 100925
new line.CTRR25822 bus1=BMT147201541.2,bus2=BMT173271496.2,Phases=1,LineCode=tieSwitch1,Length=0.001,Units=km,switch=T !numEQ 305435
new line.CTR165275 bus1=BMT126747772.2,bus2=BMT126748514.2,Phases=1,LineCode=tieSwitch1,Length=0.001,Units=km,switch=T !numEQ 139691
new line.CTR165289 bus1=BMT126753218.1.2.3,bus2=BMT157071854.1.2.3,Phases=3,LineCode=tieSwitch,Length=0.001,Units=km,switch=T !numEQ 76646
new line.CTR165303 bus1=BMT126746246.1.2.3,bus2=BMT157627350.1.2.3,Phases=3,LineCode=tieSwitch,Length=0.001,Units=km,switch=T !numEQ 76698
new line.CTR180010 bus1=BMT126747884.2,bus2=BMT159220734.2,Phases=1,LineCode=tieSwitch1,Length=0.001,Units=km,switch=T !numEQ 194426
new line.CTR271 bus1=BMT126745735.1.2.3,bus2=BMT126753386.1.2.3,Phases=3,LineCode=tieSwitch,Length=0.001,Units=km,switch=T !numEQ 125207
new line.CTR351077 bus1=BMT126748395.2,bus2=BMT166740850.2,Phases=1,LineCode=tieSwitch1,Length=0.001,Units=km,switch=T !numEQ 232231
new line.CTR373512 bus1=BMT126746421.1.2.3,bus2=BMT126753162.1.2.3,Phases=3,LineCode=tieSwitch,Length=0.001,Units=km,switch=T !numEQ 209955
new line.CTR375577 bus1=BMT127339531.1.2.3,bus2=BMT169742031.1.2.3,Phases=3,LineCode=tieSwitch,Length=0.001,Units=km,switch=T !numEQ 287493
new line.CTR433180 bus1=BMT138789956.2,bus2=BMT160868321.2,Phases=1,LineCode=tieSwitch1,Length=0.001,Units=km,switch=T !numEQ 304789
new line.CTR63026 bus1=BMT126751321.2,bus2=BMT126751559.2,Phases=1,LineCode=tieSwitch1,Length=0.001,Units=km,switch=T !numEQ 8040
new line.CTR919321 bus1=BMT173076845.2,bus2=BMT173076849.2,Phases=1,LineCode=tieSwitch1,Length=0.001,Units=km,switch=T !numEQ 278117
new line.CTR14817 bus1=BMT126748668.1.2.3,bus2=BMT171713826.1.2.3,Phases=3,LineCode=tieSwitch,Length=0.001,Units=km,switch=T !numEQ 75632
new line.CTR163119 bus1=BMT170784977.1.2.3,bus2=BMT168003088.1.2.3,Phases=3,LineCode=tieSwitch,Length=0.001,Units=km,switch=T !numEQ 76675
new line.CTR163231 bus1=BMT126746498.1.2.3,bus2=BMT170784967.1.2.3,Phases=3,LineCode=tieSwitch,Length=0.001,Units=km,switch=T !numEQ 76674
new line.CTR178995 bus1=BMT126746365.1.2.3,bus2=BMT150126484.1.2.3,Phases=3,LineCode=tieSwitch,Length=0.001,Units=km,switch=T !numEQ 153672
new line.CTR19402 bus1=BMT126747996.2,bus2=BMT162359982.2,Phases=1,LineCode=tieSwitch1,Length=0.001,Units=km,switch=T !numEQ 75636
new line.CTR863981 bus1=BMT153895446.2,bus2=BMT153895457.2,Phases=1,LineCode=tieSwitch1,Length=0.001,Units=km,switch=T !numEQ 373056
new line.CTR880617 bus1=BMT159095379.3,bus2=BMT159095650.3,Phases=1,LineCode=tieSwitch1,Length=0.001,Units=km,switch=T !numEQ 238611
new line.CTRR35181 bus1=BMT157063059.1.2.3,bus2=BMT1696357.1.2.3,Phases=3,LineCode=tieSwitch,Length=0.001,Units=km,switch=T !numEQ 232281
open line.CTRR35181 term=1
new line.CTR888410 bus1=BMT162359991.2,bus2=BMT162359995.2,Phases=1,LineCode=tieSwitch1,Length=0.001,Units=km,switch=T !numEQ 242206
new line.CTR102065 bus1=BMT168464021.3,bus2=BMT168464078.3,Phases=1,LineCode=tieSwitch1,Length=0.001,Units=km,switch=T !numEQ 75539
new line.CTR102247 bus1=BMT126747289.1.2.3,bus2=BMT126747310.1.2.3,Phases=3,LineCode=tieSwitch,Length=0.001,Units=km,switch=T !numEQ 75609
new line.CTR102254 bus1=BMT126747380.1.2.3,bus2=BMT157501508.1.2.3,Phases=3,LineCode=tieSwitch,Length=0.001,Units=km,switch=T !numEQ 77993
new line.CTR102275 bus1=BMT126746848.1.2.3,bus2=BMT164650753.1.2.3,Phases=3,LineCode=tieSwitch,Length=0.001,Units=km,switch=T !numEQ 75560
new line.CTR102303 bus1=BMT126747030.2,bus2=BMT126747037.2,Phases=1,LineCode=tieSwitch1,Length=0.001,Units=km,switch=T !numEQ 75732
new line.CTR130310 bus1=BMT126746673.1.2.3,bus2=BMT126746694.1.2.3,Phases=3,LineCode=tieSwitch,Length=0.001,Units=km,switch=T !numEQ 138950
new line.CTR145703 bus1=BMT126747625.1.2.3,bus2=BMT170061412.1.2.3,Phases=3,LineCode=tieSwitch,Length=0.001,Units=km,switch=T !numEQ 75756
new line.CTR145948 bus1=BMT126747016.1.2.3,bus2=BMT126747058.1.2.3,Phases=3,LineCode=tieSwitch,Length=0.001,Units=km,switch=T !numEQ 75758
new line.CTR159367 bus1=BMT126747653.3,bus2=BMT126748542.3,Phases=1,LineCode=tieSwitch1,Length=0.001,Units=km,switch=T !numEQ 139100
new line.CTR159486 bus1=BMT126747961.2,bus2=BMT156450898.2,Phases=1,LineCode=tieSwitch1,Length=0.001,Units=km,switch=T !numEQ 139700
new line.CTR159892 bus1=BMT157419801.1.2.3,bus2=BMT126745945.1.2.3,Phases=3,LineCode=tieSwitch,Length=0.001,Units=km,switch=T !numEQ 75762
open line.CTR159892 term=1
new line.CTR42565 bus1=BMT126752686.2,bus2=BMT160868325.2,Phases=1,LineCode=tieSwitch1,Length=0.001,Units=km,switch=T !numEQ 153552
new line.CTRR20145 bus1=BMT138086540.3,bus2=BMT172926692.3,Phases=1,LineCode=tieSwitch1,Length=0.001,Units=km,switch=T !numEQ 302962
new line.CTRR2042 bus1=BMT126748563.1.2.3,bus2=BMT171903552.1.2.3,Phases=3,LineCode=tieSwitch,Length=0.001,Units=km,switch=T !numEQ 153631
new line.CTRR9092 bus1=BMT126747744.2,bus2=BMT162152155.2,Phases=1,LineCode=tieSwitch1,Length=0.001,Units=km,switch=T !numEQ 100937
new line.CTR12192 bus1=BMT126747240.1.2.3,bus2=BMT126747429.1.2.3,Phases=3,LineCode=tieSwitch,Length=0.001,Units=km,switch=T !numEQ 124903
new line.CTR138444 bus1=BMT126748612.3,bus2=BMT168749915.3,Phases=1,LineCode=tieSwitch1,Length=0.001,Units=km,switch=T !numEQ 75740
new line.CTR181984 bus1=BMT126748311.2,bus2=BMT126748318.2,Phases=1,LineCode=tieSwitch1,Length=0.001,Units=km,switch=T !numEQ 142826
new line.CTR182208 bus1=BMT126746666.1.2.3,bus2=BMT126747450.1.2.3,Phases=3,LineCode=tieSwitch,Length=0.001,Units=km,switch=T !numEQ 102945
new line.CTR182264 bus1=BMT150134102.1.2.3,bus2=BMT150134534.1.2.3,Phases=3,LineCode=tieSwitch,Length=0.001,Units=km,switch=T !numEQ 155056
new line.CTR373099 bus1=BMT126746764.1.2.3,bus2=BMT172200364.1.2.3,Phases=3,LineCode=tieSwitch,Length=0.001,Units=km,switch=T !numEQ 232311
new line.CTR373113 bus1=BMT126746827.1.2.3,bus2=BMT166817913.1.2.3,Phases=3,LineCode=tieSwitch,Length=0.001,Units=km,switch=T !numEQ 232313
new line.CTR373134 bus1=BMT126746078.1.2.3,bus2=BMT157063053.1.2.3,Phases=3,LineCode=tieSwitch,Length=0.001,Units=km,switch=T !numEQ 232345
new line.CTR430366 bus1=BMT138012382.3,bus2=BMT138086533.3,Phases=1,LineCode=tieSwitch1,Length=0.001,Units=km,switch=T !numEQ 302961
new line.CTR431388 bus1=BMT138327368.1,bus2=BMT138327396.1,Phases=1,LineCode=tieSwitch1,Length=0.001,Units=km,switch=T !numEQ 300478
new line.CTR462517 bus1=BMT146570421.1.2.3,bus2=BMT169444487.1.2.3,Phases=3,LineCode=tieSwitch,Length=0.001,Units=km,switch=T !numEQ 302826
new line.CTR53373 bus1=BMT126751769.1,bus2=BMT152918007.1,Phases=1,LineCode=tieSwitch1,Length=0.001,Units=km,switch=T !numEQ 75750
new line.CTR876343 bus1=BMT157618481.3,bus2=BMT172040698.3,Phases=1,LineCode=tieSwitch1,Length=0.001,Units=km,switch=T !numEQ 385632
