new line.TR1080749 bus1=BMT126745672.1.2.3,bus2=BMT1048605B.1.2.3,Phases=3,Linecode=CABA08_3_3,Length=0.003162000,Units=km
new line.TR1080756 bus1=BMT157627352.1.2.3,bus2=BMT2319959B.1.2.3,Phases=3,Linecode=CAB202_3_3,Length=0.104330000,Units=km
new line.TR1080763 bus1=BMT157627353.1.2.3,bus2=BMT157627354.1.2.3,Phases=3,Linecode=CAB102_3_3,Length=0.009998000,Units=km
new line.TR1080770 bus1=BMT157627353.1.2.3,bus2=BMT157627355.1.2.3,Phases=3,Linecode=CAB202_3_3,Length=0.063019000,Units=km
new line.TR1080791 bus1=BMT164705615.1.2.3,bus2=BMT126747513.1.2.3,Phases=3,Linecode=CAB207_3_3,Length=0.098469000,Units=km
new line.TR1080798 bus1=BMT164705615.1.2.3,bus2=BMT3140779B.1.2.3,Phases=3,Linecode=CAB107_3_3,Length=0.006707000,Units=km
new line.TR1080805 bus1=BMT171120786.1.2.3,bus2=BMT1523450B.1.2.3,Phases=3,Linecode=CAB207_3_3,Length=0.187965000,Units=km
new line.TR1080812 bus1=BMT126747513.1.2.3,bus2=BMT3145224B.1.2.3,Phases=3,Linecode=CAB207_3_3,Length=0.005098000,Units=km
new line.TR1080819 bus1=BMT1523450B.1.2.3,bus2=BMT2319532B.1.2.3,Phases=3,Linecode=CAB207_3_3,Length=0.191305000,Units=km
new line.TR1080826 bus1=BMT1523450B.1.2.3,bus2=BMT3145252B.1.2.3,Phases=3,Linecode=CAB207_3_3,Length=0.005385000,Units=km
new line.TR1080833 bus1=BMT1523457B.1.2.3,bus2=BMT3145329B.1.2.3,Phases=3,Linecode=CAB207_3_3,Length=0.154543000,Units=km
new line.TR1080847 bus1=BMT157618481.1.2.3,bus2=BMT3145343B.1.2.3,Phases=3,Linecode=CAB207_3_3,Length=0.061543000,Units=km
new line.TR1080854 bus1=BMT126753099.2,bus2=BMT126753106.2,Phases=1,Linecode=CAB102_3_1,Length=0.069341000,Units=km
new line.TR1080861 bus1=BMT126747548.1.2.3,bus2=BMT171120787.1.2.3,Phases=3,Linecode=CAB204_3_3,Length=0.196618000,Units=km
new line.TR1080868 bus1=BMT126747548.1.2.3,bus2=BMT3145350B.1.2.3,Phases=3,Linecode=CAB207_3_3,Length=0.005000000,Units=km
new line.TR1080875 bus1=BMT171120788.1.2.3,bus2=BMT1048416B.1.2.3,Phases=3,Linecode=CAB104_3_3,Length=0.010769000,Units=km
new line.TR1080882 bus1=BMT171120788.1.2.3,bus2=BMT2293583B.1.2.3,Phases=3,Linecode=CAB103_3_3,Length=0.024347000,Units=km
new line.TR1080889 bus1=BMT126747618.1.2.3,bus2=BMT126747625.1.2.3,Phases=3,Linecode=CAB202_3_3,Length=0.095239000,Units=km
new line.TR1080896 bus1=BMT126748556.1.2.3,bus2=BMT126748563.1.2.3,Phases=3,Linecode=CAB204_3_3,Length=0.029961000,Units=km
new line.TR1080917 bus1=BMT171120791.2,bus2=BMT171120792.2,Phases=1,Linecode=CAB202_3_1,Length=0.119618000,Units=km
new line.TR1080924 bus1=BMT171120791.1.2.3,bus2=BMT171120793.1.2.3,Phases=3,Linecode=CAB202_3_3,Length=0.105098000,Units=km
new line.TR1080938 bus1=BMT170061412.1.2.3,bus2=BMT2318601B.1.2.3,Phases=3,Linecode=CAB202_3_3,Length=0.162760000,Units=km
new line.TR1080952 bus1=BMT170061413.1.2.3,bus2=BMT126747653.1.2.3,Phases=3,Linecode=CAB202_3_3,Length=0.255489000,Units=km
new line.TR1080959 bus1=BMT126747653.1,bus2=BMT170061416.1,Phases=1,Linecode=CAB202_3_1,Length=0.049991000,Units=km
new line.TR1080966 bus1=BMT126748542.3,bus2=BMT1523527B.3,Phases=1,Linecode=CAB202_3_1,Length=0.295240000,Units=km
new line.TR1080973 bus1=BMT126747653.1.2.3,bus2=BMT170061417.1.2.3,Phases=3,Linecode=CAB202_3_3,Length=0.331443000,Units=km
new line.TR1080980 bus1=BMT1523527B.3,bus2=BMT2318552B.3,Phases=1,Linecode=CAB202_3_1,Length=0.107427000,Units=km
new line.TR1080987 bus1=BMT1523534B.3,bus2=BMT126748549.3,Phases=1,Linecode=CAB202_3_1,Length=0.131505000,Units=km
new line.TR1080994 bus1=BMT170061421.1.2.3,bus2=BMT2091395.1.2.3,Phases=3,Linecode=CAB202_3_3,Length=0.027798000,Units=km
new line.TR1081001 bus1=BMT170061421.1.2.3,bus2=BMT2317572B.1.2.3,Phases=3,Linecode=CAB202_3_3,Length=0.289445000,Units=km
new line.TR1081008 bus1=BMT1523548B.1.2.3,bus2=BMT170061422.1.2.3,Phases=3,Linecode=CAB202_3_3,Length=0.052488000,Units=km
new line.TR1081015 bus1=BMT170061422.1.2.3,bus2=BMT170061423.1.2.3,Phases=3,Linecode=CAB102_3_3,Length=0.019997000,Units=km
new line.TR1081022 bus1=BMT170061422.1.2.3,bus2=BMT126747730.1.2.3,Phases=3,Linecode=CAB202_3_3,Length=0.053066000,Units=km
new line.TR1081029 bus1=BMT162152156.2,bus2=BMT162152157.2,Phases=1,Linecode=CAB202_3_1,Length=0.089984000,Units=km
new line.TR1081036 bus1=BMT162152156.2,bus2=BMT126747772.2,Phases=1,Linecode=CAB202_3_1,Length=0.184357000,Units=km
new line.TR1081043 bus1=BMT126748514.2,bus2=BMT126748521.2,Phases=1,Linecode=CAB202_3_1,Length=0.384116000,Units=km
new line.TR1081050 bus1=BMT126747772.2,bus2=BMT1523583B.2,Phases=1,Linecode=CAB202_3_1,Length=0.099982000,Units=km
new line.TR1081057 bus1=BMT126748521.2,bus2=BMT126748528.2,Phases=1,Linecode=CAB202_3_1,Length=0.082447000,Units=km
new line.TR1081064 bus1=BMT126748521.2,bus2=BMT2317866B.2,Phases=1,Linecode=CAB202_3_1,Length=0.349739000,Units=km
new line.TR1081071 bus1=BMT1523583B.2,bus2=BMT2318020B.2,Phases=1,Linecode=CAB202_3_1,Length=0.200515000,Units=km
new line.TR1081078 bus1=BMT162152158.2,bus2=BMT162152159.2,Phases=1,Linecode=CAB102_3_1,Length=0.072112000,Units=km
new line.TR1081085 bus1=BMT162152158.2,bus2=BMT162152160.2,Phases=1,Linecode=CAB202_3_1,Length=0.252069000,Units=km
new line.TR1081092 bus1=BMT162152160.2,bus2=BMT162152161.2,Phases=1,Linecode=CAB202_3_1,Length=0.249390000,Units=km
new line.TR1081099 bus1=BMT162152160.2,bus2=BMT126747807.2,Phases=1,Linecode=CAB202_3_1,Length=0.258023000,Units=km
new line.TR1081106 bus1=BMT162152160.2,bus2=BMT162152162.2,Phases=1,Linecode=CAB202_3_1,Length=0.313152000,Units=km
new line.TR1081113 bus1=BMT126748486.2,bus2=BMT126748493.2,Phases=1,Linecode=CAB202_3_1,Length=0.099982000,Units=km
new line.TR1081120 bus1=BMT126747807.2,bus2=BMT2318286B.2,Phases=1,Linecode=CAB202_3_1,Length=0.165330000,Units=km
new line.TR1081127 bus1=BMT162152162.2,bus2=BMT162152163.2,Phases=1,Linecode=CAB102_3_1,Length=0.031617000,Units=km
new line.TR1081134 bus1=BMT162152162.2,bus2=BMT162152164.2,Phases=1,Linecode=CAB202_3_1,Length=0.123671000,Units=km
new line.TR1081141 bus1=BMT126748493.2,bus2=BMT126748500.2,Phases=1,Linecode=CAB202_3_1,Length=0.086008000,Units=km
new line.TR1081148 bus1=BMT126748493.2,bus2=BMT1524024B.2,Phases=1,Linecode=CAB202_3_1,Length=0.041042000,Units=km
new line.TR1081155 bus1=BMT162152210.2,bus2=BMT2318300B.2,Phases=1,Linecode=CAB202_3_1,Length=0.089984000,Units=km
new line.TR1081162 bus1=BMT162152165.2,bus2=BMT2318328B.2,Phases=1,Linecode=CAB202_3_1,Length=0.059898000,Units=km
new line.TR1081169 bus1=BMT162152166.2,bus2=BMT162152167.2,Phases=1,Linecode=CAB202_3_1,Length=0.116598000,Units=km
new line.TR1081176 bus1=BMT162152166.2,bus2=BMT162152168.2,Phases=1,Linecode=CAB202_3_1,Length=0.116478000,Units=km
new line.TR1081183 bus1=BMT162152168.2,bus2=BMT126747870.2,Phases=1,Linecode=CAB202_3_1,Length=0.288483000,Units=km
new line.TR1081190 bus1=BMT162152168.2,bus2=BMT2318377B.2,Phases=1,Linecode=CAB102_3_1,Length=0.086008000,Units=km
new line.TR1081197 bus1=BMT126748465.2,bus2=BMT126748472.2,Phases=1,Linecode=CAB202_3_1,Length=0.081986000,Units=km
new line.TR1081204 bus1=BMT126747870.2,bus2=BMT126747884.2,Phases=1,Linecode=CAB202_3_1,Length=0.130361000,Units=km
new line.TR1081211 bus1=BMT159220734.2,bus2=BMT159220735.2,Phases=1,Linecode=CAB202_3_1,Length=0.120395000,Units=km
new line.TR1081218 bus1=BMT126747884.2,bus2=BMT2220461B.2,Phases=1,Linecode=CAB202_3_1,Length=0.236538000,Units=km
new line.TR1081225 bus1=BMT159220735.2,bus2=BMT126748395.2,Phases=1,Linecode=CAB202_3_1,Length=0.129688000,Units=km
new line.TR1081232 bus1=BMT159220735.2,bus2=BMT159220736.2,Phases=1,Linecode=CAB103_3_1,Length=0.041766000,Units=km
new line.TR1081239 bus1=BMT162152170.2,bus2=BMT162152171.2,Phases=1,Linecode=CAB202_3_1,Length=0.167601000,Units=km
new line.TR1081246 bus1=BMT162152170.2,bus2=BMT162152172.2,Phases=1,Linecode=CAB202_3_1,Length=0.319475000,Units=km
new line.TR1081253 bus1=BMT162152172.2,bus2=BMT162152173.2,Phases=1,Linecode=CAB202_3_1,Length=0.145577000,Units=km
new line.TR1081260 bus1=BMT162152172.2,bus2=BMT162152174.2,Phases=1,Linecode=CAB202_3_1,Length=0.339647000,Units=km
new line.TR1081267 bus1=BMT162152174.2,bus2=BMT162152175.2,Phases=1,Linecode=CAB202_3_1,Length=0.126470000,Units=km
new line.TR1081274 bus1=BMT162152174.2,bus2=BMT162152176.2,Phases=1,Linecode=CAB202_3_1,Length=0.262443000,Units=km
new line.TR1081281 bus1=BMT162152176.2,bus2=BMT162152177.2,Phases=1,Linecode=CAB202_3_1,Length=0.161218000,Units=km
new line.TR1081288 bus1=BMT162152176.2,bus2=BMT152859454.2,Phases=1,Linecode=CAB202_3_1,Length=0.197197000,Units=km
new line.TR1081295 bus1=BMT152859474.2,bus2=BMT1523702B.2,Phases=1,Linecode=CAB202_3_1,Length=0.466396000,Units=km
new line.TR1081302 bus1=BMT152859454.2,bus2=BMT2314072B.2,Phases=1,Linecode=CAB202_3_1,Length=0.059673000,Units=km
new line.TR1081309 bus1=BMT1523702B.2,bus2=BMT2314205B.2,Phases=1,Linecode=CAB202_3_1,Length=0.381814000,Units=km
new line.TR1081316 bus1=BMT1523709B.2,bus2=BMT126747961.2,Phases=1,Linecode=CAB202_3_1,Length=0.058300000,Units=km
new line.TR1081323 bus1=BMT126747961.2,bus2=BMT162152178.2,Phases=1,Linecode=CAB202_3_1,Length=0.339943000,Units=km
new line.TR1081330 bus1=BMT156450898.2,bus2=BMT156450899.2,Phases=1,Linecode=CAB202_3_1,Length=0.058300000,Units=km
new line.TR1081337 bus1=BMT162152178.2,bus2=BMT162152179.2,Phases=1,Linecode=CAB202_3_1,Length=0.064021000,Units=km
new line.TR1081344 bus1=BMT162152178.2,bus2=BMT162152180.2,Phases=1,Linecode=CAB202_3_1,Length=0.149975000,Units=km
new line.TR1081351 bus1=BMT156450899.2,bus2=BMT156450900.2,Phases=1,Linecode=CAB203_3_1,Length=0.312997000,Units=km
new line.TR1081358 bus1=BMT156450899.2,bus2=BMT156450901.2,Phases=1,Linecode=CAB202_3_1,Length=0.446803000,Units=km
new line.TR1081365 bus1=BMT153895446.2,bus2=BMT1523744B.2,Phases=1,Linecode=CAB202_3_1,Length=0.393126000,Units=km
new line.TR1081372 bus1=BMT153895457.2,bus2=BMT2022025B.2,Phases=1,Linecode=CAB202_3_1,Length=0.092180000,Units=km
new line.TR1081379 bus1=BMT1523744B.2,bus2=BMT1523751B.2,Phases=1,Linecode=CAB202_3_1,Length=0.050982000,Units=km
new line.TR1081386 bus1=BMT1523751B.2,bus2=BMT1523758B.2,Phases=1,Linecode=CAB202_3_1,Length=0.030261000,Units=km
new line.TR1081393 bus1=BMT1523758B.2,bus2=BMT156450902.2,Phases=1,Linecode=CAB202_3_1,Length=0.442872000,Units=km
new line.TR1081400 bus1=BMT156450902.2,bus2=BMT156450903.2,Phases=1,Linecode=CAB202_3_1,Length=0.195224000,Units=km
new line.TR1081407 bus1=BMT156450902.2,bus2=BMT156450904.2,Phases=1,Linecode=CAB202_3_1,Length=0.040305000,Units=km
new line.TR1081414 bus1=BMT156450904.2,bus2=BMT156450905.2,Phases=1,Linecode=CAB202_3_1,Length=0.130363000,Units=km
new line.TR1081421 bus1=BMT156450904.2,bus2=BMT152973260.2,Phases=1,Linecode=CAB202_3_1,Length=0.249958000,Units=km
new line.TR1081428 bus1=BMT152973268.2,bus2=BMT1523786B.2,Phases=1,Linecode=CAB202_3_1,Length=0.313795000,Units=km
new line.TR1081435 bus1=BMT152973260.2,bus2=BMT156450906.2,Phases=1,Linecode=CAB202_3_1,Length=0.319947000,Units=km
new line.TR1081442 bus1=BMT1523786B.2,bus2=BMT1523814B.2,Phases=1,Linecode=CAB202_3_1,Length=0.142104000,Units=km
new line.TR1081449 bus1=BMT156450906.2,bus2=BMT156450907.2,Phases=1,Linecode=CAB202_3_1,Length=0.149975000,Units=km
new line.TR1081456 bus1=BMT156450906.2,bus2=BMT156450908.2,Phases=1,Linecode=CAB202_3_1,Length=0.460900000,Units=km
new line.TR1081463 bus1=BMT156450908.2,bus2=BMT156450909.2,Phases=1,Linecode=CAB202_3_1,Length=0.230178000,Units=km
new line.TR1081470 bus1=BMT156450908.2,bus2=BMT1910963B.2,Phases=1,Linecode=CAB202_3_1,Length=0.407760000,Units=km
new line.TR1081477 bus1=BMT156450908.2,bus2=BMT156450911.2,Phases=1,Linecode=CAB202_3_1,Length=0.018436000,Units=km
new line.TR1081484 bus1=BMT1523814B.2,bus2=BMT1523821B.2,Phases=1,Linecode=CAB202_3_1,Length=0.096881000,Units=km
new line.TR1081491 bus1=BMT1523821B.2,bus2=BMT152973269.2,Phases=1,Linecode=CAB202_3_1,Length=0.050470000,Units=km
new line.TR1081498 bus1=BMT152973269.2,bus2=BMT152973270.2,Phases=1,Linecode=CAB202_3_1,Length=0.078759000,Units=km
new line.TR1081505 bus1=BMT152973269.2,bus2=BMT152973271.2,Phases=1,Linecode=CAB202_3_1,Length=0.272765000,Units=km
new line.TR1081512 bus1=BMT152973269.2,bus2=BMT126748311.2,Phases=1,Linecode=CAB202_3_1,Length=0.135750000,Units=km
new line.TR1081519 bus1=BMT162152180.2,bus2=BMT162152181.2,Phases=1,Linecode=CAB202_3_1,Length=0.119980000,Units=km
new line.TR1081526 bus1=BMT162152180.2,bus2=BMT1523842B.2,Phases=1,Linecode=CAB202_3_1,Length=0.247345000,Units=km
new line.TR1081533 bus1=BMT162152180.2,bus2=BMT2406626B.2,Phases=1,Linecode=CAB202_3_1,Length=0.008601000,Units=km
new line.TR1081540 bus1=BMT1523842B.2,bus2=BMT126747996.2,Phases=1,Linecode=CAB202_3_1,Length=0.208771000,Units=km
new line.TR1081547 bus1=BMT1523849B.2,bus2=BMT1523856B.2,Phases=1,Linecode=CAB202_3_1,Length=0.138548000,Units=km
new line.TR1081554 bus1=BMT1523856B.2,bus2=BMT162152182.2,Phases=1,Linecode=CAB202_3_1,Length=0.184907000,Units=km
new line.TR1081561 bus1=BMT126747996.2,bus2=BMT162152183.2,Phases=1,Linecode=CAB202_3_1,Length=0.226678000,Units=km
new line.TR1081568 bus1=BMT162359982.2,bus2=BMT1523877B.2,Phases=1,Linecode=CAB202_3_1,Length=0.108444000,Units=km
new line.TR1083339 bus1=BMT1524808B.3,bus2=BMT169718433.3,Phases=1,Linecode=CAB202_3_1,Length=0.103215000,Units=km
new line.TR1083353 bus1=BMT169718433.3,bus2=BMT169718434.3,Phases=1,Linecode=CAB202_3_1,Length=0.098973000,Units=km
new line.TR1083360 bus1=BMT127219838.3,bus2=BMT127219845.3,Phases=1,Linecode=CAB202_3_1,Length=0.055070000,Units=km
new line.TR1083381 bus1=BMT127219859.3,bus2=BMT127219866.3,Phases=1,Linecode=CAB103_3_1,Length=0.044712000,Units=km
new line.TR1083388 bus1=BMT163805434.1,bus2=BMT163805437.1,Phases=1,Linecode=CAB202_3_1,Length=0.176103000,Units=km
new line.TR1083395 bus1=BMT163805434.1,bus2=BMT163805438.1,Phases=1,Linecode=CAB202_3_1,Length=0.033009000,Units=km
new line.TR1083402 bus1=BMT163805442.1,bus2=BMT163805444.1,Phases=1,Linecode=CAB202_3_1,Length=0.133389000,Units=km
new line.TR1083409 bus1=BMT163805442.1,bus2=BMT1910977B.1,Phases=1,Linecode=CAB202_3_1,Length=0.380678000,Units=km
new line.TR1083416 bus1=BMT163805442.1,bus2=BMT2199699B.1,Phases=1,Linecode=CAB202_3_1,Length=0.010769000,Units=km
new line.TR1083423 bus1=BMT171713753.2,bus2=BMT171713754.2,Phases=1,Linecode=CAB202_3_1,Length=0.241612000,Units=km
new line.TR1083430 bus1=BMT171713719.1.2.3,bus2=BMT171713829.1.2.3,Phases=3,Linecode=CAB203_3_3,Length=0.306695000,Units=km
new line.TR1083444 bus1=BMT171713754.2,bus2=BMT171713755.2,Phases=1,Linecode=CAB202_3_1,Length=0.045169000,Units=km
new line.TR1083451 bus1=BMT171713754.2,bus2=BMT2233796B.2,Phases=1,Linecode=CAB202_3_1,Length=0.014210000,Units=km
new line.TR1083458 bus1=BMT173266273.1,bus2=BMT173266278.1,Phases=1,Linecode=CAB202_3_1,Length=0.028279000,Units=km
new line.TR1083465 bus1=BMT173266273.1.2.3,bus2=BMT2216744B.1.2.3,Phases=3,Linecode=CAB203_3_3,Length=0.050794000,Units=km
new line.TR1083472 bus1=BMT171496933.1,bus2=BMT171496934.1,Phases=1,Linecode=CAB202_3_1,Length=0.221316000,Units=km
new line.TR1083479 bus1=BMT171496304.1.2.3,bus2=BMT173266281.1.2.3,Phases=3,Linecode=CAB203_3_3,Length=0.125275000,Units=km
new line.TR1083486 bus1=BMT173266281.1,bus2=BMT173266282.1,Phases=1,Linecode=CAB202_3_1,Length=0.181780000,Units=km
new line.TR1083493 bus1=BMT173266281.1.2.3,bus2=BMT173266283.1.2.3,Phases=3,Linecode=CAB203_3_3,Length=0.171477000,Units=km
new line.TR1083500 bus1=BMT173266283.1,bus2=BMT173266284.1,Phases=1,Linecode=CAB202_3_1,Length=0.080084000,Units=km
new line.TR1083507 bus1=BMT173266283.1.2.3,bus2=BMT1524892B.1.2.3,Phases=3,Linecode=CAB203_3_3,Length=0.075457000,Units=km
new line.TR1083514 bus1=BMT1524892B.1.2.3,bus2=BMT2216814B.1.2.3,Phases=3,Linecode=CAB203_3_3,Length=0.120085000,Units=km
new line.TR1083521 bus1=BMT173266285.1,bus2=BMT173266286.1,Phases=1,Linecode=CAB202_3_1,Length=0.121632000,Units=km
new line.TR1083528 bus1=BMT173266285.1.2.3,bus2=BMT2216821B.1.2.3,Phases=3,Linecode=CAB203_3_3,Length=0.120417000,Units=km
new line.TR1083549 bus1=BMT173266288.1,bus2=BMT2216835B.1,Phases=1,Linecode=CAB202_3_1,Length=0.011044000,Units=km
new line.TR1083570 bus1=BMT173266302.1,bus2=BMT1524927B.1,Phases=1,Linecode=CAB202_3_1,Length=0.338096000,Units=km
new line.TR1083577 bus1=BMT1524927B.1,bus2=BMT2217115B.1,Phases=1,Linecode=CAB202_3_1,Length=0.170663000,Units=km
new line.TR1083584 bus1=BMT169408021.1,bus2=BMT2217122B.1,Phases=1,Linecode=CAB202_3_1,Length=0.110433000,Units=km
new line.TR1083591 bus1=BMT126751748.1,bus2=BMT2219880B.1,Phases=1,Linecode=CAB202_3_1,Length=0.076045000,Units=km
new line.TR1083598 bus1=BMT126751762.1,bus2=BMT126751769.1,Phases=1,Linecode=CAB202_3_1,Length=0.071015000,Units=km
new line.TR1083605 bus1=BMT126751993.1,bus2=BMT126752000.1,Phases=1,Linecode=CAB202_3_1,Length=0.170385000,Units=km
new line.TR1083612 bus1=BMT169408024.1,bus2=BMT169408025.1,Phases=1,Linecode=CAB103_3_1,Length=0.070165000,Units=km
new line.TR1083619 bus1=BMT169408024.1,bus2=BMT1885511B.1,Phases=1,Linecode=CAB202_3_1,Length=0.053749000,Units=km
new line.TR1083626 bus1=BMT169408026.1,bus2=BMT169408027.1,Phases=1,Linecode=CAB102_3_1,Length=0.079985000,Units=km
new line.TR1083633 bus1=BMT169408026.1,bus2=BMT1524962B.1,Phases=1,Linecode=CAB202_3_1,Length=0.167598000,Units=km
new line.TR1083640 bus1=BMT1524962B.1,bus2=BMT169408028.1,Phases=1,Linecode=CAB202_3_1,Length=0.139973000,Units=km
new line.TR1083647 bus1=BMT169408028.1,bus2=BMT169408029.1,Phases=1,Linecode=CAB202_3_1,Length=0.280124000,Units=km
new line.TR1083661 bus1=BMT169408029.1,bus2=BMT169408036.1,Phases=1,Linecode=CAB202_3_1,Length=0.042004000,Units=km
new line.TR1083675 bus1=BMT126752147.1,bus2=BMT1524990B.1,Phases=1,Linecode=CAB202_3_1,Length=0.334767000,Units=km
new line.TR1083682 bus1=BMT169272776.1,bus2=BMT169272777.1,Phases=1,Linecode=CAB202_3_1,Length=0.208796000,Units=km
new line.TR1083689 bus1=BMT1524990B.1,bus2=BMT2219439B.1,Phases=1,Linecode=CAB202_3_1,Length=0.159997000,Units=km
new line.TR1083696 bus1=BMT169272777.1,bus2=BMT169272778.1,Phases=1,Linecode=CAB103_3_1,Length=0.070697000,Units=km
new line.TR1083703 bus1=BMT169272777.1,bus2=BMT126752217.1,Phases=1,Linecode=CAB202_3_1,Length=0.096997000,Units=km
new line.TR1083710 bus1=BMT169272777.1,bus2=BMT2219124B.1,Phases=1,Linecode=CAB102_3_1,Length=0.010439000,Units=km
new line.TR1083717 bus1=BMT126752392.1,bus2=BMT126752399.1,Phases=1,Linecode=CAB202_3_1,Length=0.051098000,Units=km
new line.TR1083731 bus1=BMT126752217.1,bus2=BMT169272780.1,Phases=1,Linecode=CAB103_3_1,Length=0.009847000,Units=km
new line.TR1083738 bus1=BMT126752399.1,bus2=BMT126752406.1,Phases=1,Linecode=CAB102_3_1,Length=0.044713000,Units=km
new line.TR1083745 bus1=BMT126752399.1,bus2=BMT126752413.1,Phases=1,Linecode=CAB202_3_1,Length=0.036049000,Units=km
new line.TR1083752 bus1=BMT126752399.1,bus2=BMT2219138B.1,Phases=1,Linecode=CAB102_3_1,Length=0.011312000,Units=km
new line.TR1083759 bus1=BMT162500383.1,bus2=BMT162500384.1,Phases=1,Linecode=CAB202_3_1,Length=0.022357000,Units=km
new line.TR1083766 bus1=BMT126752231.1,bus2=BMT126752252.1,Phases=1,Linecode=CAB202_3_1,Length=0.005830000,Units=km
new line.TR1083773 bus1=BMT126752231.1,bus2=BMT2219145B.1,Phases=1,Linecode=CAB202_3_1,Length=0.059470000,Units=km
new line.TR1083780 bus1=BMT126752301.1,bus2=BMT126752308.1,Phases=1,Linecode=CAB102_3_1,Length=0.029405000,Units=km
new line.TR1083787 bus1=BMT126752301.1,bus2=BMT126752315.1,Phases=1,Linecode=CAB202_3_1,Length=0.063051000,Units=km
new line.TR1083794 bus1=BMT169272784.1,bus2=BMT169272785.1,Phases=1,Linecode=CAB202_3_1,Length=0.100150000,Units=km
new line.TR1083801 bus1=BMT169272784.1,bus2=BMT169272786.1,Phases=1,Linecode=CAB202_3_1,Length=0.119396000,Units=km
new line.TR1081575 bus1=BMT162152183.2,bus2=BMT162152184.2,Phases=1,Linecode=CAB202_3_1,Length=0.111785000,Units=km
new line.TR1081582 bus1=BMT162152183.2,bus2=BMT162152185.2,Phases=1,Linecode=CAB202_3_1,Length=0.316175000,Units=km
new line.TR1081589 bus1=BMT1523877B.2,bus2=BMT1523884B.2,Phases=1,Linecode=CAB202_3_1,Length=0.197768000,Units=km
new line.TR1081596 bus1=BMT1523884B.2,bus2=BMT162359983.2,Phases=1,Linecode=CAB202_3_1,Length=0.052878000,Units=km
new line.TR1081603 bus1=BMT162359983.2,bus2=BMT1523898B.2,Phases=1,Linecode=CAB202_3_1,Length=0.178727000,Units=km
new line.TR1081610 bus1=BMT1523898B.2,bus2=BMT1523905B.2,Phases=1,Linecode=CAB202_3_1,Length=0.040255000,Units=km
new line.TR1081617 bus1=BMT1523905B.2,bus2=BMT162359984.2,Phases=1,Linecode=CAB202_3_1,Length=0.161529000,Units=km
new line.TR1081624 bus1=BMT162359984.2,bus2=BMT162359986.2,Phases=1,Linecode=CAB202_3_1,Length=0.108707000,Units=km
new line.TR1081631 bus1=BMT162359984.2,bus2=BMT162359987.2,Phases=1,Linecode=CAB202_3_1,Length=0.168973000,Units=km
new line.TR1081638 bus1=BMT162359987.2,bus2=BMT162359988.2,Phases=1,Linecode=CAB202_3_1,Length=0.064612000,Units=km
new line.TR1081645 bus1=BMT162359987.2,bus2=BMT1523933B.2,Phases=1,Linecode=CAB202_3_1,Length=0.325924000,Units=km
new line.TR1081652 bus1=BMT162359988.2,bus2=BMT162359993.2,Phases=1,Linecode=CAB202_3_1,Length=0.170272000,Units=km
new line.TR1081659 bus1=BMT162359988.2,bus2=BMT2406339B.2,Phases=1,Linecode=CAB202_3_1,Length=0.008245000,Units=km
new line.TR1081666 bus1=BMT1523933B.2,bus2=BMT1523940B.2,Phases=1,Linecode=CAB202_3_1,Length=0.051470000,Units=km
new line.TR1081673 bus1=BMT1523940B.2,bus2=BMT162359989.2,Phases=1,Linecode=CAB202_3_1,Length=0.256101000,Units=km
new line.TR1081680 bus1=BMT162359989.2,bus2=BMT162359990.2,Phases=1,Linecode=CAB202_3_1,Length=0.115416000,Units=km
new line.TR1081687 bus1=BMT162359989.2,bus2=BMT1523954B.2,Phases=1,Linecode=CAB202_3_1,Length=0.240793000,Units=km
new line.TR1081694 bus1=BMT1523954B.2,bus2=BMT162359991.2,Phases=1,Linecode=CAB202_3_1,Length=0.141399000,Units=km
new line.TR1081701 bus1=BMT162359991.2,bus2=BMT162359992.2,Phases=1,Linecode=CAB202_3_1,Length=0.155414000,Units=km
new line.TR1081715 bus1=BMT162152185.2,bus2=BMT162152186.2,Phases=1,Linecode=CAB202_3_1,Length=0.072789000,Units=km
new line.TR1081722 bus1=BMT162152185.2,bus2=BMT162152187.2,Phases=1,Linecode=CAB202_3_1,Length=0.284381000,Units=km
new line.TR1081729 bus1=BMT162152186.2,bus2=BMT162152195.2,Phases=1,Linecode=CAB202_3_1,Length=0.116600000,Units=km
new line.TR1081736 bus1=BMT162152186.2,bus2=BMT162152196.2,Phases=1,Linecode=CAB202_3_1,Length=0.003000000,Units=km
new line.TR1081743 bus1=BMT162152187.2,bus2=BMT162152188.2,Phases=1,Linecode=CAB202_3_1,Length=0.113999000,Units=km
new line.TR1081750 bus1=BMT162152187.2,bus2=BMT162152189.2,Phases=1,Linecode=CAB202_3_1,Length=0.424781000,Units=km
new line.TR1081757 bus1=BMT162152189.2,bus2=BMT162152190.2,Phases=1,Linecode=CAB202_3_1,Length=0.078090000,Units=km
new line.TR1081764 bus1=BMT162152189.2,bus2=BMT2314373B.2,Phases=1,Linecode=CAB202_3_1,Length=0.051654000,Units=km
new line.TR1081771 bus1=BMT162152191.2,bus2=BMT162152192.2,Phases=1,Linecode=CAB202_3_1,Length=0.101963000,Units=km
new line.TR1081778 bus1=BMT162152191.2,bus2=BMT2314394B.2,Phases=1,Linecode=CAB202_3_1,Length=0.150271000,Units=km
new line.TR1081785 bus1=BMT1524003B.2,bus2=BMT2314422B.2,Phases=1,Linecode=CAB202_3_1,Length=0.149246000,Units=km
new line.TR1081792 bus1=BMT1524010B.2,bus2=BMT152859475.2,Phases=1,Linecode=CAB202_3_1,Length=0.278519000,Units=km
new line.TR1081799 bus1=BMT159220737.2,bus2=BMT159220738.2,Phases=1,Linecode=CAB202_3_1,Length=0.208769000,Units=km
new line.TR1081806 bus1=BMT159220737.2,bus2=BMT159220739.2,Phases=1,Linecode=CAB202_3_1,Length=0.109461000,Units=km
new line.TR1081813 bus1=BMT1524024B.2,bus2=BMT1524031B.2,Phases=1,Linecode=CAB202_3_1,Length=0.220092000,Units=km
new line.TR1081820 bus1=BMT1524031B.2,bus2=BMT2318279B.2,Phases=1,Linecode=CAB202_3_1,Length=0.111192000,Units=km
new line.TR1081827 bus1=BMT1524038B.2,bus2=BMT126748535.2,Phases=1,Linecode=CAB202_3_1,Length=0.179837000,Units=km
new line.TR1081855 bus1=BMT171903557.1,bus2=BMT171903559.1,Phases=1,Linecode=CAB102_3_1,Length=0.050980000,Units=km
new line.TR1081862 bus1=BMT171903557.1.2.3,bus2=BMT126748591.1.2.3,Phases=3,Linecode=CAB204_3_3,Length=0.076143000,Units=km
new line.TR1081869 bus1=BMT126748591.1.2.3,bus2=BMT171903560.1.2.3,Phases=3,Linecode=CAB204_3_3,Length=0.289295000,Units=km
new line.TR1081876 bus1=BMT161718260.1.2.3,bus2=BMT160867226.1.2.3,Phases=3,Linecode=CAB202_3_3,Length=0.111781000,Units=km
new line.TR1081883 bus1=BMT171903560.3,bus2=BMT171903561.3,Phases=1,Linecode=CAB103_3_1,Length=0.026014000,Units=km
new line.TR1081890 bus1=BMT171903560.1.2.3,bus2=BMT126748612.1.2.3,Phases=3,Linecode=CAB204_3_3,Length=0.224911000,Units=km
new line.TR1081897 bus1=BMT171903560.1,bus2=BMT3195932B.1,Phases=1,Linecode=CAB103_3_1,Length=0.027798000,Units=km
new line.TR1081911 bus1=BMT169125346.2,bus2=BMT169125347.2,Phases=1,Linecode=CAB202_3_1,Length=0.130358000,Units=km
new line.TR1081918 bus1=BMT169125347.2,bus2=BMT169125348.2,Phases=1,Linecode=CAB102_3_1,Length=0.036049000,Units=km
new line.TR1081925 bus1=BMT169125347.2,bus2=BMT169125349.2,Phases=1,Linecode=CAB202_3_1,Length=0.034052000,Units=km
new line.TR1081932 bus1=BMT169125347.2,bus2=BMT169125350.2,Phases=1,Linecode=CAB202_3_1,Length=0.005999000,Units=km
new line.TR1081939 bus1=BMT169125349.2,bus2=BMT169125352.2,Phases=1,Linecode=CAB102_3_1,Length=0.040254000,Units=km
new line.TR1081946 bus1=BMT169125349.2,bus2=BMT169125353.2,Phases=1,Linecode=CAB202_3_1,Length=0.204567000,Units=km
new line.TR1081967 bus1=BMT169125361.2,bus2=BMT169125363.2,Phases=1,Linecode=CAB103_3_1,Length=0.019846000,Units=km
new line.TR1081974 bus1=BMT169125361.2,bus2=BMT169125364.2,Phases=1,Linecode=CAB202_3_1,Length=0.125853000,Units=km
new line.TR1081981 bus1=BMT169125364.2,bus2=BMT169125365.2,Phases=1,Linecode=CAB202_3_1,Length=0.093417000,Units=km
new line.TR1081995 bus1=BMT138789956.2,bus2=BMT2215673B.2,Phases=1,Linecode=CAB202_3_1,Length=0.100480000,Units=km
new line.TR1082002 bus1=BMT138789956.2,bus2=BMT126752686.2,Phases=1,Linecode=CAB202_3_1,Length=0.169514000,Units=km
new line.TR1082009 bus1=BMT169125370.2,bus2=BMT169125372.2,Phases=1,Linecode=CAB103_3_1,Length=0.080607000,Units=km
new line.TR1082016 bus1=BMT169125370.2,bus2=BMT169125373.2,Phases=1,Linecode=CAB202_3_1,Length=0.060288000,Units=km
new line.TR1083808 bus1=BMT126752336.1,bus2=BMT126752343.1,Phases=1,Linecode=CAB202_3_1,Length=0.091530000,Units=km
new line.TR1083815 bus1=BMT126752336.1,bus2=BMT126752350.1,Phases=1,Linecode=CAB202_3_1,Length=0.071833000,Units=km
new line.TR1083822 bus1=BMT169408042.1,bus2=BMT169408043.1,Phases=1,Linecode=CAB202_3_1,Length=0.079985000,Units=km
new line.TR1083829 bus1=BMT169408042.1,bus2=BMT1525053B.1,Phases=1,Linecode=CAB202_3_1,Length=0.059997000,Units=km
new line.TR1083836 bus1=BMT1525053B.1,bus2=BMT169408044.1,Phases=1,Linecode=CAB202_3_1,Length=0.205729000,Units=km
new line.TR1083843 bus1=BMT169408044.1,bus2=BMT169408045.1,Phases=1,Linecode=CAB202_3_1,Length=0.269205000,Units=km
new line.TR1083850 bus1=BMT169408044.1,bus2=BMT2219873B.1,Phases=1,Linecode=CAB202_3_1,Length=0.125550000,Units=km
new line.TR1083857 bus1=BMT126751769.1,bus2=BMT2219887B.1,Phases=1,Linecode=CAB202_3_1,Length=0.011703000,Units=km
new line.TR1083864 bus1=BMT152918007.1,bus2=BMT2220139B.1,Phases=1,Linecode=CAB202_3_1,Length=0.207723000,Units=km
new line.TR1083871 bus1=BMT152918008.1,bus2=BMT152918009.1,Phases=1,Linecode=CAB202_3_1,Length=0.082447000,Units=km
new line.TR1083878 bus1=BMT152918008.1,bus2=BMT1525081B.1,Phases=1,Linecode=CAB202_3_1,Length=0.053842000,Units=km
new line.TR1083885 bus1=BMT1525081B.1,bus2=BMT2220146B.1,Phases=1,Linecode=CAB202_3_1,Length=0.377768000,Units=km
new line.TR1083892 bus1=BMT152918010.1,bus2=BMT152918011.1,Phases=1,Linecode=CAB202_3_1,Length=0.163982000,Units=km
new line.TR1083899 bus1=BMT152918010.1,bus2=BMT2220153B.1,Phases=1,Linecode=CAB202_3_1,Length=0.329977000,Units=km
new line.TR1083906 bus1=BMT1525095B.1,bus2=BMT126751818.1,Phases=1,Linecode=CAB202_3_1,Length=0.095193000,Units=km
new line.TR1083913 bus1=BMT126751818.1,bus2=BMT152918012.1,Phases=1,Linecode=CAB202_3_1,Length=0.077993000,Units=km
new line.TR1083920 bus1=BMT140945235.1,bus2=BMT2220160B.1,Phases=1,Linecode=CAB202_3_1,Length=0.046607000,Units=km
new line.TR1083927 bus1=BMT1525109B.1,bus2=BMT140945242.1,Phases=1,Linecode=CAB202_3_1,Length=0.179692000,Units=km
new line.TR1083934 bus1=BMT152918012.1,bus2=BMT152918013.1,Phases=1,Linecode=CAB202_3_1,Length=0.101195000,Units=km
new line.TR1083941 bus1=BMT152918012.1,bus2=BMT152918014.1,Phases=1,Linecode=CAB202_3_1,Length=0.062790000,Units=km
new line.TR1083948 bus1=BMT152918014.1,bus2=BMT152918015.1,Phases=1,Linecode=CAB202_3_1,Length=0.086008000,Units=km
new line.TR1083955 bus1=BMT152918018.1,bus2=BMT126751853.1,Phases=1,Linecode=CAB202_3_1,Length=0.131445000,Units=km
new line.TR1083962 bus1=BMT168923504.1,bus2=BMT168923505.1,Phases=1,Linecode=CAB202_3_1,Length=0.263323000,Units=km
new line.TR1083969 bus1=BMT126751853.1,bus2=BMT2220174B.1,Phases=1,Linecode=CAB202_3_1,Length=0.071332000,Units=km
new line.TR1083983 bus1=BMT138327368.1,bus2=BMT152918019.1,Phases=1,Linecode=CAB202_3_1,Length=0.069623000,Units=km
new line.TR1083997 bus1=BMT168923506.1,bus2=BMT168923507.1,Phases=1,Linecode=CAB202_3_1,Length=0.037102000,Units=km
new line.TR1084004 bus1=BMT152918019.1,bus2=BMT152918020.1,Phases=1,Linecode=CAB202_3_1,Length=0.080608000,Units=km
new line.TR1084011 bus1=BMT152918019.1,bus2=BMT152918021.1,Phases=1,Linecode=CAB202_3_1,Length=0.325671000,Units=km
new line.TR1084018 bus1=BMT140945249.1,bus2=BMT140945263.1,Phases=1,Linecode=CAB102_3_1,Length=0.084838000,Units=km
new line.TR1084025 bus1=BMT171713829.1,bus2=BMT171713830.1,Phases=1,Linecode=CAB102_3_1,Length=0.049990000,Units=km
new line.TR1084032 bus1=BMT171713829.1,bus2=BMT1525172B.1,Phases=1,Linecode=CAB202_3_1,Length=0.060816000,Units=km
new line.TR1084039 bus1=BMT171713829.3,bus2=BMT2216688B.3,Phases=1,Linecode=CAB202_3_1,Length=0.009054000,Units=km
new line.TR1084046 bus1=BMT171713829.1.2.3,bus2=BMT3148745B.1.2.3,Phases=3,Linecode=CAB203_3_3,Length=0.098975000,Units=km
new line.TR1084053 bus1=BMT1525172B.1,bus2=BMT171713831.1,Phases=1,Linecode=CAB202_3_1,Length=0.123668000,Units=km