! manter este comentario para compatibilidade do C#
new circuit.alimVZPU08 bus1=BMT126910900.1.2.3,basekv=13.800000000,pu=1.040000000