new line.RML10033503 bus1=BBT106260865.1.0,bus2=RML1060033503.1.0,Phases=1,Linecode=CABBTG02_4_1,Length=0.017000000,Units=km
new line.RML10034346 bus1=BBT1321494.3.0,bus2=RML1060034346.3.0,Phases=1,Linecode=CABBTG01_4_1,Length=0.017000000,Units=km
new line.RML10034355 bus1=BBT1321865.2.0,bus2=RML1060034355.2.0,Phases=1,Linecode=CABBTG01_4_1,Length=0.017000000,Units=km
new line.RML10034985 bus1=BBT1260720.1.3.0,bus2=RML1060034985.1.3.0,Phases=2,Linecode=CABBTG05_4_2,Length=0.017000000,Units=km
new line.RML10034986 bus1=BBT1329145.1.0,bus2=RML1060034986.1.0,Phases=1,Linecode=CABBTG01_4_1,Length=0.017000000,Units=km
new line.RML10034987 bus1=BBT1317091.1.0,bus2=RML1060034987.1.0,Phases=1,Linecode=CABBTG01_4_1,Length=0.017000000,Units=km
new line.RML10034996 bus1=BBT1329145.3.0,bus2=RML1060034996.3.0,Phases=1,Linecode=CABBTG01_4_1,Length=0.017000000,Units=km
new line.RML10034998 bus1=BBT127203122.1.0,bus2=RML1060034998.1.0,Phases=1,Linecode=CABBTG01_4_1,Length=0.017000000,Units=km
new line.RML10035006 bus1=BBT1319275.1.0,bus2=RML1060035006.1.0,Phases=1,Linecode=CABBTG01_4_1,Length=0.017000000,Units=km
new line.RML10035007 bus1=BBT1320003.1.0,bus2=RML1060035007.1.0,Phases=1,Linecode=CABBTG01_4_1,Length=0.017000000,Units=km
new line.RML10035008 bus1=BBT4887245.3.0,bus2=RML1060035008.3.0,Phases=1,Linecode=CABBTG01_4_1,Length=0.017000000,Units=km
new line.RML10035033 bus1=BBT145530501.1.2.3.0,bus2=RML1060035033.1.2.3.0,Phases=3,Linecode=CABBTG06_4_3,Length=0.017000000,Units=km
new line.RML10035035 bus1=BBT1330132.1.0,bus2=RML1060035035.1.0,Phases=1,Linecode=CABBTG01_4_1,Length=0.017000000,Units=km
new line.RML10035041 bus1=BBT146545725.1.0,bus2=RML1060035041.1.0,Phases=1,Linecode=CABBTG01_4_1,Length=0.017000000,Units=km
new line.RML10035064 bus1=BBT146545907.1.0,bus2=RML1060035064.1.0,Phases=1,Linecode=CABBTG01_4_1,Length=0.017000000,Units=km
new line.RML10035074 bus1=BBT146545907.1.0,bus2=RML1060035074.1.0,Phases=1,Linecode=CABBTG02_4_1,Length=0.017000000,Units=km
new line.RML10035785 bus1=BBT1312506.1.2.0,bus2=RML1060035785.1.2.0,Phases=2,Linecode=CABBTG05_4_2,Length=0.017000000,Units=km
new line.RML10035794 bus1=BBT1330006.1.2.0,bus2=RML1060035794.1.2.0,Phases=2,Linecode=CABBTG05_4_2,Length=0.017000000,Units=km
new line.RML10035799 bus1=BBT2866772.1.0,bus2=RML1060035799.1.0,Phases=1,Linecode=CABBTG01_4_1,Length=0.017000000,Units=km
new line.RML10035802 bus1=BBT5060061.1.0,bus2=RML1060035802.1.0,Phases=1,Linecode=CABBTG02_4_1,Length=0.017000000,Units=km
new line.RML10035824 bus1=BBT1260622.1.0,bus2=RML1060035824.1.0,Phases=1,Linecode=CABBTG02_4_1,Length=0.017000000,Units=km
new line.RML10035842 bus1=BBT1316923.1.0,bus2=RML1060035842.1.0,Phases=1,Linecode=CABBTG02_4_1,Length=0.017000000,Units=km
new line.RML10035844 bus1=BBT3965597.1.0,bus2=RML1060035844.1.0,Phases=1,Linecode=CABBTG01_4_1,Length=0.017000000,Units=km
new line.RML10040810 bus1=BBT1329145.3.0,bus2=RML1060040810.3.0,Phases=1,Linecode=CABBTG01_4_1,Length=0.017000000,Units=km
new line.RML10040811 bus1=BBT1329145.3.0,bus2=RML1060040811.3.0,Phases=1,Linecode=CABBTG03_4_1,Length=0.017000000,Units=km
new line.RML10040821 bus1=BBT1329145.3.0,bus2=RML1060040821.3.0,Phases=1,Linecode=CABBTG03_4_1,Length=0.017000000,Units=km
new line.RML10040825 bus1=BBT1315880.1.0,bus2=RML1060040825.1.0,Phases=1,Linecode=CABBTG02_4_1,Length=0.017000000,Units=km
new line.RML10040829 bus1=BBT129734350.1.0,bus2=RML1060040829.1.0,Phases=1,Linecode=CABBTG01_4_1,Length=0.017000000,Units=km
new line.RML10040852 bus1=BBT1317126.3.0,bus2=RML1060040852.3.0,Phases=1,Linecode=CABBTG01_4_1,Length=0.017000000,Units=km
new line.RML10040901 bus1=BBT2868830.1.0,bus2=RML1060040901.1.0,Phases=1,Linecode=CABBTG01_4_1,Length=0.017000000,Units=km
new line.RML10040927 bus1=BBT1316307.3.0,bus2=RML1060040927.3.0,Phases=1,Linecode=CABBTG01_4_1,Length=0.017000000,Units=km
new line.RML10040930 bus1=BBT1321389.3.0,bus2=RML1060040930.3.0,Phases=1,Linecode=CABBTG01_4_1,Length=0.017000000,Units=km
new line.RML10040932 bus1=BBT145423674.1.2.0,bus2=RML1060040932.1.2.0,Phases=2,Linecode=CABBTG05_4_2,Length=0.017000000,Units=km
new line.RML10047728 bus1=BBT1260664.2.0,bus2=RML1060047728.2.0,Phases=1,Linecode=CABBTG01_4_1,Length=0.017000000,Units=km
new line.RML10047730 bus1=BBT1316944.3.0,bus2=RML1060047730.3.0,Phases=1,Linecode=CABBTG02_4_1,Length=0.017000000,Units=km
new line.RML10047734 bus1=BBT1321046.2.0,bus2=RML1060047734.2.0,Phases=1,Linecode=CABBTG01_4_1,Length=0.017000000,Units=km
new line.RML10050786 bus1=BBT36265247.1.0,bus2=RML1060050786.1.0,Phases=1,Linecode=CABBTG02_4_1,Length=0.017000000,Units=km
new line.RML10050791 bus1=BBT8892813.2.0,bus2=RML1060050791.2.0,Phases=1,Linecode=CABBTG02_4_1,Length=0.017000000,Units=km
new line.RML10050815 bus1=BBT1317630.2.0,bus2=RML1060050815.2.0,Phases=1,Linecode=CABBTG01_4_1,Length=0.017000000,Units=km
new line.RML10050818 bus1=BBT1317630.2.0,bus2=RML1060050818.2.0,Phases=1,Linecode=CABBTG01_4_1,Length=0.017000000,Units=km
new line.RML10050819 bus1=BBT1317630.1.0,bus2=RML1060050819.1.0,Phases=1,Linecode=CABBTG01_4_1,Length=0.017000000,Units=km
new line.RML10050826 bus1=BBT1317630.2.0,bus2=RML1060050826.2.0,Phases=1,Linecode=CABBTG01_4_1,Length=0.017000000,Units=km
new line.RML10050827 bus1=BBT1317630.1.0,bus2=RML1060050827.1.0,Phases=1,Linecode=CABBTG01_4_1,Length=0.017000000,Units=km
new line.RML10050974 bus1=BBT1319198.2.0,bus2=RML1060050974.2.0,Phases=1,Linecode=CABBTG03_4_1,Length=0.017000000,Units=km
new line.RML10050977 bus1=BBT1318995.2.0,bus2=RML1060050977.2.0,Phases=1,Linecode=CABBTG02_4_1,Length=0.017000000,Units=km
new line.RML10050978 bus1=BBT1331602.2.0,bus2=RML1060050978.2.0,Phases=1,Linecode=CABBTG03_4_1,Length=0.017000000,Units=km
new line.RML10050980 bus1=BBT1325827.2.0,bus2=RML1060050980.2.0,Phases=1,Linecode=CABBTG02_4_1,Length=0.017000000,Units=km
new line.RML10050982 bus1=BBT116123970.2.0,bus2=RML1060050982.2.0,Phases=1,Linecode=CABBTG02_4_1,Length=0.017000000,Units=km
new line.RML10051045 bus1=BBT145423674.2.0,bus2=RML1060051045.2.0,Phases=1,Linecode=CABBTG02_4_1,Length=0.017000000,Units=km
new line.RML10051078 bus1=BBT1321830.2.0,bus2=RML1060051078.2.0,Phases=1,Linecode=CABBTG02_4_1,Length=0.017000000,Units=km
new line.RML10055967 bus1=BBT3965569.1.0,bus2=RML1060055967.1.0,Phases=1,Linecode=CABBTG01_4_1,Length=0.017000000,Units=km
new line.RML10055972 bus1=BBT1316195.2.0,bus2=RML1060055972.2.0,Phases=1,Linecode=CABBTG03_4_1,Length=0.017000000,Units=km
new line.RML10055975 bus1=BBT1326702.1.0,bus2=RML1060055975.1.0,Phases=1,Linecode=CABBTG03_4_1,Length=0.017000000,Units=km
new line.RML10055987 bus1=BBT6625870.1.0,bus2=RML1060055987.1.0,Phases=1,Linecode=CABBTG03_4_1,Length=0.017000000,Units=km
new line.RML10056071 bus1=BBT1329145.1.0,bus2=RML1060056071.1.0,Phases=1,Linecode=CABBTG01_4_1,Length=0.017000000,Units=km
new line.RML10056219 bus1=BBT3965170.2.0,bus2=RML1060056219.2.0,Phases=1,Linecode=CABBTG01_4_1,Length=0.017000000,Units=km
new line.RML10056220 bus1=BBT1311911.1.2.3.0,bus2=RML1060056220.1.2.3.0,Phases=3,Linecode=CABBTG11_4_3,Length=0.017000000,Units=km
new line.RML10056246 bus1=BBT3965618.1.0,bus2=RML1060056246.1.0,Phases=1,Linecode=CABBTG01_4_1,Length=0.017000000,Units=km
new line.RML10057555 bus1=BBT45888553.3.0,bus2=RML1060057555.3.0,Phases=1,Linecode=CABBTG02_4_1,Length=0.017000000,Units=km
new line.RML10057557 bus1=BBT45888553.3.0,bus2=RML1060057557.3.0,Phases=1,Linecode=CABBTG02_4_1,Length=0.017000000,Units=km
new line.RML10057577 bus1=BBT129734350.2.0,bus2=RML1060057577.2.0,Phases=1,Linecode=CABBTG03_4_1,Length=0.017000000,Units=km
new line.RML10060490 bus1=BBT130562730.1.2.3.0,bus2=RML1060060490.1.2.3.0,Phases=3,Linecode=CABBTG06_4_3,Length=0.017000000,Units=km
new line.RML10060496 bus1=BBT1326128.1.0,bus2=RML1060060496.1.0,Phases=1,Linecode=CABBTG02_4_1,Length=0.013000000,Units=km
new line.RML10060530 bus1=BBT1404339.1.0,bus2=RML1060060530.1.0,Phases=1,Linecode=CABBTG01_4_1,Length=0.017000000,Units=km
new line.RML10060533 bus1=BBT1321613.1.2.3.0,bus2=RML1060060533.1.2.3.0,Phases=3,Linecode=CABBTG11_4_3,Length=0.017000000,Units=km
new line.RML10060560 bus1=BBT1331756.1.0,bus2=RML1060060560.1.0,Phases=1,Linecode=CABBTG01_4_1,Length=0.017000000,Units=km
new line.RML10060562 bus1=BBT6283129.1.2.3.0,bus2=RML1060060562.1.2.3.0,Phases=3,Linecode=CABBTG06_4_3,Length=0.017000000,Units=km
new line.RML10061122 bus1=BBT1260692.1.0,bus2=RML1060061122.1.0,Phases=1,Linecode=CABBTG03_4_1,Length=0.017000000,Units=km
new line.RML10061158 bus1=BBT1321879.1.0,bus2=RML1060061158.1.0,Phases=1,Linecode=CABBTG01_4_1,Length=0.017000000,Units=km
new line.RML10066037 bus1=BBT148937765.1.2.0,bus2=RML1060066037.1.2.0,Phases=2,Linecode=CABBTG05_4_2,Length=0.017000000,Units=km
new line.RML10066902 bus1=BBT1316923.2.0,bus2=RML1060066902.2.0,Phases=1,Linecode=CABBTG02_4_1,Length=0.006000000,Units=km
new line.RML10066906 bus1=BBT1313206.1.2.3.0,bus2=RML1060066906.1.2.3.0,Phases=3,Linecode=CABBTG07_4_3,Length=0.017000000,Units=km
new line.RML10066908 bus1=BBT146545725.1.0,bus2=RML1060066908.1.0,Phases=1,Linecode=CABBTG02_4_1,Length=0.017000000,Units=km
new line.RML10066912 bus1=BBT3965597.2.0,bus2=RML1060066912.2.0,Phases=1,Linecode=CABBTG03_4_1,Length=0.017000000,Units=km
new line.RML10076881 bus1=BBT1330790.1.0,bus2=RML1060076881.1.0,Phases=1,Linecode=CABBTG02_4_1,Length=0.017000000,Units=km
new line.RML10077202 bus1=BBT1318701.1.0,bus2=RML1060077202.1.0,Phases=1,Linecode=CABBTG01_4_1,Length=0.017000000,Units=km
new line.RML10077369 bus1=BBT148937588.1.2.0,bus2=RML1060077369.1.2.0,Phases=2,Linecode=CABBTG05_4_2,Length=0.017000000,Units=km
new line.RML10077773 bus1=BBT1312366.1.3.0,bus2=RML1060077773.1.3.0,Phases=2,Linecode=CABBTG04_4_2,Length=0.017000000,Units=km
new line.RML10080956 bus1=BBT1317700.1.0,bus2=RML1060080956.1.0,Phases=1,Linecode=CABBTG01_4_1,Length=0.017000000,Units=km
new line.RML10081715 bus1=BBT3965590.2.0,bus2=RML1060081715.2.0,Phases=1,Linecode=CABBTG02_4_1,Length=0.017000000,Units=km
new line.RML10081722 bus1=BBT1326107.1.3.0,bus2=RML1060081722.1.3.0,Phases=2,Linecode=CABBTG05_4_2,Length=0.017000000,Units=km
new line.RML10081796 bus1=BBT37752964.2.3.0,bus2=RML1060081796.2.3.0,Phases=2,Linecode=CABBTG05_4_2,Length=0.017000000,Units=km
new line.RML10082093 bus1=BBT3142341.2.0,bus2=RML1060082093.2.0,Phases=1,Linecode=CABBTG02_4_1,Length=0.017000000,Units=km
new line.RML10082172 bus1=BBT1329866.1.3.0,bus2=RML1060082172.1.3.0,Phases=2,Linecode=CABBTG05_4_2,Length=0.017000000,Units=km
new line.RML10082178 bus1=BBT1319310.2.0,bus2=RML1060082178.2.0,Phases=1,Linecode=CABBTG03_4_1,Length=0.017000000,Units=km
new line.RML10082582 bus1=BBT138798762.1.0,bus2=RML1060082582.1.0,Phases=1,Linecode=CABBTG02_4_1,Length=0.017000000,Units=km
new line.RML10082714 bus1=BBT116123991.1.0,bus2=RML1060082714.1.0,Phases=1,Linecode=CABBTG02_4_1,Length=0.017000000,Units=km
new line.RML10082720 bus1=BBT1326926.1.0,bus2=RML1060082720.1.0,Phases=1,Linecode=CABBTG02_4_1,Length=0.017000000,Units=km
new line.RML10082745 bus1=BBT1319457.1.2.0,bus2=RML1060082745.1.2.0,Phases=2,Linecode=CABBTG05_4_2,Length=0.017000000,Units=km
new line.RML10082761 bus1=BBT1321039.2.0,bus2=RML1060082761.2.0,Phases=1,Linecode=CABBTG02_4_1,Length=0.017000000,Units=km
new line.RML10084497 bus1=BBT1321382.1.2.3.0,bus2=RML1060084497.1.2.3.0,Phases=3,Linecode=CABBTG06_4_3,Length=0.017000000,Units=km
new line.RML10089795 bus1=BBT1315523.1.2.3.0,bus2=RML1060089795.1.2.3.0,Phases=3,Linecode=CABBTG06_4_3,Length=0.021000000,Units=km
new line.RML10095316 bus1=BBT1316895.1.0,bus2=RML1060095316.1.0,Phases=1,Linecode=CABBTG01_4_1,Length=0.015000000,Units=km
new line.RML10102148 bus1=BBT1321382.1.2.0,bus2=RML1060102148.1.2.0,Phases=2,Linecode=CABBTG05_4_2,Length=0.017000000,Units=km
new line.RML10102155 bus1=BBT1331889.1.0,bus2=RML1060102155.1.0,Phases=1,Linecode=CABBTG02_4_1,Length=0.017000000,Units=km
new line.RML10102167 bus1=BBT1318652.1.0,bus2=RML1060102167.1.0,Phases=1,Linecode=CABBTG02_4_1,Length=0.017000000,Units=km
new line.RML10102450 bus1=BBT1331588.2.0,bus2=RML1060102450.2.0,Phases=1,Linecode=CABBTG02_4_1,Length=0.017000000,Units=km
new line.RML10108104 bus1=BBT3142047.1.0,bus2=RML1060108104.1.0,Phases=1,Linecode=CABBTG02_4_1,Length=0.015000000,Units=km
new line.RML10108472 bus1=BBT1320472.1.0,bus2=RML1060108472.1.0,Phases=1,Linecode=CABBTG02_4_1,Length=0.012000000,Units=km
new line.RML10113756 bus1=BBT82532748.1.2.0,bus2=RML1060113756.1.2.0,Phases=2,Linecode=CABBTG05_4_2,Length=0.017000000,Units=km
new line.RML10113794 bus1=BBT1387854.1.2.0,bus2=RML1060113794.1.2.0,Phases=2,Linecode=CABBTG05_4_2,Length=0.017000000,Units=km
new line.RML10115882 bus1=BBT1312758.3.0,bus2=RML1060115882.3.0,Phases=1,Linecode=CABBTG02_4_1,Length=0.017000000,Units=km
new line.RML10115893 bus1=BBT1396002.1.2.3.0,bus2=RML1060115893.1.2.3.0,Phases=3,Linecode=CABBTG06_4_3,Length=0.017000000,Units=km
new line.RML10116087 bus1=BBT1319289.1.0,bus2=RML1060116087.1.0,Phases=1,Linecode=CABBTG02_4_1,Length=0.017000000,Units=km
new line.RML10133211 bus1=BBT2866303.2.0,bus2=RML1060133211.2.0,Phases=1,Linecode=CABBTG02_4_1,Length=0.017000000,Units=km
new line.RML10133213 bus1=BBT2866772.1.0,bus2=RML1060133213.1.0,Phases=1,Linecode=CABBTG02_4_1,Length=0.017000000,Units=km
new line.RML10133465 bus1=BBT1312618.1.0,bus2=RML1060133465.1.0,Phases=1,Linecode=CABBTG02_4_1,Length=0.017000000,Units=km
new line.RML10133726 bus1=BBT1331455.3.0,bus2=RML1060133726.3.0,Phases=1,Linecode=CABBTG02_4_1,Length=0.017000000,Units=km
new line.RML10133755 bus1=BBT1313136.2.3.0,bus2=RML1060133755.2.3.0,Phases=2,Linecode=CABBTG05_4_2,Length=0.017000000,Units=km
new line.RML10134685 bus1=BBT1259915.1.0,bus2=RML1060134685.1.0,Phases=1,Linecode=CABBTG02_4_1,Length=0.017000000,Units=km
new line.RML10136849 bus1=BBT45888553.1.0,bus2=RML1060136849.1.0,Phases=1,Linecode=CABBTG02_4_1,Length=0.017000000,Units=km
new line.RML10136918 bus1=BBT3965583.2.0,bus2=RML1060136918.2.0,Phases=1,Linecode=CABBTG02_4_1,Length=0.017000000,Units=km
new line.RML10137083 bus1=BBT36265247.1.0,bus2=RML1060137083.1.0,Phases=1,Linecode=CABBTG02_4_1,Length=0.017000000,Units=km
new line.RML10137122 bus1=BBT36265247.1.0,bus2=RML1060137122.1.0,Phases=1,Linecode=CABBTG02_4_1,Length=0.017000000,Units=km
new line.RML10137894 bus1=BBT1315474.1.0,bus2=RML1060137894.1.0,Phases=1,Linecode=CABBTG02_4_1,Length=0.017000000,Units=km
new line.RML10149405 bus1=BBT149811755.1.0,bus2=RML1060149405.1.0,Phases=1,Linecode=CABBTG02_4_1,Length=0.017000000,Units=km
new line.RML10149428 bus1=BBT1312310.1.2.0,bus2=RML1060149428.1.2.0,Phases=2,Linecode=CABBTG04_4_2,Length=0.017000000,Units=km
new line.RML10149444 bus1=BBT149811586.2.0,bus2=RML1060149444.2.0,Phases=1,Linecode=CABBTG02_4_1,Length=0.017000000,Units=km
new line.RML10149643 bus1=BBT1260755.3.0,bus2=RML1060149643.3.0,Phases=1,Linecode=CABBTG01_4_1,Length=0.017000000,Units=km
new line.RML10153965 bus1=BBT1318582.3.0,bus2=RML1060153965.3.0,Phases=1,Linecode=CABBTG02_4_1,Length=0.017000000,Units=km
new line.RML10156593 bus1=BBT1326688.2.3.0,bus2=RML1060156593.2.3.0,Phases=2,Linecode=CABBTG04_4_2,Length=0.017000000,Units=km
new line.RML10156646 bus1=BBT1317028.2.3.0,bus2=RML1060156646.2.3.0,Phases=2,Linecode=CABBTG05_4_2,Length=0.017000000,Units=km
new line.RML10156669 bus1=BBT1326639.1.0,bus2=RML1060156669.1.0,Phases=1,Linecode=CABBTG01_4_1,Length=0.017000000,Units=km
new line.RML10157669 bus1=BBT149814570.1.0,bus2=RML1060157669.1.0,Phases=1,Linecode=CABBTG01_4_1,Length=0.017000000,Units=km
new line.RML10157866 bus1=BBT149921620.1.2.0,bus2=RML1060157866.1.2.0,Phases=2,Linecode=CABBTG05_4_2,Length=0.017000000,Units=km
new line.RML10157870 bus1=BBT149921620.1.2.0,bus2=RML1060157870.1.2.0,Phases=2,Linecode=CABBTG05_4_2,Length=0.017000000,Units=km
new line.RML10157872 bus1=BBT149921620.1.2.0,bus2=RML1060157872.1.2.0,Phases=2,Linecode=CABBTG05_4_2,Length=0.017000000,Units=km
new line.RML10158279 bus1=BBT37752964.1.0,bus2=RML1060158279.1.0,Phases=1,Linecode=CABBTG01_4_1,Length=0.017000000,Units=km
new line.RML10180025 bus1=BBT149814570.2.0,bus2=RML1060180025.2.0,Phases=1,Linecode=CABBTG02_4_1,Length=0.017000000,Units=km
new line.RML10180107 bus1=BBT149814570.2.0,bus2=RML1060180107.2.0,Phases=1,Linecode=CABBTG01_4_1,Length=0.017000000,Units=km
new line.RML10180149 bus1=BBT1404304.1.2.0,bus2=RML1060180149.1.2.0,Phases=2,Linecode=CABBTG05_4_2,Length=0.017000000,Units=km
new line.RML10180154 bus1=BBT1319751.1.0,bus2=RML1060180154.1.0,Phases=1,Linecode=CABBTG01_4_1,Length=0.017000000,Units=km
new line.RML10180156 bus1=BBT1321046.1.0,bus2=RML1060180156.1.0,Phases=1,Linecode=CABBTG01_4_1,Length=0.017000000,Units=km
new line.RML10180172 bus1=BBT1319275.2.0,bus2=RML1060180172.2.0,Phases=1,Linecode=CABBTG01_4_1,Length=0.017000000,Units=km
new line.RML10180225 bus1=BBT149814570.1.2.0,bus2=RML1060180225.1.2.0,Phases=2,Linecode=CABBTG04_4_2,Length=0.017000000,Units=km
new line.RML10180479 bus1=BBT138798762.2.0,bus2=RML1060180479.2.0,Phases=1,Linecode=CABBTG02_4_1,Length=0.017000000,Units=km
new line.RML10180565 bus1=BBT1319513.2.0,bus2=RML1060180565.2.0,Phases=1,Linecode=CABBTG02_4_1,Length=0.017000000,Units=km
new line.RML10180568 bus1=BBT1321039.2.0,bus2=RML1060180568.2.0,Phases=1,Linecode=CABBTG01_4_1,Length=0.017000000,Units=km
new line.RML10180750 bus1=BBT1316062.1.0,bus2=RML1060180750.1.0,Phases=1,Linecode=CABBTG02_4_1,Length=0.017000000,Units=km
new line.RML10180764 bus1=BBT145423674.1.0,bus2=RML1060180764.1.0,Phases=1,Linecode=CABBTG02_4_1,Length=0.017000000,Units=km
new line.RML10180980 bus1=BBT1260741.1.0,bus2=RML1060180980.1.0,Phases=1,Linecode=CABBTG02_4_1,Length=0.017000000,Units=km
new line.RML10181057 bus1=BBT45888553.1.0,bus2=RML1060181057.1.0,Phases=1,Linecode=CABBTG02_4_1,Length=0.017000000,Units=km
new line.RML10181202 bus1=BBT149407483.1.2.0,bus2=RML1060181202.1.2.0,Phases=2,Linecode=CABBTG05_4_2,Length=0.017000000,Units=km
new line.RML10181220 bus1=BBT1327185.2.0,bus2=RML1060181220.2.0,Phases=1,Linecode=CABBTG02_4_1,Length=0.017000000,Units=km
new line.RML10181741 bus1=BBT1318659.2.3.0,bus2=RML1060181741.2.3.0,Phases=2,Linecode=CABBTG04_4_2,Length=0.017000000,Units=km
new line.RML10192332 bus1=BBT1402043.1.0,bus2=RML1060192332.1.0,Phases=1,Linecode=CABBTG02_4_1,Length=0.017000000,Units=km
new line.RML10192337 bus1=BBT1318673.1.0,bus2=RML1060192337.1.0,Phases=1,Linecode=CABBTG02_4_1,Length=0.017000000,Units=km
new line.RML10192903 bus1=BBT1331483.1.2.0,bus2=RML1060192903.1.2.0,Phases=2,Linecode=CABBTG05_4_2,Length=0.017000000,Units=km
new line.RML10192931 bus1=BBT1404381.1.0,bus2=RML1060192931.1.0,Phases=1,Linecode=CABBTG02_4_1,Length=0.017000000,Units=km
new line.RML10192944 bus1=BBT8777978.1.0,bus2=RML1060192944.1.0,Phases=1,Linecode=CABBTG02_4_1,Length=0.017000000,Units=km
new line.RML10192991 bus1=BBT1308187.2.0,bus2=RML1060192991.2.0,Phases=1,Linecode=CABBTG02_4_1,Length=0.017000000,Units=km
new line.RML10203433 bus1=BBT36265247.1.0,bus2=RML1060203433.1.0,Phases=1,Linecode=CABBTG01_4_1,Length=0.017000000,Units=km
new line.RML10206141 bus1=BBT1260622.2.0,bus2=RML1060206141.2.0,Phases=1,Linecode=CABBTG02_4_1,Length=0.017000000,Units=km
new line.RML10206283 bus1=BBT2722250.1.2.0,bus2=RML1060206283.1.2.0,Phases=2,Linecode=CABBTG05_4_2,Length=0.017000000,Units=km
new line.RML10207621 bus1=BBT106261495.1.0,bus2=RML1060207621.1.0,Phases=1,Linecode=CABBTG02_4_1,Length=0.017000000,Units=km
new line.RML10207626 bus1=BBT1406005.1.0,bus2=RML1060207626.1.0,Phases=1,Linecode=CABBTG02_4_1,Length=0.017000000,Units=km
new line.RML10207684 bus1=BBT2612812.1.3.0,bus2=RML1060207684.1.3.0,Phases=2,Linecode=CABBTG05_4_2,Length=0.017000000,Units=km
new line.RML10207749 bus1=BBT1320430.2.0,bus2=RML1060207749.2.0,Phases=1,Linecode=CABBTG01_4_1,Length=0.017000000,Units=km
new line.RML10208121 bus1=BBT1319233.2.0,bus2=RML1060208121.2.0,Phases=1,Linecode=CABBTG02_4_1,Length=0.017000000,Units=km
new line.RML10209221 bus1=BBT1319261.2.0,bus2=RML1060209221.2.0,Phases=1,Linecode=CABBTG01_4_1,Length=0.017000000,Units=km
new line.RML10220446 bus1=BBT1330930.3.0,bus2=RML1060220446.3.0,Phases=1,Linecode=CABBTG02_4_1,Length=0.017000000,Units=km
new line.RML10220454 bus1=BBT3965618.1.0,bus2=RML1060220454.1.0,Phases=1,Linecode=CABBTG02_4_1,Length=0.017000000,Units=km
new line.RML10220487 bus1=BBT1312366.1.2.0,bus2=RML1060220487.1.2.0,Phases=2,Linecode=CABBTG05_4_2,Length=0.017000000,Units=km
new line.RML10220531 bus1=BBT1260580.2.0,bus2=RML1060220531.2.0,Phases=1,Linecode=CABBTG02_4_1,Length=0.017000000,Units=km
new line.RML10220606 bus1=BBT2866772.1.0,bus2=RML1060220606.1.0,Phases=1,Linecode=CABBTG02_4_1,Length=0.017000000,Units=km
new line.RML10220611 bus1=BBT149407483.1.0,bus2=RML1060220611.1.0,Phases=1,Linecode=CABBTG02_4_1,Length=0.017000000,Units=km
new line.RML10220614 bus1=BBT149407483.3.0,bus2=RML1060220614.3.0,Phases=1,Linecode=CABBTG02_4_1,Length=0.017000000,Units=km
new line.RML10222862 bus1=BBT150878156.2.0,bus2=RML1060222862.2.0,Phases=1,Linecode=CABBTG01_4_1,Length=0.017000000,Units=km
new line.RML10223842 bus1=BBT2718645.1.0,bus2=RML1060223842.1.0,Phases=1,Linecode=CABBTG02_4_1,Length=0.017000000,Units=km
new line.RML10223845 bus1=BBT1321977.3.0,bus2=RML1060223845.3.0,Phases=1,Linecode=CABBTG02_4_1,Length=0.017000000,Units=km
new line.RML10223849 bus1=BBT148170644.1.3.0,bus2=RML1060223849.1.3.0,Phases=2,Linecode=CABBTG05_4_2,Length=0.017000000,Units=km
new line.RML10223948 bus1=BBT1330055.1.3.0,bus2=RML1060223948.1.3.0,Phases=2,Linecode=CABBTG05_4_2,Length=0.017000000,Units=km
new line.RML10224058 bus1=BBT150878142.1.0,bus2=RML1060224058.1.0,Phases=1,Linecode=CABBTG02_4_1,Length=0.017000000,Units=km
new line.RML10224070 bus1=BBT3142341.1.2.0,bus2=RML1060224070.1.2.0,Phases=2,Linecode=CABBTG05_4_2,Length=0.017000000,Units=km
new line.RML10224086 bus1=BBT150878142.2.0,bus2=RML1060224086.2.0,Phases=1,Linecode=CABBTG02_4_1,Length=0.017000000,Units=km
new line.RML10224089 bus1=BBT150878142.1.0,bus2=RML1060224089.1.0,Phases=1,Linecode=CABBTG02_4_1,Length=0.017000000,Units=km
new line.RML10224095 bus1=BBT150878142.1.0,bus2=RML1060224095.1.0,Phases=1,Linecode=CABBTG02_4_1,Length=0.017000000,Units=km
new line.RML10224189 bus1=BBT1316594.1.0,bus2=RML1060224189.1.0,Phases=1,Linecode=CABBTG02_4_1,Length=0.017000000,Units=km
new line.RML10224310 bus1=BBT24253634.1.2.0,bus2=RML1060224310.1.2.0,Phases=2,Linecode=CABBTG05_4_2,Length=0.017000000,Units=km
new line.RML10224334 bus1=BBT1316538.1.0,bus2=RML1060224334.1.0,Phases=1,Linecode=CABBTG02_4_1,Length=0.017000000,Units=km
new line.RML10224474 bus1=BBT150193082.1.2.3.0,bus2=RML1060224474.1.2.3.0,Phases=3,Linecode=CABBTG06_4_3,Length=0.017000000,Units=km
new line.RML10224682 bus1=BBT1318883.3.0,bus2=RML1060224682.3.0,Phases=1,Linecode=CABBTG02_4_1,Length=0.017000000,Units=km
new line.RML10224800 bus1=BBT127203129.1.0,bus2=RML1060224800.1.0,Phases=1,Linecode=CABBTG02_4_1,Length=0.017000000,Units=km
new line.RML10237945 bus1=BBT1330958.2.0,bus2=RML1060237945.2.0,Phases=1,Linecode=CABBTG02_4_1,Length=0.017000000,Units=km
new line.RML10238799 bus1=BBT1259929.2.0,bus2=RML1060238799.2.0,Phases=1,Linecode=CABBTG02_4_1,Length=0.017000000,Units=km
new line.RML10238821 bus1=BBT4887238.1.2.0,bus2=RML1060238821.1.2.0,Phases=2,Linecode=CABBTG05_4_2,Length=0.017000000,Units=km
new line.RML10238823 bus1=BBT1313073.3.0,bus2=RML1060238823.3.0,Phases=1,Linecode=CABBTG02_4_1,Length=0.017000000,Units=km
new line.RML10241976 bus1=BBT1317014.2.0,bus2=RML1060241976.2.0,Phases=1,Linecode=CABBTG02_4_1,Length=0.017000000,Units=km
new line.RML10253642 bus1=BBT1260636.1.2.0,bus2=RML1060253642.1.2.0,Phases=2,Linecode=CABBTG05_4_2,Length=0.017000000,Units=km
new line.RML10253661 bus1=BBT1315068.1.0,bus2=RML1060253661.1.0,Phases=1,Linecode=CABBTG02_4_1,Length=0.017000000,Units=km
new line.RML10253862 bus1=BBT1317686.1.0,bus2=RML1060253862.1.0,Phases=1,Linecode=CABBTG02_4_1,Length=0.017000000,Units=km
new line.RML10255634 bus1=BBT1321893.2.0,bus2=RML1060255634.2.0,Phases=1,Linecode=CABBTG02_4_1,Length=0.017000000,Units=km
new line.RML10255638 bus1=BBT1321893.1.0,bus2=RML1060255638.1.0,Phases=1,Linecode=CABBTG02_4_1,Length=0.017000000,Units=km
new line.RML10255681 bus1=BBT1331553.1.2.0,bus2=RML1060255681.1.2.0,Phases=2,Linecode=CABBTG05_4_2,Length=0.017000000,Units=km
new line.RML10255727 bus1=BBT145423674.1.0,bus2=RML1060255727.1.0,Phases=1,Linecode=CABBTG02_4_1,Length=0.017000000,Units=km
new line.RML10255733 bus1=BBT106261495.1.0,bus2=RML1060255733.1.0,Phases=1,Linecode=CABBTG02_4_1,Length=0.017000000,Units=km
new line.RML10262661 bus1=BBT1331994.1.3.0,bus2=RML1060262661.1.3.0,Phases=2,Linecode=CABBTG05_4_2,Length=0.017000000,Units=km
new line.RML10262673 bus1=BBT1419788.1.0,bus2=RML1060262673.1.0,Phases=1,Linecode=CABBTG01_4_1,Length=0.017000000,Units=km
new line.RML10263005 bus1=BBT1316335.3.0,bus2=RML1060263005.3.0,Phases=1,Linecode=CABBTG03_4_1,Length=0.017000000,Units=km
new line.RML10275165 bus1=BBT3965618.2.0,bus2=RML1060275165.2.0,Phases=1,Linecode=CABBTG02_4_1,Length=0.017000000,Units=km
new line.RML10275189 bus1=BBT1320997.1.0,bus2=RML1060275189.1.0,Phases=1,Linecode=CABBTG02_4_1,Length=0.017000000,Units=km
new line.RML10275202 bus1=BBT129734350.3.0,bus2=RML1060275202.3.0,Phases=1,Linecode=CABBTG02_4_1,Length=0.017000000,Units=km
new line.RML10275414 bus1=BBT1319478.3.0,bus2=RML1060275414.3.0,Phases=1,Linecode=CABBTG02_4_1,Length=0.017000000,Units=km
new line.RML10275891 bus1=BBT1315019.2.0,bus2=RML1060275891.2.0,Phases=1,Linecode=CABBTG02_4_1,Length=0.017000000,Units=km
new line.RML10287892 bus1=BBT1401987.1.0,bus2=RML1060287892.1.0,Phases=1,Linecode=CABBTG02_4_1,Length=0.017000000,Units=km
new line.RML10287997 bus1=BBT3965583.1.0,bus2=RML1060287997.1.0,Phases=1,Linecode=CABBTG02_4_1,Length=0.017000000,Units=km
new line.RML10313515 bus1=BBT150878142.1.0,bus2=RML1060313515.1.0,Phases=1,Linecode=CABBTG02_4_1,Length=0.017000000,Units=km
new line.RML10313517 bus1=BBT1260958.1.0,bus2=RML1060313517.1.0,Phases=1,Linecode=CABBTG02_4_1,Length=0.017000000,Units=km
new line.RML10313521 bus1=BBT1330776.1.0,bus2=RML1060313521.1.0,Phases=1,Linecode=CABBTG02_4_1,Length=0.017000000,Units=km
new line.RML10313897 bus1=BBT1312513.1.0,bus2=RML1060313897.1.0,Phases=1,Linecode=CABBTG02_4_1,Length=0.017000000,Units=km
new line.RML10314008 bus1=BBT1331462.1.0,bus2=RML1060314008.1.0,Phases=1,Linecode=CABBTG02_4_1,Length=0.017000000,Units=km
new line.RML10316367 bus1=BBT1316538.3.0,bus2=RML1060316367.3.0,Phases=1,Linecode=CABBTG02_4_1,Length=0.017000000,Units=km
new line.RML10316369 bus1=BBT1331861.1.2.0,bus2=RML1060316369.1.2.0,Phases=2,Linecode=CABBTG05_4_2,Length=0.017000000,Units=km
new line.RML10316573 bus1=BBT1329894.3.0,bus2=RML1060316573.3.0,Phases=1,Linecode=CABBTG02_4_1,Length=0.017000000,Units=km
new line.RML10317186 bus1=BBT36265485.1.2.0,bus2=RML1060317186.1.2.0,Phases=2,Linecode=CABBTG05_4_2,Length=0.017000000,Units=km
new line.RML10329535 bus1=BBT1331588.1.0,bus2=RML1060329535.1.0,Phases=1,Linecode=CABBTG02_4_1,Length=0.017000000,Units=km
new line.RML10329669 bus1=BBT1259915.1.0,bus2=RML1060329669.1.0,Phases=1,Linecode=CABBTG02_4_1,Length=0.017000000,Units=km
new line.RML10329753 bus1=BBT1316545.1.0,bus2=RML1060329753.1.0,Phases=1,Linecode=CABBTG02_4_1,Length=0.017000000,Units=km
new line.RML10329760 bus1=BBT149921554.1.0,bus2=RML1060329760.1.0,Phases=1,Linecode=CABBTG02_4_1,Length=0.017000000,Units=km
new line.RML10330163 bus1=BBT138798762.3.0,bus2=RML1060330163.3.0,Phases=1,Linecode=CABBTG02_4_1,Length=0.017000000,Units=km
new line.RML10338067 bus1=BBT1319471.3.0,bus2=RML1060338067.3.0,Phases=1,Linecode=CABBTG02_4_1,Length=0.017000000,Units=km
new line.RML10342610 bus1=BBT1311946.1.3.0,bus2=RML1060342610.1.3.0,Phases=2,Linecode=CABBTG05_4_2,Length=0.017000000,Units=km
new line.RML10357873 bus1=BBT1317014.1.2.0,bus2=RML1060357873.1.2.0,Phases=2,Linecode=CABBTG05_4_2,Length=0.017000000,Units=km
new line.RML10361126 bus1=BBT1321809.2.0,bus2=RML1060361126.2.0,Phases=1,Linecode=CABBTG02_4_1,Length=0.017000000,Units=km
new line.RML10361506 bus1=BBT1312618.1.0,bus2=RML1060361506.1.0,Phases=1,Linecode=CABBTG02_4_1,Length=0.017000000,Units=km
new line.RML10361524 bus1=BBT1326072.2.3.0,bus2=RML1060361524.2.3.0,Phases=2,Linecode=CABBTG05_4_2,Length=0.017000000,Units=km
new line.RML10364936 bus1=BBT1326359.1.2.0,bus2=RML1060364936.1.2.0,Phases=2,Linecode=CABBTG05_4_2,Length=0.017000000,Units=km
new line.RML10366997 bus1=BBT152713544.1.2.0,bus2=RML1060366997.1.2.0,Phases=2,Linecode=CABBTG05_4_2,Length=0.012000000,Units=km
new line.RML10368597 bus1=BBT36265485.1.2.0,bus2=RML1060368597.1.2.0,Phases=2,Linecode=CABBTG05_4_2,Length=0.017000000,Units=km
new line.RML10368636 bus1=BBT3965597.1.2.0,bus2=RML1060368636.1.2.0,Phases=2,Linecode=CABBTG05_4_2,Length=0.017000000,Units=km
new line.RML10369094 bus1=BBT1312779.1.0,bus2=RML1060369094.1.0,Phases=1,Linecode=CABBTG02_4_1,Length=0.017000000,Units=km
new line.RML10375798 bus1=BBT1404353.2.0,bus2=RML1060375798.2.0,Phases=1,Linecode=CABBTG02_4_1,Length=0.017000000,Units=km
new line.RML10376202 bus1=BBT1311988.2.3.0,bus2=RML1060376202.2.3.0,Phases=2,Linecode=CABBTG05_4_2,Length=0.017000000,Units=km
new line.RML10376639 bus1=BBT1332099.1.0,bus2=RML1060376639.1.0,Phases=1,Linecode=CABBTG02_4_1,Length=0.017000000,Units=km
new line.RML10384505 bus1=BBT2294634.1.2.3.0,bus2=RML1060384505.1.2.3.0,Phases=3,Linecode=CABBTG06_4_3,Length=0.017000000,Units=km
new line.RML10385478 bus1=BBT138798755.2.0,bus2=RML1060385478.2.0,Phases=1,Linecode=CABBTG02_4_1,Length=0.017000000,Units=km
new line.RML10387828 bus1=BBT1318001.3.0,bus2=RML1060387828.3.0,Phases=1,Linecode=CABBTG02_4_1,Length=0.017000000,Units=km
new line.RML10388720 bus1=BBT153084596.1.2.0,bus2=RML1060388720.1.2.0,Phases=2,Linecode=CABBTG05_4_2,Length=0.017000000,Units=km
new line.RML10391720 bus1=BBT1260636.1.0,bus2=RML1060391720.1.0,Phases=1,Linecode=CABBTG02_4_1,Length=0.017000000,Units=km
new line.RML10392001 bus1=BBT5195399.1.0,bus2=RML1060392001.1.0,Phases=1,Linecode=CABBTG02_4_1,Length=0.017000000,Units=km