new load.3009012560M1 bus1=BMT126914575.1.2.3.0,Phases=3,kv=13.8,kW=153.27714,pf=0.92,Vminpu=0.93,Vmaxpu=1.5,model=8,zipv=[0.5,0,0.5,1,0,0,0],daily=A4-3,status=variable
new load.3009012561M1 bus1=BMT126914561.1.2.3.0,Phases=3,kv=13.8,kW=74.51116,pf=0.92,Vminpu=0.93,Vmaxpu=1.5,model=8,zipv=[0.5,0,0.5,1,0,0,0],daily=A4-2,status=variable
new load.3009016694M1 bus1=BMT170557151.1.2.3.0,Phases=3,kv=13.8,kW=56.17138,pf=0.92,Vminpu=0.93,Vmaxpu=1.5,model=8,zipv=[0.5,0,0.5,1,0,0,0],daily=A4-4,status=variable
new load.3009019403M1 bus1=BMT170557115.1.2.3.0,Phases=3,kv=13.8,kW=25.37336,pf=0.92,Vminpu=0.93,Vmaxpu=1.5,model=8,zipv=[0.5,0,0.5,1,0,0,0],daily=A4-4,status=variable
new load.3010053317M1 bus1=BMT126914309.1.2.3.0,Phases=3,kv=13.8,kW=30.72436,pf=0.92,Vminpu=0.93,Vmaxpu=1.5,model=8,zipv=[0.5,0,0.5,1,0,0,0],daily=A4-2,status=variable
new load.3011789839M1 bus1=BMT150346378.1.2.3.0,Phases=3,kv=13.8,kW=21.8736,pf=0.92,Vminpu=0.93,Vmaxpu=1.5,model=8,zipv=[0.5,0,0.5,1,0,0,0],daily=A4-4,status=variable
new load.3011999158M1 bus1=BMT162756568.1.2.3.0,Phases=3,kv=13.8,kW=83.58512,pf=0.92,Vminpu=0.93,Vmaxpu=1.5,model=8,zipv=[0.5,0,0.5,1,0,0,0],daily=A4-3,status=variable
new load.3013482023M1 bus1=BMT170556806.1.2.3.0,Phases=3,kv=13.8,kW=109.04786,pf=0.92,Vminpu=0.93,Vmaxpu=1.5,model=8,zipv=[0.5,0,0.5,1,0,0,0],daily=A4-4,status=variable
