new line.1165191 bus1=BBT1260601.1.2.0,bus2=BBT1260608.1.2.0,Phases=2,Linecode=BT807_BT807_4_2_3,Length=0.036893000,Units=km
new line.1165198 bus1=BBT1260615.1.2.0,bus2=BBT1260622.1.2.0,Phases=2,Linecode=BT513_BT513_7_2_1,Length=0.000501000,Units=km
new line.1165205 bus1=BBT1260622.1.2.0,bus2=BBT1260629.1.2.0,Phases=2,Linecode=BT807_BT807_4_2_3,Length=0.035454000,Units=km
new line.1165212 bus1=BBT1260622.1.2.0,bus2=BBT1260657.1.2.0,Phases=2,Linecode=BT807_BT807_4_2_3,Length=0.038486000,Units=km
new line.1165219 bus1=BBT1260629.1.2.0,bus2=BBT1260636.1.2.0,Phases=2,Linecode=BT801_BT801_4_2_3,Length=0.036784000,Units=km
new line.1165226 bus1=BBT1260629.1.2.0,bus2=BBT1260643.1.2.0,Phases=2,Linecode=BT807_BT807_4_2_3,Length=0.037378000,Units=km
new line.1165233 bus1=BBT1260629.1.2.0,bus2=BBT1260678.1.2.0,Phases=2,Linecode=BT801_BT801_4_2_3,Length=0.031636000,Units=km
new line.1165240 bus1=BBT1260643.1.2.0,bus2=BBT1260650.1.2.0,Phases=2,Linecode=BT807_BT807_4_2_3,Length=0.031061000,Units=km
new line.1165247 bus1=BBT1260657.1.2.0,bus2=BBT1260664.1.2.0,Phases=2,Linecode=BT807_BT807_4_2_3,Length=0.036360000,Units=km
new line.1165254 bus1=BBT1260664.1.2.0,bus2=BBT1260671.1.2.0,Phases=2,Linecode=BT807_BT807_4_2_3,Length=0.042971000,Units=km
new line.1165261 bus1=BBT1260678.1.2.0,bus2=BBT1260685.1.2.0,Phases=2,Linecode=BT801_BT801_4_2_3,Length=0.027868000,Units=km
new line.1165268 bus1=BBT1260685.1.2.0,bus2=BBT1260692.1.2.0,Phases=2,Linecode=BT801_BT801_4_2_3,Length=0.029559000,Units=km
new line.1165275 bus1=BBT1260706.1.2.3.0,bus2=BBT1260720.1.2.3.0,Phases=3,Linecode=BT803_BT803_4_3_4,Length=0.034073000,Units=km
new line.1165282 bus1=BBT1260713.1.2.3.0,bus2=BBT1260706.1.2.3.0,Phases=3,Linecode=BT803_BT803_4_3_4,Length=0.033150000,Units=km
new line.1165289 bus1=BBT1260699.1.2.3.0,bus2=BBT1260713.1.2.3.0,Phases=3,Linecode=BT518_BT518_7_3_1,Length=0.000501000,Units=km
new line.1165296 bus1=BBT1260713.1.2.3.0,bus2=BBT1260769.1.2.3.0,Phases=3,Linecode=BT803_BT803_4_3_4,Length=0.038225000,Units=km
new line.1165303 bus1=BBT1260720.1.2.3.0,bus2=BBT1260741.1.2.3.0,Phases=3,Linecode=BT803_BT803_4_3_4,Length=0.029029000,Units=km
new line.1165310 bus1=BBT1260727.1.2.3.0,bus2=BBT1260755.1.2.3.0,Phases=3,Linecode=BT803_BT803_4_3_4,Length=0.037069000,Units=km
new line.1165317 bus1=BBT1260741.1.2.3.0,bus2=BBT1260727.1.2.3.0,Phases=3,Linecode=BT803_BT803_4_3_4,Length=0.035014000,Units=km
new line.1165324 bus1=BBT1260741.1.2.3.0,bus2=BBT1260748.1.2.3.0,Phases=3,Linecode=BT809_BT809_4_3_4,Length=0.036511000,Units=km
new line.1165331 bus1=BBT1260755.1.2.3.0,bus2=BBT1260762.1.2.3.0,Phases=3,Linecode=BT803_BT803_4_3_4,Length=0.036139000,Units=km
new line.1165338 bus1=BBT1260762.1.2.3.0,bus2=BBT1260818.1.2.3.0,Phases=3,Linecode=BT810_BT810_4_3_4,Length=0.030162000,Units=km
new line.1165345 bus1=BBT1260769.1.2.3.0,bus2=BBT1260776.1.2.3.0,Phases=3,Linecode=BT803_BT803_4_3_4,Length=0.036139000,Units=km
new line.1165352 bus1=BBT1260776.1.2.3.0,bus2=BBT1260783.1.2.3.0,Phases=3,Linecode=BT803_BT803_4_3_4,Length=0.035370000,Units=km
new line.1165359 bus1=BBT1260783.1.2.3.0,bus2=BBT1260790.1.2.3.0,Phases=3,Linecode=BT809_BT809_4_3_4,Length=0.038486000,Units=km
new line.1165366 bus1=BBT1260790.1.2.3.0,bus2=BBT1260797.1.2.3.0,Phases=3,Linecode=BT809_BT809_4_3_4,Length=0.037351000,Units=km
new line.1165373 bus1=BBT1260797.1.2.3.0,bus2=BBT1260804.1.2.3.0,Phases=3,Linecode=BT809_BT809_4_3_4,Length=0.037870000,Units=km
new line.1165380 bus1=BBT1260804.1.2.3.0,bus2=BBT1260811.1.2.3.0,Phases=3,Linecode=BT809_BT809_4_3_4,Length=0.038094000,Units=km
new line.1165387 bus1=BBT1260811.1.2.3.0,bus2=BBT1260734.1.2.3.0,Phases=3,Linecode=BT809_BT809_4_3_4,Length=0.037870000,Units=km
new line.1165492 bus1=BBT1260944.1.2.0,bus2=BBT1260937.1.2.0,Phases=2,Linecode=BT801_BT801_4_2_3,Length=0.037672000,Units=km
new line.1165499 bus1=BBT1260944.1.2.0,bus2=BBT1260951.1.2.0,Phases=2,Linecode=BT801_BT801_4_2_3,Length=0.032770000,Units=km
new line.1165506 bus1=BBT1260958.1.2.0,bus2=BBT1260944.1.2.0,Phases=2,Linecode=BT807_BT807_4_2_3,Length=0.032770000,Units=km
new line.1165513 bus1=BBT1260930.1.2.0,bus2=BBT1260958.1.2.0,Phases=2,Linecode=BT518_BT518_7_2_1,Length=0.000501000,Units=km
new line.1165520 bus1=BBT1260958.1.2.0,bus2=BBT1260965.1.2.0,Phases=2,Linecode=BT807_BT807_4_2_3,Length=0.031061000,Units=km
new line.1165527 bus1=BBT1318967.1.2.0,bus2=BBT1318974.1.2.0,Phases=2,Linecode=BT108_BT107_7_2_1,Length=0.029626000,Units=km
new line.1165534 bus1=BBT1318967.1.2.0,bus2=BBT1318995.1.2.0,Phases=2,Linecode=BT107_BT106_7_2_1,Length=0.032401000,Units=km
new line.1211734 bus1=BBT1307235.1.2.0,bus2=BBT1307228.1.2.0,Phases=2,Linecode=BT107_BT106_7_2_1,Length=0.035917000,Units=km
new line.1211741 bus1=BBT1307242.1.2.0,bus2=BBT1307235.1.2.0,Phases=2,Linecode=BT107_BT106_7_2_1,Length=0.034943000,Units=km
new line.1211748 bus1=BBT1307256.1.2.0,bus2=BBT1307242.1.2.0,Phases=2,Linecode=BT107_BT106_7_2_1,Length=0.036153000,Units=km
new line.1211755 bus1=BBT1307263.1.2.0,bus2=BBT1307256.1.2.0,Phases=2,Linecode=BT108_BT107_7_2_1,Length=0.039828000,Units=km
new line.1211762 bus1=BBT1307270.1.2.0,bus2=BBT1307263.1.2.0,Phases=2,Linecode=BT108_BT107_7_2_1,Length=0.036153000,Units=km
new line.1211769 bus1=BBT1307221.1.2.0,bus2=BBT1307270.1.2.0,Phases=2,Linecode=BT508_BT508_7_2_1,Length=0.000501000,Units=km
new line.1211776 bus1=BBT1307270.1.2.0,bus2=BBT1307277.1.2.0,Phases=2,Linecode=BT108_BT107_7_2_1,Length=0.035242000,Units=km
new line.1211783 bus1=BBT1307277.1.2.0,bus2=BBT1307284.1.2.0,Phases=2,Linecode=BT108_BT107_7_2_1,Length=0.037136000,Units=km
new line.1211790 bus1=BBT1307277.1.2.0,bus2=BBT1315019.1.2.0,Phases=2,Linecode=BT107_BT106_7_2_1,Length=0.041248000,Units=km
new line.1211797 bus1=BBT1307284.1.2.0,bus2=BBT1307249.1.2.0,Phases=2,Linecode=BT107_BT106_7_2_1,Length=0.038964000,Units=km
new line.1211804 bus1=BBT1307284.1.2.0,bus2=BBT1307291.1.2.0,Phases=2,Linecode=BT107_BT106_7_2_1,Length=0.029744000,Units=km
new line.1211811 bus1=BBT1315019.1.2.0,bus2=BBT2875781.1.2.0,Phases=2,Linecode=BT107_BT106_7_2_1,Length=0.036893000,Units=km
new line.1212182 bus1=BBT1307655.1.2.3.0,bus2=BBT1307662.1.2.3.0,Phases=3,Linecode=BT513_BT513_7_3_1,Length=0.000501000,Units=km
new line.1212616 bus1=BBT1308103.1.2.0,bus2=BBT1308096.1.2.0,Phases=2,Linecode=BT107_BT106_7_2_1,Length=0.033300000,Units=km
new line.1212623 bus1=BBT1308103.1.2.0,bus2=BBT1308110.1.2.0,Phases=2,Linecode=BT107_BT106_7_2_1,Length=0.041017000,Units=km
new line.1212630 bus1=BBT1308110.1.2.0,bus2=BBT1308117.1.2.0,Phases=2,Linecode=BT107_BT106_7_2_1,Length=0.027670000,Units=km
new line.1212637 bus1=BBT1308117.1.2.0,bus2=BBT1308124.1.2.0,Phases=2,Linecode=BT107_BT106_7_2_1,Length=0.038094000,Units=km
new line.1212644 bus1=BBT1308124.1.2.0,bus2=BBT1308138.1.2.0,Phases=2,Linecode=BT107_BT106_7_2_1,Length=0.031793000,Units=km
new line.1212651 bus1=BBT1308131.1.2.0,bus2=BBT1308103.1.2.0,Phases=2,Linecode=BT108_BT107_7_2_1,Length=0.031334000,Units=km
new line.1212658 bus1=BBT1308089.1.2.0,bus2=BBT1308131.1.2.0,Phases=2,Linecode=BT508_BT508_7_2_1,Length=0.000501000,Units=km
new line.1212665 bus1=BBT1308131.1.2.0,bus2=BBT1308152.1.2.0,Phases=2,Linecode=BT108_BT107_7_2_1,Length=0.027214000,Units=km
new line.1212672 bus1=BBT1308138.1.2.0,bus2=BBT1308145.1.2.0,Phases=2,Linecode=BT107_BT106_7_2_1,Length=0.039067000,Units=km
new line.1212679 bus1=BBT1308152.1.2.0,bus2=BBT1308159.1.2.0,Phases=2,Linecode=BT107_BT107_7_2_1,Length=0.039067000,Units=km
new line.10012610 bus1=BBT145423667.1.2.0,bus2=BBT146545970.1.2.0,Phases=2,Linecode=BT803_BT803_4_2_4,Length=0.035242000,Units=km
new line.10012617 bus1=BBT106262524.1.2.0,bus2=BBT145423674.1.2.0,Phases=2,Linecode=BT803_BT803_4_2_4,Length=0.034248000,Units=km
new line.10015781 bus1=BBT145530494.1.2.3.0,bus2=BBT145530501.1.2.3.0,Phases=3,Linecode=BT513_BT513_7_3_1,Length=0.000501000,Units=km
new line.10015802 bus1=BBT1312359.1.2.3.0,bus2=BBT145530781.1.2.3.0,Phases=3,Linecode=BT803_BT803_4_3_4,Length=0.036893000,Units=km
new line.1163357 bus1=BBT1258494.1.2.0,bus2=BBT1258501.1.2.0,Phases=2,Linecode=BT507_BT507_7_2_1,Length=0.000501000,Units=km
new line.1163378 bus1=BBT1258536.1.2.0,bus2=BBT1258543.1.2.0,Phases=2,Linecode=BT507_BT507_7_2_1,Length=0.000501000,Units=km
new line.1163441 bus1=BBT1258620.1.2.0,bus2=BBT1258627.1.2.0,Phases=2,Linecode=BT507_BT507_7_2_1,Length=0.000501000,Units=km
new line.1164414 bus1=BBT1259880.1.2.0,bus2=BBT1259887.1.2.0,Phases=2,Linecode=BT807_BT807_4_2_3,Length=0.038225000,Units=km
new line.1164421 bus1=BBT1259887.1.2.0,bus2=BBT1259901.1.2.0,Phases=2,Linecode=BT807_BT807_4_2_3,Length=0.037498000,Units=km
new line.1164428 bus1=BBT1259894.1.2.0,bus2=BBT1259880.1.2.0,Phases=2,Linecode=BT807_BT807_4_2_3,Length=0.036139000,Units=km
new line.1164435 bus1=BBT1259873.1.2.0,bus2=BBT1259894.1.2.0,Phases=2,Linecode=BT518_BT518_7_2_1,Length=0.000501000,Units=km
new line.1164442 bus1=BBT1259894.1.2.0,bus2=BBT1259908.1.2.0,Phases=2,Linecode=BT807_BT807_4_2_3,Length=0.035370000,Units=km
new line.1164449 bus1=BBT1259908.1.2.0,bus2=BBT1259915.1.2.0,Phases=2,Linecode=BT807_BT807_4_2_3,Length=0.034670000,Units=km
new line.1164456 bus1=BBT1259915.1.2.0,bus2=BBT1259922.1.2.0,Phases=2,Linecode=BT807_BT807_4_2_3,Length=0.034670000,Units=km
new line.1164463 bus1=BBT1259922.1.2.0,bus2=BBT1259929.1.2.0,Phases=2,Linecode=BT807_BT807_4_2_3,Length=0.037177000,Units=km
new line.1165079 bus1=BBT1260503.1.2.3.0,bus2=BBT1260524.1.2.3.0,Phases=3,Linecode=BT803_BT803_4_3_4,Length=0.027868000,Units=km
new line.1165086 bus1=BBT1260510.1.2.3.0,bus2=BBT1260503.1.2.3.0,Phases=3,Linecode=BT803_BT803_4_3_4,Length=0.025309000,Units=km
new line.1165093 bus1=BBT1260496.1.2.3.0,bus2=BBT1260510.1.2.3.0,Phases=3,Linecode=BT518_BT518_7_3_1,Length=0.000501000,Units=km
new line.1165100 bus1=BBT1260510.1.2.3.0,bus2=BBT1260517.1.2.3.0,Phases=3,Linecode=BT803_BT803_4_3_4,Length=0.047146000,Units=km
new line.1165107 bus1=BBT1260517.1.2.3.0,bus2=BBT1260531.1.2.3.0,Phases=3,Linecode=BT803_BT803_4_3_4,Length=0.035750000,Units=km
new line.1165114 bus1=BBT1260524.1.2.3.0,bus2=BBT1260545.1.2.3.0,Phases=3,Linecode=BT809_BT809_4_3_4,Length=0.041248000,Units=km
new line.1165121 bus1=BBT1260531.1.2.3.0,bus2=BBT1260538.1.2.3.0,Phases=3,Linecode=BT803_BT803_4_3_4,Length=0.041017000,Units=km
new line.1165128 bus1=BBT1260545.1.2.3.0,bus2=BBT1260552.1.2.3.0,Phases=3,Linecode=BT809_BT809_4_3_4,Length=0.037963000,Units=km
new line.1165135 bus1=BBT1260552.1.2.3.0,bus2=BBT1260559.1.2.3.0,Phases=3,Linecode=BT809_BT809_4_3_4,Length=0.036070000,Units=km
new line.1165149 bus1=BBT1260573.1.2.0,bus2=BBT1260594.1.2.0,Phases=2,Linecode=BT807_BT807_4_2_3,Length=0.044929000,Units=km
new line.1165156 bus1=BBT1260580.1.2.0,bus2=BBT1260573.1.2.0,Phases=2,Linecode=BT807_BT807_4_2_3,Length=0.039828000,Units=km
new line.1165163 bus1=BBT1260587.1.2.0,bus2=BBT1260580.1.2.0,Phases=2,Linecode=BT807_BT807_4_2_3,Length=0.040809000,Units=km
new line.1165170 bus1=BBT1260566.1.2.0,bus2=BBT1260587.1.2.0,Phases=2,Linecode=BT313_BT313_7_2_1,Length=0.000501000,Units=km
new line.1165177 bus1=BBT1260587.1.2.0,bus2=BBT1260601.1.2.0,Phases=2,Linecode=BT807_BT807_4_2_3,Length=0.031588000,Units=km
new line.1220988 bus1=BBT1316314.1.2.3.0,bus2=BBT1316328.1.2.3.0,Phases=3,Linecode=BT803_BT803_4_3_4,Length=0.034496000,Units=km
new line.1220995 bus1=BBT1316321.1.2.3.0,bus2=BBT1316335.1.2.3.0,Phases=3,Linecode=BT803_BT803_4_3_4,Length=0.032262000,Units=km
new line.1221002 bus1=BBT1316335.1.2.3.0,bus2=BBT1316342.1.2.3.0,Phases=3,Linecode=BT803_BT803_4_3_4,Length=0.028665000,Units=km
new line.1221100 bus1=BBT1316447.1.2.0,bus2=BBT1316454.1.2.0,Phases=2,Linecode=BT108_BT107_7_2_1,Length=0.027011000,Units=km
new line.1221107 bus1=BBT1316440.1.2.0,bus2=BBT1316447.1.2.0,Phases=2,Linecode=BT513_BT513_7_2_1,Length=0.000501000,Units=km
new line.1221114 bus1=BBT1316447.1.2.0,bus2=BBT1316461.1.2.0,Phases=2,Linecode=BT108_BT107_7_2_1,Length=0.041029000,Units=km
new line.1221121 bus1=BBT1316461.1.2.0,bus2=BBT1316468.1.2.0,Phases=2,Linecode=BT107_BT106_7_2_1,Length=0.030079000,Units=km
new line.1221128 bus1=BBT1316468.1.2.0,bus2=BBT1316475.1.2.0,Phases=2,Linecode=BT107_BT106_7_2_1,Length=0.036028000,Units=km
new line.1221135 bus1=BBT1316496.1.2.3.0,bus2=BBT1316489.1.2.3.0,Phases=3,Linecode=BT107_BT107_7_3_1,Length=0.035917000,Units=km
new line.1221142 bus1=BBT1316496.1.2.3.0,bus2=BBT1316503.1.2.3.0,Phases=3,Linecode=BT107_BT107_7_3_1,Length=0.036689000,Units=km
new line.1221149 bus1=BBT1316503.1.2.3.0,bus2=BBT1316510.1.2.3.0,Phases=3,Linecode=BT107_BT107_7_3_1,Length=0.041016000,Units=km
new line.1221156 bus1=BBT1316517.1.2.3.0,bus2=BBT1316496.1.2.3.0,Phases=3,Linecode=BT108_BT108_7_3_1,Length=0.038094000,Units=km
new line.1221163 bus1=BBT1316482.1.2.3.0,bus2=BBT1316517.1.2.3.0,Phases=3,Linecode=BT513_BT513_7_3_1,Length=0.000501000,Units=km
new line.1221170 bus1=BBT1316517.1.2.3.0,bus2=BBT1316524.1.2.3.0,Phases=3,Linecode=BT108_BT108_7_3_1,Length=0.040041000,Units=km
new line.1221177 bus1=BBT1316524.1.2.3.0,bus2=BBT1316531.1.2.3.0,Phases=3,Linecode=BT108_BT108_7_3_1,Length=0.041016000,Units=km
new line.1221184 bus1=BBT1316524.1.2.3.0,bus2=BBT1316538.1.2.3.0,Phases=3,Linecode=BT809_BT809_4_3_4,Length=0.037672000,Units=km
new line.1221191 bus1=BBT1316524.1.2.3.0,bus2=BBT2866709.1.2.3.0,Phases=3,Linecode=BT808_BT808_4_3_3,Length=0.041248000,Units=km
new line.1221198 bus1=BBT1316531.1.2.0,bus2=BBT2866772.1.2.0,Phases=2,Linecode=BT808_BT808_4_2_3,Length=0.045140000,Units=km
new line.1221205 bus1=BBT1316538.1.2.3.0,bus2=BBT1316545.1.2.3.0,Phases=3,Linecode=BT809_BT809_4_3_4,Length=0.036153000,Units=km
new line.1221212 bus1=BBT1316545.1.2.3.0,bus2=BBT1316552.1.2.3.0,Phases=3,Linecode=BT810_BT810_4_3_4,Length=0.025972000,Units=km
new line.1221219 bus1=BBT1316545.1.2.0,bus2=BBT2866800.1.2.0,Phases=2,Linecode=BT808_BT808_4_2_3,Length=0.045899000,Units=km
new line.1221226 bus1=BBT1316552.1.2.3.0,bus2=BBT1316559.1.2.3.0,Phases=3,Linecode=BT810_BT810_4_3_4,Length=0.036070000,Units=km
new line.1221233 bus1=BBT1316580.1.2.3.0,bus2=BBT2722572.1.2.3.0,Phases=3,Linecode=BT809_BT809_4_3_4,Length=0.033255000,Units=km
new line.1221240 bus1=BBT1316587.1.2.3.0,bus2=BBT1316580.1.2.3.0,Phases=3,Linecode=BT809_BT809_4_3_4,Length=0.029440000,Units=km
new line.1221247 bus1=BBT1316594.1.2.3.0,bus2=BBT1316587.1.2.3.0,Phases=3,Linecode=BT108_BT107_7_3_1,Length=0.029626000,Units=km
new line.1221254 bus1=BBT1316601.1.2.3.0,bus2=BBT1316594.1.2.3.0,Phases=3,Linecode=BT108_BT107_7_3_1,Length=0.030818000,Units=km
new line.1221261 bus1=BBT1316608.1.2.3.0,bus2=BBT1316601.1.2.3.0,Phases=3,Linecode=BT108_BT107_7_3_1,Length=0.029845000,Units=km
new line.1221268 bus1=BBT1316615.1.2.3.0,bus2=BBT1316608.1.2.3.0,Phases=3,Linecode=BT108_BT107_7_3_1,Length=0.031793000,Units=km
new line.1221275 bus1=BBT1316622.1.2.3.0,bus2=BBT1316615.1.2.3.0,Phases=3,Linecode=BT108_BT107_7_3_1,Length=0.032770000,Units=km
new line.1226077 bus1=BBT1321312.1.2.0,bus2=BBT1321319.1.2.0,Phases=2,Linecode=BT106_BT106_7_2_1,Length=0.038343000,Units=km
new line.1226084 bus1=BBT1321319.1.2.0,bus2=BBT1321326.1.2.0,Phases=2,Linecode=BT106_BT106_7_2_1,Length=0.036153000,Units=km
new line.1226091 bus1=BBT1321326.1.2.0,bus2=BBT1321333.1.2.0,Phases=2,Linecode=BT107_BT106_7_2_1,Length=0.041248000,Units=km
new line.1226105 bus1=BBT1321354.1.2.3.0,bus2=BBT1321347.1.2.3.0,Phases=3,Linecode=BT107_BT106_7_3_1,Length=0.036893000,Units=km
new line.1226112 bus1=BBT1321368.1.2.3.0,bus2=BBT1321361.1.2.3.0,Phases=3,Linecode=BT107_BT106_7_3_1,Length=0.035917000,Units=km
new line.1226119 bus1=BBT1321375.1.2.3.0,bus2=BBT1321368.1.2.3.0,Phases=3,Linecode=BT107_BT106_7_3_1,Length=0.039828000,Units=km
new line.1226126 bus1=BBT1321382.1.2.3.0,bus2=BBT1321354.1.2.3.0,Phases=3,Linecode=BT107_BT106_7_3_1,Length=0.037123000,Units=km
new line.1226133 bus1=BBT1321382.1.2.3.0,bus2=BBT1321375.1.2.3.0,Phases=3,Linecode=BT107_BT106_7_3_1,Length=0.035917000,Units=km
new line.1226140 bus1=BBT1321389.1.2.3.0,bus2=BBT1321382.1.2.3.0,Phases=3,Linecode=BT108_BT107_7_3_1,Length=0.031793000,Units=km
new line.1226147 bus1=BBT1321340.1.2.3.0,bus2=BBT1321389.1.2.3.0,Phases=3,Linecode=BT521_BT521_7_3_1,Length=0.000501000,Units=km
new line.1226154 bus1=BBT1321389.1.2.3.0,bus2=BBT1321417.1.2.3.0,Phases=3,Linecode=BT108_BT107_7_3_1,Length=0.031588000,Units=km
new line.1226161 bus1=BBT1321403.1.2.3.0,bus2=BBT1321396.1.2.3.0,Phases=3,Linecode=BT107_BT106_7_3_1,Length=0.041017000,Units=km
new line.1226168 bus1=BBT1321410.1.2.3.0,bus2=BBT1321403.1.2.3.0,Phases=3,Linecode=BT107_BT106_7_3_1,Length=0.038094000,Units=km
new line.1226175 bus1=BBT1321417.1.2.3.0,bus2=BBT1321410.1.2.3.0,Phases=3,Linecode=BT107_BT106_7_3_1,Length=0.033748000,Units=km
new line.1226182 bus1=BBT1321417.1.2.3.0,bus2=BBT1321424.1.2.3.0,Phases=3,Linecode=BT108_BT107_7_3_1,Length=0.038094000,Units=km
new line.1226189 bus1=BBT1321424.1.2.3.0,bus2=BBT1321452.1.2.3.0,Phases=3,Linecode=BT107_BT106_7_3_1,Length=0.038094000,Units=km
new line.1226196 bus1=BBT1321438.1.2.3.0,bus2=BBT1321431.1.2.3.0,Phases=3,Linecode=BT107_BT107_7_3_1,Length=0.038094000,Units=km
new line.1226203 bus1=BBT1321445.1.2.3.0,bus2=BBT1321438.1.2.3.0,Phases=3,Linecode=BT107_BT107_7_3_1,Length=0.035917000,Units=km
new line.1226210 bus1=BBT1321452.1.2.3.0,bus2=BBT1321445.1.2.3.0,Phases=3,Linecode=BT107_BT107_7_3_1,Length=0.034943000,Units=km
new line.1226217 bus1=BBT1321473.1.2.3.0,bus2=BBT1321466.1.2.3.0,Phases=3,Linecode=BT803_BT803_4_3_4,Length=0.036374000,Units=km
new line.1226224 bus1=BBT1321487.1.2.3.0,bus2=BBT1321473.1.2.3.0,Phases=3,Linecode=BT803_BT803_4_3_4,Length=0.035000000,Units=km
new line.1226231 bus1=BBT1321494.1.2.3.0,bus2=BBT1321480.1.2.3.0,Phases=3,Linecode=BT803_BT803_4_3_4,Length=0.029167000,Units=km
new line.1226238 bus1=BBT1321508.1.2.3.0,bus2=BBT1321501.1.2.3.0,Phases=3,Linecode=BT805_BT805_4_3_4,Length=0.037605000,Units=km
new line.1226245 bus1=BBT1321508.1.2.3.0,bus2=BBT1321487.1.2.3.0,Phases=3,Linecode=BT803_BT803_4_3_4,Length=0.031778000,Units=km
new line.1226252 bus1=BBT1321508.1.2.3.0,bus2=BBT1321536.1.2.3.0,Phases=3,Linecode=BT803_BT803_4_3_4,Length=0.024708000,Units=km
new line.1226259 bus1=BBT1321515.1.2.3.0,bus2=BBT1321494.1.2.3.0,Phases=3,Linecode=BT803_BT803_4_3_4,Length=0.028665000,Units=km
new line.1226266 bus1=BBT1321529.1.2.3.0,bus2=BBT1321508.1.2.3.0,Phases=3,Linecode=BT805_BT805_4_3_4,Length=0.037605000,Units=km
new line.1226273 bus1=BBT1321459.1.2.3.0,bus2=BBT1321529.1.2.3.0,Phases=3,Linecode=BT513_BT513_7_3_1,Length=0.000501000,Units=km
new line.1226280 bus1=BBT1321529.1.2.3.0,bus2=BBT1321543.1.2.3.0,Phases=3,Linecode=BT805_BT805_4_3_4,Length=0.036730000,Units=km
new line.1226287 bus1=BBT1321536.1.2.3.0,bus2=BBT1321522.1.2.3.0,Phases=3,Linecode=BT803_BT803_4_3_4,Length=0.035861000,Units=km
new line.1226294 bus1=BBT1321536.1.2.3.0,bus2=BBT2713948.1.2.3.0,Phases=3,Linecode=BT803_BT803_4_3_4,Length=0.039841000,Units=km
new line.1226301 bus1=BBT1321536.1.2.3.0,bus2=BBT1321564.1.2.3.0,Phases=3,Linecode=BT803_BT803_4_3_4,Length=0.036730000,Units=km
new line.1226308 bus1=BBT1321543.1.2.3.0,bus2=BBT1321515.1.2.3.0,Phases=3,Linecode=BT803_BT803_4_3_4,Length=0.038094000,Units=km
new line.1226315 bus1=BBT1321543.1.2.3.0,bus2=BBT1321557.1.2.3.0,Phases=3,Linecode=BT805_BT805_4_3_4,Length=0.032262000,Units=km
new line.1226322 bus1=BBT1321543.1.2.3.0,bus2=BBT1321571.1.2.3.0,Phases=3,Linecode=BT803_BT803_4_3_4,Length=0.024708000,Units=km
new line.1226329 bus1=BBT1321564.1.2.3.0,bus2=BBT1321585.1.2.3.0,Phases=3,Linecode=BT803_BT803_4_3_4,Length=0.035370000,Units=km
new line.1226336 bus1=BBT1321571.1.2.3.0,bus2=BBT1321550.1.2.3.0,Phases=3,Linecode=BT803_BT803_4_3_4,Length=0.034496000,Units=km
new line.1226343 bus1=BBT1321571.1.2.3.0,bus2=BBT1321578.1.2.3.0,Phases=3,Linecode=BT803_BT803_4_3_4,Length=0.037231000,Units=km
new line.1226350 bus1=BBT1321571.1.2.3.0,bus2=BBT1321592.1.2.3.0,Phases=3,Linecode=BT803_BT803_4_3_4,Length=0.039462000,Units=km
new line.1226357 bus1=BBT1321585.1.2.3.0,bus2=BBT1321613.1.2.3.0,Phases=3,Linecode=BT803_BT803_4_3_4,Length=0.043927000,Units=km
new line.1226364 bus1=BBT1321592.1.2.3.0,bus2=BBT1321606.1.2.3.0,Phases=3,Linecode=BT803_BT803_4_3_4,Length=0.035861000,Units=km
new line.1226371 bus1=BBT1321606.1.2.3.0,bus2=BBT1321627.1.2.3.0,Phases=3,Linecode=BT803_BT803_4_3_4,Length=0.042076000,Units=km
new line.1226378 bus1=BBT1321613.1.2.3.0,bus2=BBT1321599.1.2.3.0,Phases=3,Linecode=BT803_BT803_4_3_4,Length=0.038094000,Units=km
new line.1226385 bus1=BBT1321620.1.2.3.0,bus2=BBT2715957.1.2.3.0,Phases=3,Linecode=BT803_BT803_4_3_4,Length=0.036374000,Units=km
new line.1226392 bus1=BBT1321627.1.2.3.0,bus2=BBT1321620.1.2.3.0,Phases=3,Linecode=BT803_BT803_4_3_4,Length=0.037605000,Units=km
new line.1226399 bus1=BBT1321627.1.2.0,bus2=BBT3387635.1.2.0,Phases=2,Linecode=BT808_BT808_4_2_3,Length=0.038603000,Units=km
new line.1226574 bus1=BBT1321809.1.2.0,bus2=BBT1321802.1.2.0,Phases=2,Linecode=BT807_BT807_4_2_3,Length=0.039841000,Units=km
new line.1226581 bus1=BBT1321816.1.2.0,bus2=BBT1321809.1.2.0,Phases=2,Linecode=BT807_BT807_4_2_3,Length=0.030475000,Units=km
new line.1226588 bus1=BBT1321830.1.2.0,bus2=BBT1321816.1.2.0,Phases=2,Linecode=BT807_BT807_4_2_3,Length=0.037605000,Units=km
new line.1226595 bus1=BBT1321809.1.2.0,bus2=BBT132687440.1.2.0,Phases=2,Linecode=BT807_BT807_4_2_3,Length=0.032770000,Units=km
new line.1226609 bus1=BBT132687440.1.2.0,bus2=BBT1321858.1.2.0,Phases=2,Linecode=BT807_BT807_4_2_3,Length=0.030162000,Units=km
new line.1226616 bus1=BBT1321830.1.2.0,bus2=BBT1321851.1.2.0,Phases=2,Linecode=BT807_BT807_4_2_3,Length=0.036730000,Units=km
new line.1226623 bus1=BBT1321844.1.2.0,bus2=BBT1321837.1.2.0,Phases=2,Linecode=BT107_BT107_7_2_1,Length=0.024708000,Units=km
new line.1226630 bus1=BBT1321851.1.2.0,bus2=BBT1321865.1.2.0,Phases=2,Linecode=BT807_BT807_4_2_3,Length=0.037605000,Units=km
new line.1226637 bus1=BBT132690282.1.2.0,bus2=BBT1321844.1.2.0,Phases=2,Linecode=BT807_BT807_4_2_3,Length=0.024197000,Units=km
new line.1226644 bus1=BBT1321872.1.2.0,bus2=BBT132690282.1.2.0,Phases=2,Linecode=BT807_BT807_4_2_3,Length=0.026431000,Units=km
new line.1226651 bus1=BBT1321865.1.2.0,bus2=BBT3625173.1.2.0,Phases=2,Linecode=BT808_BT808_4_2_3,Length=0.035861000,Units=km
new line.1226658 bus1=BBT1321879.1.2.0,bus2=BBT1321872.1.2.0,Phases=2,Linecode=BT807_BT807_4_2_3,Length=0.037231000,Units=km
new line.1215983 bus1=BBT1311463.1.2.3.0,bus2=BBT1311456.1.2.3.0,Phases=3,Linecode=BT809_BT809_4_3_4,Length=0.023547000,Units=km
new line.1215990 bus1=BBT1311470.1.2.3.0,bus2=BBT1311561.1.2.3.0,Phases=3,Linecode=BT803_BT803_4_3_4,Length=0.005102000,Units=km
new line.1215997 bus1=BBT1311484.1.2.3.0,bus2=BBT1311470.1.2.3.0,Phases=3,Linecode=BT803_BT803_4_3_4,Length=0.033748000,Units=km
new line.1216004 bus1=BBT1311491.1.2.3.0,bus2=BBT1311477.1.2.3.0,Phases=3,Linecode=BT810_BT810_4_3_4,Length=0.032770000,Units=km
new line.1216011 bus1=BBT1311498.1.2.3.0,bus2=BBT1311491.1.2.3.0,Phases=3,Linecode=BT803_BT803_4_3_4,Length=0.033748000,Units=km
new line.1216018 bus1=BBT1311505.1.2.3.0,bus2=BBT1311484.1.2.3.0,Phases=3,Linecode=BT803_BT803_4_3_4,Length=0.033748000,Units=km
new line.1216025 bus1=BBT1311512.1.2.3.0,bus2=BBT1311498.1.2.3.0,Phases=3,Linecode=BT803_BT803_4_3_4,Length=0.034943000,Units=km
new line.1216039 bus1=BBT1311519.1.2.3.0,bus2=BBT1311512.1.2.3.0,Phases=3,Linecode=BT108_BT107_7_3_1,Length=0.032998000,Units=km
new line.1216046 bus1=BBT1311526.1.2.3.0,bus2=BBT1311519.1.2.3.0,Phases=3,Linecode=BT111_BT108_7_3_1,Length=0.044165000,Units=km
new line.1216053 bus1=BBT1311442.1.2.3.0,bus2=BBT1311526.1.2.3.0,Phases=3,Linecode=BT514_BT514_7_3_1,Length=0.000501000,Units=km
new line.1216060 bus1=BBT1311526.1.2.3.0,bus2=BBT1311533.1.2.3.0,Phases=3,Linecode=BT111_BT108_7_3_1,Length=0.045372000,Units=km
new line.1216067 bus1=BBT1311533.1.2.3.0,bus2=BBT1311505.1.2.3.0,Phases=3,Linecode=BT803_BT803_4_3_4,Length=0.029845000,Units=km
new line.1216074 bus1=BBT1311533.1.2.3.0,bus2=BBT1311540.1.2.3.0,Phases=3,Linecode=BT111_BT108_7_3_1,Length=0.037672000,Units=km
new line.1216081 bus1=BBT1311533.1.2.3.0,bus2=BBT1311554.1.2.3.0,Phases=3,Linecode=BT108_BT107_7_3_1,Length=0.033555000,Units=km
new line.1216088 bus1=BBT1311540.1.2.3.0,bus2=BBT1311547.1.2.3.0,Phases=3,Linecode=BT111_BT108_7_3_1,Length=0.038094000,Units=km
new line.1216095 bus1=BBT1311561.1.2.3.0,bus2=BBT1311449.1.2.3.0,Phases=3,Linecode=BT803_BT803_4_3_4,Length=0.033390000,Units=km
new line.1216102 bus1=BBT1311561.1.2.3.0,bus2=BBT1311463.1.2.3.0,Phases=3,Linecode=BT809_BT809_4_3_4,Length=0.006328000,Units=km
new line.1216109 bus1=BBT1311561.1.2.3.0,bus2=BBT1311568.1.2.3.0,Phases=3,Linecode=BT809_BT809_4_3_4,Length=0.045910000,Units=km
new line.1216473 bus1=BBT1311904.1.2.3.0,bus2=BBT1311897.1.2.3.0,Phases=3,Linecode=BT107_BT108_7_3_1,Length=0.041993000,Units=km
new line.1216480 bus1=BBT1311911.1.2.3.0,bus2=BBT1311904.1.2.3.0,Phases=3,Linecode=BT107_BT108_7_3_1,Length=0.043949000,Units=km
new line.1216487 bus1=BBT1311918.1.2.3.0,bus2=BBT1311911.1.2.3.0,Phases=3,Linecode=BT107_BT108_7_3_1,Length=0.027904000,Units=km
new line.1216494 bus1=BBT1311925.1.2.3.0,bus2=BBT1311918.1.2.3.0,Phases=3,Linecode=BT107_BT108_7_3_1,Length=0.044165000,Units=km
new line.1216501 bus1=BBT1311939.1.2.3.0,bus2=BBT1311932.1.2.3.0,Phases=3,Linecode=BT108_BT107_7_3_1,Length=0.033970000,Units=km
new line.1216508 bus1=BBT1311946.1.2.3.0,bus2=BBT1311939.1.2.3.0,Phases=3,Linecode=BT108_BT107_7_3_1,Length=0.033970000,Units=km
new line.1216515 bus1=BBT1311953.1.2.3.0,bus2=BBT1311925.1.2.3.0,Phases=3,Linecode=BT107_BT108_7_3_1,Length=0.033970000,Units=km
new line.1216522 bus1=BBT1311960.1.2.3.0,bus2=BBT1311946.1.2.3.0,Phases=3,Linecode=BT108_BT107_7_3_1,Length=0.034943000,Units=km
new line.1216529 bus1=BBT1311960.1.2.3.0,bus2=BBT1312002.1.2.3.0,Phases=3,Linecode=BT809_BT809_4_3_4,Length=0.036893000,Units=km
new line.1216536 bus1=BBT1311967.1.2.3.0,bus2=BBT1311960.1.2.3.0,Phases=3,Linecode=BT805_BT805_4_3_4,Length=0.035917000,Units=km
new line.1216543 bus1=BBT1311890.1.2.3.0,bus2=BBT1311967.1.2.3.0,Phases=3,Linecode=BT513_BT513_7_3_1,Length=0.000501000,Units=km
new line.1216550 bus1=BBT1311967.1.2.3.0,bus2=BBT1311974.1.2.3.0,Phases=3,Linecode=BT805_BT805_4_3_4,Length=0.034943000,Units=km
new line.1216557 bus1=BBT1311974.1.2.3.0,bus2=BBT1311981.1.2.3.0,Phases=3,Linecode=BT108_BT108_7_3_1,Length=0.037123000,Units=km
new line.1216564 bus1=BBT1311981.1.2.3.0,bus2=BBT1311953.1.2.3.0,Phases=3,Linecode=BT107_BT108_7_3_1,Length=0.032029000,Units=km
new line.1216571 bus1=BBT1311981.1.2.3.0,bus2=BBT1311988.1.2.3.0,Phases=3,Linecode=BT108_BT108_7_3_1,Length=0.024525000,Units=km
new line.1216578 bus1=BBT1311988.1.2.3.0,bus2=BBT1311995.1.2.3.0,Phases=3,Linecode=BT108_BT108_7_3_1,Length=0.025720000,Units=km
new line.1216585 bus1=BBT1312016.1.2.3.0,bus2=BBT1312030.1.2.3.0,Phases=3,Linecode=BT107_BT106_7_3_1,Length=0.030029000,Units=km
new line.1216592 bus1=BBT1312023.1.2.3.0,bus2=BBT1312051.1.2.3.0,Phases=3,Linecode=BT107_BT106_7_3_1,Length=0.034073000,Units=km
new line.1216599 bus1=BBT1312030.1.2.3.0,bus2=BBT1312023.1.2.3.0,Phases=3,Linecode=BT107_BT106_7_3_1,Length=0.030012000,Units=km
new line.1216606 bus1=BBT1312037.1.2.3.0,bus2=BBT1312016.1.2.3.0,Phases=3,Linecode=BT108_BT107_7_3_1,Length=0.034028000,Units=km
new line.1216613 bus1=BBT1312044.1.2.3.0,bus2=BBT1312037.1.2.3.0,Phases=3,Linecode=BT108_BT107_7_3_1,Length=0.036015000,Units=km
new line.1216620 bus1=BBT1312058.1.2.3.0,bus2=BBT1312044.1.2.3.0,Phases=3,Linecode=BT108_BT107_7_3_1,Length=0.034073000,Units=km
new line.1216627 bus1=BBT1312009.1.2.3.0,bus2=BBT1312058.1.2.3.0,Phases=3,Linecode=BT307_BT307_7_3_1,Length=0.000501000,Units=km
new line.1216634 bus1=BBT1312058.1.2.3.0,bus2=BBT1312065.1.2.3.0,Phases=3,Linecode=BT108_BT107_7_3_1,Length=0.034028000,Units=km
new line.1216641 bus1=BBT1312065.1.2.3.0,bus2=BBT1312072.1.2.3.0,Phases=3,Linecode=BT108_BT107_7_3_1,Length=0.037028000,Units=km
new line.1216648 bus1=BBT1312072.1.2.3.0,bus2=BBT1312079.1.2.3.0,Phases=3,Linecode=BT108_BT107_7_3_1,Length=0.034028000,Units=km
new line.1216655 bus1=BBT1312079.1.2.3.0,bus2=BBT1312086.1.2.3.0,Phases=3,Linecode=BT107_BT106_7_3_1,Length=0.026011000,Units=km
new line.1216662 bus1=BBT1312086.1.2.3.0,bus2=BBT1312093.1.2.3.0,Phases=3,Linecode=BT107_BT106_7_3_1,Length=0.025030000,Units=km
new line.1216669 bus1=BBT1313185.1.2.3.0,bus2=BBT1313192.1.2.3.0,Phases=3,Linecode=BT108_BT107_7_3_1,Length=0.027085000,Units=km
new line.1216739 bus1=BBT1312170.1.2.0,bus2=BBT2867423.1.2.0,Phases=2,Linecode=BT808_BT808_4_2_3,Length=0.035708000,Units=km
new line.1216746 bus1=BBT1312177.1.2.3.0,bus2=BBT1312170.1.2.3.0,Phases=3,Linecode=BT107_BT106_7_3_1,Length=0.034943000,Units=km
new line.1216753 bus1=BBT1312184.1.2.3.0,bus2=BBT1312177.1.2.3.0,Phases=3,Linecode=BT107_BT106_7_3_1,Length=0.033748000,Units=km
new line.1216760 bus1=BBT1312191.1.2.3.0,bus2=BBT1312205.1.2.3.0,Phases=3,Linecode=BT107_BT106_7_3_1,Length=0.033748000,Units=km
new line.1216767 bus1=BBT1312198.1.2.3.0,bus2=BBT1312184.1.2.3.0,Phases=3,Linecode=BT107_BT106_7_3_1,Length=0.041993000,Units=km
new line.1216774 bus1=BBT1312198.1.2.3.0,bus2=BBT1312191.1.2.3.0,Phases=3,Linecode=BT107_BT106_7_3_1,Length=0.007619000,Units=km
new line.1216781 bus1=BBT1312212.1.2.3.0,bus2=BBT1312198.1.2.3.0,Phases=3,Linecode=BT108_BT107_7_3_1,Length=0.029845000,Units=km
new line.1216788 bus1=BBT1312163.1.2.3.0,bus2=BBT1312212.1.2.3.0,Phases=3,Linecode=BT509_BT509_7_3_1,Length=0.000501000,Units=km
new line.1216795 bus1=BBT1312212.1.2.3.0,bus2=BBT1312219.1.2.3.0,Phases=3,Linecode=BT108_BT107_7_3_1,Length=0.029845000,Units=km
new line.1216802 bus1=BBT1312219.1.2.3.0,bus2=BBT1312226.1.2.3.0,Phases=3,Linecode=BT108_BT108_7_3_1,Length=0.036153000,Units=km
new line.1216816 bus1=BBT1312226.1.2.3.0,bus2=BBT1312233.1.2.3.0,Phases=3,Linecode=BT108_BT108_7_3_1,Length=0.031793000,Units=km
new line.1212686 bus1=BBT1308152.1.2.0,bus2=BBT1308166.1.2.0,Phases=2,Linecode=BT108_BT107_7_2_1,Length=0.030688000,Units=km