new load.3000059191M1 bus1=RML1051999108.1.2.0,Phases=2,kv=0.24,kW=0.5992,pf=0.92,Vminpu=0.92,Vmaxpu=1.5,model=8,zipv=[0.5,0,0.5,1,0,0,0],daily=RES1_1,status=variable
new load.3000059193M1 bus1=RML1051999178.2.0,Phases=1,kv=0.12,kW=0.42586,pf=0.92,Vminpu=0.92,Vmaxpu=1.5,model=8,zipv=[0.5,0,0.5,1,0,0,0],daily=RES2_1,status=variable
new load.3000059194M1 bus1=RML1051999192.1.0,Phases=1,kv=0.12,kW=0.08024,pf=0.92,Vminpu=0.92,Vmaxpu=1.5,model=8,zipv=[0.5,0,0.5,1,0,0,0],daily=RES2_1,status=variable
new load.3000059195M1 bus1=RML1051999241.2.0,Phases=1,kv=0.12,kW=0.7779,pf=0.92,Vminpu=0.92,Vmaxpu=1.5,model=8,zipv=[0.5,0,0.5,1,0,0,0],daily=RES1_1,status=variable
new load.3000059196M1 bus1=RML1051999248.2.0,Phases=1,kv=0.12,kW=0.42048,pf=0.92,Vminpu=0.92,Vmaxpu=1.5,model=8,zipv=[0.5,0,0.5,1,0,0,0],daily=RES1_1,status=variable
new load.3000059197M1 bus1=RML1051999262.1.2.0,Phases=2,kv=0.24,kW=1.00918,pf=0.92,Vminpu=0.92,Vmaxpu=1.5,model=8,zipv=[0.5,0,0.5,1,0,0,0],daily=RES1_1,status=variable
new load.3000059199M1 bus1=RML1051999318.2.0,Phases=1,kv=0.12,kW=1.89396,pf=0.92,Vminpu=0.92,Vmaxpu=1.5,model=8,zipv=[0.5,0,0.5,1,0,0,0],daily=RES3_2,status=variable
new load.3000059200M1 bus1=RML1051999325.2.0,Phases=1,kv=0.12,kW=0.85148,pf=0.92,Vminpu=0.92,Vmaxpu=1.5,model=8,zipv=[0.5,0,0.5,1,0,0,0],daily=RES1_1,status=variable
new load.3000059201M1 bus1=RML1051999395.1.0,Phases=1,kv=0.12,kW=0.12684,pf=0.92,Vminpu=0.92,Vmaxpu=1.5,model=8,zipv=[0.5,0,0.5,1,0,0,0],daily=COM1_3,status=variable
new load.3000059202M1 bus1=RML1051999395.1.0,Phases=1,kv=0.12,kW=0.48758,pf=0.92,Vminpu=0.92,Vmaxpu=1.5,model=8,zipv=[0.5,0,0.5,1,0,0,0],daily=RES2_1,status=variable
new load.3000059203M1 bus1=RML1051999374.1.0,Phases=1,kv=0.12,kW=0.13666,pf=0.92,Vminpu=0.92,Vmaxpu=1.5,model=8,zipv=[0.5,0,0.5,1,0,0,0],daily=RES1_1,status=variable
new load.3000059205M1 bus1=RML1051999311.1.0,Phases=1,kv=0.12,kW=0.17466,pf=0.92,Vminpu=0.92,Vmaxpu=1.5,model=8,zipv=[0.5,0,0.5,1,0,0,0],daily=COM1_3,status=variable
new load.3000059206M1 bus1=RML1051999332.1.2.0,Phases=2,kv=0.24,kW=0.2628,pf=0.92,Vminpu=0.92,Vmaxpu=1.5,model=8,zipv=[0.5,0,0.5,1,0,0,0],daily=RES1_1,status=variable
new load.3000059208M1 bus1=RML1051999360.2.0,Phases=1,kv=0.12,kW=0.53696,pf=0.92,Vminpu=0.92,Vmaxpu=1.5,model=8,zipv=[0.5,0,0.5,1,0,0,0],daily=RES2_1,status=variable
new load.3000059209M1 bus1=RML1051999458.2.0,Phases=1,kv=0.12,kW=0.79892,pf=0.92,Vminpu=0.92,Vmaxpu=1.5,model=8,zipv=[0.5,0,0.5,1,0,0,0],daily=RES1_1,status=variable
new load.3000059210M1 bus1=RML1051996329.1.0,Phases=1,kv=0.12,kW=0.40998,pf=0.92,Vminpu=0.92,Vmaxpu=1.5,model=8,zipv=[0.5,0,0.5,1,0,0,0],daily=RES1_1,status=variable
new load.3000059212M1 bus1=RML1051996280.2.0,Phases=1,kv=0.12,kW=0.88302,pf=0.92,Vminpu=0.92,Vmaxpu=1.5,model=8,zipv=[0.5,0,0.5,1,0,0,0],daily=RES1_1,status=variable
new load.3000059213M1 bus1=RML1051996315.2.0,Phases=1,kv=0.12,kW=0.67278,pf=0.92,Vminpu=0.92,Vmaxpu=1.5,model=8,zipv=[0.5,0,0.5,1,0,0,0],daily=RES1_1,status=variable
new load.3000059214M1 bus1=RML1051996322.1.0,Phases=1,kv=0.12,kW=0.22076,pf=0.92,Vminpu=0.92,Vmaxpu=1.5,model=8,zipv=[0.5,0,0.5,1,0,0,0],daily=RES1_1,status=variable
new load.3000059215M1 bus1=RML1051999444.1.0,Phases=1,kv=0.12,kW=1.487,pf=0.92,Vminpu=0.92,Vmaxpu=1.5,model=8,zipv=[0.5,0,0.5,1,0,0,0],daily=RES3_2,status=variable
new load.3000059218M1 bus1=RML1051999409.2.0,Phases=1,kv=0.12,kW=0.66656,pf=0.92,Vminpu=0.92,Vmaxpu=1.5,model=8,zipv=[0.5,0,0.5,1,0,0,0],daily=RES2_1,status=variable
new load.3000059219M1 bus1=RML1051999416.1.0,Phases=1,kv=0.12,kW=0.73446,pf=0.92,Vminpu=0.92,Vmaxpu=1.5,model=8,zipv=[0.5,0,0.5,1,0,0,0],daily=RES2_1,status=variable
new load.3000059221M1 bus1=RML1051999430.2.0,Phases=1,kv=0.12,kW=0.79,pf=0.92,Vminpu=0.92,Vmaxpu=1.5,model=8,zipv=[0.5,0,0.5,1,0,0,0],daily=RES2_1,status=variable
new load.3000059222M1 bus1=RML1053149222.1.2.0,Phases=2,kv=0.24,kW=0.29626,pf=0.92,Vminpu=0.92,Vmaxpu=1.5,model=8,zipv=[0.5,0,0.5,1,0,0,0],daily=RES2_1,status=variable
new load.3000059226M1 bus1=RML1051999045.2.0,Phases=1,kv=0.12,kW=1.0307,pf=0.92,Vminpu=0.92,Vmaxpu=1.5,model=8,zipv=[0.5,0,0.5,1,0,0,0],daily=RES2_1,status=variable
new load.3000059227M1 bus1=RML1051999045.2.0,Phases=1,kv=0.12,kW=1.667,pf=0.92,Vminpu=0.92,Vmaxpu=1.5,model=8,zipv=[0.5,0,0.5,1,0,0,0],daily=RES3_2,status=variable
new load.3000059228M1 bus1=RML1051999038.1.0,Phases=1,kv=0.12,kW=0.47472,pf=0.92,Vminpu=0.92,Vmaxpu=1.5,model=8,zipv=[0.5,0,0.5,1,0,0,0],daily=RUR1_3,status=variable
new load.3000059229M1 bus1=RML1051999031.1.0,Phases=1,kv=0.12,kW=0.56782,pf=0.92,Vminpu=0.92,Vmaxpu=1.5,model=8,zipv=[0.5,0,0.5,1,0,0,0],daily=RES2_1,status=variable
new load.3000059232M1 bus1=RML1051999185.2.0,Phases=1,kv=0.12,kW=0.56782,pf=0.92,Vminpu=0.92,Vmaxpu=1.5,model=8,zipv=[0.5,0,0.5,1,0,0,0],daily=RES2_1,status=variable
new load.3000059235M1 bus1=RML1051999080.1.0,Phases=1,kv=0.12,kW=0.65176,pf=0.92,Vminpu=0.92,Vmaxpu=1.5,model=8,zipv=[0.5,0,0.5,1,0,0,0],daily=RES1_1,status=variable
new load.3000059236M1 bus1=RML1051999094.2.0,Phases=1,kv=0.12,kW=1.15414,pf=0.92,Vminpu=0.92,Vmaxpu=1.5,model=8,zipv=[0.5,0,0.5,1,0,0,0],daily=RES2_1,status=variable
new load.3000059239M1 bus1=RML1051999136.1.0,Phases=1,kv=0.12,kW=0.76532,pf=0.92,Vminpu=0.92,Vmaxpu=1.5,model=8,zipv=[0.5,0,0.5,1,0,0,0],daily=RES2_1,status=variable
new load.3000059243M1 bus1=RML1051998191.2.0,Phases=1,kv=0.12,kW=0.53612,pf=0.92,Vminpu=0.92,Vmaxpu=1.5,model=8,zipv=[0.5,0,0.5,1,0,0,0],daily=RES1_1,status=variable
new load.3000059244M1 bus1=RML1051998177.1.0,Phases=1,kv=0.12,kW=0.41968,pf=0.92,Vminpu=0.92,Vmaxpu=1.5,model=8,zipv=[0.5,0,0.5,1,0,0,0],daily=RES2_1,status=variable
new load.3000059246M1 bus1=RML1051997176.1.2.0,Phases=2,kv=0.24,kW=0.65176,pf=0.92,Vminpu=0.92,Vmaxpu=1.5,model=8,zipv=[0.5,0,0.5,1,0,0,0],daily=RES1_1,status=variable
new load.3000059247M1 bus1=RML1051997183.1.2.0,Phases=2,kv=0.24,kW=0.431,pf=0.92,Vminpu=0.92,Vmaxpu=1.5,model=8,zipv=[0.5,0,0.5,1,0,0,0],daily=RES1_1,status=variable
new load.3000059248M1 bus1=RML1051997169.1.0,Phases=1,kv=0.12,kW=1.04922,pf=0.92,Vminpu=0.92,Vmaxpu=1.5,model=8,zipv=[0.5,0,0.5,1,0,0,0],daily=RES2_1,status=variable
new load.3000059249M1 bus1=RML1051997162.2.0,Phases=1,kv=0.12,kW=0.44438,pf=0.92,Vminpu=0.92,Vmaxpu=1.5,model=8,zipv=[0.5,0,0.5,1,0,0,0],daily=RES2_1,status=variable
new load.3000059251M1 bus1=RML1051997127.1.0,Phases=1,kv=0.12,kW=0.53612,pf=0.92,Vminpu=0.92,Vmaxpu=1.5,model=8,zipv=[0.5,0,0.5,1,0,0,0],daily=RES1_1,status=variable
new load.3000059254M1 bus1=RML1051997148.2.0,Phases=1,kv=0.12,kW=0.5992,pf=0.92,Vminpu=0.92,Vmaxpu=1.5,model=8,zipv=[0.5,0,0.5,1,0,0,0],daily=RES1_1,status=variable
new load.3000059255M1 bus1=RML1051997302.2.0,Phases=1,kv=0.12,kW=0.01248,pf=0.92,Vminpu=0.92,Vmaxpu=1.5,model=8,zipv=[0.5,0,0.5,1,0,0,0],daily=COM1_3,status=variable
new load.3000059256M1 bus1=RML1051997309.1.0,Phases=1,kv=0.12,kW=0.47304,pf=0.92,Vminpu=0.92,Vmaxpu=1.5,model=8,zipv=[0.5,0,0.5,1,0,0,0],daily=RES1_1,status=variable
new load.3000059257M1 bus1=RML1051997316.2.0,Phases=1,kv=0.12,kW=0.54664,pf=0.92,Vminpu=0.92,Vmaxpu=1.5,model=8,zipv=[0.5,0,0.5,1,0,0,0],daily=RES1_1,status=variable
new load.3000059258M1 bus1=RML1051997323.2.0,Phases=1,kv=0.12,kW=0.45672,pf=0.92,Vminpu=0.92,Vmaxpu=1.5,model=8,zipv=[0.5,0,0.5,1,0,0,0],daily=RES2_1,status=variable
new load.3000059259M1 bus1=RML1051998247.2.0,Phases=1,kv=0.12,kW=0.70976,pf=0.92,Vminpu=0.92,Vmaxpu=1.5,model=8,zipv=[0.5,0,0.5,1,0,0,0],daily=RES2_1,status=variable
new load.3000059260M1 bus1=RML1051997330.2.0,Phases=1,kv=0.12,kW=0.74636,pf=0.92,Vminpu=0.92,Vmaxpu=1.5,model=8,zipv=[0.5,0,0.5,1,0,0,0],daily=RES1_1,status=variable
new load.3000059262M1 bus1=RML1051997351.1.2.0,Phases=2,kv=0.24,kW=0.46906,pf=0.92,Vminpu=0.92,Vmaxpu=1.5,model=8,zipv=[0.5,0,0.5,1,0,0,0],daily=RES2_1,status=variable
new load.3000059263M1 bus1=RML1051997358.1.0,Phases=1,kv=0.12,kW=0.7674,pf=0.92,Vminpu=0.92,Vmaxpu=1.5,model=8,zipv=[0.5,0,0.5,1,0,0,0],daily=RES1_1,status=variable
new load.3000059264M1 bus1=RML1051997337.1.0,Phases=1,kv=0.12,kW=1.12644,pf=0.92,Vminpu=0.92,Vmaxpu=1.5,model=8,zipv=[0.5,0,0.5,1,0,0,0],daily=RES4_3,status=variable
new load.3000059265M1 bus1=RML1051996770.2.0,Phases=1,kv=0.12,kW=0.48356,pf=0.92,Vminpu=0.92,Vmaxpu=1.5,model=8,zipv=[0.5,0,0.5,1,0,0,0],daily=RES1_1,status=variable
new load.3000059266M1 bus1=RML1051996763.1.0,Phases=1,kv=0.12,kW=0.62954,pf=0.92,Vminpu=0.92,Vmaxpu=1.5,model=8,zipv=[0.5,0,0.5,1,0,0,0],daily=RES2_1,status=variable
new load.3000059267M1 bus1=RML1051996756.2.0,Phases=1,kv=0.12,kW=0.24688,pf=0.92,Vminpu=0.92,Vmaxpu=1.5,model=8,zipv=[0.5,0,0.5,1,0,0,0],daily=RES2_1,status=variable
new load.3000059268M1 bus1=RML1051996735.2.0,Phases=1,kv=0.12,kW=0.74062,pf=0.92,Vminpu=0.92,Vmaxpu=1.5,model=8,zipv=[0.5,0,0.5,1,0,0,0],daily=RES2_1,status=variable
new load.3000059269M1 bus1=RML1051996742.1.0,Phases=1,kv=0.12,kW=0.30242,pf=0.92,Vminpu=0.92,Vmaxpu=1.5,model=8,zipv=[0.5,0,0.5,1,0,0,0],daily=RES2_1,status=variable
new load.3000059270M1 bus1=RML1051996728.2.0,Phases=1,kv=0.12,kW=0.67892,pf=0.92,Vminpu=0.92,Vmaxpu=1.5,model=8,zipv=[0.5,0,0.5,1,0,0,0],daily=RES2_1,status=variable
new load.3000059271M1 bus1=RML1051996721.1.0,Phases=1,kv=0.12,kW=0.0946,pf=0.92,Vminpu=0.92,Vmaxpu=1.5,model=8,zipv=[0.5,0,0.5,1,0,0,0],daily=RES1_1,status=variable
new load.3000059273M1 bus1=RML1051996931.2.0,Phases=1,kv=0.12,kW=0.53078,pf=0.92,Vminpu=0.92,Vmaxpu=1.5,model=8,zipv=[0.5,0,0.5,1,0,0,0],daily=RES2_1,status=variable
new load.3000059274M1 bus1=RML1051996854.2.0,Phases=1,kv=0.12,kW=0.21024,pf=0.92,Vminpu=0.92,Vmaxpu=1.5,model=8,zipv=[0.5,0,0.5,1,0,0,0],daily=RES1_1,status=variable
new load.3000059275M1 bus1=RML1051996861.2.0,Phases=1,kv=0.12,kW=0.04204,pf=0.92,Vminpu=0.92,Vmaxpu=1.5,model=8,zipv=[0.5,0,0.5,1,0,0,0],daily=RES1_1,status=variable
new load.3000059276M1 bus1=RML1051996868.1.0,Phases=1,kv=0.12,kW=0.57398,pf=0.92,Vminpu=0.92,Vmaxpu=1.5,model=8,zipv=[0.5,0,0.5,1,0,0,0],daily=RES2_1,status=variable
new load.3000059277M1 bus1=RML1051996875.2.0,Phases=1,kv=0.12,kW=0.72534,pf=0.92,Vminpu=0.92,Vmaxpu=1.5,model=8,zipv=[0.5,0,0.5,1,0,0,0],daily=RES1_1,status=variable
new load.3000059278M1 bus1=RML1051997071.1.0,Phases=1,kv=0.12,kW=0.56766,pf=0.92,Vminpu=0.92,Vmaxpu=1.5,model=8,zipv=[0.5,0,0.5,1,0,0,0],daily=RES1_1,status=variable
new load.3000059280M1 bus1=RML1051997085.1.0,Phases=1,kv=0.12,kW=0.66226,pf=0.92,Vminpu=0.92,Vmaxpu=1.5,model=8,zipv=[0.5,0,0.5,1,0,0,0],daily=RES1_1,status=variable
new load.3000059281M1 bus1=RML1051997092.1.2.0,Phases=2,kv=0.24,kW=0.4629,pf=0.92,Vminpu=0.92,Vmaxpu=1.5,model=8,zipv=[0.5,0,0.5,1,0,0,0],daily=RES2_1,status=variable
new load.3000059282M1 bus1=RML1051997099.1.2.0,Phases=2,kv=0.24,kW=0.66656,pf=0.92,Vminpu=0.92,Vmaxpu=1.5,model=8,zipv=[0.5,0,0.5,1,0,0,0],daily=RES2_1,status=variable
new load.3000059283M1 bus1=RML1051997106.1.0,Phases=1,kv=0.12,kW=0.38896,pf=0.92,Vminpu=0.92,Vmaxpu=1.5,model=8,zipv=[0.5,0,0.5,1,0,0,0],daily=RES1_1,status=variable
new load.3000059284M1 bus1=RML1051997113.1.0,Phases=1,kv=0.12,kW=0.6833,pf=0.92,Vminpu=0.92,Vmaxpu=1.5,model=8,zipv=[0.5,0,0.5,1,0,0,0],daily=RES1_1,status=variable
new load.3000059285M1 bus1=RML1051997120.2.0,Phases=1,kv=0.12,kW=0.06172,pf=0.92,Vminpu=0.92,Vmaxpu=1.5,model=8,zipv=[0.5,0,0.5,1,0,0,0],daily=RES2_1,status=variable
new load.3000059286M1 bus1=RML1051997288.2.0,Phases=1,kv=0.12,kW=0.49408,pf=0.92,Vminpu=0.92,Vmaxpu=1.5,model=8,zipv=[0.5,0,0.5,1,0,0,0],daily=RES1_1,status=variable
new load.3000059288M1 bus1=RML1051997211.2.0,Phases=1,kv=0.12,kW=0.07358,pf=0.92,Vminpu=0.92,Vmaxpu=1.5,model=8,zipv=[0.5,0,0.5,1,0,0,0],daily=RES1_1,status=variable
new load.3000059289M1 bus1=RML1051997218.1.0,Phases=1,kv=0.12,kW=0.45672,pf=0.92,Vminpu=0.92,Vmaxpu=1.5,model=8,zipv=[0.5,0,0.5,1,0,0,0],daily=RES2_1,status=variable
new load.3000059290M1 bus1=RML1051997225.2.0,Phases=1,kv=0.12,kW=0.80852,pf=0.92,Vminpu=0.92,Vmaxpu=1.5,model=8,zipv=[0.5,0,0.5,1,0,0,0],daily=RES2_1,status=variable
new load.3000059291M1 bus1=RML1051997204.1.0,Phases=1,kv=0.12,kW=1.24438,pf=0.92,Vminpu=0.92,Vmaxpu=1.5,model=8,zipv=[0.5,0,0.5,1,0,0,0],daily=RES3_2,status=variable
new load.3000059292M1 bus1=RML1051997190.1.0,Phases=1,kv=0.12,kW=1.31462,pf=0.92,Vminpu=0.92,Vmaxpu=1.5,model=8,zipv=[0.5,0,0.5,1,0,0,0],daily=RES2_1,status=variable
new load.3000059293M1 bus1=RML1051997197.2.0,Phases=1,kv=0.12,kW=0.45202,pf=0.92,Vminpu=0.92,Vmaxpu=1.5,model=8,zipv=[0.5,0,0.5,1,0,0,0],daily=RES1_1,status=variable
new load.3000059294M1 bus1=RML1051997267.1.0,Phases=1,kv=0.12,kW=0.5151,pf=0.92,Vminpu=0.92,Vmaxpu=1.5,model=8,zipv=[0.5,0,0.5,1,0,0,0],daily=RES1_1,status=variable
new load.3000059295M1 bus1=RML1051997260.2.0,Phases=1,kv=0.12,kW=0.40734,pf=0.92,Vminpu=0.92,Vmaxpu=1.5,model=8,zipv=[0.5,0,0.5,1,0,0,0],daily=RES2_1,status=variable
new load.3000059296M1 bus1=RML1051997253.1.0,Phases=1,kv=0.12,kW=0.431,pf=0.92,Vminpu=0.92,Vmaxpu=1.5,model=8,zipv=[0.5,0,0.5,1,0,0,0],daily=RES1_1,status=variable
new load.3000059297M1 bus1=RML1051997246.2.0,Phases=1,kv=0.12,kW=0.55714,pf=0.92,Vminpu=0.92,Vmaxpu=1.5,model=8,zipv=[0.5,0,0.5,1,0,0,0],daily=RES1_1,status=variable
new load.3000059298M1 bus1=RML1051996588.2.0,Phases=1,kv=0.12,kW=0.77766,pf=0.92,Vminpu=0.92,Vmaxpu=1.5,model=8,zipv=[0.5,0,0.5,1,0,0,0],daily=RES2_1,status=variable
new load.3000059300M1 bus1=RML1051996539.1.0,Phases=1,kv=0.12,kW=0.55714,pf=0.92,Vminpu=0.92,Vmaxpu=1.5,model=8,zipv=[0.5,0,0.5,1,0,0,0],daily=RES1_1,status=variable
new load.3000059301M1 bus1=RML1051996525.2.0,Phases=1,kv=0.12,kW=0.73586,pf=0.92,Vminpu=0.92,Vmaxpu=1.5,model=8,zipv=[0.5,0,0.5,1,0,0,0],daily=RES1_1,status=variable
new load.3000059302M1 bus1=RML1051996518.1.0,Phases=1,kv=0.12,kW=0.62954,pf=0.92,Vminpu=0.92,Vmaxpu=1.5,model=8,zipv=[0.5,0,0.5,1,0,0,0],daily=RES2_1,status=variable
new load.3000059303M1 bus1=RML1051996511.1.0,Phases=1,kv=0.12,kW=0.60484,pf=0.92,Vminpu=0.92,Vmaxpu=1.5,model=8,zipv=[0.5,0,0.5,1,0,0,0],daily=RES2_1,status=variable
new load.3000059304M1 bus1=RML1051996553.1.0,Phases=1,kv=0.12,kW=0.53612,pf=0.92,Vminpu=0.92,Vmaxpu=1.5,model=8,zipv=[0.5,0,0.5,1,0,0,0],daily=RES1_1,status=variable
new load.3000059305M1 bus1=RML1051996560.2.0,Phases=1,kv=0.12,kW=1.57308,pf=0.92,Vminpu=0.92,Vmaxpu=1.5,model=8,zipv=[0.5,0,0.5,1,0,0,0],daily=RES3_2,status=variable
new load.3000059307M1 bus1=RML1051996567.1.0,Phases=1,kv=0.12,kW=0.3223,pf=0.92,Vminpu=0.92,Vmaxpu=1.5,model=8,zipv=[0.5,0,0.5,1,0,0,0],daily=COM1_3,status=variable
new load.3000059308M1 bus1=RML1051996616.1.0,Phases=1,kv=0.12,kW=0.85148,pf=0.92,Vminpu=0.92,Vmaxpu=1.5,model=8,zipv=[0.5,0,0.5,1,0,0,0],daily=RES1_1,status=variable
new load.3000059312M1 bus1=RML1051996700.1.0,Phases=1,kv=0.12,kW=0.54312,pf=0.92,Vminpu=0.92,Vmaxpu=1.5,model=8,zipv=[0.5,0,0.5,1,0,0,0],daily=RES2_1,status=variable
new load.3000059313M1 bus1=RML1051996637.2.0,Phases=1,kv=0.12,kW=0.77148,pf=0.92,Vminpu=0.92,Vmaxpu=1.5,model=8,zipv=[0.5,0,0.5,1,0,0,0],daily=RES2_1,status=variable
new load.3000059315M1 bus1=RML1054721079.1.2.0,Phases=2,kv=0.24,kW=0.70432,pf=0.92,Vminpu=0.92,Vmaxpu=1.5,model=8,zipv=[0.5,0,0.5,1,0,0,0],daily=RES1_1,status=variable
new load.3000059316M1 bus1=RML1051996623.1.0,Phases=1,kv=0.12,kW=0.5992,pf=0.92,Vminpu=0.92,Vmaxpu=1.5,model=8,zipv=[0.5,0,0.5,1,0,0,0],daily=RES1_1,status=variable
new load.3000059317M1 bus1=RML1051996630.1.0,Phases=1,kv=0.12,kW=0.80944,pf=0.92,Vminpu=0.92,Vmaxpu=1.5,model=8,zipv=[0.5,0,0.5,1,0,0,0],daily=RES1_1,status=variable
new load.3000059318M1 bus1=RML1051996651.2.0,Phases=1,kv=0.12,kW=0.65422,pf=0.92,Vminpu=0.92,Vmaxpu=1.5,model=8,zipv=[0.5,0,0.5,1,0,0,0],daily=RES2_1,status=variable
new load.3000059319M1 bus1=RML1051996644.1.0,Phases=1,kv=0.12,kW=0.5493,pf=0.92,Vminpu=0.92,Vmaxpu=1.5,model=8,zipv=[0.5,0,0.5,1,0,0,0],daily=RES2_1,status=variable
new load.3000059320M1 bus1=RML1051996665.2.0,Phases=1,kv=0.12,kW=0.46906,pf=0.92,Vminpu=0.92,Vmaxpu=1.5,model=8,zipv=[0.5,0,0.5,1,0,0,0],daily=RES2_1,status=variable
new load.3000059321M1 bus1=RML1051996679.1.0,Phases=1,kv=0.12,kW=0.60484,pf=0.92,Vminpu=0.92,Vmaxpu=1.5,model=8,zipv=[0.5,0,0.5,1,0,0,0],daily=RES2_1,status=variable
new load.3000059322M1 bus1=RML1051996980.1.0,Phases=1,kv=0.12,kW=0.42048,pf=0.92,Vminpu=0.92,Vmaxpu=1.5,model=8,zipv=[0.5,0,0.5,1,0,0,0],daily=RES1_1,status=variable
new load.3000059323M1 bus1=RML1051996987.2.0,Phases=1,kv=0.12,kW=0.52462,pf=0.92,Vminpu=0.92,Vmaxpu=1.5,model=8,zipv=[0.5,0,0.5,1,0,0,0],daily=RES2_1,status=variable
new load.3000059324M1 bus1=RML1051996959.1.0,Phases=1,kv=0.12,kW=0.70976,pf=0.92,Vminpu=0.92,Vmaxpu=1.5,model=8,zipv=[0.5,0,0.5,1,0,0,0],daily=RES2_1,status=variable
new load.3000059326M1 bus1=RML1051996952.1.0,Phases=1,kv=0.12,kW=0.51226,pf=0.92,Vminpu=0.92,Vmaxpu=1.5,model=8,zipv=[0.5,0,0.5,1,0,0,0],daily=RES2_1,status=variable
new load.3000059327M1 bus1=RML1051998212.2.0,Phases=1,kv=0.12,kW=0.00618,pf=0.92,Vminpu=0.92,Vmaxpu=1.5,model=8,zipv=[0.5,0,0.5,1,0,0,0],daily=RES2_1,status=variable
new load.3000059328M1 bus1=RML1051998219.1.0,Phases=1,kv=0.12,kW=0.78384,pf=0.92,Vminpu=0.92,Vmaxpu=1.5,model=8,zipv=[0.5,0,0.5,1,0,0,0],daily=RES2_1,status=variable
new load.3000059329M1 bus1=RML1051998163.2.0,Phases=1,kv=0.12,kW=0.73586,pf=0.92,Vminpu=0.92,Vmaxpu=1.5,model=8,zipv=[0.5,0,0.5,1,0,0,0],daily=RES1_1,status=variable
new load.3000059330M1 bus1=RML1051998170.2.0,Phases=1,kv=0.12,kW=0.6938,pf=0.92,Vminpu=0.92,Vmaxpu=1.5,model=8,zipv=[0.5,0,0.5,1,0,0,0],daily=RES1_1,status=variable
new load.3000059331M1 bus1=RML1053339202.1.2.0,Phases=2,kv=0.24,kW=0.08318,pf=0.92,Vminpu=0.92,Vmaxpu=1.5,model=8,zipv=[0.5,0,0.5,1,0,0,0],daily=COM1_3,status=variable
new load.3000586136M1 bus1=RML1051890888.3.0,Phases=1,kv=0.127,kW=0.71812,pf=0.92,Vminpu=0.92,Vmaxpu=1.5,model=8,zipv=[0.5,0,0.5,1,0,0,0],daily=RES3_11,status=variable
new load.3000586137M1 bus1=RML1051890895.2.0,Phases=1,kv=0.127,kW=0.25316,pf=0.92,Vminpu=0.92,Vmaxpu=1.5,model=8,zipv=[0.5,0,0.5,1,0,0,0],daily=RES2_10,status=variable
new load.3000586138M1 bus1=RML1051890902.1.0,Phases=1,kv=0.127,kW=0.18944,pf=0.92,Vminpu=0.92,Vmaxpu=1.5,model=8,zipv=[0.5,0,0.5,1,0,0,0],daily=RES1_10,status=variable
new load.3000586139M1 bus1=RML1051890867.2.0,Phases=1,kv=0.127,kW=0.20058,pf=0.92,Vminpu=0.92,Vmaxpu=1.5,model=8,zipv=[0.5,0,0.5,1,0,0,0],daily=RES1_10,status=variable
new load.3000586140M1 bus1=RML1051890860.2.0,Phases=1,kv=0.127,kW=0.6729,pf=0.92,Vminpu=0.92,Vmaxpu=1.5,model=8,zipv=[0.5,0,0.5,1,0,0,0],daily=RES2_10,status=variable
new load.3000586141M1 bus1=RML1051890853.3.0,Phases=1,kv=0.127,kW=0.312,pf=0.92,Vminpu=0.92,Vmaxpu=1.5,model=8,zipv=[0.5,0,0.5,1,0,0,0],daily=RES1_10,status=variable
new load.3000586142M1 bus1=RML1051890846.1.2.3.0,Phases=3,kv=0.22,kW=0.87942,pf=0.92,Vminpu=0.92,Vmaxpu=1.5,model=8,zipv=[0.5,0,0.5,1,0,0,0],daily=RES2_10,status=variable
new load.3000586145M1 bus1=RML1051867872.2.0,Phases=1,kv=0.127,kW=0.54632,pf=0.92,Vminpu=0.92,Vmaxpu=1.5,model=8,zipv=[0.5,0,0.5,1,0,0,0],daily=RES2_10,status=variable
new load.3000586146M1 bus1=RML1051867872.2.0,Phases=1,kv=0.127,kW=0.26744,pf=0.92,Vminpu=0.92,Vmaxpu=1.5,model=8,zipv=[0.5,0,0.5,1,0,0,0],daily=RES1_10,status=variable
new load.3000586148M1 bus1=RML1051867851.1.0,Phases=1,kv=0.127,kW=0.53964,pf=0.92,Vminpu=0.92,Vmaxpu=1.5,model=8,zipv=[0.5,0,0.5,1,0,0,0],daily=RES2_10,status=variable
new load.3000586152M1 bus1=RML1051889824.3.0,Phases=1,kv=0.127,kW=0.43972,pf=0.92,Vminpu=0.92,Vmaxpu=1.5,model=8,zipv=[0.5,0,0.5,1,0,0,0],daily=RES2_10,status=variable
new load.3000586153M1 bus1=RML1051889824.3.0,Phases=1,kv=0.127,kW=1.25918,pf=0.92,Vminpu=0.92,Vmaxpu=1.5,model=8,zipv=[0.5,0,0.5,1,0,0,0],daily=RES2_10,status=variable
new load.3000586154M1 bus1=RML1051889733.1.0,Phases=1,kv=0.127,kW=1.00958,pf=0.92,Vminpu=0.92,Vmaxpu=1.5,model=8,zipv=[0.5,0,0.5,1,0,0,0],daily=RES3_11,status=variable
new load.3000586155M1 bus1=RML1051867760.3.0,Phases=1,kv=0.127,kW=0.8128,pf=0.92,Vminpu=0.92,Vmaxpu=1.5,model=8,zipv=[0.5,0,0.5,1,0,0,0],daily=RES2_10,status=variable
new load.3000586157M1 bus1=RML1051867753.1.2.0,Phases=2,kv=0.22,kW=0.51958,pf=0.92,Vminpu=0.92,Vmaxpu=1.5,model=8,zipv=[0.5,0,0.5,1,0,0,0],daily=RES3_11,status=variable
new load.3000586158M1 bus1=RML1051867746.3.0,Phases=1,kv=0.127,kW=0.44572,pf=0.92,Vminpu=0.92,Vmaxpu=1.5,model=8,zipv=[0.5,0,0.5,1,0,0,0],daily=RES1_10,status=variable
new load.3000586160M1 bus1=RML1053823336.1.0,Phases=1,kv=0.127,kW=0.98002,pf=0.92,Vminpu=0.92,Vmaxpu=1.5,model=8,zipv=[0.5,0,0.5,1,0,0,0],daily=RES3_11,status=variable
new load.3000586161M1 bus1=RML1053823336.1.0,Phases=1,kv=0.127,kW=0.63292,pf=0.92,Vminpu=0.92,Vmaxpu=1.5,model=8,zipv=[0.5,0,0.5,1,0,0,0],daily=RES2_10,status=variable
new load.3000586162M1 bus1=RML1051871106.1.0,Phases=1,kv=0.127,kW=1.11928,pf=0.92,Vminpu=0.92,Vmaxpu=1.5,model=8,zipv=[0.5,0,0.5,1,0,0,0],daily=RES2_10,status=variable
new load.3000586163M1 bus1=RML1051889754.1.2.3.0,Phases=3,kv=0.22,kW=0.351,pf=0.92,Vminpu=0.92,Vmaxpu=1.5,model=8,zipv=[0.5,0,0.5,1,0,0,0],daily=RES1_10,status=variable
new load.3000586165M1 bus1=RML1051889775.1.0,Phases=1,kv=0.127,kW=0.34644,pf=0.92,Vminpu=0.92,Vmaxpu=1.5,model=8,zipv=[0.5,0,0.5,1,0,0,0],daily=RES2_10,status=variable
new load.3000586166M1 bus1=RML1051889810.3.0,Phases=1,kv=0.127,kW=1.08562,pf=0.92,Vminpu=0.92,Vmaxpu=1.5,model=8,zipv=[0.5,0,0.5,1,0,0,0],daily=RES3_11,status=variable
new load.3000586170M1 bus1=RML1051889859.1.2.3.0,Phases=3,kv=0.22,kW=0.513,pf=0.92,Vminpu=0.92,Vmaxpu=1.5,model=8,zipv=[0.5,0,0.5,1,0,0,0],daily=RES2_10,status=variable
new load.3000586171M1 bus1=RML1051889866.3.0,Phases=1,kv=0.127,kW=0.156,pf=0.92,Vminpu=0.92,Vmaxpu=1.5,model=8,zipv=[0.5,0,0.5,1,0,0,0],daily=RES1_10,status=variable
new load.3000586172M1 bus1=RML1051889887.1.2.3.0,Phases=3,kv=0.22,kW=0.49968,pf=0.92,Vminpu=0.92,Vmaxpu=1.5,model=8,zipv=[0.5,0,0.5,1,0,0,0],daily=RES2_10,status=variable
new load.3000586174M1 bus1=RML1051883314.1.3.0,Phases=2,kv=0.22,kW=0.47302,pf=0.92,Vminpu=0.92,Vmaxpu=1.5,model=8,zipv=[0.5,0,0.5,1,0,0,0],daily=RES2_10,status=variable
new load.3000586175M1 bus1=RML1051883307.3.0,Phases=1,kv=0.127,kW=0.65958,pf=0.92,Vminpu=0.92,Vmaxpu=1.5,model=8,zipv=[0.5,0,0.5,1,0,0,0],daily=RES2_10,status=variable
new load.3000586179M1 bus1=RML1051883321.1.2.0,Phases=2,kv=0.22,kW=1.14592,pf=0.92,Vminpu=0.92,Vmaxpu=1.5,model=8,zipv=[0.5,0,0.5,1,0,0,0],daily=RES4_12,status=variable
new load.3000586180M1 bus1=RML1051883566.2.0,Phases=1,kv=0.127,kW=0.08646,pf=0.92,Vminpu=0.92,Vmaxpu=1.5,model=8,zipv=[0.5,0,0.5,1,0,0,0],daily=COM1_14,status=variable
new load.3000586181M1 bus1=RML1051883671.1.0,Phases=1,kv=0.127,kW=1.19256,pf=0.92,Vminpu=0.92,Vmaxpu=1.5,model=8,zipv=[0.5,0,0.5,1,0,0,0],daily=RES2_10,status=variable
new load.3000586182M1 bus1=RML1051883685.1.0,Phases=1,kv=0.127,kW=1.05932,pf=0.92,Vminpu=0.92,Vmaxpu=1.5,model=8,zipv=[0.5,0,0.5,1,0,0,0],daily=RES2_10,status=variable
new load.3000586183M1 bus1=RML1051883692.2.0,Phases=1,kv=0.127,kW=0.41972,pf=0.92,Vminpu=0.92,Vmaxpu=1.5,model=8,zipv=[0.5,0,0.5,1,0,0,0],daily=RES2_10,status=variable
new load.3000586186M1 bus1=RML1051883643.1.2.0,Phases=2,kv=0.22,kW=0.7062,pf=0.92,Vminpu=0.92,Vmaxpu=1.5,model=8,zipv=[0.5,0,0.5,1,0,0,0],daily=RES2_10,status=variable
new load.3000586187M1 bus1=RML1051883272.2.0,Phases=1,kv=0.127,kW=0.84612,pf=0.92,Vminpu=0.92,Vmaxpu=1.5,model=8,zipv=[0.5,0,0.5,1,0,0,0],daily=RES2_10,status=variable
new load.3000586188M1 bus1=RML1051883265.1.0,Phases=1,kv=0.127,kW=0.53964,pf=0.92,Vminpu=0.92,Vmaxpu=1.5,model=8,zipv=[0.5,0,0.5,1,0,0,0],daily=RES2_10,status=variable
new load.3000586189M1 bus1=RML1051883286.2.0,Phases=1,kv=0.127,kW=0.60628,pf=0.92,Vminpu=0.92,Vmaxpu=1.5,model=8,zipv=[0.5,0,0.5,1,0,0,0],daily=RES2_10,status=variable
new load.3000586191M1 bus1=RML1051883328.2.0,Phases=1,kv=0.127,kW=0.8128,pf=0.92,Vminpu=0.92,Vmaxpu=1.5,model=8,zipv=[0.5,0,0.5,1,0,0,0],daily=RES2_10,status=variable
new load.3000586192M1 bus1=RML1051883335.1.0,Phases=1,kv=0.127,kW=0.8328,pf=0.92,Vminpu=0.92,Vmaxpu=1.5,model=8,zipv=[0.5,0,0.5,1,0,0,0],daily=RES2_10,status=variable
new load.3000586193M1 bus1=RML1051883384.1.0,Phases=1,kv=0.127,kW=0.66624,pf=0.92,Vminpu=0.92,Vmaxpu=1.5,model=8,zipv=[0.5,0,0.5,1,0,0,0],daily=RES2_10,status=variable
new load.3000586195M1 bus1=RML1051883405.2.0,Phases=1,kv=0.127,kW=0.5996,pf=0.92,Vminpu=0.92,Vmaxpu=1.5,model=8,zipv=[0.5,0,0.5,1,0,0,0],daily=RES2_10,status=variable
new load.3000586196M1 bus1=RML1051883419.1.0,Phases=1,kv=0.127,kW=0.65958,pf=0.92,Vminpu=0.92,Vmaxpu=1.5,model=8,zipv=[0.5,0,0.5,1,0,0,0],daily=RES2_10,status=variable
new load.3000586197M1 bus1=RML1051883475.3.0,Phases=1,kv=0.127,kW=0.71286,pf=0.92,Vminpu=0.92,Vmaxpu=1.5,model=8,zipv=[0.5,0,0.5,1,0,0,0],daily=RES2_10,status=variable
new load.3000586198M1 bus1=RML1051883461.2.0,Phases=1,kv=0.127,kW=0.50634,pf=0.92,Vminpu=0.92,Vmaxpu=1.5,model=8,zipv=[0.5,0,0.5,1,0,0,0],daily=RES2_10,status=variable
new load.3000586199M1 bus1=RML1051883468.1.2.3.0,Phases=3,kv=0.22,kW=0.76616,pf=0.92,Vminpu=0.92,Vmaxpu=1.5,model=8,zipv=[0.5,0,0.5,1,0,0,0],daily=RES2_10,status=variable
new load.3000586204M1 bus1=RML1051883601.3.0,Phases=1,kv=0.127,kW=0.75284,pf=0.92,Vminpu=0.92,Vmaxpu=1.5,model=8,zipv=[0.5,0,0.5,1,0,0,0],daily=RES2_10,status=variable
new load.3000586208M1 bus1=RML1051883503.1.2.3.0,Phases=3,kv=0.22,kW=0.02228,pf=0.92,Vminpu=0.92,Vmaxpu=1.5,model=8,zipv=[0.5,0,0.5,1,0,0,0],daily=RES1_10,status=variable
new load.3000586209M1 bus1=RML1051883517.2.0,Phases=1,kv=0.127,kW=0.7262,pf=0.92,Vminpu=0.92,Vmaxpu=1.5,model=8,zipv=[0.5,0,0.5,1,0,0,0],daily=RES2_10,status=variable
new load.3000586213M1 bus1=RML1051883489.1.0,Phases=1,kv=0.127,kW=0.234,pf=0.92,Vminpu=0.92,Vmaxpu=1.5,model=8,zipv=[0.5,0,0.5,1,0,0,0],daily=RES1_10,status=variable
new load.3000586214M1 bus1=RML1051883531.1.0,Phases=1,kv=0.127,kW=1.15924,pf=0.92,Vminpu=0.92,Vmaxpu=1.5,model=8,zipv=[0.5,0,0.5,1,0,0,0],daily=RES2_10,status=variable
new load.3000586219M1 bus1=RML1051883412.3.0,Phases=1,kv=0.127,kW=1.05264,pf=0.92,Vminpu=0.92,Vmaxpu=1.5,model=8,zipv=[0.5,0,0.5,1,0,0,0],daily=RES2_10,status=variable
new load.3000586220M1 bus1=RML1051883370.2.0,Phases=1,kv=0.127,kW=0.66624,pf=0.92,Vminpu=0.92,Vmaxpu=1.5,model=8,zipv=[0.5,0,0.5,1,0,0,0],daily=RES2_10,status=variable
new load.3000586223M1 bus1=RML1051883237.3.0,Phases=1,kv=0.127,kW=1.48468,pf=0.92,Vminpu=0.92,Vmaxpu=1.5,model=8,zipv=[0.5,0,0.5,1,0,0,0],daily=RES4_12,status=variable
new load.3000586224M1 bus1=RML1051883244.1.2.3.0,Phases=3,kv=0.22,kW=0.82372,pf=0.92,Vminpu=0.92,Vmaxpu=1.5,model=8,zipv=[0.5,0,0.5,1,0,0,0],daily=RES3_11,status=variable
new load.3000586228M1 bus1=RML1051889873.1.0,Phases=1,kv=0.127,kW=0.42344,pf=0.92,Vminpu=0.92,Vmaxpu=1.5,model=8,zipv=[0.5,0,0.5,1,0,0,0],daily=RES1_10,status=variable
new load.3000586229M1 bus1=RML1053685947.1.2.0,Phases=2,kv=0.22,kW=0.91666,pf=0.92,Vminpu=0.92,Vmaxpu=1.5,model=8,zipv=[0.5,0,0.5,1,0,0,0],daily=RES3_11,status=variable
new load.3000586230M1 bus1=RML1051890006.3.0,Phases=1,kv=0.127,kW=0.33312,pf=0.92,Vminpu=0.92,Vmaxpu=1.5,model=8,zipv=[0.5,0,0.5,1,0,0,0],daily=RES2_10,status=variable
new load.3000586231M1 bus1=RML1051889978.1.0,Phases=1,kv=0.127,kW=0.33312,pf=0.92,Vminpu=0.92,Vmaxpu=1.5,model=8,zipv=[0.5,0,0.5,1,0,0,0],daily=RES2_10,status=variable
new load.3000586233M1 bus1=RML1051890048.3.0,Phases=1,kv=0.127,kW=0.55964,pf=0.92,Vminpu=0.92,Vmaxpu=1.5,model=8,zipv=[0.5,0,0.5,1,0,0,0],daily=RES2_10,status=variable
new load.3000586234M1 bus1=RML1051890027.2.0,Phases=1,kv=0.127,kW=0.47968,pf=0.92,Vminpu=0.92,Vmaxpu=1.5,model=8,zipv=[0.5,0,0.5,1,0,0,0],daily=RES2_10,status=variable
new load.3000586235M1 bus1=RML1051890013.1.3.0,Phases=2,kv=0.22,kW=0.8195,pf=0.92,Vminpu=0.92,Vmaxpu=1.5,model=8,zipv=[0.5,0,0.5,1,0,0,0],daily=RES3_11,status=variable
new load.3000586236M1 bus1=RML1051890125.3.0,Phases=1,kv=0.127,kW=0.60628,pf=0.92,Vminpu=0.92,Vmaxpu=1.5,model=8,zipv=[0.5,0,0.5,1,0,0,0],daily=RES2_10,status=variable
new load.3000586238M1 bus1=RML1051893373.2.0,Phases=1,kv=0.127,kW=0.39974,pf=0.92,Vminpu=0.92,Vmaxpu=1.5,model=8,zipv=[0.5,0,0.5,1,0,0,0],daily=RES2_10,status=variable
new load.3000586239M1 bus1=RML1053152771.2.0,Phases=1,kv=0.127,kW=0.48634,pf=0.92,Vminpu=0.92,Vmaxpu=1.5,model=8,zipv=[0.5,0,0.5,1,0,0,0],daily=RES2_10,status=variable
new load.3000586241M1 bus1=RML1051893443.1.0,Phases=1,kv=0.127,kW=0.25218,pf=0.92,Vminpu=0.92,Vmaxpu=1.5,model=8,zipv=[0.5,0,0.5,1,0,0,0],daily=COM1_14,status=variable
new load.3000586242M1 bus1=RML1051893429.3.0,Phases=1,kv=0.127,kW=0.02664,pf=0.92,Vminpu=0.92,Vmaxpu=1.5,model=8,zipv=[0.5,0,0.5,1,0,0,0],daily=RES2_10,status=variable
new load.3000586245M1 bus1=RML1051893436.1.0,Phases=1,kv=0.127,kW=0.35658,pf=0.92,Vminpu=0.92,Vmaxpu=1.5,model=8,zipv=[0.5,0,0.5,1,0,0,0],daily=RES1_10,status=variable
new load.3000586246M1 bus1=RML1053868304.1.0,Phases=1,kv=0.127,kW=0.61294,pf=0.92,Vminpu=0.92,Vmaxpu=1.5,model=8,zipv=[0.5,0,0.5,1,0,0,0],daily=RES2_10,status=variable
new load.3000586247M1 bus1=RML1051893380.2.0,Phases=1,kv=0.127,kW=0.68622,pf=0.92,Vminpu=0.92,Vmaxpu=1.5,model=8,zipv=[0.5,0,0.5,1,0,0,0],daily=RES2_10,status=variable
new load.3000586248M1 bus1=RML1051893345.2.0,Phases=1,kv=0.127,kW=0.94606,pf=0.92,Vminpu=0.92,Vmaxpu=1.5,model=8,zipv=[0.5,0,0.5,1,0,0,0],daily=RES2_10,status=variable
new load.3000586249M1 bus1=RML1051890041.3.0,Phases=1,kv=0.127,kW=0.00558,pf=0.92,Vminpu=0.92,Vmaxpu=1.5,model=8,zipv=[0.5,0,0.5,1,0,0,0],daily=RES1_10,status=variable
new load.3000586253M1 bus1=RML1051889992.1.0,Phases=1,kv=0.127,kW=0.44572,pf=0.92,Vminpu=0.92,Vmaxpu=1.5,model=8,zipv=[0.5,0,0.5,1,0,0,0],daily=RES1_10,status=variable
new load.3000586256M1 bus1=RML1051889803.2.0,Phases=1,kv=0.127,kW=0.72234,pf=0.92,Vminpu=0.92,Vmaxpu=1.5,model=8,zipv=[0.5,0,0.5,1,0,0,0],daily=RES3_11,status=variable
new load.3000586257M1 bus1=RML1051889796.2.0,Phases=1,kv=0.127,kW=0.40672,pf=0.92,Vminpu=0.92,Vmaxpu=1.5,model=8,zipv=[0.5,0,0.5,1,0,0,0],daily=RES1_10,status=variable