new line.RML10006200 bus1=BBT137181907.1.2.0,bus2=RML1060006200.1.2.0,Phases=2,Linecode=CABBTG05_4_2,Length=0.017000000,Units=km
new line.RML10011590 bus1=BBT139349821.1.2.0,bus2=RML1060011590.1.2.0,Phases=2,Linecode=CABBTG05_4_2,Length=0.017000000,Units=km
new line.RML10013410 bus1=BBT4804984.1.2.0,bus2=RML1060013410.1.2.0,Phases=2,Linecode=CABBTG04_4_2,Length=0.017000000,Units=km
new line.RML10030252 bus1=BBT3485806.1.2.0,bus2=RML1060030252.1.2.0,Phases=2,Linecode=CABBTG04_4_2,Length=0.017000000,Units=km
new line.RML10030392 bus1=BBT75312484.3.0,bus2=RML1060030392.3.0,Phases=1,Linecode=CABBTG01_4_1,Length=0.017000000,Units=km
new line.RML10030399 bus1=BBT75312484.3.0,bus2=RML1060030399.3.0,Phases=1,Linecode=CABBTG01_4_1,Length=0.017000000,Units=km
new line.RML10036261 bus1=BBT1685182.1.2.3.0,bus2=RML1060036261.1.2.3.0,Phases=3,Linecode=CABBTG06_4_3,Length=0.017000000,Units=km
new line.RML10037834 bus1=BBT1888798.1.2.0,bus2=RML1060037834.1.2.0,Phases=2,Linecode=CABBTG05_4_2,Length=0.017000000,Units=km
new line.RML10037858 bus1=BBT148053115.1.2.0,bus2=RML1060037858.1.2.0,Phases=2,Linecode=CABBTG05_4_2,Length=0.017000000,Units=km
new line.RML10037971 bus1=BBT1723227.1.2.0,bus2=RML1060037971.1.2.0,Phases=2,Linecode=CABBTG05_4_2,Length=0.017000000,Units=km
new line.RML10042594 bus1=BBT4816471.1.2.0,bus2=RML1060042594.1.2.0,Phases=2,Linecode=CABBTG04_4_2,Length=0.017000000,Units=km
new line.RML10043448 bus1=BBT1581309.1.2.0,bus2=RML1060043448.1.2.0,Phases=2,Linecode=CABBTG05_4_2,Length=0.017000000,Units=km
new line.RML10047035 bus1=BBT1578222.1.2.0,bus2=RML1060047035.1.2.0,Phases=2,Linecode=CABBTG05_4_2,Length=0.017000000,Units=km
new line.RML10047431 bus1=BBT1575975.1.2.0,bus2=RML1060047431.1.2.0,Phases=2,Linecode=CABBTG05_4_2,Length=0.017000000,Units=km
new line.RML10047801 bus1=BBT1575345.1.2.3.0,bus2=RML1060047801.1.2.3.0,Phases=3,Linecode=CABBTG06_4_3,Length=0.017000000,Units=km
new line.RML10049907 bus1=BBT1583157.1.2.0,bus2=RML1060049907.1.2.0,Phases=2,Linecode=CABBTG05_4_2,Length=0.017000000,Units=km
new line.RML10054413 bus1=BBT7744515.1.2.0,bus2=RML1060054413.1.2.0,Phases=2,Linecode=CABBTG05_4_2,Length=0.017000000,Units=km
new line.RML10058824 bus1=BBT1571257.1.2.0,bus2=RML1060058824.1.2.0,Phases=2,Linecode=CABBTG05_4_2,Length=0.017000000,Units=km
new line.RML10060638 bus1=BBT148053115.2.0,bus2=RML1060060638.2.0,Phases=1,Linecode=CABBTG01_4_1,Length=0.017000000,Units=km
new line.RML10060905 bus1=BBT4723504.3.0,bus2=RML1060060905.3.0,Phases=1,Linecode=CABBTG01_4_1,Length=0.017000000,Units=km
new line.RML10062265 bus1=BBT148053115.3.0,bus2=RML1060062265.3.0,Phases=1,Linecode=CABBTG01_4_1,Length=0.017000000,Units=km
new line.RML10064248 bus1=BBT3485848.1.2.0,bus2=RML1060064248.1.2.0,Phases=2,Linecode=CABBTG05_4_2,Length=0.017000000,Units=km
new line.RML10064328 bus1=BBT4408847.1.0,bus2=RML1060064328.1.0,Phases=1,Linecode=CABBTG02_4_1,Length=0.017000000,Units=km
new line.RML10064897 bus1=BBT1571754.1.2.0,bus2=RML1060064897.1.2.0,Phases=2,Linecode=CABBTG05_4_2,Length=0.017000000,Units=km
new line.RML10065251 bus1=BBT90621022.1.2.0,bus2=RML1060065251.1.2.0,Phases=2,Linecode=CABBTG05_4_2,Length=0.017000000,Units=km
new line.RML10068446 bus1=BBT1685154.1.2.0,bus2=RML1060068446.1.2.0,Phases=2,Linecode=CABBTG05_4_2,Length=0.017000000,Units=km
new line.RML10068524 bus1=BBT5784221.1.0,bus2=RML1060068524.1.0,Phases=1,Linecode=CABBTG02_4_1,Length=0.017000000,Units=km
new line.RML10075221 bus1=BBT1571467.1.0,bus2=RML1060075221.1.0,Phases=1,Linecode=CABBTG02_4_1,Length=0.017000000,Units=km
new line.RML10075223 bus1=BBT3485876.1.3.0,bus2=RML1060075223.1.3.0,Phases=2,Linecode=CABBTG05_4_2,Length=0.017000000,Units=km
new line.RML10078490 bus1=BBT148875740.1.2.0,bus2=RML1060078490.1.2.0,Phases=2,Linecode=CABBTG05_4_2,Length=0.017000000,Units=km
new line.RML10078696 bus1=BBT4723504.1.2.3.0,bus2=RML1060078696.1.2.3.0,Phases=3,Linecode=CABBTG06_4_3,Length=0.024000000,Units=km
new line.RML10088219 bus1=BBT1887244.1.2.0,bus2=RML1060088219.1.2.0,Phases=2,Linecode=CABBTG04_4_2,Length=0.017000000,Units=km
new line.RML10114054 bus1=BBT4723504.1.2.0,bus2=RML1060114054.1.2.0,Phases=2,Linecode=CABBTG05_4_2,Length=0.017000000,Units=km
new line.RML10114081 bus1=BBT91381285.1.2.0,bus2=RML1060114081.1.2.0,Phases=2,Linecode=CABBTG05_4_2,Length=0.017000000,Units=km
new line.RML10117028 bus1=BBT1577396.3.0,bus2=RML1060117028.3.0,Phases=1,Linecode=CABBTG02_4_1,Length=0.017000000,Units=km
new line.RML10117038 bus1=BBT1575982.1.2.0,bus2=RML1060117038.1.2.0,Phases=2,Linecode=CABBTG05_4_2,Length=0.017000000,Units=km
new line.RML10117259 bus1=BBT148053115.2.0,bus2=RML1060117259.2.0,Phases=1,Linecode=CABBTG02_4_1,Length=0.017000000,Units=km
new line.RML10125223 bus1=BBT1574449.1.2.3.0,bus2=RML1060125223.1.2.3.0,Phases=3,Linecode=CABBTG11_4_3,Length=0.017000000,Units=km
new line.RML10126108 bus1=BBT1773109.1.2.0,bus2=RML1060126108.1.2.0,Phases=2,Linecode=CABBTG05_4_2,Length=0.017000000,Units=km
new line.RML10127077 bus1=BBT3205099.1.2.0,bus2=RML1060127077.1.2.0,Phases=2,Linecode=CABBTG05_4_2,Length=0.017000000,Units=km
new line.RML10127080 bus1=BBT4442755.1.2.0,bus2=RML1060127080.1.2.0,Phases=2,Linecode=CABBTG05_4_2,Length=0.017000000,Units=km
new line.RML10127109 bus1=BBT4442755.1.2.0,bus2=RML1060127109.1.2.0,Phases=2,Linecode=CABBTG05_4_2,Length=0.017000000,Units=km
new line.RML10127969 bus1=BBT5873674.1.2.0,bus2=RML1060127969.1.2.0,Phases=2,Linecode=CABBTG05_4_2,Length=0.017000000,Units=km
new line.RML10129484 bus1=BBT7220089.2.3.0,bus2=RML1060129484.2.3.0,Phases=2,Linecode=CABBTG05_4_2,Length=0.017000000,Units=km
new line.RML10130045 bus1=BBT7220082.2.3.0,bus2=RML1060130045.2.3.0,Phases=2,Linecode=CABBTG05_4_2,Length=0.017000000,Units=km
new line.RML10132579 bus1=BBT1578117.1.3.0,bus2=RML1060132579.1.3.0,Phases=2,Linecode=CABBTG05_4_2,Length=0.017000000,Units=km
new line.RML10132584 bus1=BBT1578117.1.3.0,bus2=RML1060132584.1.3.0,Phases=2,Linecode=CABBTG05_4_2,Length=0.017000000,Units=km
new line.RML10133685 bus1=BBT1574456.1.3.0,bus2=RML1060133685.1.3.0,Phases=2,Linecode=CABBTG05_4_2,Length=0.017000000,Units=km
new line.RML10140495 bus1=BBT7220089.3.0,bus2=RML1060140495.3.0,Phases=1,Linecode=CABBTG02_4_1,Length=0.017000000,Units=km
new line.RML10146658 bus1=BBT1888630.1.2.0,bus2=RML1060146658.1.2.0,Phases=2,Linecode=CABBTG05_4_2,Length=0.017000000,Units=km
new line.RML10146907 bus1=BBT1773067.1.2.0,bus2=RML1060146907.1.2.0,Phases=2,Linecode=CABBT811_4_2,Length=0.017000000,Units=km
new line.RML10147421 bus1=BBT149908247.1.2.0,bus2=RML1060147421.1.2.0,Phases=2,Linecode=CABBTG05_4_2,Length=0.017000000,Units=km
new line.RML10148036 bus1=BBT1571495.1.2.0,bus2=RML1060148036.1.2.0,Phases=2,Linecode=CABBTG05_4_2,Length=0.017000000,Units=km
new line.RML10148899 bus1=BBT4723504.1.2.0,bus2=RML1060148899.1.2.0,Phases=2,Linecode=CABBTG04_4_2,Length=0.017000000,Units=km
new line.RML10150167 bus1=BBT7660277.1.2.0,bus2=RML1060150167.1.2.0,Phases=2,Linecode=CABBTG04_4_2,Length=0.017000000,Units=km
new line.RML10152522 bus1=BBT4399754.1.2.0,bus2=RML1060152522.1.2.0,Phases=2,Linecode=CABBTG05_4_2,Length=0.017000000,Units=km
new line.RML10180595 bus1=BBT1581603.2.0,bus2=RML1060180595.2.0,Phases=1,Linecode=CABBTG02_4_1,Length=0.017000000,Units=km
new line.RML10182980 bus1=BBT1685182.1.2.3.0,bus2=RML1060182980.1.2.3.0,Phases=3,Linecode=CABBTG07_4_3,Length=0.017000000,Units=km
new line.RML10202380 bus1=BBT1953156.1.0,bus2=RML1060202380.1.0,Phases=1,Linecode=CABBTG02_4_1,Length=0.017000000,Units=km
new line.RML10202475 bus1=BBT1571558.1.2.0,bus2=RML1060202475.1.2.0,Phases=2,Linecode=CABBTG05_4_2,Length=0.017000000,Units=km
new line.RML10202827 bus1=BBT4723504.1.2.0,bus2=RML1060202827.1.2.0,Phases=2,Linecode=CABBTG05_4_2,Length=0.017000000,Units=km
new line.RML10203355 bus1=BBT28934173.1.2.0,bus2=RML1060203355.1.2.0,Phases=2,Linecode=CABBTG05_4_2,Length=0.017000000,Units=km
new line.RML10211981 bus1=BBT2930545.1.2.0,bus2=RML1060211981.1.2.0,Phases=2,Linecode=CABBTG05_4_2,Length=0.017000000,Units=km
new line.RML10214101 bus1=BBT1573287.1.2.0,bus2=RML1060214101.1.2.0,Phases=2,Linecode=CABBTG05_4_2,Length=0.017000000,Units=km
new line.RML10214160 bus1=BBT1576031.1.2.0,bus2=RML1060214160.1.2.0,Phases=2,Linecode=CABBTG05_4_2,Length=0.017000000,Units=km
new line.RML10214168 bus1=BBT1682354.1.2.0,bus2=RML1060214168.1.2.0,Phases=2,Linecode=CABBTG05_4_2,Length=0.017000000,Units=km
new line.RML10214580 bus1=BBT1571831.1.2.3.0,bus2=RML1060214580.1.2.3.0,Phases=3,Linecode=CABBTG06_4_3,Length=0.017000000,Units=km
new line.RML10214688 bus1=BBT1886936.1.2.0,bus2=RML1060214688.1.2.0,Phases=2,Linecode=CABBTG05_4_2,Length=0.017000000,Units=km
new line.RML10217936 bus1=BBT114540071.1.2.0,bus2=RML1060217936.1.2.0,Phases=2,Linecode=CABBTG05_4_2,Length=0.017000000,Units=km
new line.RML10218005 bus1=BBT1571495.3.0,bus2=RML1060218005.3.0,Phases=1,Linecode=CABBTG02_4_1,Length=0.017000000,Units=km
new line.RML10218012 bus1=BBT1571558.1.0,bus2=RML1060218012.1.0,Phases=1,Linecode=CABBTG02_4_1,Length=0.017000000,Units=km
new line.RML10221821 bus1=BBT150409141.1.2.0,bus2=RML1060221821.1.2.0,Phases=2,Linecode=CABBTG05_4_2,Length=0.025000000,Units=km
new line.RML10235328 bus1=BBT4723504.1.2.0,bus2=RML1060235328.1.2.0,Phases=2,Linecode=CABBTG05_4_2,Length=0.017000000,Units=km
new line.RML10235532 bus1=BBT3485876.1.2.0,bus2=RML1060235532.1.2.0,Phases=2,Linecode=CABBTG05_4_2,Length=0.017000000,Units=km
new line.RML10239234 bus1=BBT1888476.1.2.0,bus2=RML1060239234.1.2.0,Phases=2,Linecode=CABBTG05_4_2,Length=0.017000000,Units=km
new line.RML10239884 bus1=BBT4408728.1.0,bus2=RML1060239884.1.0,Phases=1,Linecode=CABBTG02_4_1,Length=0.017000000,Units=km
new line.RML10241807 bus1=BBT3486093.1.0,bus2=RML1060241807.1.0,Phases=1,Linecode=CABBTG02_4_1,Length=0.017000000,Units=km
new line.RML10247825 bus1=BBT4723504.1.2.0,bus2=RML1060247825.1.2.0,Phases=2,Linecode=CABBTG05_4_2,Length=0.017000000,Units=km
new line.RML10247923 bus1=BBT1579006.1.2.3.0,bus2=RML1060247923.1.2.3.0,Phases=3,Linecode=CABBTG06_4_3,Length=0.017000000,Units=km
new line.RML10253130 bus1=BBT1576458.1.2.0,bus2=RML1060253130.1.2.0,Phases=2,Linecode=CABBTG05_4_2,Length=0.017000000,Units=km
new line.RML10253262 bus1=BBT1577473.1.2.0,bus2=RML1060253262.1.2.0,Phases=2,Linecode=CABBTG05_4_2,Length=0.017000000,Units=km
new line.RML10254105 bus1=BBT3486142.1.0,bus2=RML1060254105.1.0,Phases=1,Linecode=CABBTG02_4_1,Length=0.017000000,Units=km
new line.RML10256275 bus1=BBT1684832.1.2.0,bus2=RML1060256275.1.2.0,Phases=2,Linecode=CABBTG05_4_2,Length=0.017000000,Units=km
new line.RML10256727 bus1=BBT1727063.1.2.0,bus2=RML1060256727.1.2.0,Phases=2,Linecode=CABBTG05_4_2,Length=0.017000000,Units=km
new line.RML10257196 bus1=BBT1726853.1.2.0,bus2=RML1060257196.1.2.0,Phases=2,Linecode=CABBTG05_4_2,Length=0.017000000,Units=km
new line.RML10257703 bus1=BBT1570739.1.2.3.0,bus2=RML1060257703.1.2.3.0,Phases=3,Linecode=CABBTG06_4_3,Length=0.017000000,Units=km
new line.RML10257719 bus1=BBT1888812.1.2.0,bus2=RML1060257719.1.2.0,Phases=2,Linecode=CABBTG05_4_2,Length=0.017000000,Units=km
new line.RML10257767 bus1=BBT138324440.1.2.0,bus2=RML1060257767.1.2.0,Phases=2,Linecode=CABBTG05_4_2,Length=0.017000000,Units=km
new line.RML10260663 bus1=BBT4147082.1.2.0,bus2=RML1060260663.1.2.0,Phases=2,Linecode=CABBTG05_4_2,Length=0.017000000,Units=km
new line.RML10261935 bus1=BBT1580021.1.2.0,bus2=RML1060261935.1.2.0,Phases=2,Linecode=CABBTG05_4_2,Length=0.017000000,Units=km
new line.RML10262478 bus1=BBT4723504.1.0,bus2=RML1060262478.1.0,Phases=1,Linecode=CABBTG01_4_1,Length=0.017000000,Units=km
new line.RML10262482 bus1=BBT3486170.1.0,bus2=RML1060262482.1.0,Phases=1,Linecode=CABBTG01_4_1,Length=0.017000000,Units=km
new line.RML10262486 bus1=BBT7220089.2.0,bus2=RML1060262486.2.0,Phases=1,Linecode=CABBTG01_4_1,Length=0.017000000,Units=km
new line.RML10267845 bus1=BBT30519862.1.2.0,bus2=RML1060267845.1.2.0,Phases=2,Linecode=CABBTG05_4_2,Length=0.017000000,Units=km
new line.RML10268360 bus1=BBT1684762.1.2.0,bus2=RML1060268360.1.2.0,Phases=2,Linecode=CABBTG05_4_2,Length=0.017000000,Units=km
new line.RML10274110 bus1=BBT1571852.1.2.3.0,bus2=RML1060274110.1.2.3.0,Phases=3,Linecode=CABBTG06_4_3,Length=0.017000000,Units=km
new line.RML10277907 bus1=BBT92791897.1.2.0,bus2=RML1060277907.1.2.0,Phases=2,Linecode=CABBTG04_4_2,Length=0.017000000,Units=km
new line.RML10281935 bus1=BBT4408728.1.2.0,bus2=RML1060281935.1.2.0,Phases=2,Linecode=CABBTG05_4_2,Length=0.017000000,Units=km
new line.RML10289190 bus1=BBT28981108.1.2.0,bus2=RML1060289190.1.2.0,Phases=2,Linecode=CABBTG05_4_2,Length=0.017000000,Units=km
new line.RML10289228 bus1=BBT148875740.1.2.0,bus2=RML1060289228.1.2.0,Phases=2,Linecode=CABBTG05_4_2,Length=0.020000000,Units=km
new line.RML10289679 bus1=BBT1571292.1.2.0,bus2=RML1060289679.1.2.0,Phases=2,Linecode=CABBTG05_4_2,Length=0.017000000,Units=km
new line.RML10292926 bus1=BBT7220089.2.0,bus2=RML1060292926.2.0,Phases=1,Linecode=CABBTG02_4_1,Length=0.017000000,Units=km
new line.RML10308867 bus1=BBT3685194.1.0,bus2=RML1060308867.1.0,Phases=1,Linecode=CABBTG02_4_1,Length=0.017000000,Units=km
new line.RML10308873 bus1=BBT1953170.1.2.3.0,bus2=RML1060308873.1.2.3.0,Phases=3,Linecode=CABBTG06_4_3,Length=0.017000000,Units=km
new line.RML10309982 bus1=BBT1579384.1.2.0,bus2=RML1060309982.1.2.0,Phases=2,Linecode=CABBTG05_4_2,Length=0.017000000,Units=km
new line.RML10310458 bus1=BBT2855309.1.2.0,bus2=RML1060310458.1.2.0,Phases=2,Linecode=CABBTG05_4_2,Length=0.017000000,Units=km
new line.RML10310589 bus1=BBT1571516.1.2.0,bus2=RML1060310589.1.2.0,Phases=2,Linecode=CABBTG05_4_2,Length=0.017000000,Units=km
new line.RML10310941 bus1=BBT1573532.1.2.0,bus2=RML1060310941.1.2.0,Phases=2,Linecode=CABBTG05_4_2,Length=0.017000000,Units=km
new line.RML10311008 bus1=BBT3486170.1.0,bus2=RML1060311008.1.0,Phases=1,Linecode=CABBTG02_4_1,Length=0.017000000,Units=km
new line.RML10311257 bus1=BBT1950895.1.2.0,bus2=RML1060311257.1.2.0,Phases=2,Linecode=CABBTG05_4_2,Length=0.017000000,Units=km
new line.RML10320810 bus1=BBT4795205.1.2.0,bus2=RML1060320810.1.2.0,Phases=2,Linecode=CABBTG05_4_2,Length=0.017000000,Units=km
new line.RML10320865 bus1=BBT28981108.1.0,bus2=RML1060320865.1.0,Phases=1,Linecode=CABBTG02_4_1,Length=0.017000000,Units=km
new line.RML10320931 bus1=BBT1570746.1.2.0,bus2=RML1060320931.1.2.0,Phases=2,Linecode=CABBTG05_4_2,Length=0.017000000,Units=km
new line.RML10320937 bus1=BBT4146445.1.2.0,bus2=RML1060320937.1.2.0,Phases=2,Linecode=CABBTG05_4_2,Length=0.017000000,Units=km
new line.RML10320980 bus1=BBT1571474.2.0,bus2=RML1060320980.2.0,Phases=1,Linecode=CABBTG02_4_1,Length=0.017000000,Units=km
new line.RML10321034 bus1=BBT1573973.1.2.0,bus2=RML1060321034.1.2.0,Phases=2,Linecode=CABBTG05_4_2,Length=0.017000000,Units=km
new line.RML10328336 bus1=BBT1685028.1.2.0,bus2=RML1060328336.1.2.0,Phases=2,Linecode=CABBTG05_4_2,Length=0.017000000,Units=km
new line.RML10333131 bus1=BBT4723504.1.0,bus2=RML1060333131.1.0,Phases=1,Linecode=CABBTG02_4_1,Length=0.017000000,Units=km
new line.RML10334410 bus1=BBT3486170.2.0,bus2=RML1060334410.2.0,Phases=1,Linecode=CABBTG02_4_1,Length=0.017000000,Units=km
new line.RML10334454 bus1=BBT4772084.1.0,bus2=RML1060334454.1.0,Phases=1,Linecode=CABBTG02_4_1,Length=0.017000000,Units=km
new line.RML10334543 bus1=BBT2855309.1.2.0,bus2=RML1060334543.1.2.0,Phases=2,Linecode=CABBTG05_4_2,Length=0.017000000,Units=km
new line.RML10334606 bus1=BBT4772084.2.0,bus2=RML1060334606.2.0,Phases=1,Linecode=CABBTG02_4_1,Length=0.017000000,Units=km
new line.RML10356508 bus1=BBT5873674.1.2.0,bus2=RML1060356508.1.2.0,Phases=2,Linecode=CABBTG05_4_2,Length=0.017000000,Units=km
new line.RML10359617 bus1=BBT1573252.1.2.3.0,bus2=RML1060359617.1.2.3.0,Phases=3,Linecode=CABBTG08_4_3,Length=0.017000000,Units=km
new line.RML10359622 bus1=BBT90311762.1.2.0,bus2=RML1060359622.1.2.0,Phases=2,Linecode=CABBTG05_4_2,Length=0.017000000,Units=km
new line.RML10360406 bus1=BBT31394652.1.2.0,bus2=RML1060360406.1.2.0,Phases=2,Linecode=CABBTG05_4_2,Length=0.017000000,Units=km
new line.RML10369543 bus1=BBT1723059.1.0,bus2=RML1060369543.1.0,Phases=1,Linecode=CABBTG02_4_1,Length=0.017000000,Units=km
new line.RML10383060 bus1=BBT1574407.1.3.0,bus2=RML1060383060.1.3.0,Phases=2,Linecode=CABBTG05_4_2,Length=0.017000000,Units=km
new line.RML10385888 bus1=BBT4442860.1.2.3.0,bus2=RML1060385888.1.2.3.0,Phases=3,Linecode=CABBTG06_4_3,Length=0.017000000,Units=km
new line.RML10385912 bus1=BBT1578586.2.3.0,bus2=RML1060385912.2.3.0,Phases=2,Linecode=CABBTG05_4_2,Length=0.017000000,Units=km
new line.RML10396966 bus1=BBT7220089.2.0,bus2=RML1060396966.2.0,Phases=1,Linecode=CABBTG02_4_1,Length=0.017000000,Units=km
new line.RML10397835 bus1=BBT4723504.2.0,bus2=RML1060397835.2.0,Phases=1,Linecode=CABBTG02_4_1,Length=0.017000000,Units=km
new line.RML10398939 bus1=BBT4804907.1.2.0,bus2=RML1060398939.1.2.0,Phases=2,Linecode=CABBTG05_4_2,Length=0.017000000,Units=km
new line.RML10400530 bus1=BBT1583178.1.0,bus2=RML1060400530.1.0,Phases=1,Linecode=CABBTG02_4_1,Length=0.017000000,Units=km
new line.RML10402183 bus1=BBT1571593.1.2.0,bus2=RML1060402183.1.2.0,Phases=2,Linecode=CABBTG05_4_2,Length=0.017000000,Units=km
new line.RML10402363 bus1=BBT1846917.1.2.3.0,bus2=RML1060402363.1.2.3.0,Phases=3,Linecode=CABBTG07_4_3,Length=0.017000000,Units=km
new line.RML10403180 bus1=BBT1574337.1.2.3.0,bus2=RML1060403180.1.2.3.0,Phases=3,Linecode=CABBTG06_4_3,Length=0.017000000,Units=km
new line.RML10403207 bus1=BBT1573147.2.0,bus2=RML1060403207.2.0,Phases=1,Linecode=CABBTG02_4_1,Length=0.017000000,Units=km
new line.RML10409544 bus1=BBT114540071.2.0,bus2=RML1060409544.2.0,Phases=1,Linecode=CABBTG02_4_1,Length=0.017000000,Units=km
new line.RML10412544 bus1=BBT114540071.1.0,bus2=RML1060412544.1.0,Phases=1,Linecode=CABBTG02_4_1,Length=0.017000000,Units=km
new line.RML10412688 bus1=BBT4147397.1.2.0,bus2=RML1060412688.1.2.0,Phases=2,Linecode=CABBTG05_4_2,Length=0.017000000,Units=km
new line.RML10420889 bus1=BBT1727511.1.2.0,bus2=RML1060420889.1.2.0,Phases=2,Linecode=CABBTG06_4_3,Length=0.017000000,Units=km
new line.RML10425446 bus1=BBT1888266.1.2.0,bus2=RML1060425446.1.2.0,Phases=2,Linecode=CABBTG05_4_2,Length=0.017000000,Units=km
new line.RML10427782 bus1=BBT1579398.1.2.3.0,bus2=RML1060427782.1.2.3.0,Phases=3,Linecode=CABBTG06_4_3,Length=0.017000000,Units=km
new line.RML10427834 bus1=BBT3485876.1.2.0,bus2=RML1060427834.1.2.0,Phases=2,Linecode=CABBTG05_4_2,Length=0.017000000,Units=km
new line.RML10446119 bus1=BBT1583192.1.2.3.0,bus2=RML1060446119.1.2.3.0,Phases=3,Linecode=CABBTG08_4_3,Length=0.017000000,Units=km
new line.RML10446491 bus1=BBT4723504.1.3.0,bus2=RML1060446491.1.3.0,Phases=2,Linecode=CABBTG05_4_2,Length=0.017000000,Units=km
new line.RML10447254 bus1=BBT4145493.1.2.0,bus2=RML1060447254.1.2.0,Phases=2,Linecode=CABBTG05_4_2,Length=0.017000000,Units=km
new line.RML10447908 bus1=BBT1583430.1.2.3.0,bus2=RML1060447908.1.2.3.0,Phases=3,Linecode=CABBTG06_4_3,Length=0.017000000,Units=km
new line.RML10448549 bus1=BBT1887286.1.2.0,bus2=RML1060448549.1.2.0,Phases=2,Linecode=CABBTG05_4_2,Length=0.017000000,Units=km
new line.RML10449699 bus1=BBT5820138.1.0,bus2=RML1060449699.1.0,Phases=1,Linecode=CABBTG02_4_1,Length=0.017000000,Units=km
new line.RML10449851 bus1=BBT4442762.1.2.3.0,bus2=RML1060449851.1.2.3.0,Phases=3,Linecode=CABBTG06_4_3,Length=0.017000000,Units=km
new line.RML10452156 bus1=BBT1723003.1.2.0,bus2=RML1060452156.1.2.0,Phases=2,Linecode=CABBTG05_4_2,Length=0.017000000,Units=km
new line.RML10453334 bus1=BBT1863479.1.2.0,bus2=RML1060453334.1.2.0,Phases=2,Linecode=CABBTG05_4_2,Length=0.017000000,Units=km
new line.RML10453388 bus1=BBT1581603.3.0,bus2=RML1060453388.3.0,Phases=1,Linecode=CABBTG02_4_1,Length=0.017000000,Units=km
new line.RML10455007 bus1=BBT1727623.1.2.0,bus2=RML1060455007.1.2.0,Phases=2,Linecode=CABBTG05_4_2,Length=0.017000000,Units=km
new line.RML10455978 bus1=BBT1723654.1.2.0,bus2=RML1060455978.1.2.0,Phases=2,Linecode=CABBTG05_4_2,Length=0.017000000,Units=km
new line.RML10456098 bus1=BBT1583339.1.2.0,bus2=RML1060456098.1.2.0,Phases=2,Linecode=CABBTG05_4_2,Length=0.017000000,Units=km
new line.RML10456105 bus1=BBT4723504.1.2.0,bus2=RML1060456105.1.2.0,Phases=2,Linecode=CABBTG05_4_2,Length=0.017000000,Units=km
new line.RML10459646 bus1=BBT1573273.1.0,bus2=RML1060459646.1.0,Phases=1,Linecode=CABBTG02_4_1,Length=0.017000000,Units=km
new line.RML10460208 bus1=BBT5873751.1.2.0,bus2=RML1060460208.1.2.0,Phases=2,Linecode=CABBTG05_4_2,Length=0.017000000,Units=km
new line.RML10461857 bus1=BBT1571789.1.2.0,bus2=RML1060461857.1.2.0,Phases=2,Linecode=CABBTG05_4_2,Length=0.017000000,Units=km
new line.RML10467494 bus1=BBT3485876.1.0,bus2=RML1060467494.1.0,Phases=1,Linecode=CABBTG02_4_1,Length=0.015000000,Units=km
new line.RML10467599 bus1=BBT3485848.2.0,bus2=RML1060467599.2.0,Phases=1,Linecode=CABBTG02_4_1,Length=0.012000000,Units=km
new line.RML10467713 bus1=BBT1723570.1.2.0,bus2=RML1060467713.1.2.0,Phases=2,Linecode=CABBTG05_4_2,Length=0.028000000,Units=km
new line.RML10468567 bus1=BBT155219902.1.2.3.0,bus2=RML1060468567.1.2.3.0,Phases=3,Linecode=CABBTG12_4_3,Length=0.030000000,Units=km
new line.RML10469250 bus1=BBT37663481.1.0,bus2=RML1060469250.1.0,Phases=1,Linecode=CABBTG02_4_1,Length=0.008000000,Units=km
new line.RML10471344 bus1=BBT1886754.1.2.0,bus2=RML1060471344.1.2.0,Phases=2,Linecode=CABBTG05_4_2,Length=0.022000000,Units=km
new line.RML10475768 bus1=BBT1888448.1.2.0,bus2=RML1060475768.1.2.0,Phases=2,Linecode=CABBTG05_4_2,Length=0.030000000,Units=km
new line.RML10476120 bus1=BBT1684748.1.2.0,bus2=RML1060476120.1.2.0,Phases=2,Linecode=CABBTG05_4_2,Length=0.030000000,Units=km
new line.RML10479362 bus1=BBT1888028.1.2.0,bus2=RML1060479362.1.2.0,Phases=2,Linecode=CABBTG05_4_2,Length=0.030000000,Units=km
new line.RML10486609 bus1=BBT1583360.1.2.0,bus2=RML1060486609.1.2.0,Phases=2,Linecode=CABBTG05_4_2,Length=0.017000000,Units=km
new line.RML10488873 bus1=BBT2936089.1.2.0,bus2=RML1060488873.1.2.0,Phases=2,Linecode=CABBTG05_4_2,Length=0.030000000,Units=km
new line.RML10488923 bus1=BBT90581997.1.2.0,bus2=RML1060488923.1.2.0,Phases=2,Linecode=CABBTG05_4_2,Length=0.030000000,Units=km
new line.RML10498837 bus1=BBT1888546.1.2.0,bus2=RML1060498837.1.2.0,Phases=2,Linecode=CABBTG05_4_2,Length=0.018000000,Units=km
new line.RML10501427 bus1=BBT1580609.1.2.0,bus2=RML1060501427.1.2.0,Phases=2,Linecode=CABBTG05_4_2,Length=0.018000000,Units=km
new line.RML10501535 bus1=BBT1581295.1.2.0,bus2=RML1060501535.1.2.0,Phases=2,Linecode=CABBTG05_4_2,Length=0.023000000,Units=km
new line.RML10507908 bus1=BBT5859982.1.2.0,bus2=RML1060507908.1.2.0,Phases=2,Linecode=CABBTG05_4_2,Length=0.017000000,Units=km
new line.RML10509187 bus1=BBT4795191.1.2.0,bus2=RML1060509187.1.2.0,Phases=2,Linecode=CABBTG05_4_2,Length=0.017000000,Units=km
new line.RML10514582 bus1=BBT5859982.1.2.0,bus2=RML1060514582.1.2.0,Phases=2,Linecode=CABBTG05_4_2,Length=0.030000000,Units=km
new line.RML10516087 bus1=BBT4804872.1.2.0,bus2=RML1060516087.1.2.0,Phases=2,Linecode=CABBTG05_4_2,Length=0.023000000,Units=km
new line.RML10516106 bus1=BBT1726993.1.2.0,bus2=RML1060516106.1.2.0,Phases=2,Linecode=CABBTG05_4_2,Length=0.020000000,Units=km
new line.RML10516170 bus1=BBT1685112.1.2.0,bus2=RML1060516170.1.2.0,Phases=2,Linecode=CABBTG05_4_2,Length=0.021000000,Units=km
new line.RML10519290 bus1=BBT1574764.1.2.0,bus2=RML1060519290.1.2.0,Phases=2,Linecode=CABBTG05_4_2,Length=0.017000000,Units=km
new line.RML10522707 bus1=BBT156373709.1.2.0,bus2=RML1060522707.1.2.0,Phases=2,Linecode=CABBTG05_4_2,Length=0.020000000,Units=km
new line.RML10547548 bus1=BBT2930251.1.2.0,bus2=RML1060547548.1.2.0,Phases=2,Linecode=CABBTG05_4_2,Length=0.017000000,Units=km
new line.RML10561559 bus1=BBT1857144.1.2.0,bus2=RML1060561559.1.2.0,Phases=2,Linecode=CABBTG05_4_2,Length=0.017000000,Units=km
new line.RML10564257 bus1=BBT1577494.1.2.3.0,bus2=RML1060564257.1.2.3.0,Phases=3,Linecode=CABBTG06_4_3,Length=0.017000000,Units=km
new line.RML10571408 bus1=BBT1723255.1.2.0,bus2=RML1060571408.1.2.0,Phases=2,Linecode=CABBTG05_4_2,Length=0.024000000,Units=km
new line.RML10571446 bus1=BBT1723255.1.0,bus2=RML1060571446.1.0,Phases=1,Linecode=CABBTG02_4_1,Length=0.018000000,Units=km
new line.RML10584114 bus1=BBT75312484.3.0,bus2=RML1060584114.3.0,Phases=1,Linecode=CABBTG02_4_1,Length=0.030000000,Units=km
new line.RML10584134 bus1=BBT1576458.1.0,bus2=RML1060584134.1.0,Phases=1,Linecode=CABBTG02_4_1,Length=0.009000000,Units=km
new line.RML10584518 bus1=BBT4145479.1.0,bus2=RML1060584518.1.0,Phases=1,Linecode=CABBTG02_4_1,Length=0.013000000,Units=km
new line.RML10584576 bus1=BBT3993348.1.2.0,bus2=RML1060584576.1.2.0,Phases=2,Linecode=CABBTG05_4_2,Length=0.007000000,Units=km
new line.RML10606129 bus1=BBT28921349.1.2.0,bus2=RML1060606129.1.2.0,Phases=2,Linecode=CABBTG05_4_2,Length=0.027000000,Units=km
new line.RML10611941 bus1=BBT1886124.1.2.0,bus2=RML1060611941.1.2.0,Phases=2,Linecode=CABBTG05_4_2,Length=0.017000000,Units=km
new line.RML10611947 bus1=BBT2930237.1.2.0,bus2=RML1060611947.1.2.0,Phases=2,Linecode=CABBTG05_4_2,Length=0.011000000,Units=km
new line.RML10614386 bus1=BBT1857130.1.2.0,bus2=RML1060614386.1.2.0,Phases=2,Linecode=CABBTG05_4_2,Length=0.010000000,Units=km
new line.RML10625411 bus1=BBT157992165.1.2.0,bus2=RML1060625411.1.2.0,Phases=2,Linecode=CABBTG05_4_2,Length=0.017000000,Units=km
new line.RML10628922 bus1=BBT4820349.1.2.0,bus2=RML1060628922.1.2.0,Phases=2,Linecode=CABBTG05_4_2,Length=0.022000000,Units=km
new line.RML10631414 bus1=BBT1887930.1.2.0,bus2=RML1060631414.1.2.0,Phases=2,Linecode=CABBT811_4_2,Length=0.030000000,Units=km
new line.RML10634814 bus1=BBT1682375.1.2.0,bus2=RML1060634814.1.2.0,Phases=2,Linecode=CABBTG05_4_2,Length=0.017000000,Units=km
new line.RML10635727 bus1=BBT1684622.1.2.0,bus2=RML1060635727.1.2.0,Phases=2,Linecode=CABBTG05_4_2,Length=0.030000000,Units=km
new line.RML10639970 bus1=BBT1571292.1.0,bus2=RML1060639970.1.0,Phases=1,Linecode=CABBTG02_4_1,Length=0.017000000,Units=km
new line.RML10639984 bus1=BBT3486072.1.0,bus2=RML1060639984.1.0,Phases=1,Linecode=CABBTG02_4_1,Length=0.008000000,Units=km
new line.RML10639986 bus1=BBT1953149.1.2.0,bus2=RML1060639986.1.2.0,Phases=2,Linecode=CABBTG05_4_2,Length=0.017000000,Units=km
new line.RML10647366 bus1=BBT1723255.1.2.0,bus2=RML1060647366.1.2.0,Phases=2,Linecode=CABBTG05_4_2,Length=0.013000000,Units=km
new line.RML10656240 bus1=BBT3485848.1.2.3.0,bus2=RML1060656240.1.2.3.0,Phases=3,Linecode=CABBTG06_4_3,Length=0.017000000,Units=km
new line.RML10656260 bus1=BBT1577592.1.2.0,bus2=RML1060656260.1.2.0,Phases=2,Linecode=CABBTG05_4_2,Length=0.017000000,Units=km
new line.RML10656262 bus1=BBT1577592.1.2.0,bus2=RML1060656262.1.2.0,Phases=2,Linecode=CABBTG05_4_2,Length=0.017000000,Units=km
new line.RML10656266 bus1=BBT1579776.1.0,bus2=RML1060656266.1.0,Phases=1,Linecode=CABBTG02_4_1,Length=0.017000000,Units=km
new line.RML10670374 bus1=BBT3486086.1.0,bus2=RML1060670374.1.0,Phases=1,Linecode=CABBTG02_4_1,Length=0.017000000,Units=km
new line.RML10671594 bus1=BBT3485876.1.2.0,bus2=RML1060671594.1.2.0,Phases=2,Linecode=CABBTG05_4_2,Length=0.017000000,Units=km
new line.RML10671595 bus1=BBT125111002.1.0,bus2=RML1060671595.1.0,Phases=1,Linecode=CABBTG02_4_1,Length=0.017000000,Units=km
new line.RML10671597 bus1=BBT75312484.1.0,bus2=RML1060671597.1.0,Phases=1,Linecode=CABBTG02_4_1,Length=0.017000000,Units=km
new line.RML10671600 bus1=BBT4723504.1.2.0,bus2=RML1060671600.1.2.0,Phases=2,Linecode=CABBTG05_4_2,Length=0.017000000,Units=km
new line.RML10671601 bus1=BBT1573567.1.2.0,bus2=RML1060671601.1.2.0,Phases=2,Linecode=CABBTG05_4_2,Length=0.017000000,Units=km
new line.RML10671604 bus1=BBT1577235.1.0,bus2=RML1060671604.1.0,Phases=1,Linecode=CABBTG02_4_1,Length=0.017000000,Units=km
new line.RML10671621 bus1=BBT1682410.1.2.0,bus2=RML1060671621.1.2.0,Phases=2,Linecode=CABBTG05_4_2,Length=0.017000000,Units=km
new line.RML10671622 bus1=BBT1571600.1.0,bus2=RML1060671622.1.0,Phases=1,Linecode=CABBTG02_4_1,Length=0.017000000,Units=km
new line.RML10671624 bus1=BBT3485841.1.0,bus2=RML1060671624.1.0,Phases=1,Linecode=CABBTG02_4_1,Length=0.017000000,Units=km
new line.RML10671632 bus1=BBT1574407.1.2.0,bus2=RML1060671632.1.2.0,Phases=2,Linecode=CABBTG05_4_2,Length=0.017000000,Units=km
new line.RML10683104 bus1=BBT125111002.1.0,bus2=RML1060683104.1.0,Phases=1,Linecode=CABBTG02_4_1,Length=0.017000000,Units=km
new line.RML10683210 bus1=BBT1951399.1.0,bus2=RML1060683210.1.0,Phases=1,Linecode=CABBTG02_4_1,Length=0.017000000,Units=km
new line.RML10683650 bus1=BBT1581267.1.0,bus2=RML1060683650.1.0,Phases=1,Linecode=CABBTG02_4_1,Length=0.017000000,Units=km
new line.RML10695409 bus1=BBT1572020.1.0,bus2=RML1060695409.1.0,Phases=1,Linecode=CABBTG02_4_1,Length=0.017000000,Units=km
new line.RML10695411 bus1=BBT1578670.1.0,bus2=RML1060695411.1.0,Phases=1,Linecode=CABBTG02_4_1,Length=0.017000000,Units=km
new line.RML10696434 bus1=BBT5859233.1.2.0,bus2=RML1060696434.1.2.0,Phases=2,Linecode=CABBTG05_4_2,Length=0.017000000,Units=km
new line.RML10696758 bus1=BBT1684552.1.2.0,bus2=RML1060696758.1.2.0,Phases=2,Linecode=CABBTG05_4_2,Length=0.013000000,Units=km
new line.RML10697454 bus1=BBT153231273.1.2.3.0,bus2=RML1060697454.1.2.3.0,Phases=3,Linecode=CABBTG06_4_3,Length=0.030000000,Units=km
new line.RML10699472 bus1=BBT78339662.1.2.0,bus2=RML1060699472.1.2.0,Phases=2,Linecode=CABBTG05_4_2,Length=0.017000000,Units=km
new line.RML10706988 bus1=BBT1571796.1.0,bus2=RML1060706988.1.0,Phases=1,Linecode=CABBTG02_4_1,Length=0.017000000,Units=km
new line.RML10707926 bus1=BBT160271955.1.2.0,bus2=RML1060707926.1.2.0,Phases=2,Linecode=CABBTG05_4_2,Length=0.030000000,Units=km
new line.RML10719083 bus1=BBT158840484.1.2.0,bus2=RML1060719083.1.2.0,Phases=2,Linecode=CABBTG04_4_2,Length=0.017000000,Units=km
new line.RML10723093 bus1=BBT1682375.1.3.0,bus2=RML1060723093.1.3.0,Phases=2,Linecode=CABBTG05_4_2,Length=0.017000000,Units=km
new line.RML10726542 bus1=BBT1682361.1.2.3.0,bus2=RML1060726542.1.2.3.0,Phases=3,Linecode=CABBTG06_4_3,Length=0.020000000,Units=km
new line.RML10730628 bus1=BBT3485897.1.0,bus2=RML1060730628.1.0,Phases=1,Linecode=CABBTG02_4_1,Length=0.017000000,Units=km