new line.10562742 bus1=BBT1723500.1.2.0,bus2=BBT2792687.1.2.0,Phases=2,Linecode=BT518_BT518_7_2_1,Length=0.000500000,Units=km
new line.11154291 bus1=BBT2928270.1.2.0,bus2=BBT2928277.1.2.0,Phases=2,Linecode=BT518_BT518_7_2_1,Length=0.000500000,Units=km
new line.11160535 bus1=BBT2930237.1.2.3.0,bus2=BBT2930244.1.2.3.0,Phases=3,Linecode=BT810_BT810_4_3_4,Length=0.038890000,Units=km
new line.11160542 bus1=BBT2930237.1.2.3.0,bus2=BBT3486156.1.2.3.0,Phases=3,Linecode=BT810_BT810_4_3_4,Length=0.041102000,Units=km
new line.11160563 bus1=BBT2930244.1.2.3.0,bus2=BBT2930251.1.2.3.0,Phases=3,Linecode=BT810_BT810_4_3_4,Length=0.035349000,Units=km
new line.11851771 bus1=BBT3705599.1.2.0,bus2=BBT3705606.1.2.0,Phases=2,Linecode=BT508_BT508_7_2_1,Length=0.000500000,Units=km
new line.12257428 bus1=BBT3248240.1.2.0,bus2=BBT3248247.1.2.0,Phases=2,Linecode=BT518_BT518_7_2_1,Length=0.000500000,Units=km
new line.12300408 bus1=BBT3263185.1.2.0,bus2=BBT3263192.1.2.0,Phases=2,Linecode=BT518_BT518_7_2_1,Length=0.000500000,Units=km
new line.12300702 bus1=BBT3263241.1.2.0,bus2=BBT3263248.1.2.0,Phases=2,Linecode=BT518_BT518_7_2_1,Length=0.000500000,Units=km
new line.13052453 bus1=BBT3486079.1.2.3.0,bus2=BBT158026374.1.2.3.0,Phases=3,Linecode=BT803_BT803_4_3_4,Length=0.037477000,Units=km
new line.13063233 bus1=BBT3553279.1.2.3.0,bus2=BBT1577018.1.2.3.0,Phases=3,Linecode=BT108_BT107_7_3_1,Length=0.021537000,Units=km
new line.13065403 bus1=BBT3554434.1.2.0,bus2=BBT3554441.1.2.0,Phases=2,Linecode=BT518_BT518_7_2_1,Length=0.000500000,Units=km
new line.13531400 bus1=BBT3746731.1.2.0,bus2=BBT3746738.1.2.0,Phases=2,Linecode=BT518_BT518_7_2_1,Length=0.000500000,Units=km
new line.14250643 bus1=BBT4025660.1.2.0,bus2=BBT4025667.1.2.0,Phases=2,Linecode=BT808_BT808_4_2_3,Length=0.048698000,Units=km
new line.14250692 bus1=BBT4025667.1.2.0,bus2=BBT4025674.1.2.0,Phases=2,Linecode=BT808_BT808_4_2_3,Length=0.043077000,Units=km
new line.14250818 bus1=BBT4025758.1.2.0,bus2=BBT4025765.1.2.0,Phases=2,Linecode=BT808_BT808_4_2_3,Length=0.063813000,Units=km
new line.14409991 bus1=BBT4383675.1.2.0,bus2=BBT4383682.1.2.0,Phases=2,Linecode=BT518_BT518_7_2_1,Length=0.000500000,Units=km
new line.14428135 bus1=BBT4145178.1.2.0,bus2=BBT4145185.1.2.0,Phases=2,Linecode=BT518_BT518_7_2_1,Length=0.000500000,Units=km
new line.14428443 bus1=BBT4145325.1.2.0,bus2=BBT4145332.1.2.0,Phases=2,Linecode=BT518_BT518_7_2_1,Length=0.000500000,Units=km
new line.14428632 bus1=BBT4145472.1.2.0,bus2=BBT4145479.1.2.0,Phases=2,Linecode=BT518_BT518_7_2_1,Length=0.000500000,Units=km
new line.14428660 bus1=BBT4145486.1.2.0,bus2=BBT4145493.1.2.0,Phases=2,Linecode=BT518_BT518_7_2_1,Length=0.000500000,Units=km
new line.14430424 bus1=BBT4146438.1.2.0,bus2=BBT4146445.1.2.0,Phases=2,Linecode=BT518_BT518_7_2_1,Length=0.000500000,Units=km
new line.14430746 bus1=BBT4146599.1.2.0,bus2=BBT4146606.1.2.0,Phases=2,Linecode=BT518_BT518_7_2_1,Length=0.000500000,Units=km
new line.14430753 bus1=BBT4146571.1.2.0,bus2=BBT4146578.1.2.0,Phases=2,Linecode=BT518_BT518_7_2_1,Length=0.000500000,Units=km
new line.14431579 bus1=BBT4147075.1.2.0,bus2=BBT4147082.1.2.0,Phases=2,Linecode=BT518_BT518_7_2_1,Length=0.000500000,Units=km
new line.14431726 bus1=BBT4147089.1.2.0,bus2=BBT4147096.1.2.0,Phases=2,Linecode=BT518_BT518_7_2_1,Length=0.000500000,Units=km
new line.14431908 bus1=BBT4147208.1.2.0,bus2=BBT4147215.1.2.0,Phases=2,Linecode=BT518_BT518_7_2_1,Length=0.000500000,Units=km
new line.14432209 bus1=BBT4147390.1.2.0,bus2=BBT4147397.1.2.0,Phases=2,Linecode=BT518_BT518_7_2_1,Length=0.000500000,Units=km
new line.14432636 bus1=BBT4147523.1.2.0,bus2=BBT4147530.1.2.0,Phases=2,Linecode=BT518_BT518_7_2_1,Length=0.000500000,Units=km
new line.14433245 bus1=BBT4148230.1.2.0,bus2=BBT4148237.1.2.0,Phases=2,Linecode=BT518_BT518_7_2_1,Length=0.000500000,Units=km
new line.14639696 bus1=BBT4339183.1.2.0,bus2=BBT4339190.1.2.0,Phases=2,Linecode=BT518_BT518_7_2_1,Length=0.000500000,Units=km
new line.14730283 bus1=BBT4550569.1.2.0,bus2=BBT4550576.1.2.0,Phases=2,Linecode=BT518_BT518_7_2_1,Length=0.000500000,Units=km
new line.14733650 bus1=BBT4442734.1.2.3.0,bus2=BBT4442741.1.2.3.0,Phases=3,Linecode=BT108_BT107_7_3_1,Length=0.010769000,Units=km
new line.14733657 bus1=BBT107407988.1.2.0,bus2=BBT4442874.1.2.0,Phases=2,Linecode=BT106_BT106_7_2_1,Length=0.019311000,Units=km
new line.14733664 bus1=BBT4442727.1.2.3.0,bus2=BBT4442734.1.2.3.0,Phases=3,Linecode=BT108_BT107_7_3_1,Length=0.036764000,Units=km
new line.14733734 bus1=BBT4442853.1.2.3.0,bus2=BBT4442860.1.2.3.0,Phases=3,Linecode=BT108_BT107_7_3_1,Length=0.034200000,Units=km
new line.14733748 bus1=BBT4442860.1.2.3.0,bus2=BBT4442867.1.2.3.0,Phases=3,Linecode=BT107_BT106_7_3_1,Length=0.034477000,Units=km
new line.14733783 bus1=BBT4442874.1.2.0,bus2=BBT4442881.1.2.0,Phases=2,Linecode=BT808_BT808_4_2_3,Length=0.025452000,Units=km
new line.14920893 bus1=BBT4771587.1.2.0,bus2=BBT4771594.1.2.0,Phases=2,Linecode=BT518_BT518_7_2_1,Length=0.000500000,Units=km
new line.14921383 bus1=BBT4772056.1.2.0,bus2=BBT4772077.1.2.0,Phases=2,Linecode=BT508_BT508_7_2_1,Length=0.000500000,Units=km
new line.14921390 bus1=BBT4772070.1.2.0,bus2=BBT4772063.1.2.0,Phases=2,Linecode=BT807_BT807_4_2_3,Length=0.026244000,Units=km
new line.14921397 bus1=BBT4772091.1.2.0,bus2=BBT173076871.1.2.0,Phases=2,Linecode=BT808_BT808_4_2_3,Length=0.027581000,Units=km
new line.14921404 bus1=BBT4772077.1.2.0,bus2=BBT4772070.1.2.0,Phases=2,Linecode=BT807_BT807_4_2_3,Length=0.036229000,Units=km
new line.14921411 bus1=BBT4772077.1.2.0,bus2=BBT4772084.1.2.0,Phases=2,Linecode=BT807_BT807_4_2_3,Length=0.037476000,Units=km
new line.14921418 bus1=BBT4772098.1.2.0,bus2=BBT4772091.1.2.0,Phases=2,Linecode=BT808_BT808_4_2_3,Length=0.025055000,Units=km
new line.14921425 bus1=BBT4772105.1.2.0,bus2=BBT4772098.1.2.0,Phases=2,Linecode=BT808_BT808_4_2_3,Length=0.034475000,Units=km
new line.14921432 bus1=BBT4772112.1.2.0,bus2=BBT4772105.1.2.0,Phases=2,Linecode=BT807_BT807_4_2_3,Length=0.034126000,Units=km
new line.14921439 bus1=BBT4772112.1.2.0,bus2=BBT4772119.1.2.0,Phases=2,Linecode=BT807_BT807_4_2_3,Length=0.034475000,Units=km
new line.14921446 bus1=BBT4772119.1.2.0,bus2=BBT4772126.1.2.0,Phases=2,Linecode=BT808_BT808_4_2_3,Length=0.030881000,Units=km
new line.14921453 bus1=BBT4772126.1.2.0,bus2=BBT4772133.1.2.0,Phases=2,Linecode=BT808_BT808_4_2_3,Length=0.031010000,Units=km
new line.14922713 bus1=BBT4773071.1.2.0,bus2=BBT4773078.1.2.0,Phases=2,Linecode=BT518_BT518_7_2_1,Length=0.000500000,Units=km
new line.14923483 bus1=BBT4775325.1.2.0,bus2=BBT4775332.1.2.0,Phases=2,Linecode=BT518_BT518_7_2_1,Length=0.000500000,Units=km
new line.14940899 bus1=BBT4795051.1.2.0,bus2=BBT4795058.1.2.0,Phases=2,Linecode=BT518_BT518_7_2_1,Length=0.000500000,Units=km
new line.14940906 bus1=BBT4795058.1.2.0,bus2=BBT4795072.1.2.0,Phases=2,Linecode=BT808_BT808_4_2_3,Length=0.042434000,Units=km
new line.14940913 bus1=BBT4795058.1.2.0,bus2=BBT4795065.1.2.0,Phases=2,Linecode=BT808_BT808_4_2_3,Length=0.039821000,Units=km
new line.14941018 bus1=BBT4795170.1.2.0,bus2=BBT4795177.1.2.0,Phases=2,Linecode=BT518_BT518_7_2_1,Length=0.000500000,Units=km
new line.14941053 bus1=BBT4795184.1.2.0,bus2=BBT4795191.1.2.0,Phases=2,Linecode=BT518_BT518_7_2_1,Length=0.000500000,Units=km
new line.14941060 bus1=BBT4795198.1.2.0,bus2=BBT4795205.1.2.0,Phases=2,Linecode=BT518_BT518_7_2_1,Length=0.000500000,Units=km
new line.10693390 bus1=BBT4408735.1.2.0,bus2=BBT4408749.1.2.0,Phases=2,Linecode=BT807_BT807_4_2_3,Length=0.047847000,Units=km
new line.10693411 bus1=BBT2835240.1.2.0,bus2=BBT2835247.1.2.0,Phases=2,Linecode=BT518_BT518_7_2_1,Length=0.000500000,Units=km
new line.11278625 bus1=BBT2965167.1.2.0,bus2=BBT2965174.1.2.0,Phases=2,Linecode=BT518_BT518_7_2_1,Length=0.000500000,Units=km
new line.11284393 bus1=BBT2966707.1.2.0,bus2=BBT2966714.1.2.0,Phases=2,Linecode=BT518_BT518_7_2_1,Length=0.000500000,Units=km
new line.11302971 bus1=BBT2970977.1.2.0,bus2=BBT2970984.1.2.0,Phases=2,Linecode=BT508_BT508_7_2_1,Length=0.000500000,Units=km
new line.11990070 bus1=BBT3161482.1.2.0,bus2=BBT3161489.1.2.0,Phases=2,Linecode=BT518_BT518_7_2_1,Length=0.000500000,Units=km
new line.12215757 bus1=BBT3233687.1.2.0,bus2=BBT3233694.1.2.0,Phases=2,Linecode=BT518_BT518_7_2_1,Length=0.000500000,Units=km
new line.12229610 bus1=BBT3238167.1.2.0,bus2=BBT3238174.1.2.0,Phases=2,Linecode=BT518_BT518_7_2_1,Length=0.000500000,Units=km
new line.12462059 bus1=BBT3320851.1.2.3.0,bus2=BBT3592332.1.2.3.0,Phases=3,Linecode=BT810_BT810_4_3_4,Length=0.019695000,Units=km
new line.13648167 bus1=BBT3800372.1.2.0,bus2=BBT3800379.1.2.0,Phases=2,Linecode=BT518_BT518_7_2_1,Length=0.000500000,Units=km
new line.13648545 bus1=BBT3800386.1.2.0,bus2=BBT3800393.1.2.0,Phases=2,Linecode=BT518_BT518_7_2_1,Length=0.000500000,Units=km
new line.14348790 bus1=BBT4078622.1.2.0,bus2=BBT4078629.1.2.0,Phases=2,Linecode=BT518_BT518_7_2_1,Length=0.000500000,Units=km
new line.14348937 bus1=BBT4078741.1.2.0,bus2=BBT4078748.1.2.0,Phases=2,Linecode=BT518_BT518_7_2_1,Length=0.000500000,Units=km
new line.14349917 bus1=BBT4079763.1.2.0,bus2=BBT4079770.1.2.0,Phases=2,Linecode=BT518_BT518_7_2_1,Length=0.000500000,Units=km
new line.14350001 bus1=BBT4079917.1.2.0,bus2=BBT4079924.1.2.0,Phases=2,Linecode=BT518_BT518_7_2_1,Length=0.000500000,Units=km
new line.14663566 bus1=BBT4363053.1.2.0,bus2=BBT4363060.1.2.0,Phases=2,Linecode=BT518_BT518_7_2_1,Length=0.000500000,Units=km
new line.14663573 bus1=BBT4363088.1.2.0,bus2=BBT4363095.1.2.0,Phases=2,Linecode=BT518_BT518_7_2_1,Length=0.000500000,Units=km
new line.14663594 bus1=BBT4363074.1.2.0,bus2=BBT4363081.1.2.0,Phases=2,Linecode=BT518_BT518_7_2_1,Length=0.000500000,Units=km
new line.15408884 bus1=BBT5327681.1.2.0,bus2=BBT5327688.1.2.0,Phases=2,Linecode=BT518_BT518_7_2_1,Length=0.000500000,Units=km
new line.15707154 bus1=BBT7212529.1.2.0,bus2=BBT7212536.1.2.0,Phases=2,Linecode=BT518_BT518_7_2_1,Length=0.000500000,Units=km
new line.15708995 bus1=BBT5773518.1.2.0,bus2=BBT5773525.1.2.0,Phases=2,Linecode=BT513_BT513_7_2_1,Length=0.000500000,Units=km
new line.15709954 bus1=BBT5779916.1.2.0,bus2=BBT5779923.1.2.0,Phases=2,Linecode=BT518_BT518_7_2_1,Length=0.000500000,Units=km
new line.15710297 bus1=BBT5782485.1.2.0,bus2=BBT5782492.1.2.0,Phases=2,Linecode=BT518_BT518_7_2_1,Length=0.000500000,Units=km
new line.15710416 bus1=BBT5783185.1.2.0,bus2=BBT5783192.1.2.0,Phases=2,Linecode=BT518_BT518_7_2_1,Length=0.000500000,Units=km
new line.15710661 bus1=BBT5784214.1.2.0,bus2=BBT5784221.1.2.0,Phases=2,Linecode=BT518_BT518_7_2_1,Length=0.000500000,Units=km
new line.15710675 bus1=BBT5812697.2.0,bus2=BBT5812760.2.0,Phases=1,Linecode=BT811_BT811_4_1_3,Length=0.038269000,Units=km
new line.15710997 bus1=BBT5812732.1.0,bus2=BBT5812739.1.0,Phases=1,Linecode=BT811_BT811_4_1_3,Length=0.049023000,Units=km
new line.15711004 bus1=BBT5812739.1.0,bus2=BBT5812746.1.0,Phases=1,Linecode=BT811_BT811_4_1_3,Length=0.119834000,Units=km
new line.15711011 bus1=BBT110178973.1.2.0,bus2=BBT5812774.1.2.0,Phases=2,Linecode=BT807_BT807_4_2_3,Length=0.038464000,Units=km
new line.15713034 bus1=BBT5814538.1.2.0,bus2=BBT5814545.1.2.0,Phases=2,Linecode=BT518_BT518_7_2_1,Length=0.000500000,Units=km
new line.15713230 bus1=BBT5814902.1.2.0,bus2=BBT5814923.1.2.0,Phases=2,Linecode=BT106_BT106_7_2_1,Length=0.035335000,Units=km
new line.15713237 bus1=BBT5814902.1.2.0,bus2=BBT5814909.1.2.0,Phases=2,Linecode=BT106_BT106_7_2_1,Length=0.049640000,Units=km
new line.15713279 bus1=BBT5814923.1.2.0,bus2=BBT5814944.1.2.0,Phases=2,Linecode=BT106_BT106_7_2_1,Length=0.031011000,Units=km
new line.15713321 bus1=BBT5814909.1.2.0,bus2=BBT5814916.1.2.0,Phases=2,Linecode=BT106_BT106_7_2_1,Length=0.067988000,Units=km
new line.15713636 bus1=BBT5815000.1.2.0,bus2=BBT5815028.1.2.0,Phases=2,Linecode=BT107_BT106_7_2_1,Length=0.043375000,Units=km
new line.15714021 bus1=BBT5815028.1.2.0,bus2=BBT5815035.1.2.0,Phases=2,Linecode=BT106_BT106_7_2_1,Length=0.057375000,Units=km
new line.15717710 bus1=BBT5818157.1.2.0,bus2=BBT5818164.1.2.0,Phases=2,Linecode=BT518_BT518_7_2_1,Length=0.000500000,Units=km
new line.15718571 bus1=BBT5820131.1.2.0,bus2=BBT5820138.1.2.0,Phases=2,Linecode=BT518_BT518_7_2_1,Length=0.000500000,Units=km
new line.15718641 bus1=BBT5820418.1.2.0,bus2=BBT5820425.1.2.0,Phases=2,Linecode=BT518_BT518_7_2_1,Length=0.000500000,Units=km
new line.15723051 bus1=BBT124325637.1.2.0,bus2=BBT5825304.1.2.0,Phases=2,Linecode=BT807_BT807_4_2_3,Length=0.041767000,Units=km
new line.15723324 bus1=BBT5825528.1.2.0,bus2=BBT5825535.1.2.0,Phases=2,Linecode=BT808_BT808_4_2_3,Length=0.059469000,Units=km
new line.15726271 bus1=BBT5829791.1.2.0,bus2=BBT5829798.1.2.0,Phases=2,Linecode=BT518_BT518_7_2_1,Length=0.000500000,Units=km
new line.15726278 bus1=BBT5829798.1.2.0,bus2=BBT5829805.1.2.0,Phases=2,Linecode=BT801_BT801_4_2_3,Length=0.034922000,Units=km
new line.15726327 bus1=BBT5829805.1.2.0,bus2=BBT5829812.1.2.0,Phases=2,Linecode=BT801_BT801_4_2_3,Length=0.021092000,Units=km
new line.15726663 bus1=BBT5830561.1.0,bus2=BBT5830568.1.0,Phases=1,Linecode=BT811_BT811_4_1_3,Length=0.067995000,Units=km
new line.15726670 bus1=BBT5830561.1.2.0,bus2=BBT5830575.1.2.0,Phases=2,Linecode=BT801_BT801_4_2_3,Length=0.058299000,Units=km
new line.15727335 bus1=BBT5830953.2.0,bus2=BBT5830960.2.0,Phases=1,Linecode=BT811_BT811_4_1_3,Length=0.096523000,Units=km
new line.15727447 bus1=BBT5831415.1.2.0,bus2=BBT5831422.1.2.0,Phases=2,Linecode=BT518_BT518_7_2_1,Length=0.000500000,Units=km
new line.15727531 bus1=BBT5831170.1.0,bus2=BBT5831177.1.0,Phases=1,Linecode=BT811_BT811_4_1_3,Length=0.072547000,Units=km
new line.15727916 bus1=BBT5831709.2.0,bus2=BBT5831716.2.0,Phases=1,Linecode=BT811_BT811_4_1_3,Length=0.071156000,Units=km
new line.15727923 bus1=BBT5831716.2.0,bus2=BBT5831723.2.0,Phases=1,Linecode=BT811_BT811_4_1_3,Length=0.074135000,Units=km
new line.15734643 bus1=BBT5856300.1.2.0,bus2=BBT5856307.1.2.0,Phases=2,Linecode=BT808_BT808_4_2_3,Length=0.066627000,Units=km
new line.15734748 bus1=BBT5856902.1.2.0,bus2=BBT5856909.1.2.0,Phases=2,Linecode=BT803_BT803_4_2_4,Length=0.076305000,Units=km
new line.15735000 bus1=BBT5857371.1.2.0,bus2=BBT5857378.1.2.0,Phases=2,Linecode=BT808_BT808_4_2_3,Length=0.095001000,Units=km
new line.15735532 bus1=BBT5859226.1.2.0,bus2=BBT5859233.1.2.0,Phases=2,Linecode=BT518_BT518_7_2_1,Length=0.000500000,Units=km
new line.15735539 bus1=BBT5859233.1.2.0,bus2=BBT5859275.1.2.0,Phases=2,Linecode=BT808_BT808_4_2_3,Length=0.030670000,Units=km
new line.15735546 bus1=BBT5859233.1.2.0,bus2=BBT5859282.1.2.0,Phases=2,Linecode=BT808_BT808_4_2_3,Length=0.050240000,Units=km
new line.15736484 bus1=BBT5863076.1.2.0,bus2=BBT5863083.1.2.0,Phases=2,Linecode=BT518_BT518_7_2_1,Length=0.000500000,Units=km
new line.10635164 bus1=BBT5824716.1.2.0,bus2=BBT5824723.1.2.0,Phases=2,Linecode=BT518_BT518_7_2_1,Length=0.000500000,Units=km
new line.10635444 bus1=BBT2844690.1.2.0,bus2=BBT2844697.1.2.0,Phases=2,Linecode=BT518_BT518_7_2_1,Length=0.000500000,Units=km
new line.10635738 bus1=BBT2844732.1.2.0,bus2=BBT2844739.1.2.0,Phases=2,Linecode=BT508_BT508_7_2_1,Length=0.000500000,Units=km
new line.10635892 bus1=BBT2841379.1.2.0,bus2=BBT2841386.1.2.0,Phases=2,Linecode=BT518_BT518_7_2_1,Length=0.000500000,Units=km
new line.10635913 bus1=BBT5740233.1.2.0,bus2=BBT5740240.1.2.0,Phases=2,Linecode=BT518_BT518_7_2_1,Length=0.000500000,Units=km
new line.10635976 bus1=BBT2841442.1.2.0,bus2=BBT2841449.1.2.0,Phases=2,Linecode=BT518_BT518_7_2_1,Length=0.000500000,Units=km
new line.10641422 bus1=BBT2886144.1.2.0,bus2=BBT2886151.1.2.0,Phases=2,Linecode=BT518_BT518_7_2_1,Length=0.000500000,Units=km
new line.10641793 bus1=BBT2930538.1.2.0,bus2=BBT2930545.1.2.0,Phases=2,Linecode=BT518_BT518_7_2_1,Length=0.000500000,Units=km
new line.10641800 bus1=BBT2930545.1.0,bus2=BBT5741542.1.0,Phases=1,Linecode=BT816_BT816_4_1_2,Length=0.071859000,Units=km
new line.12023761 bus1=BBT3173634.1.2.0,bus2=BBT3173648.1.2.0,Phases=2,Linecode=BT518_BT518_7_2_1,Length=0.000500000,Units=km
new line.12026610 bus1=BBT3174607.1.2.0,bus2=BBT3174614.1.2.0,Phases=2,Linecode=BT518_BT518_7_2_1,Length=0.000500000,Units=km
new line.12798822 bus1=BBT1774859.1.2.0,bus2=BBT3444464.1.2.0,Phases=2,Linecode=BT518_BT518_7_2_1,Length=0.000500000,Units=km
new line.12798871 bus1=BBT3444492.1.2.0,bus2=BBT3444499.1.2.0,Phases=2,Linecode=BT518_BT518_7_2_1,Length=0.000500000,Units=km
new line.13281647 bus1=BBT3634241.1.2.0,bus2=BBT3634248.1.2.0,Phases=2,Linecode=BT808_BT808_4_2_3,Length=0.052196000,Units=km
new line.13281661 bus1=BBT3634248.1.2.0,bus2=BBT3634255.1.2.0,Phases=2,Linecode=BT808_BT808_4_2_3,Length=0.051259000,Units=km
new line.13293638 bus1=BBT3639645.1.2.0,bus2=BBT3639652.1.2.0,Phases=2,Linecode=BT518_BT518_7_2_1,Length=0.000500000,Units=km
new line.14166370 bus1=BBT3993754.1.2.0,bus2=BBT3993761.1.2.0,Phases=2,Linecode=BT518_BT518_7_2_1,Length=0.000500000,Units=km
new line.14699266 bus1=BBT4398991.1.2.0,bus2=BBT4398998.1.2.0,Phases=2,Linecode=BT518_BT518_7_2_1,Length=0.000500000,Units=km
new line.14700106 bus1=BBT4399523.1.2.0,bus2=BBT4399530.1.2.0,Phases=2,Linecode=BT518_BT518_7_2_1,Length=0.000500000,Units=km
new line.14700449 bus1=BBT4399747.1.2.0,bus2=BBT4399754.1.2.0,Phases=2,Linecode=BT518_BT518_7_2_1,Length=0.000500000,Units=km
new line.14712461 bus1=BBT4408749.1.2.0,bus2=BBT4408756.1.2.0,Phases=2,Linecode=BT808_BT808_4_2_3,Length=0.034520000,Units=km
new line.14712762 bus1=BBT4408728.1.2.0,bus2=BBT4408735.1.2.0,Phases=2,Linecode=BT807_BT807_4_2_3,Length=0.033536000,Units=km
new line.14712790 bus1=BBT4408721.1.2.0,bus2=BBT4408728.1.2.0,Phases=2,Linecode=BT807_BT807_4_2_3,Length=0.038633000,Units=km
new line.14712797 bus1=BBT4408714.1.2.0,bus2=BBT4408721.1.2.0,Phases=2,Linecode=BT518_BT518_7_2_1,Length=0.000500000,Units=km
new line.14712804 bus1=BBT4408721.1.2.0,bus2=BBT4408770.1.2.0,Phases=2,Linecode=BT807_BT807_4_2_3,Length=0.027455000,Units=km
new line.14712839 bus1=BBT4408840.1.2.0,bus2=BBT4408847.1.2.0,Phases=2,Linecode=BT808_BT808_4_2_3,Length=0.028156000,Units=km
new line.14712874 bus1=BBT4408770.1.2.0,bus2=BBT4408777.1.2.0,Phases=2,Linecode=BT807_BT807_4_2_3,Length=0.026473000,Units=km
new line.14713014 bus1=BBT4442755.1.2.3.0,bus2=BBT4442762.1.2.3.0,Phases=3,Linecode=BT108_BT107_7_3_1,Length=0.030409000,Units=km
new line.14713049 bus1=BBT4442741.1.2.3.0,bus2=BBT4442755.1.2.3.0,Phases=3,Linecode=BT108_BT107_7_3_1,Length=0.027309000,Units=km
new line.14713056 bus1=BBT4442741.1.2.3.0,bus2=BBT4442776.1.2.3.0,Phases=3,Linecode=BT810_BT810_4_3_4,Length=0.033536000,Units=km
new line.14713063 bus1=BBT4442776.1.2.3.0,bus2=BBT4442783.1.2.3.0,Phases=3,Linecode=BT810_BT810_4_3_4,Length=0.034520000,Units=km
new line.14713070 bus1=BBT4442783.1.2.3.0,bus2=BBT4442790.1.2.3.0,Phases=3,Linecode=BT810_BT810_4_3_4,Length=0.035688000,Units=km
new line.14713077 bus1=BBT4442790.1.2.3.0,bus2=BBT4442797.1.2.3.0,Phases=3,Linecode=BT810_BT810_4_3_4,Length=0.041767000,Units=km
new line.14722247 bus1=BBT4424982.1.2.3.0,bus2=BBT1846861.1.2.3.0,Phases=3,Linecode=BT803_BT803_4_3_4,Length=0.015295000,Units=km
new line.14950251 bus1=BBT4804865.1.2.0,bus2=BBT4804872.1.2.0,Phases=2,Linecode=BT518_BT518_7_2_1,Length=0.000500000,Units=km
new line.14950258 bus1=BBT4804879.1.2.0,bus2=BBT4804886.1.2.0,Phases=2,Linecode=BT801_BT801_4_2_3,Length=0.035052000,Units=km
new line.14950265 bus1=BBT4804886.1.2.0,bus2=BBT4804893.1.2.0,Phases=2,Linecode=BT801_BT801_4_2_3,Length=0.041431000,Units=km
new line.14950279 bus1=BBT4804900.1.2.0,bus2=BBT4804907.1.2.0,Phases=2,Linecode=BT518_BT518_7_2_1,Length=0.000500000,Units=km
new line.14950286 bus1=BBT4804914.1.2.0,bus2=BBT4804921.1.2.0,Phases=2,Linecode=BT518_BT518_7_2_1,Length=0.000500000,Units=km
new line.14950293 bus1=BBT4804921.1.2.0,bus2=BBT4804928.1.2.0,Phases=2,Linecode=BT808_BT808_4_2_3,Length=0.063520000,Units=km
new line.14950300 bus1=BBT4804921.1.2.0,bus2=BBT4804942.1.2.0,Phases=2,Linecode=BT808_BT808_4_2_3,Length=0.038073000,Units=km
new line.14950307 bus1=BBT4804928.1.2.0,bus2=BBT4804935.1.2.0,Phases=2,Linecode=BT808_BT808_4_2_3,Length=0.019233000,Units=km
new line.14950314 bus1=BBT4804942.1.2.0,bus2=BBT4804949.1.2.0,Phases=2,Linecode=BT808_BT808_4_2_3,Length=0.022469000,Units=km
new line.14950377 bus1=BBT4804977.1.2.0,bus2=BBT4804984.1.2.0,Phases=2,Linecode=BT518_BT518_7_2_1,Length=0.000500000,Units=km
new line.14950391 bus1=BBT4805033.1.2.0,bus2=BBT4805040.1.2.0,Phases=2,Linecode=BT518_BT518_7_2_1,Length=0.000500000,Units=km
new line.14950426 bus1=BBT4805047.1.2.0,bus2=BBT4805054.1.2.0,Phases=2,Linecode=BT518_BT518_7_2_1,Length=0.000500000,Units=km
new line.14959869 bus1=BBT4816422.1.2.0,bus2=BBT4816429.1.2.0,Phases=2,Linecode=BT518_BT518_7_2_1,Length=0.000500000,Units=km
new line.14959876 bus1=BBT4816450.1.2.0,bus2=BBT4816457.1.2.0,Phases=2,Linecode=BT518_BT518_7_2_1,Length=0.000500000,Units=km
new line.14959883 bus1=BBT4816436.1.2.0,bus2=BBT4816443.1.2.0,Phases=2,Linecode=BT521_BT521_7_2_1,Length=0.000500000,Units=km
new line.14959897 bus1=BBT4816464.1.2.0,bus2=BBT4816471.1.2.0,Phases=2,Linecode=BT518_BT518_7_2_1,Length=0.000500000,Units=km
new line.14963803 bus1=BBT4820174.1.2.0,bus2=BBT4820181.1.2.0,Phases=2,Linecode=BT518_BT518_7_2_1,Length=0.000500000,Units=km
new line.14964111 bus1=BBT4820342.1.2.0,bus2=BBT4820349.1.2.0,Phases=2,Linecode=BT521_BT521_7_2_1,Length=0.000500000,Units=km
new line.15190267 bus1=BBT5068100.1.2.0,bus2=BBT5068107.1.2.0,Phases=2,Linecode=BT518_BT518_7_2_1,Length=0.000500000,Units=km
new line.15190288 bus1=BBT5068128.1.2.0,bus2=BBT5068135.1.2.0,Phases=2,Linecode=BT518_BT518_7_2_1,Length=0.000500000,Units=km
new line.16057546 bus1=BBT7445517.1.2.0,bus2=BBT7445524.1.2.0,Phases=2,Linecode=BT518_BT518_7_2_1,Length=0.000500000,Units=km
new line.16069677 bus1=BBT7499242.1.2.3.0,bus2=BBT7499249.1.2.3.0,Phases=3,Linecode=BT810_BT810_4_3_4,Length=0.040155000,Units=km
new line.16069684 bus1=BBT7499249.1.2.3.0,bus2=BBT7499256.1.2.3.0,Phases=3,Linecode=BT810_BT810_4_3_4,Length=0.039211000,Units=km
new line.16069691 bus1=BBT7499256.1.2.3.0,bus2=BBT7499263.1.2.3.0,Phases=3,Linecode=BT810_BT810_4_3_4,Length=0.019644000,Units=km
new line.10562868 bus1=BBT2798630.1.2.0,bus2=BBT2798637.1.2.0,Phases=2,Linecode=BT518_BT518_7_2_1,Length=0.000500000,Units=km
new line.10562875 bus1=BBT2798637.1.2.0,bus2=BBT5857343.1.2.0,Phases=2,Linecode=BT808_BT808_4_2_3,Length=0.081302000,Units=km
new line.10579129 bus1=BBT2797685.1.2.3.0,bus2=BBT2797692.1.2.3.0,Phases=3,Linecode=BT514_BT514_7_3_1,Length=0.000500000,Units=km
new line.12133808 bus1=BBT3205092.1.2.0,bus2=BBT3205099.1.2.0,Phases=2,Linecode=BT518_BT518_7_2_1,Length=0.000500000,Units=km
new line.12133941 bus1=BBT3211651.1.2.0,bus2=BBT3211658.1.2.0,Phases=2,Linecode=BT518_BT518_7_2_1,Length=0.000500000,Units=km
new line.12135306 bus1=BBT3205295.1.2.3.0,bus2=BBT3548372.1.2.3.0,Phases=3,Linecode=BT803_BT803_4_3_4,Length=0.019846000,Units=km
new line.12595794 bus1=BBT3376445.1.2.0,bus2=BBT3376452.1.2.0,Phases=2,Linecode=BT518_BT518_7_2_1,Length=0.000500000,Units=km
new line.12899636 bus1=BBT156937631.1.2.3.0,bus2=BBT1571579.1.2.3.0,Phases=3,Linecode=BT108_BT108_7_3_1,Length=0.024038000,Units=km
new line.12899643 bus1=BBT156937631.1.2.3.0,bus2=BBT3485806.1.2.3.0,Phases=3,Linecode=BT810_BT810_4_3_4,Length=0.028995000,Units=km
new line.12899664 bus1=BBT3485806.1.2.3.0,bus2=BBT114469707.1.2.3.0,Phases=3,Linecode=BT810_BT810_4_3_4,Length=0.011660000,Units=km
new line.12899692 bus1=BBT158189763.1.2.3.0,bus2=BBT3485820.1.2.3.0,Phases=3,Linecode=BT810_BT810_4_3_4,Length=0.040699000,Units=km
new line.12899699 bus1=BBT3485827.1.2.3.0,bus2=BBT3485813.1.2.3.0,Phases=3,Linecode=BT810_BT810_4_3_4,Length=0.039439000,Units=km
new line.12899755 bus1=BBT3485834.1.2.3.0,bus2=BBT3485827.1.2.3.0,Phases=3,Linecode=BT803_BT803_4_3_4,Length=0.034979000,Units=km
new line.12899762 bus1=BBT3485827.1.2.3.0,bus2=BBT3485841.1.2.3.0,Phases=3,Linecode=BT810_BT810_4_3_4,Length=0.038581000,Units=km
new line.12899790 bus1=BBT3485834.1.2.3.0,bus2=BBT5873737.1.2.3.0,Phases=3,Linecode=BT803_BT803_4_3_4,Length=0.039350000,Units=km
new line.12899825 bus1=BBT3485841.1.2.3.0,bus2=BBT3485855.1.2.3.0,Phases=3,Linecode=BT810_BT810_4_3_4,Length=0.035771000,Units=km
new line.12899832 bus1=BBT3485841.1.2.3.0,bus2=BBT3485848.1.2.3.0,Phases=3,Linecode=BT810_BT810_4_3_4,Length=0.042536000,Units=km
new line.12899839 bus1=BBT3485841.1.2.3.0,bus2=BBT3485876.1.2.3.0,Phases=3,Linecode=BT810_BT810_4_3_4,Length=0.038464000,Units=km
new line.12899860 bus1=BBT3485855.1.2.3.0,bus2=BBT3485862.1.2.3.0,Phases=3,Linecode=BT810_BT810_4_3_4,Length=0.042536000,Units=km
new line.12899944 bus1=BBT3485876.1.2.3.0,bus2=BBT3485883.1.2.3.0,Phases=3,Linecode=BT810_BT810_4_3_4,Length=0.028173000,Units=km
new line.12900063 bus1=BBT3485897.1.2.3.0,bus2=BBT3485904.1.2.3.0,Phases=3,Linecode=BT810_BT810_4_3_4,Length=0.040354000,Units=km
new line.12900098 bus1=BBT3485890.1.2.3.0,bus2=BBT3485897.1.2.3.0,Phases=3,Linecode=BT810_BT810_4_3_4,Length=0.031139000,Units=km
new line.12900210 bus1=BBT3486079.1.2.3.0,bus2=BBT3486121.1.2.3.0,Phases=3,Linecode=BT810_BT810_4_3_4,Length=0.042419000,Units=km
new line.12900217 bus1=BBT158026183.1.2.3.0,bus2=BBT3486086.1.2.3.0,Phases=3,Linecode=BT803_BT803_4_3_4,Length=0.015618000,Units=km
new line.12900231 bus1=BBT3486121.1.2.3.0,bus2=BBT3486142.1.2.3.0,Phases=3,Linecode=BT810_BT810_4_3_4,Length=0.043131000,Units=km
new line.12900245 bus1=BBT3486086.1.2.3.0,bus2=BBT3486093.1.2.3.0,Phases=3,Linecode=BT810_BT810_4_3_4,Length=0.031107000,Units=km
new line.12900252 bus1=BBT3486086.1.2.3.0,bus2=BBT3486114.1.2.3.0,Phases=3,Linecode=BT810_BT810_4_3_4,Length=0.049488000,Units=km
new line.12900259 bus1=BBT3486086.1.2.3.0,bus2=BBT3486100.1.2.3.0,Phases=3,Linecode=BT803_BT803_4_3_4,Length=0.031139000,Units=km
new line.12900294 bus1=BBT3486156.1.2.3.0,bus2=BBT3486170.1.2.3.0,Phases=3,Linecode=BT803_BT803_4_3_4,Length=0.039993000,Units=km
new line.12900406 bus1=BBT3486100.1.2.3.0,bus2=BBT3486107.1.2.3.0,Phases=3,Linecode=BT810_BT810_4_3_4,Length=0.031885000,Units=km
new line.12900441 bus1=BBT3486023.1.2.3.0,bus2=BBT3541029.1.2.3.0,Phases=3,Linecode=BT803_BT803_4_3_4,Length=0.012205000,Units=km
new line.12900448 bus1=BBT3486023.1.2.3.0,bus2=BBT4723504.1.2.3.0,Phases=3,Linecode=BT810_BT810_4_3_4,Length=0.043855000,Units=km
new line.13345788 bus1=BBT3662759.1.2.0,bus2=BBT3662766.1.2.0,Phases=2,Linecode=BT518_BT518_7_2_1,Length=0.000500000,Units=km
new line.13346173 bus1=BBT3662941.1.2.0,bus2=BBT3662948.1.2.0,Phases=2,Linecode=BT518_BT518_7_2_1,Length=0.000500000,Units=km
new line.13356596 bus1=BBT3670354.1.2.0,bus2=BBT3670361.1.2.0,Phases=2,Linecode=BT518_BT518_7_2_1,Length=0.000500000,Units=km
new line.14199998 bus1=BBT4006984.1.2.0,bus2=BBT4006991.1.2.0,Phases=2,Linecode=BT518_BT518_7_2_1,Length=0.000500000,Units=km
new line.14201230 bus1=BBT4007460.1.2.0,bus2=BBT4007467.1.2.0,Phases=2,Linecode=BT518_BT518_7_2_1,Length=0.000500000,Units=km
new line.14476470 bus1=BBT4186282.1.2.0,bus2=BBT4186289.1.2.0,Phases=2,Linecode=BT518_BT518_7_2_1,Length=0.000500000,Units=km
new line.14476589 bus1=BBT4184434.1.2.0,bus2=BBT4184441.1.2.0,Phases=2,Linecode=BT518_BT518_7_2_1,Length=0.000500000,Units=km
new line.14476834 bus1=BBT4186177.1.2.0,bus2=BBT4186184.1.2.0,Phases=2,Linecode=BT518_BT518_7_2_1,Length=0.000500000,Units=km
new line.14476841 bus1=BBT4186184.1.2.0,bus2=BBT4186205.1.2.0,Phases=2,Linecode=BT808_BT808_4_2_3,Length=0.039994000,Units=km
new line.14477051 bus1=BBT4186345.1.2.0,bus2=BBT4186352.1.2.0,Phases=2,Linecode=BT518_BT518_7_2_1,Length=0.000500000,Units=km
new line.14477149 bus1=BBT4184987.1.2.0,bus2=BBT4184994.1.2.0,Phases=2,Linecode=BT518_BT518_7_2_1,Length=0.000500000,Units=km
new line.14478661 bus1=BBT4186205.1.2.0,bus2=BBT4186219.1.2.0,Phases=2,Linecode=BT808_BT808_4_2_3,Length=0.038904000,Units=km
new line.14479011 bus1=BBT4186723.1.2.0,bus2=BBT4186730.1.2.0,Phases=2,Linecode=BT518_BT518_7_2_1,Length=0.000500000,Units=km
new line.14479165 bus1=BBT4186842.1.2.0,bus2=BBT4186849.1.2.0,Phases=2,Linecode=BT518_BT518_7_2_1,Length=0.000500000,Units=km
new line.14479298 bus1=BBT4186919.1.2.0,bus2=BBT4186926.1.2.0,Phases=2,Linecode=BT518_BT518_7_2_1,Length=0.000500000,Units=km
new line.14479305 bus1=BBT4186926.1.2.0,bus2=BBT4186940.1.2.0,Phases=2,Linecode=BT808_BT808_4_2_3,Length=0.057070000,Units=km
new line.14782608 bus1=BBT4513287.1.2.0,bus2=BBT4513294.1.2.0,Phases=2,Linecode=BT518_BT518_7_2_1,Length=0.000500000,Units=km
new line.14801970 bus1=BBT4541826.1.2.0,bus2=BBT4541833.1.2.0,Phases=2,Linecode=BT518_BT518_7_2_1,Length=0.000500000,Units=km
new line.15860706 bus1=BBT6520264.1.2.3.0,bus2=BBT1572804.1.2.3.0,Phases=3,Linecode=BT108_BT106_7_3_1,Length=0.016276000,Units=km
new line.15860713 bus1=BBT105181813.1.2.0,bus2=BBT1573161.1.2.0,Phases=2,Linecode=BT808_BT808_4_2_3,Length=0.035729000,Units=km
new line.16572578 bus1=BBT30177912.1.2.0,bus2=BBT30177919.1.2.0,Phases=2,Linecode=BT518_BT518_7_2_1,Length=0.000500000,Units=km
new line.16577954 bus1=BBT30392854.1.2.0,bus2=BBT30392861.1.2.0,Phases=2,Linecode=BT518_BT518_7_2_1,Length=0.000500000,Units=km
new line.16578640 bus1=BBT30417081.1.2.0,bus2=BBT30417088.1.2.0,Phases=2,Linecode=BT518_BT518_7_2_1,Length=0.000500000,Units=km
new line.16578675 bus1=BBT30418761.1.2.0,bus2=BBT30418768.1.2.0,Phases=2,Linecode=BT518_BT518_7_2_1,Length=0.000500000,Units=km
new line.16582322 bus1=BBT30519855.1.2.0,bus2=BBT30519862.1.2.0,Phases=2,Linecode=BT518_BT518_7_2_1,Length=0.000500000,Units=km
new line.14941109 bus1=BBT4795464.1.2.0,bus2=BBT4795471.1.2.0,Phases=2,Linecode=BT518_BT518_7_2_1,Length=0.000500000,Units=km
new line.14941319 bus1=BBT4796920.1.2.0,bus2=BBT4796927.1.2.0,Phases=2,Linecode=BT521_BT521_7_2_1,Length=0.000500000,Units=km
new line.14941326 bus1=BBT4796927.1.2.0,bus2=BBT4796934.1.2.0,Phases=2,Linecode=BT808_BT808_4_2_3,Length=0.020244000,Units=km
new line.14941333 bus1=BBT4796927.1.2.0,bus2=BBT4796941.1.2.0,Phases=2,Linecode=BT808_BT808_4_2_3,Length=0.030077000,Units=km
new line.14941340 bus1=BBT4796941.1.2.0,bus2=BBT4796948.1.2.0,Phases=2,Linecode=BT808_BT808_4_2_3,Length=0.041776000,Units=km