new line.10088506 bus1=BBT2926253.1.2.3.0,bus2=BBT2926260.1.2.3.0,Phases=3,Linecode=BT809_BT809_4_3_4,Length=0.030422000,Units=km
new line.10088520 bus1=BBT2926260.1.2.3.0,bus2=BBT2926267.1.2.3.0,Phases=3,Linecode=BT809_BT809_4_3_4,Length=0.029008000,Units=km
new line.10088555 bus1=BBT2926246.1.2.3.0,bus2=BBT2926253.1.2.3.0,Phases=3,Linecode=BT809_BT809_4_3_4,Length=0.031836000,Units=km
new line.10088583 bus1=BBT2926239.1.2.3.0,bus2=BBT2926246.1.2.3.0,Phases=3,Linecode=BT809_BT809_4_3_4,Length=0.031836000,Units=km
new line.10090718 bus1=BBT2926785.1.2.3.0,bus2=BBT2926792.1.2.3.0,Phases=3,Linecode=BT809_BT809_4_3_4,Length=0.036355000,Units=km
new line.10090746 bus1=BBT2926680.1.2.3.0,bus2=BBT2926687.1.2.3.0,Phases=3,Linecode=BT809_BT809_4_3_4,Length=0.026313000,Units=km
new line.10090767 bus1=BBT2926694.1.2.3.0,bus2=BBT2926701.1.2.3.0,Phases=3,Linecode=BT809_BT809_4_3_4,Length=0.029077000,Units=km
new line.10090795 bus1=BBT2926708.1.2.3.0,bus2=BBT2926715.1.2.3.0,Phases=3,Linecode=BT809_BT809_4_3_4,Length=0.029740000,Units=km
new line.10090823 bus1=BBT2926715.1.2.3.0,bus2=BBT3657522.1.2.3.0,Phases=3,Linecode=BT810_BT810_4_3_4,Length=0.026180000,Units=km
new line.10091201 bus1=BBT2926750.1.2.0,bus2=BBT2926757.1.2.0,Phases=2,Linecode=BT801_BT801_4_2_3,Length=0.034727000,Units=km
new line.10091229 bus1=BBT2926743.1.2.0,bus2=BBT2926750.1.2.0,Phases=2,Linecode=BT801_BT801_4_2_3,Length=0.034098000,Units=km
new line.10091299 bus1=BBT2926764.1.2.0,bus2=BBT2926771.1.2.0,Phases=2,Linecode=BT808_BT808_4_2_3,Length=0.019241000,Units=km
new line.10091306 bus1=BBT2926764.1.2.0,bus2=BBT3362157.1.2.0,Phases=2,Linecode=BT808_BT808_4_2_3,Length=0.038598000,Units=km
new line.10091369 bus1=BBT3584526.1.2.3.0,bus2=BBT2926778.1.2.3.0,Phases=3,Linecode=BT803_BT803_4_3_4,Length=0.010017000,Units=km
new line.10091439 bus1=BBT2926799.1.2.3.0,bus2=BBT2926806.1.2.3.0,Phases=3,Linecode=BT107_BT107_7_3_1,Length=0.032994000,Units=km
new line.10091537 bus1=BBT2926827.1.2.3.0,bus2=BBT2926834.1.2.3.0,Phases=3,Linecode=BT809_BT809_4_3_4,Length=0.032994000,Units=km
new line.10091593 bus1=BBT2926939.1.2.0,bus2=BBT2926946.1.2.0,Phases=2,Linecode=BT801_BT801_4_2_3,Length=0.021547000,Units=km
new line.10091621 bus1=BBT2926932.1.2.0,bus2=BBT2926939.1.2.0,Phases=2,Linecode=BT801_BT801_4_2_3,Length=0.045893000,Units=km
new line.10091642 bus1=BBT2926925.1.2.0,bus2=BBT2926932.1.2.0,Phases=2,Linecode=BT801_BT801_4_2_3,Length=0.037346000,Units=km
new line.10091649 bus1=BBT2926918.1.2.3.0,bus2=BBT2926925.1.2.3.0,Phases=3,Linecode=BT803_BT803_4_3_4,Length=0.029740000,Units=km
new line.10091663 bus1=BBT2926918.1.2.3.0,bus2=BBT2926911.1.2.3.0,Phases=3,Linecode=BT803_BT803_4_3_4,Length=0.035478000,Units=km
new line.10091691 bus1=BBT2926848.1.2.0,bus2=BBT2926862.1.2.0,Phases=2,Linecode=BT801_BT801_4_2_3,Length=0.036024000,Units=km
new line.10091733 bus1=BBT2926897.1.2.0,bus2=BBT2926904.1.2.0,Phases=2,Linecode=BT801_BT801_4_2_3,Length=0.016024000,Units=km
new line.10091859 bus1=BBT2926960.1.2.0,bus2=BBT2926967.1.2.0,Phases=2,Linecode=BT801_BT801_4_2_3,Length=0.034448000,Units=km
new line.10091908 bus1=BBT2926953.1.2.0,bus2=BBT2926960.1.2.0,Phases=2,Linecode=BT801_BT801_4_2_3,Length=0.033625000,Units=km
new line.10092167 bus1=BBT2927009.1.2.0,bus2=BBT2927016.1.2.0,Phases=2,Linecode=BT801_BT801_4_2_3,Length=0.035795000,Units=km
new line.10092265 bus1=BBT2927002.1.2.0,bus2=BBT1486654.1.2.0,Phases=2,Linecode=BT801_BT801_4_2_3,Length=0.029422000,Units=km
new line.10092692 bus1=BBT2927254.1.2.0,bus2=BBT2927275.1.2.0,Phases=2,Linecode=BT801_BT801_4_2_3,Length=0.040356000,Units=km
new line.10092713 bus1=BBT2927282.1.2.0,bus2=BBT2927289.1.2.0,Phases=2,Linecode=BT808_BT808_4_2_3,Length=0.042769000,Units=km
new line.10093161 bus1=BBT2927436.1.2.3.0,bus2=BBT3443980.1.2.3.0,Phases=3,Linecode=BT810_BT810_4_3_4,Length=0.009439000,Units=km
new line.10093196 bus1=BBT2927429.1.2.3.0,bus2=BBT3443973.1.2.3.0,Phases=3,Linecode=BT810_BT810_4_3_4,Length=0.022839000,Units=km
new line.10093329 bus1=BBT2927450.1.2.3.0,bus2=BBT2927457.1.2.3.0,Phases=3,Linecode=BT513_BT513_7_3_1,Length=0.000501000,Units=km
new line.10093336 bus1=BBT2927457.1.2.3.0,bus2=BBT2927464.1.2.3.0,Phases=3,Linecode=BT805_BT805_4_3_4,Length=0.033251000,Units=km
new line.10093343 bus1=BBT2927457.1.2.3.0,bus2=BBT2927499.1.2.3.0,Phases=3,Linecode=BT805_BT805_4_3_4,Length=0.018979000,Units=km
new line.10093378 bus1=BBT2927464.1.2.3.0,bus2=BBT2927471.1.2.3.0,Phases=3,Linecode=BT805_BT805_4_3_4,Length=0.036410000,Units=km
new line.10093399 bus1=BBT2927471.1.2.3.0,bus2=BBT2927478.1.2.3.0,Phases=3,Linecode=BT805_BT805_4_3_4,Length=0.039010000,Units=km
new line.10093434 bus1=BBT2927478.1.2.3.0,bus2=BBT2927485.1.2.3.0,Phases=3,Linecode=BT803_BT803_4_3_4,Length=0.041448000,Units=km
new line.10093455 bus1=BBT2927506.1.2.0,bus2=BBT2927513.1.2.0,Phases=2,Linecode=BT801_BT801_4_2_3,Length=0.029553000,Units=km
new line.10093483 bus1=BBT2927513.1.2.0,bus2=BBT2927520.1.2.0,Phases=2,Linecode=BT801_BT801_4_2_3,Length=0.031432000,Units=km
new line.10093518 bus1=BBT2927520.1.2.0,bus2=BBT2927527.1.2.0,Phases=2,Linecode=BT801_BT801_4_2_3,Length=0.029176000,Units=km
new line.10093546 bus1=BBT2927527.1.2.0,bus2=BBT2927534.1.2.0,Phases=2,Linecode=BT801_BT801_4_2_3,Length=0.023978000,Units=km
new line.10093567 bus1=BBT2927541.1.2.0,bus2=BBT2927548.1.2.0,Phases=2,Linecode=BT801_BT801_4_2_3,Length=0.033298000,Units=km
new line.10093595 bus1=BBT2927534.1.2.0,bus2=BBT2927541.1.2.0,Phases=2,Linecode=BT801_BT801_4_2_3,Length=0.041527000,Units=km
new line.10093623 bus1=BBT2927485.1.2.3.0,bus2=BBT2927492.1.2.3.0,Phases=3,Linecode=BT803_BT803_4_3_4,Length=0.036779000,Units=km
new line.10093791 bus1=BBT2927499.1.2.0,bus2=BBT2927506.1.2.0,Phases=2,Linecode=BT801_BT801_4_2_3,Length=0.033541000,Units=km
new line.10094071 bus1=BBT2927660.1.2.3.0,bus2=BBT2927674.1.2.3.0,Phases=3,Linecode=BT803_BT803_4_3_4,Length=0.040458000,Units=km
new line.10094106 bus1=BBT2927576.1.2.3.0,bus2=BBT2927660.1.2.3.0,Phases=3,Linecode=BT803_BT803_4_3_4,Length=0.036231000,Units=km
new line.10094113 bus1=BBT2927569.1.2.3.0,bus2=BBT2927667.1.2.3.0,Phases=3,Linecode=BT507_BT507_7_3_1,Length=0.000501000,Units=km
new line.10094120 bus1=BBT2927667.1.2.3.0,bus2=BBT2927576.1.2.3.0,Phases=3,Linecode=BT803_BT803_4_3_4,Length=0.039215000,Units=km
new line.10094148 bus1=BBT2927667.1.2.3.0,bus2=BBT2927681.1.2.3.0,Phases=3,Linecode=BT803_BT803_4_3_4,Length=0.043301000,Units=km
new line.10094204 bus1=BBT2927681.1.2.3.0,bus2=BBT2927688.1.2.3.0,Phases=3,Linecode=BT803_BT803_4_3_4,Length=0.038220000,Units=km
new line.10095296 bus1=BBT2928017.1.2.3.0,bus2=BBT4561313.1.2.3.0,Phases=3,Linecode=BT810_BT810_4_3_4,Length=0.018390000,Units=km
new line.10095331 bus1=BBT2927828.1.2.0,bus2=BBT2927835.1.2.0,Phases=2,Linecode=BT808_BT808_4_2_3,Length=0.029546000,Units=km
new line.10095352 bus1=BBT2927835.1.2.0,bus2=BBT2927842.1.2.0,Phases=2,Linecode=BT808_BT808_4_2_3,Length=0.037458000,Units=km
new line.10096038 bus1=BBT2928143.1.2.3.0,bus2=BBT2928150.1.2.3.0,Phases=3,Linecode=BT810_BT810_4_3_4,Length=0.036136000,Units=km
new line.10096115 bus1=BBT2928080.1.2.3.0,bus2=BBT2928087.1.2.3.0,Phases=3,Linecode=BT810_BT810_4_3_4,Length=0.037226000,Units=km
new line.10096185 bus1=BBT2928129.1.2.3.0,bus2=BBT2928136.1.2.3.0,Phases=3,Linecode=BT810_BT810_4_3_4,Length=0.040290000,Units=km
new line.10096213 bus1=BBT2928136.1.2.3.0,bus2=BBT2928143.1.2.3.0,Phases=3,Linecode=BT810_BT810_4_3_4,Length=0.037412000,Units=km
new line.10008020 bus1=BBT2902677.1.2.3.0,bus2=BBT1449967.1.2.3.0,Phases=3,Linecode=BT803_BT803_4_3_4,Length=0.031104000,Units=km
new line.10009091 bus1=BBT2903279.1.2.3.0,bus2=BBT2903286.1.2.3.0,Phases=3,Linecode=BT803_BT803_4_3_4,Length=0.032993000,Units=km
new line.10009119 bus1=BBT2903272.1.2.3.0,bus2=BBT2903279.1.2.3.0,Phases=3,Linecode=BT803_BT803_4_3_4,Length=0.034006000,Units=km
new line.10009154 bus1=BBT2903244.1.2.3.0,bus2=BBT2903272.1.2.3.0,Phases=3,Linecode=BT803_BT803_4_3_4,Length=0.032028000,Units=km
new line.10009175 bus1=BBT2903237.1.2.3.0,bus2=BBT2903244.1.2.3.0,Phases=3,Linecode=BT803_BT803_4_3_4,Length=0.032998000,Units=km
new line.10009245 bus1=BBT2903230.1.2.3.0,bus2=BBT2903237.1.2.3.0,Phases=3,Linecode=BT803_BT803_4_3_4,Length=0.032223000,Units=km
new line.10009280 bus1=BBT2903195.1.2.3.0,bus2=BBT2903230.1.2.3.0,Phases=3,Linecode=BT803_BT803_4_3_4,Length=0.031682000,Units=km
new line.10009287 bus1=BBT2903188.1.2.3.0,bus2=BBT2903195.1.2.3.0,Phases=3,Linecode=BT513_BT513_7_3_1,Length=0.000527000,Units=km
new line.10009294 bus1=BBT2903195.1.2.3.0,bus2=BBT2903202.1.2.3.0,Phases=3,Linecode=BT803_BT803_4_3_4,Length=0.034694000,Units=km
new line.10009455 bus1=BBT2903202.1.2.3.0,bus2=BBT2903209.1.2.3.0,Phases=3,Linecode=BT803_BT803_4_3_4,Length=0.034214000,Units=km
new line.10009497 bus1=BBT2903209.1.2.3.0,bus2=BBT2903216.1.2.3.0,Phases=3,Linecode=BT803_BT803_4_3_4,Length=0.034937000,Units=km
new line.10009532 bus1=BBT2903216.1.2.3.0,bus2=BBT2903223.1.2.3.0,Phases=3,Linecode=BT803_BT803_4_3_4,Length=0.036409000,Units=km
new line.10009819 bus1=BBT2903433.1.2.0,bus2=BBT2903440.1.2.0,Phases=2,Linecode=BT809_BT809_4_2_4,Length=0.023032000,Units=km
new line.10009861 bus1=BBT2903356.1.2.0,bus2=BBT2903384.1.2.0,Phases=2,Linecode=BT803_BT803_4_2_4,Length=0.021639000,Units=km
new line.10009868 bus1=BBT2903356.1.2.0,bus2=BBT2903363.1.2.0,Phases=2,Linecode=BT803_BT803_4_2_4,Length=0.034214000,Units=km
new line.10009896 bus1=BBT2903363.1.2.0,bus2=BBT2903370.1.2.0,Phases=2,Linecode=BT803_BT803_4_2_4,Length=0.037117000,Units=km
new line.10010211 bus1=BBT2903370.1.2.0,bus2=BBT2903377.1.2.0,Phases=2,Linecode=BT803_BT803_4_2_4,Length=0.035449000,Units=km
new line.10010428 bus1=BBT2903349.1.2.0,bus2=BBT2903615.1.2.0,Phases=2,Linecode=BT803_BT803_4_2_4,Length=0.035814000,Units=km
new line.10010449 bus1=BBT2903615.1.2.0,bus2=BBT2903622.1.2.0,Phases=2,Linecode=BT803_BT803_4_2_4,Length=0.038645000,Units=km
new line.10010631 bus1=BBT2903300.1.2.0,bus2=BBT2903356.1.2.0,Phases=2,Linecode=BT803_BT803_4_2_4,Length=0.023607000,Units=km
new line.10010638 bus1=BBT2903300.1.2.0,bus2=BBT2903349.1.2.0,Phases=2,Linecode=BT803_BT803_4_2_4,Length=0.035236000,Units=km
new line.10010645 bus1=BBT2903293.1.2.0,bus2=BBT2903300.1.2.0,Phases=2,Linecode=BT513_BT513_7_2_1,Length=0.000501000,Units=km
new line.10010652 bus1=BBT2903300.1.2.0,bus2=BBT2903391.1.2.0,Phases=2,Linecode=BT809_BT809_4_2_4,Length=0.036409000,Units=km
new line.10010757 bus1=BBT2903391.1.2.0,bus2=BBT2903398.1.2.0,Phases=2,Linecode=BT809_BT809_4_2_4,Length=0.038863000,Units=km
new line.10010785 bus1=BBT2903398.1.2.0,bus2=BBT2903405.1.2.0,Phases=2,Linecode=BT809_BT809_4_2_4,Length=0.041015000,Units=km
new line.10010841 bus1=BBT2903426.1.2.0,bus2=BBT2903433.1.2.0,Phases=2,Linecode=BT809_BT809_4_2_4,Length=0.024745000,Units=km
new line.10010876 bus1=BBT2903419.1.2.0,bus2=BBT2903426.1.2.0,Phases=2,Linecode=BT809_BT809_4_2_4,Length=0.024571000,Units=km
new line.10010883 bus1=BBT2903419.1.2.0,bus2=BBT2903447.1.2.0,Phases=2,Linecode=BT809_BT809_4_2_4,Length=0.035632000,Units=km
new line.10010918 bus1=BBT2903503.1.2.0,bus2=BBT2903510.1.2.0,Phases=2,Linecode=BT809_BT809_4_2_4,Length=0.037073000,Units=km
new line.10010925 bus1=BBT2903503.1.2.0,bus2=BBT2903517.1.2.0,Phases=2,Linecode=BT809_BT809_4_2_4,Length=0.029841000,Units=km
new line.10010967 bus1=BBT2903531.1.2.0,bus2=BBT2903538.1.2.0,Phases=2,Linecode=BT803_BT803_4_2_4,Length=0.024757000,Units=km
new line.10010995 bus1=BBT2903524.1.2.0,bus2=BBT2903531.1.2.0,Phases=2,Linecode=BT803_BT803_4_2_4,Length=0.026691000,Units=km
new line.10011065 bus1=BBT2903412.1.2.0,bus2=BBT2903419.1.2.0,Phases=2,Linecode=BT803_BT803_4_2_4,Length=0.043346000,Units=km
new line.10011149 bus1=BBT2903314.1.2.0,bus2=BBT2903412.1.2.0,Phases=2,Linecode=BT803_BT803_4_2_4,Length=0.037653000,Units=km
new line.10011156 bus1=BBT2903307.1.2.0,bus2=BBT2903314.1.2.0,Phases=2,Linecode=BT513_BT513_7_2_1,Length=0.000527000,Units=km
new line.10011163 bus1=BBT2903314.1.2.0,bus2=BBT2903454.1.2.0,Phases=2,Linecode=BT803_BT803_4_2_4,Length=0.036212000,Units=km
new line.10011198 bus1=BBT2903454.1.2.0,bus2=BBT2903461.1.2.0,Phases=2,Linecode=BT803_BT803_4_2_4,Length=0.036147000,Units=km
new line.10011226 bus1=BBT2903461.1.2.0,bus2=BBT2903468.1.2.0,Phases=2,Linecode=BT803_BT803_4_2_4,Length=0.037117000,Units=km
new line.10011268 bus1=BBT2903468.1.2.0,bus2=BBT2903475.1.2.0,Phases=2,Linecode=BT803_BT803_4_2_4,Length=0.036147000,Units=km
new line.10011289 bus1=BBT2903475.1.2.0,bus2=BBT2903482.1.2.0,Phases=2,Linecode=BT803_BT803_4_2_4,Length=0.035180000,Units=km
new line.10011387 bus1=BBT2903496.1.2.0,bus2=BBT2903503.1.2.0,Phases=2,Linecode=BT803_BT803_4_2_4,Length=0.032517000,Units=km
new line.10011429 bus1=BBT2903321.1.2.0,bus2=BBT2903328.1.2.0,Phases=2,Linecode=BT513_BT513_7_2_1,Length=0.000501000,Units=km
new line.10011436 bus1=BBT2903328.1.2.0,bus2=BBT2903629.1.2.0,Phases=2,Linecode=BT803_BT803_4_2_4,Length=0.035911000,Units=km
new line.10011443 bus1=BBT2903328.1.2.0,bus2=BBT2903489.1.2.0,Phases=2,Linecode=BT803_BT803_4_2_4,Length=0.035264000,Units=km
new line.10011464 bus1=BBT2903629.1.2.0,bus2=BBT2903636.1.2.0,Phases=2,Linecode=BT803_BT803_4_2_4,Length=0.032993000,Units=km
new line.10011527 bus1=BBT2903636.1.2.0,bus2=BBT2903643.1.2.0,Phases=2,Linecode=BT803_BT803_4_2_4,Length=0.033964000,Units=km
new line.10011548 bus1=BBT2903643.1.2.0,bus2=BBT2903650.1.2.0,Phases=2,Linecode=BT803_BT803_4_2_4,Length=0.035180000,Units=km
new line.10011709 bus1=BBT2903342.1.2.0,bus2=BBT2903524.1.2.0,Phases=2,Linecode=BT803_BT803_4_2_4,Length=0.035669000,Units=km
new line.10011716 bus1=BBT2903335.1.2.0,bus2=BBT2903342.1.2.0,Phases=2,Linecode=BT513_BT513_7_2_1,Length=0.000506000,Units=km
new line.10011723 bus1=BBT2903342.1.2.0,bus2=BBT2903545.1.2.0,Phases=2,Linecode=BT803_BT803_4_2_4,Length=0.033012000,Units=km
new line.10011751 bus1=BBT2903545.1.2.0,bus2=BBT2903552.1.2.0,Phases=2,Linecode=BT803_BT803_4_2_4,Length=0.036192000,Units=km
new line.10011772 bus1=BBT2903552.1.2.0,bus2=BBT2903559.1.2.0,Phases=2,Linecode=BT803_BT803_4_2_4,Length=0.035528000,Units=km
new line.10011905 bus1=BBT2903489.1.2.0,bus2=BBT2903496.1.2.0,Phases=2,Linecode=BT803_BT803_4_2_4,Length=0.033110000,Units=km
new line.10080337 bus1=BBT2924181.1.2.0,bus2=BBT2924188.1.2.0,Phases=2,Linecode=BT508_BT508_7_2_1,Length=0.000501000,Units=km
new line.10080344 bus1=BBT2924188.1.2.0,bus2=BBT2924202.1.2.0,Phases=2,Linecode=BT803_BT803_4_2_4,Length=0.034023000,Units=km
new line.10080351 bus1=BBT2924188.1.2.0,bus2=BBT2924237.1.2.0,Phases=2,Linecode=BT803_BT803_4_2_4,Length=0.034023000,Units=km
new line.10080428 bus1=BBT2924202.1.2.0,bus2=BBT2924209.1.2.0,Phases=2,Linecode=BT803_BT803_4_2_4,Length=0.034032000,Units=km
new line.10080449 bus1=BBT2924209.1.2.0,bus2=BBT2924216.1.2.0,Phases=2,Linecode=BT809_BT809_4_2_4,Length=0.037490000,Units=km
new line.10080470 bus1=BBT2924216.1.2.0,bus2=BBT2924223.1.2.0,Phases=2,Linecode=BT809_BT809_4_2_4,Length=0.034354000,Units=km
new line.10080491 bus1=BBT2924223.1.2.0,bus2=BBT2924230.1.2.0,Phases=2,Linecode=BT809_BT809_4_2_4,Length=0.031950000,Units=km
new line.10080519 bus1=BBT2924230.1.2.0,bus2=BBT2924307.1.2.0,Phases=2,Linecode=BT809_BT809_4_2_4,Length=0.032057000,Units=km
new line.10080526 bus1=BBT2924230.1.2.0,bus2=BBT4274684.1.2.0,Phases=2,Linecode=BT810_BT810_4_2_4,Length=0.042306000,Units=km
new line.10080547 bus1=BBT2924237.1.2.0,bus2=BBT2924244.1.2.0,Phases=2,Linecode=BT809_BT809_4_2_4,Length=0.034008000,Units=km
new line.10080554 bus1=BBT2924237.1.2.0,bus2=BBT2924286.1.2.0,Phases=2,Linecode=BT803_BT803_4_2_4,Length=0.033069000,Units=km
new line.10080582 bus1=BBT2924244.1.2.0,bus2=BBT2924251.1.2.0,Phases=2,Linecode=BT809_BT809_4_2_4,Length=0.037710000,Units=km
new line.10080596 bus1=BBT2924251.1.2.0,bus2=BBT2924258.1.2.0,Phases=2,Linecode=BT809_BT809_4_2_4,Length=0.033231000,Units=km
new line.10080631 bus1=BBT2924258.1.2.0,bus2=BBT2924265.1.2.0,Phases=2,Linecode=BT809_BT809_4_2_4,Length=0.035182000,Units=km
new line.10080645 bus1=BBT2924265.1.2.0,bus2=BBT2924272.1.2.0,Phases=2,Linecode=BT810_BT810_4_2_4,Length=0.040475000,Units=km
new line.10080736 bus1=BBT2924286.1.2.0,bus2=BBT2924293.1.2.0,Phases=2,Linecode=BT809_BT809_4_2_4,Length=0.035023000,Units=km
new line.10080757 bus1=BBT2924293.1.2.0,bus2=BBT2924300.1.2.0,Phases=2,Linecode=BT809_BT809_4_2_4,Length=0.036023000,Units=km
new line.10080862 bus1=BBT2924314.1.2.0,bus2=BBT2924321.1.2.0,Phases=2,Linecode=BT518_BT518_7_2_1,Length=0.000501000,Units=km
new line.10080869 bus1=BBT2924321.1.2.0,bus2=BBT2924328.1.2.0,Phases=2,Linecode=BT803_BT803_4_2_4,Length=0.033964000,Units=km
new line.10080876 bus1=BBT2924321.1.2.0,bus2=BBT2924335.1.2.0,Phases=2,Linecode=BT803_BT803_4_2_4,Length=0.033023000,Units=km
new line.10080918 bus1=BBT2924328.1.2.0,bus2=BBT2924356.1.2.0,Phases=2,Linecode=BT809_BT809_4_2_4,Length=0.033964000,Units=km
new line.10080925 bus1=BBT2924328.1.2.0,bus2=BBT2924377.1.2.0,Phases=2,Linecode=BT809_BT809_4_2_4,Length=0.033964000,Units=km
new line.10080932 bus1=BBT2924328.1.2.0,bus2=BBT2924384.1.2.0,Phases=2,Linecode=BT803_BT803_4_2_4,Length=0.038022000,Units=km
new line.10080960 bus1=BBT2924356.1.2.0,bus2=BBT2924363.1.2.0,Phases=2,Linecode=BT809_BT809_4_2_4,Length=0.029007000,Units=km
new line.10081023 bus1=BBT2924335.1.2.0,bus2=BBT2924342.1.2.0,Phases=2,Linecode=BT803_BT803_4_2_4,Length=0.032657000,Units=km
new line.10081044 bus1=BBT2924342.1.2.0,bus2=BBT4634358.1.2.0,Phases=2,Linecode=BT808_BT808_4_2_3,Length=0.031495000,Units=km
new line.10081065 bus1=BBT2924384.1.2.0,bus2=BBT2924391.1.2.0,Phases=2,Linecode=BT809_BT809_4_2_4,Length=0.035009000,Units=km
new line.10081086 bus1=BBT2924391.1.2.0,bus2=BBT2924398.1.2.0,Phases=2,Linecode=BT809_BT809_4_2_4,Length=0.038022000,Units=km
new line.10081107 bus1=BBT2924398.1.2.0,bus2=BBT2924405.1.2.0,Phases=2,Linecode=BT809_BT809_4_2_4,Length=0.030024000,Units=km
new line.10081450 bus1=BBT2924433.1.2.0,bus2=BBT2924461.1.2.0,Phases=2,Linecode=BT803_BT803_4_2_4,Length=0.037344000,Units=km
new line.10081457 bus1=BBT2924433.1.2.0,bus2=BBT1430003.1.2.0,Phases=2,Linecode=BT803_BT803_4_2_4,Length=0.035966000,Units=km
new line.10081464 bus1=BBT2924426.1.2.0,bus2=BBT2924433.1.2.0,Phases=2,Linecode=BT513_BT513_7_2_1,Length=0.000515000,Units=km
new line.10081485 bus1=BBT2924447.1.2.0,bus2=BBT2924454.1.2.0,Phases=2,Linecode=BT809_BT809_4_2_4,Length=0.031072000,Units=km
new line.10081527 bus1=BBT2924468.1.2.0,bus2=BBT2924475.1.2.0,Phases=2,Linecode=BT809_BT809_4_2_4,Length=0.037357000,Units=km
new line.10081548 bus1=BBT2924475.1.2.0,bus2=BBT1437913.1.2.0,Phases=2,Linecode=BT809_BT809_4_2_4,Length=0.037274000,Units=km
new line.10081569 bus1=BBT2924489.1.2.0,bus2=BBT2924496.1.2.0,Phases=2,Linecode=BT803_BT803_4_2_4,Length=0.038454000,Units=km
new line.10081590 bus1=BBT2924496.1.2.0,bus2=BBT1423598.1.2.0,Phases=2,Linecode=BT809_BT809_4_2_4,Length=0.033284000,Units=km
new line.10081597 bus1=BBT2924496.1.2.0,bus2=BBT2924503.1.2.0,Phases=2,Linecode=BT809_BT809_4_2_4,Length=0.035475000,Units=km
new line.10081639 bus1=BBT2924524.1.2.0,bus2=BBT2924531.1.2.0,Phases=2,Linecode=BT803_BT803_4_2_4,Length=0.033032000,Units=km
new line.10081653 bus1=BBT2924531.1.2.0,bus2=BBT2924538.1.2.0,Phases=2,Linecode=BT809_BT809_4_2_4,Length=0.035095000,Units=km
new line.10081674 bus1=BBT2924538.1.2.0,bus2=BBT1442498.1.2.0,Phases=2,Linecode=BT809_BT809_4_2_4,Length=0.035723000,Units=km
new line.10081695 bus1=BBT2924559.1.2.0,bus2=BBT2924566.1.2.0,Phases=2,Linecode=BT810_BT810_4_2_4,Length=0.031129000,Units=km
new line.10081716 bus1=BBT2924566.1.2.0,bus2=BBT3623145.1.2.0,Phases=2,Linecode=BT810_BT810_4_2_4,Length=0.035093000,Units=km
new line.10081828 bus1=BBT2924601.1.2.3.0,bus2=BBT2924608.1.2.3.0,Phases=3,Linecode=BT810_BT810_4_3_4,Length=0.032289000,Units=km
new line.10081856 bus1=BBT2924608.1.2.3.0,bus2=BBT2924615.1.2.3.0,Phases=3,Linecode=BT810_BT810_4_3_4,Length=0.033864000,Units=km
new line.10081912 bus1=BBT2924636.1.2.3.0,bus2=BBT2924643.1.2.3.0,Phases=3,Linecode=BT810_BT810_4_3_4,Length=0.036050000,Units=km
new line.10081940 bus1=BBT2924643.1.2.3.0,bus2=BBT2924650.1.2.3.0,Phases=3,Linecode=BT810_BT810_4_3_4,Length=0.035138000,Units=km
new line.10081961 bus1=BBT2924650.1.2.3.0,bus2=BBT2924657.1.2.3.0,Phases=3,Linecode=BT810_BT810_4_3_4,Length=0.033251000,Units=km
new line.10081982 bus1=BBT2924657.1.2.3.0,bus2=BBT2924678.1.2.3.0,Phases=3,Linecode=BT810_BT810_4_3_4,Length=0.032258000,Units=km
new line.10081989 bus1=BBT2924657.1.2.3.0,bus2=BBT2924664.1.2.3.0,Phases=3,Linecode=BT810_BT810_4_3_4,Length=0.025087000,Units=km
new line.10082010 bus1=BBT2924664.1.2.3.0,bus2=BBT2924671.1.2.3.0,Phases=3,Linecode=BT810_BT810_4_3_4,Length=0.026408000,Units=km
new line.10082059 bus1=BBT2924685.1.2.0,bus2=BBT2924692.1.2.0,Phases=2,Linecode=BT801_BT801_4_2_3,Length=0.035430000,Units=km
new line.10082094 bus1=BBT2924699.1.2.3.0,bus2=BBT2924706.1.2.3.0,Phases=3,Linecode=BT803_BT803_4_3_4,Length=0.033610000,Units=km
new line.10082108 bus1=BBT2924706.1.2.3.0,bus2=BBT2924713.1.2.3.0,Phases=3,Linecode=BT803_BT803_4_3_4,Length=0.033847000,Units=km
new line.10082143 bus1=BBT2924741.1.2.0,bus2=BBT20539304.1.2.0,Phases=2,Linecode=BT808_BT808_4_2_3,Length=0.023111000,Units=km
new line.10082164 bus1=BBT2924727.1.2.0,bus2=BBT2924734.1.2.0,Phases=2,Linecode=BT808_BT808_4_2_3,Length=0.037252000,Units=km
new line.10082171 bus1=BBT2924727.1.2.0,bus2=BBT2924741.1.2.0,Phases=2,Linecode=BT808_BT808_4_2_3,Length=0.041220000,Units=km
new line.10082192 bus1=BBT2924720.1.2.0,bus2=BBT2924727.1.2.0,Phases=2,Linecode=BT808_BT808_4_2_3,Length=0.041738000,Units=km
new line.10082220 bus1=BBT2924811.1.2.3.0,bus2=BBT2924818.1.2.3.0,Phases=3,Linecode=BT803_BT803_4_3_4,Length=0.038920000,Units=km
new line.10082234 bus1=BBT2924804.1.2.3.0,bus2=BBT2924811.1.2.3.0,Phases=3,Linecode=BT803_BT803_4_3_4,Length=0.036934000,Units=km
new line.10082255 bus1=BBT2924797.1.2.3.0,bus2=BBT2924804.1.2.3.0,Phases=3,Linecode=BT803_BT803_4_3_4,Length=0.035048000,Units=km
new line.10082276 bus1=BBT2924797.1.2.3.0,bus2=BBT2924790.1.2.3.0,Phases=3,Linecode=BT803_BT803_4_3_4,Length=0.033489000,Units=km
new line.10082297 bus1=BBT2924790.1.2.3.0,bus2=BBT2924783.1.2.3.0,Phases=3,Linecode=BT803_BT803_4_3_4,Length=0.032087000,Units=km
new line.10096234 bus1=BBT2928157.1.2.3.0,bus2=BBT2928164.1.2.3.0,Phases=3,Linecode=BT810_BT810_4_3_4,Length=0.029189000,Units=km
new line.10096255 bus1=BBT2928164.1.2.3.0,bus2=BBT2928171.1.2.3.0,Phases=3,Linecode=BT810_BT810_4_3_4,Length=0.028195000,Units=km
new line.10096283 bus1=BBT2928115.1.2.3.0,bus2=BBT1400036.1.2.3.0,Phases=3,Linecode=BT803_BT803_4_3_4,Length=0.009064000,Units=km
new line.10096290 bus1=BBT2928115.1.2.3.0,bus2=BBT2928129.1.2.3.0,Phases=3,Linecode=BT810_BT810_4_3_4,Length=0.020142000,Units=km
new line.10096297 bus1=BBT2928115.1.2.3.0,bus2=BBT2928157.1.2.3.0,Phases=3,Linecode=BT810_BT810_4_3_4,Length=0.020251000,Units=km
new line.10096549 bus1=BBT2928276.1.2.3.0,bus2=BBT3622200.1.2.3.0,Phases=3,Linecode=BT809_BT809_4_3_4,Length=0.037225000,Units=km
new line.10096556 bus1=BBT2928276.1.2.3.0,bus2=BBT3622221.1.2.3.0,Phases=3,Linecode=BT809_BT809_4_3_4,Length=0.034243000,Units=km
new line.10096577 bus1=BBT2928290.1.2.3.0,bus2=BBT3622207.1.2.3.0,Phases=3,Linecode=BT809_BT809_4_3_4,Length=0.039516000,Units=km
new line.10096598 bus1=BBT2928283.1.2.3.0,bus2=BBT2928290.1.2.3.0,Phases=3,Linecode=BT810_BT810_4_3_4,Length=0.037392000,Units=km
new line.10097900 bus1=BBT2928766.1.2.3.0,bus2=BBT2928773.1.2.3.0,Phases=3,Linecode=BT810_BT810_4_3_4,Length=0.037662000,Units=km
new line.10097921 bus1=BBT2928773.1.2.3.0,bus2=BBT2928780.1.2.3.0,Phases=3,Linecode=BT810_BT810_4_3_4,Length=0.033627000,Units=km
new line.10097942 bus1=BBT2928780.1.2.3.0,bus2=BBT2928787.1.2.3.0,Phases=3,Linecode=BT810_BT810_4_3_4,Length=0.036728000,Units=km
new line.10097963 bus1=BBT2928787.1.2.3.0,bus2=BBT2928794.1.2.3.0,Phases=3,Linecode=BT810_BT810_4_3_4,Length=0.036410000,Units=km
new line.10098005 bus1=BBT2928759.1.2.3.0,bus2=BBT2928766.1.2.3.0,Phases=3,Linecode=BT810_BT810_4_3_4,Length=0.035523000,Units=km
new line.10098537 bus1=BBT2929060.1.2.3.0,bus2=BBT2929067.1.2.3.0,Phases=3,Linecode=BT514_BT514_7_3_1,Length=0.000501000,Units=km
new line.10102597 bus1=BBT2930579.1.2.0,bus2=BBT991432.1.2.0,Phases=2,Linecode=BT108_BT108_7_2_1,Length=0.021094000,Units=km
new line.10102604 bus1=BBT2930579.1.2.0,bus2=BBT2930586.1.2.0,Phases=2,Linecode=BT801_BT801_4_2_3,Length=0.015823000,Units=km
new line.10102632 bus1=BBT2930586.1.2.0,bus2=BBT2930593.1.2.0,Phases=2,Linecode=BT801_BT801_4_2_3,Length=0.008308000,Units=km
new line.10102667 bus1=BBT2930593.1.2.0,bus2=BBT2930621.1.2.0,Phases=2,Linecode=BT810_BT810_4_2_4,Length=0.034744000,Units=km
new line.10102674 bus1=BBT2930593.1.2.0,bus2=BBT2930600.1.2.0,Phases=2,Linecode=BT801_BT801_4_2_3,Length=0.018412000,Units=km
new line.10102709 bus1=BBT2930600.1.2.0,bus2=BBT2930607.1.2.0,Phases=2,Linecode=BT801_BT801_4_2_3,Length=0.005060000,Units=km
new line.10102730 bus1=BBT2930607.1.2.0,bus2=BBT2930614.1.2.0,Phases=2,Linecode=BT801_BT801_4_2_3,Length=0.021415000,Units=km
new line.10201248 bus1=BBT2963304.1.2.0,bus2=BBT2963311.1.2.0,Phases=2,Linecode=BT808_BT808_4_2_3,Length=0.039317000,Units=km
new line.10201318 bus1=BBT2963297.1.2.0,bus2=BBT2963304.1.2.0,Phases=2,Linecode=BT801_BT801_4_2_3,Length=0.041102000,Units=km
new line.10201353 bus1=BBT2963290.1.2.0,bus2=BBT2963297.1.2.0,Phases=2,Linecode=BT801_BT801_4_2_3,Length=0.039085000,Units=km
new line.10201500 bus1=BBT2963269.1.2.0,bus2=BBT2963276.1.2.0,Phases=2,Linecode=BT801_BT801_4_2_3,Length=0.033014000,Units=km
new line.10203075 bus1=BBT2963878.1.2.0,bus2=BBT3587375.1.2.0,Phases=2,Linecode=BT808_BT808_4_2_3,Length=0.040860000,Units=km
new line.10213435 bus1=BBT2967798.1.2.3.0,bus2=BBT2967805.1.2.3.0,Phases=3,Linecode=BT514_BT514_7_3_1,Length=0.000501000,Units=km
new line.10267594 bus1=BBT3556708.1.2.0,bus2=BBT5109287.1.2.0,Phases=2,Linecode=BT808_BT808_4_2_3,Length=0.022497000,Units=km
new line.10267615 bus1=BBT3556701.1.2.3.0,bus2=BBT3556708.1.2.3.0,Phases=3,Linecode=BT805_BT805_4_3_4,Length=0.027575000,Units=km
new line.10267622 bus1=BBT3556694.1.2.3.0,bus2=BBT3556701.1.2.3.0,Phases=3,Linecode=BT518_BT518_7_3_1,Length=0.000503000,Units=km
new line.10267629 bus1=BBT3556701.1.2.3.0,bus2=BBT3556715.1.2.3.0,Phases=3,Linecode=BT805_BT805_4_3_4,Length=0.029819000,Units=km
new line.10277303 bus1=BBT2990730.1.2.3.0,bus2=BBT2999683.1.2.3.0,Phases=3,Linecode=BT809_BT809_4_3_4,Length=0.060609000,Units=km
new line.10277380 bus1=BBT2990737.1.2.3.0,bus2=BBT2990730.1.2.3.0,Phases=3,Linecode=BT803_BT803_4_3_4,Length=0.060205000,Units=km
new line.10277401 bus1=BBT2990744.1.2.3.0,bus2=BBT2990737.1.2.3.0,Phases=3,Linecode=BT803_BT803_4_3_4,Length=0.060618000,Units=km
new line.10277408 bus1=BBT2990807.1.2.3.0,bus2=BBT2990744.1.2.3.0,Phases=3,Linecode=BT518_BT518_7_3_1,Length=0.000501000,Units=km
new line.10277415 bus1=BBT2990744.1.2.3.0,bus2=BBT2990751.1.2.3.0,Phases=3,Linecode=BT803_BT803_4_3_4,Length=0.059050000,Units=km
new line.10277464 bus1=BBT2990751.1.2.3.0,bus2=BBT2990758.1.2.3.0,Phases=3,Linecode=BT803_BT803_4_3_4,Length=0.061147000,Units=km
new line.10277513 bus1=BBT2990758.1.2.3.0,bus2=BBT2990765.1.2.3.0,Phases=3,Linecode=BT810_BT810_4_3_4,Length=0.060478000,Units=km
new line.10286466 bus1=BBT2994755.1.2.3.0,bus2=BBT31974028.1.2.3.0,Phases=3,Linecode=BT810_BT810_4_3_4,Length=0.037356000,Units=km
new line.10382933 bus1=BBT3033332.1.2.3.0,bus2=BBT3033339.1.2.3.0,Phases=3,Linecode=BT803_BT803_4_3_4,Length=0.038492000,Units=km
new line.10382954 bus1=BBT3033339.1.2.3.0,bus2=BBT3855699.1.2.3.0,Phases=3,Linecode=BT803_BT803_4_3_4,Length=0.005011000,Units=km
new line.10382961 bus1=BBT3033339.1.2.3.0,bus2=BBT4320408.1.2.3.0,Phases=3,Linecode=BT808_BT808_4_3_3,Length=0.040265000,Units=km
new line.10386657 bus1=BBT3034956.1.2.0,bus2=BBT4126711.1.2.0,Phases=2,Linecode=BT808_BT808_4_2_3,Length=0.046041000,Units=km
new line.10388267 bus1=BBT3035712.1.2.0,bus2=BBT21681900.1.2.0,Phases=2,Linecode=BT107_BT107_7_2_1,Length=0.020941000,Units=km
new line.10388442 bus1=BBT3035866.1.2.0,bus2=BBT3035873.1.2.0,Phases=2,Linecode=BT107_BT107_7_2_1,Length=0.034450000,Units=km
new line.10389205 bus1=BBT3036237.1.2.0,bus2=BBT3036251.1.2.0,Phases=2,Linecode=BT807_BT807_4_2_3,Length=0.028963000,Units=km
new line.10389408 bus1=BBT3036251.1.2.0,bus2=BBT3036258.1.2.0,Phases=2,Linecode=BT807_BT807_4_2_3,Length=0.024244000,Units=km
new line.10397164 bus1=BBT3039436.1.2.3.0,bus2=BBT3039443.1.2.3.0,Phases=3,Linecode=BT803_BT803_4_3_4,Length=0.038073000,Units=km
new line.10397185 bus1=BBT3039415.1.2.3.0,bus2=BBT1482356.1.2.3.0,Phases=3,Linecode=BT810_BT810_4_3_4,Length=0.034560000,Units=km
new line.10397206 bus1=BBT3039436.1.2.3.0,bus2=BBT3039429.1.2.3.0,Phases=3,Linecode=BT803_BT803_4_3_4,Length=0.036128000,Units=km
new line.10397213 bus1=BBT3039429.1.2.3.0,bus2=BBT4960138.1.2.3.0,Phases=3,Linecode=BT810_BT810_4_3_4,Length=0.039066000,Units=km
new line.10397269 bus1=BBT3039422.1.2.3.0,bus2=BBT4524388.1.2.3.0,Phases=3,Linecode=BT810_BT810_4_3_4,Length=0.042120000,Units=km
new line.10397311 bus1=BBT3039457.1.2.0,bus2=BBT4137351.1.2.0,Phases=2,Linecode=BT808_BT808_4_2_3,Length=0.025069000,Units=km
new line.10397353 bus1=BBT3039450.1.2.3.0,bus2=BBT1482342.1.2.3.0,Phases=3,Linecode=BT810_BT810_4_3_4,Length=0.038008000,Units=km
new line.10397570 bus1=BBT3039471.1.2.3.0,bus2=BBT1482335.1.2.3.0,Phases=3,Linecode=BT810_BT810_4_3_4,Length=0.034141000,Units=km
new line.10397948 bus1=BBT3039527.1.2.3.0,bus2=BBT1482006.1.2.3.0,Phases=3,Linecode=BT108_BT107_7_3_1,Length=0.036684000,Units=km
new line.10397969 bus1=BBT3039534.1.2.3.0,bus2=BBT1482027.1.2.3.0,Phases=3,Linecode=BT803_BT803_4_3_4,Length=0.037721000,Units=km
new line.10066281 bus1=BBT2919995.1.2.3.0,bus2=BBT2920002.1.2.3.0,Phases=3,Linecode=BT809_BT809_4_3_4,Length=0.030899000,Units=km
new line.10067723 bus1=BBT2920401.1.2.3.0,bus2=BBT1469308.1.2.3.0,Phases=3,Linecode=BT803_BT803_4_3_4,Length=0.028801000,Units=km