new line.CTR104553 bus1=BMT101967399.1.2.3,bus2=BMT101967609.1.2.3,Phases=3,LineCode=tieSwitch,Length=0.001,Units=km,switch=T !numEQ 21994
new line.CTR111315 bus1=BMT101988980.1.2.3,bus2=BMT101988987.1.2.3,Phases=3,LineCode=tieSwitch,Length=0.001,Units=km,switch=T !numEQ 131652
new line.CTR12671 bus1=BMT101988812.1.2.3,bus2=BMT101988819.1.2.3,Phases=3,LineCode=tieSwitch,Length=0.001,Units=km,switch=T !numEQ 149496
new line.CTR133960 bus1=BMT171455065.1.2.3,bus2=BMT171455070.1.2.3,Phases=3,LineCode=tieSwitch,Length=0.001,Units=km,switch=T !numEQ 286244
new line.CTR142913 bus1=BMT101970836.1.2.3,bus2=BMT165704510.1.2.3,Phases=3,LineCode=tieSwitch,Length=0.001,Units=km,switch=T !numEQ 379698
new line.CTR150165 bus1=BMT151268388.1.2.3,bus2=BMT151268393.1.2.3,Phases=3,LineCode=tieSwitch,Length=0.001,Units=km,switch=T !numEQ 20583
new line.CTR179215 bus1=BMT174830827.2,bus2=BMT174830836.2,Phases=1,LineCode=tieSwitch1,Length=0.001,Units=km,switch=T !numEQ 22117
new line.CTR179257 bus1=BMT174830622.1.2.3,bus2=BMT174830623.1.2.3,Phases=3,LineCode=tieSwitch,Length=0.001,Units=km,switch=T !numEQ 149082
new line.CTR179432 bus1=BMT101960203.1.2.3,bus2=BMT101960217.1.2.3,Phases=3,LineCode=tieSwitch,Length=0.001,Units=km,switch=T !numEQ 149139
new line.CTR179684 bus1=BMT101960168.1.2.3,bus2=BMT101960252.1.2.3,Phases=3,LineCode=tieSwitch,Length=0.001,Units=km,switch=T !numEQ 149006
new line.CTR186453 bus1=BMT174830651.1.2.3,bus2=BMT175348687.1.2.3,Phases=3,LineCode=tieSwitch,Length=0.001,Units=km,switch=T !numEQ 149320
new line.CTR186677 bus1=BMT101978753.1.2.3,bus2=BMT101978851.1.2.3,Phases=3,LineCode=tieSwitch,Length=0.001,Units=km,switch=T !numEQ 150355
new line.CTR1870 bus1=BMT101973482.2,bus2=BMT164448592.2,Phases=1,LineCode=tieSwitch1,Length=0.001,Units=km,switch=T !numEQ 204573
new line.CTR187076 bus1=BMT101981595.1.2.3,bus2=BMT101981826.1.2.3,Phases=3,LineCode=tieSwitch,Length=0.001,Units=km,switch=T !numEQ 150407
new line.CTR187321 bus1=BMT170028070.3,bus2=BMT170028072.3,Phases=1,LineCode=tieSwitch1,Length=0.001,Units=km,switch=T !numEQ 140814
new line.CTR187979 bus1=BMT174831204.1.2.3,bus2=BMT174831277.1.2.3,Phases=3,LineCode=tieSwitch,Length=0.001,Units=km,switch=T !numEQ 149305
new line.CTR192207 bus1=BMT101967462.1.2.3,bus2=BMT151283938.1.2.3,Phases=3,LineCode=tieSwitch,Length=0.001,Units=km,switch=T !numEQ 104375
new line.CTR1933275 bus1=BMTSEGM#9666375.1.2.3,bus2=BMTSEGM#5799825.1.2.3,Phases=3,LineCode=tieSwitch,Length=0.001,Units=km,switch=T !numEQ 
new line.CTR1933327 bus1=BMTSEGM#9666635.1.2.3,bus2=BMTSEGM#5799981.1.2.3,Phases=3,LineCode=tieSwitch,Length=0.001,Units=km,switch=T !numEQ 
open line.CTR1933327 term=1
new line.CTR1933360 bus1=BMTSEGM#9666800.1.2.3,bus2=BMTSEGM#5800080.1.2.3,Phases=3,LineCode=tieSwitch,Length=0.001,Units=km,switch=T !numEQ 
open line.CTR1933360 term=1
new line.CTR1933399 bus1=BMTSEGM#9666995.1.2.3,bus2=BMTSEGM#5800197.1.2.3,Phases=3,LineCode=tieSwitch,Length=0.001,Units=km,switch=T !numEQ 
open line.CTR1933399 term=1
new line.CTR1933448 bus1=BMTSEGM#9667240.1.2.3,bus2=BMTSEGM#5800344.1.2.3,Phases=3,LineCode=tieSwitch,Length=0.001,Units=km,switch=T !numEQ 
open line.CTR1933448 term=1
new line.CTR1933491 bus1=BMTSEGM#9667455.1.2.3,bus2=BMTSEGM#5800473.1.2.3,Phases=3,LineCode=tieSwitch,Length=0.001,Units=km,switch=T !numEQ 
open line.CTR1933491 term=1
new line.CTR1933503 bus1=BMTSEGM#9667515.1.2.3,bus2=BMTSEGM#5800509.1.2.3,Phases=3,LineCode=tieSwitch,Length=0.001,Units=km,switch=T !numEQ 
new line.CTR1933599 bus1=BMTSEGM#9667995.1.2.3,bus2=BMTSEGM#5800797.1.2.3,Phases=3,LineCode=tieSwitch,Length=0.001,Units=km,switch=T !numEQ 
new line.CTR1933610 bus1=BMTSEGM#9668050.1.2.3,bus2=BMTSEGM#5800830.1.2.3,Phases=3,LineCode=tieSwitch,Length=0.001,Units=km,switch=T !numEQ 
new line.CTR1933711 bus1=BMTSEGM#9668555.1.2.3,bus2=BMTSEGM#5801133.1.2.3,Phases=3,LineCode=tieSwitch,Length=0.001,Units=km,switch=T !numEQ 
open line.CTR1933711 term=1
new line.CTR1933723 bus1=BMTSEGM#9668615.1.2.3,bus2=BMTSEGM#5801169.1.2.3,Phases=3,LineCode=tieSwitch,Length=0.001,Units=km,switch=T !numEQ 
open line.CTR1933723 term=1
new line.CTR1933740 bus1=BMTSEGM#9668700.1.2.3,bus2=BMTSEGM#5801220.1.2.3,Phases=3,LineCode=tieSwitch,Length=0.001,Units=km,switch=T !numEQ 
open line.CTR1933740 term=1
new line.CTR1933752 bus1=BMTSEGM#9668760.1.2.3,bus2=BMTSEGM#5801256.1.2.3,Phases=3,LineCode=tieSwitch,Length=0.001,Units=km,switch=T !numEQ 
open line.CTR1933752 term=1
new line.CTR1933758 bus1=BMTSEGM#9668790.1.2.3,bus2=BMTSEGM#5801274.1.2.3,Phases=3,LineCode=tieSwitch,Length=0.001,Units=km,switch=T !numEQ 
open line.CTR1933758 term=1
new line.CTR1933812 bus1=BMTSEGM#9669060.1.2.3,bus2=BMTSEGM#5801436.1.2.3,Phases=3,LineCode=tieSwitch,Length=0.001,Units=km,switch=T !numEQ 
new line.CTR1933824 bus1=BMTSEGM#9669120.1.2.3,bus2=BMTSEGM#5801472.1.2.3,Phases=3,LineCode=tieSwitch,Length=0.001,Units=km,switch=T !numEQ 
new line.CTR1933889 bus1=BMTSEGM#9669445.1.2.3,bus2=BMTSEGM#5801667.1.2.3,Phases=3,LineCode=tieSwitch,Length=0.001,Units=km,switch=T !numEQ 
new line.CTR1933901 bus1=BMTSEGM#9669505.1.2.3,bus2=BMTSEGM#5801703.1.2.3,Phases=3,LineCode=tieSwitch,Length=0.001,Units=km,switch=T !numEQ 
new line.CTR1933948 bus1=BMTSEGM#9669740.1.2.3,bus2=BMTSEGM#5801844.1.2.3,Phases=3,LineCode=tieSwitch,Length=0.001,Units=km,switch=T !numEQ 
new line.CTR1933959 bus1=BMTSEGM#9669795.1.2.3,bus2=BMTSEGM#5801877.1.2.3,Phases=3,LineCode=tieSwitch,Length=0.001,Units=km,switch=T !numEQ 
new line.CTR1934037 bus1=BMTSEGM#9670185.1.2.3,bus2=BMTSEGM#5802111.1.2.3,Phases=3,LineCode=tieSwitch,Length=0.001,Units=km,switch=T !numEQ 
new line.CTR1934120 bus1=BMTSEGM#9670600.1.2.3,bus2=BMTSEGM#5802360.1.2.3,Phases=3,LineCode=tieSwitch,Length=0.001,Units=km,switch=T !numEQ 
new line.CTR1934174 bus1=BMTSEGM#9670870.1.2.3,bus2=BMTSEGM#5802522.1.2.3,Phases=3,LineCode=tieSwitch,Length=0.001,Units=km,switch=T !numEQ 
new line.CTR1934214 bus1=BMTSEGM#9671070.1.2.3,bus2=BMTSEGM#5802642.1.2.3,Phases=3,LineCode=tieSwitch,Length=0.001,Units=km,switch=T !numEQ 
new line.CTR1934235 bus1=BMTSEGM#9671175.1.2.3,bus2=BMTSEGM#5802705.1.2.3,Phases=3,LineCode=tieSwitch,Length=0.001,Units=km,switch=T !numEQ 
new line.CTR1934262 bus1=BMTSEGM#9671310.1.2.3,bus2=BMTSEGM#5802786.1.2.3,Phases=3,LineCode=tieSwitch,Length=0.001,Units=km,switch=T !numEQ 
new line.CTR1934304 bus1=BMTSEGM#9671520.1.2.3,bus2=BMTSEGM#5802912.1.2.3,Phases=3,LineCode=tieSwitch,Length=0.001,Units=km,switch=T !numEQ 
new line.CTR1934332 bus1=BMTSEGM#9671660.1.2.3,bus2=BMTSEGM#5802996.1.2.3,Phases=3,LineCode=tieSwitch,Length=0.001,Units=km,switch=T !numEQ 
new line.CTR112232 bus1=BMT151268358.1.2.3,bus2=BMT151268379.1.2.3,Phases=3,LineCode=tieSwitch,Length=0.001,Units=km,switch=T !numEQ 21304
new line.CTR118056 bus1=BMT101976142.1.2.3,bus2=BMT175944561.1.2.3,Phases=3,LineCode=tieSwitch,Length=0.001,Units=km,switch=T !numEQ 6869
new line.CTR118539 bus1=BMT101959237.1.2.3,bus2=BMT101960532.1.2.3,Phases=3,LineCode=tieSwitch,Length=0.001,Units=km,switch=T !numEQ 126715
new line.CTR122515 bus1=BMT174830691.1.2.3,bus2=BMT174830692.1.2.3,Phases=3,LineCode=tieSwitch,Length=0.001,Units=km,switch=T !numEQ 142606
new line.CTR131447 bus1=BMT151268337.1.2.3,bus2=BMT151268348.1.2.3,Phases=3,LineCode=tieSwitch,Length=0.001,Units=km,switch=T !numEQ 127610
new line.CTR131517 bus1=BMT101974014.1.2.3,bus2=BMT101974021.1.2.3,Phases=3,LineCode=tieSwitch,Length=0.001,Units=km,switch=T !numEQ 112667
new line.CTR145405 bus1=BMT101976261.1.2.3,bus2=BMT101976331.1.2.3,Phases=3,LineCode=tieSwitch,Length=0.001,Units=km,switch=T !numEQ 22009
new line.CTR159965 bus1=BMT151268213.1.2.3,bus2=BMT164593757.1.2.3,Phases=3,LineCode=tieSwitch,Length=0.001,Units=km,switch=T !numEQ 205824
new line.CTR159993 bus1=BMT151268199.1.2.3,bus2=BMT151268496.1.2.3,Phases=3,LineCode=tieSwitch,Length=0.001,Units=km,switch=T !numEQ 206470
new line.CTR160063 bus1=BMT101972579.1.2.3,bus2=BMT176679930.1.2.3,Phases=3,LineCode=tieSwitch,Length=0.001,Units=km,switch=T !numEQ 21036
new line.CTR160112 bus1=BMT101973013.1,bus2=BMT101973664.1,Phases=1,LineCode=tieSwitch1,Length=0.001,Units=km,switch=T !numEQ 20415
new line.CTR160140 bus1=BMT101973062.1.2.3,bus2=BMT101973090.1.2.3,Phases=3,LineCode=tieSwitch,Length=0.001,Units=km,switch=T !numEQ 20513
new line.CTR160161 bus1=BMT101974931.2,bus2=BMT163004382.2,Phases=1,LineCode=tieSwitch1,Length=0.001,Units=km,switch=T !numEQ 20724
new line.CTR160189 bus1=BMT101979712.1.2.3,bus2=BMT101979803.1.2.3,Phases=3,LineCode=tieSwitch,Length=0.001,Units=km,switch=T !numEQ 226103
new line.CTR160217 bus1=BMT101979691.1.2.3,bus2=BMT101979866.1.2.3,Phases=3,LineCode=tieSwitch,Length=0.001,Units=km,switch=T !numEQ 20117
new line.CTR160266 bus1=BMT101980132.3,bus2=BMT101980356.3,Phases=1,LineCode=tieSwitch1,Length=0.001,Units=km,switch=T !numEQ 21209
new line.CTR160294 bus1=BMT101980076.1.2.3,bus2=BMT101981399.1.2.3,Phases=3,LineCode=tieSwitch,Length=0.001,Units=km,switch=T !numEQ 205753
new line.CTR160315 bus1=BMT101976751.1,bus2=BMT101976828.1,Phases=1,LineCode=tieSwitch1,Length=0.001,Units=km,switch=T !numEQ 20231
new line.CTR160497 bus1=BMT176171091.1.2.3,bus2=BMT174315788.1.2.3,Phases=3,LineCode=tieSwitch,Length=0.001,Units=km,switch=T !numEQ 151594
open line.CTR160497 term=1
new line.CTR160553 bus1=BMT101986334.1.2.3,bus2=BMT101986341.1.2.3,Phases=3,LineCode=tieSwitch,Length=0.001,Units=km,switch=T !numEQ 21171
new line.CTR160609 bus1=BMT101986474.1.2.3,bus2=BMT101986481.1.2.3,Phases=3,LineCode=tieSwitch,Length=0.001,Units=km,switch=T !numEQ 21120
new line.CTR160707 bus1=BMT101980860.1.2.3,bus2=BMT101981343.1.2.3,Phases=3,LineCode=tieSwitch,Length=0.001,Units=km,switch=T !numEQ 22139
new line.CTR161239 bus1=BMT101976114.1.2.3,bus2=BMT101976422.1.2.3,Phases=3,LineCode=tieSwitch,Length=0.001,Units=km,switch=T !numEQ 5730
new line.CTR161295 bus1=BMT151268428.1.2.3,bus2=BMT151524490.1.2.3,Phases=3,LineCode=tieSwitch,Length=0.001,Units=km,switch=T !numEQ 20660
new line.CTR161323 bus1=BMT151268449.1.2.3,bus2=BMT151268456.1.2.3,Phases=3,LineCode=tieSwitch,Length=0.001,Units=km,switch=T !numEQ 304266
new line.CTR161351 bus1=BMT151268468.1.2.3,bus2=BMT151268474.1.2.3,Phases=3,LineCode=tieSwitch,Length=0.001,Units=km,switch=T !numEQ 20762
new line.CTR161393 bus1=BMT136594390.1.2.3,bus2=BMT155637685.1.2.3,Phases=3,LineCode=tieSwitch,Length=0.001,Units=km,switch=T !numEQ 149948
new line.CTR161477 bus1=BMT101979537.1.2.3,bus2=BMT163321702.1.2.3,Phases=3,LineCode=tieSwitch,Length=0.001,Units=km,switch=T !numEQ 22141
new line.CTR168393 bus1=BMT101980846.1,bus2=BMT155379948.1,Phases=1,LineCode=tieSwitch1,Length=0.001,Units=km,switch=T !numEQ 22042
new line.CTR168743 bus1=BMT101971872.1.2.3,bus2=BMT101973986.1.2.3,Phases=3,LineCode=tieSwitch,Length=0.001,Units=km,switch=T !numEQ 21328
new line.CTR168813 bus1=BMT151268450.1.2.3,bus2=BMT151268461.1.2.3,Phases=3,LineCode=tieSwitch,Length=0.001,Units=km,switch=T !numEQ 304267
new line.CTR169317 bus1=BMT174830574.1.2.3,bus2=BMT174830576.1.2.3,Phases=3,LineCode=tieSwitch,Length=0.001,Units=km,switch=T !numEQ 192876
new line.CTR177717 bus1=BMT101971865.1.2.3,bus2=BMT157792803.1.2.3,Phases=3,LineCode=tieSwitch,Length=0.001,Units=km,switch=T !numEQ 115405
new line.CTR177759 bus1=BMT101965418.3,bus2=BMT101966384.3,Phases=1,LineCode=tieSwitch1,Length=0.001,Units=km,switch=T !numEQ 22085
new line.CTR178130 bus1=BMT174830566.1.2.3,bus2=BMT174830570.1.2.3,Phases=3,LineCode=tieSwitch,Length=0.001,Units=km,switch=T !numEQ 101069
new line.CTR178291 bus1=BMT101973132.1.2.3,bus2=BMT101973391.1.2.3,Phases=3,LineCode=tieSwitch,Length=0.001,Units=km,switch=T !numEQ 111987
new line.CTR18453 bus1=BMT101966503.2,bus2=BMT150867674.2,Phases=1,LineCode=tieSwitch1,Length=0.001,Units=km,switch=T !numEQ 148872
new line.CTR185011 bus1=BMT151268137.1.2.3,bus2=BMT151268138.1.2.3,Phases=3,LineCode=tieSwitch,Length=0.001,Units=km,switch=T !numEQ 20228
new line.CTR185599 bus1=BMT101975988.1.2.3,bus2=BMT161106883.1.2.3,Phases=3,LineCode=tieSwitch,Length=0.001,Units=km,switch=T !numEQ 147743
new line.CTR185823 bus1=BMT101980867.1.2.3,bus2=BMT101981203.1.2.3,Phases=3,LineCode=tieSwitch,Length=0.001,Units=km,switch=T !numEQ 140237
new line.CTR193943 bus1=BMT148733031.1.2.3,bus2=BMT4230626.1.2.3,Phases=3,LineCode=tieSwitch,Length=0.001,Units=km,switch=T !numEQ 150094
open line.CTR193943 term=1
new line.CTR194293 bus1=BMT101982232.1.2.3,bus2=BMT101982239.1.2.3,Phases=3,LineCode=tieSwitch,Length=0.001,Units=km,switch=T !numEQ 21033
new line.CTR194475 bus1=BMT174830790.1.2.3,bus2=BMT174830791.1.2.3,Phases=3,LineCode=tieSwitch,Length=0.001,Units=km,switch=T !numEQ 193023
open line.CTR194475 term=1
new line.CTR199739 bus1=BMT150341587.1.2.3,bus2=BMT101960336.1.2.3,Phases=3,LineCode=tieSwitch,Length=0.001,Units=km,switch=T !numEQ 149370
new line.CTR199753 bus1=BMT101960287.1.2.3,bus2=BMT150341582.1.2.3,Phases=3,LineCode=tieSwitch,Length=0.001,Units=km,switch=T !numEQ 149369
new line.CTR200873 bus1=BMT174830635.1.2.3,bus2=BMT174830636.1.2.3,Phases=3,LineCode=tieSwitch,Length=0.001,Units=km,switch=T !numEQ 21040
new line.CTR207691 bus1=BMT101959930.1.2.3,bus2=BMT172955430.1.2.3,Phases=3,LineCode=tieSwitch,Length=0.001,Units=km,switch=T !numEQ 20022
new line.CTR100815 bus1=BMT101980279.3,bus2=BMT159466338.3,Phases=1,LineCode=tieSwitch1,Length=0.001,Units=km,switch=T !numEQ 22113
new line.CTR101067 bus1=BMT101979453.1,bus2=BMT101979509.1,Phases=1,LineCode=tieSwitch1,Length=0.001,Units=km,switch=T !numEQ 22032
new line.CTR119995 bus1=BMT166799706.1.2.3,bus2=BMT101959090.1.2.3,Phases=3,LineCode=tieSwitch,Length=0.001,Units=km,switch=T !numEQ 21098
new line.CTR124335 bus1=BMT101965544.3,bus2=BMT101966020.3,Phases=1,LineCode=tieSwitch1,Length=0.001,Units=km,switch=T !numEQ 22219
new line.CTR143739 bus1=BMT101967406.1.2.3,bus2=BMT165121533.1.2.3,Phases=3,LineCode=tieSwitch,Length=0.001,Units=km,switch=T !numEQ 104374
new line.CTR151579 bus1=BMT101978998.1.2.3,bus2=BMT4018274.1.2.3,Phases=3,LineCode=tieSwitch,Length=0.001,Units=km,switch=T !numEQ 20250
open line.CTR151579 term=1
new line.CTR159447 bus1=BMT101958803.1.2.3,bus2=BMT150844048.1.2.3,Phases=3,LineCode=tieSwitch,Length=0.001,Units=km,switch=T !numEQ 20306
new line.CTR159531 bus1=BMT101961288.1.2.3,bus2=BMT101961358.1.2.3,Phases=3,LineCode=tieSwitch,Length=0.001,Units=km,switch=T !numEQ 20189
new line.CTR159783 bus1=BMT151268120.1.2.3,bus2=BMT151268569.1.2.3,Phases=3,LineCode=tieSwitch,Length=0.001,Units=km,switch=T !numEQ 21067
new line.CTR159811 bus1=BMT2833776.1.2.3,bus2=BMT169136221.1.2.3,Phases=3,LineCode=tieSwitch,Length=0.001,Units=km,switch=T !numEQ 20351
new line.CTR159839 bus1=BMT151648175.1.2.3,bus2=BMT151648190.1.2.3,Phases=3,LineCode=tieSwitch,Length=0.001,Units=km,switch=T !numEQ 381035
new line.CTR159881 bus1=BMT151268227.1.2.3,bus2=BMT151268255.1.2.3,Phases=3,LineCode=tieSwitch,Length=0.001,Units=km,switch=T !numEQ 205820
new line.CTR159909 bus1=BMT151268219.1.2.3,bus2=BMT151268240.1.2.3,Phases=3,LineCode=tieSwitch,Length=0.001,Units=km,switch=T !numEQ 205821
new line.CTR159937 bus1=BMT151268216.1.2.3,bus2=BMT164594474.1.2.3,Phases=3,LineCode=tieSwitch,Length=0.001,Units=km,switch=T !numEQ 205823
new line.CTR166363 bus1=BMT101975379.1.2.3,bus2=BMT101975757.1.2.3,Phases=3,LineCode=tieSwitch,Length=0.001,Units=km,switch=T !numEQ 21319
new line.CTR166433 bus1=BMT151268382.1.2.3,bus2=BMT151268395.1.2.3,Phases=3,LineCode=tieSwitch,Length=0.001,Units=km,switch=T !numEQ 20578
new line.CTR169625 bus1=BMT101989162.1.2.3,bus2=BMT149008731.1.2.3,Phases=3,LineCode=tieSwitch,Length=0.001,Units=km,switch=T !numEQ 21143
new line.CTR169877 bus1=BMT101966958.1.2.3,bus2=BMT158866110.1.2.3,Phases=3,LineCode=tieSwitch,Length=0.001,Units=km,switch=T !numEQ 382414
new line.CTR170423 bus1=BMT101972467.1.2.3,bus2=BMT101972474.1.2.3,Phases=3,LineCode=tieSwitch,Length=0.001,Units=km,switch=T !numEQ 20589
new line.CTR171109 bus1=BMT153209238.2,bus2=BMT153209240.2,Phases=1,LineCode=tieSwitch1,Length=0.001,Units=km,switch=T !numEQ 382400
new line.CTR175218 bus1=BMT101959139.1.2.3,bus2=BMT101959188.1.2.3,Phases=3,LineCode=tieSwitch,Length=0.001,Units=km,switch=T !numEQ 150336
new line.CTR17571 bus1=BMT101988525.1.2.3,bus2=BMT150341663.1.2.3,Phases=3,LineCode=tieSwitch,Length=0.001,Units=km,switch=T !numEQ 149438
new line.CTR175841 bus1=BMT174830571.1.2.3,bus2=BMT174830578.1.2.3,Phases=3,LineCode=tieSwitch,Length=0.001,Units=km,switch=T !numEQ 22121
new line.CTR175939 bus1=BMT101959517.1.2.3,bus2=BMT101959776.1.2.3,Phases=3,LineCode=tieSwitch,Length=0.001,Units=km,switch=T !numEQ 20759
new line.CTR17599 bus1=BMT152266362.1.2.3,bus2=BMT151268195.1.2.3,Phases=3,LineCode=tieSwitch,Length=0.001,Units=km,switch=T !numEQ 149339
new line.CTR176009 bus1=BMT101961827.1.2.3,bus2=BMT148733029.1.2.3,Phases=3,LineCode=tieSwitch,Length=0.001,Units=km,switch=T !numEQ 21989
new line.CTR17627 bus1=BMT152266358.1.2.3,bus2=BMT169509661.1.2.3,Phases=3,LineCode=tieSwitch,Length=0.001,Units=km,switch=T !numEQ 149340
new line.CTR181035 bus1=BMT151268329.1.2.3,bus2=BMT173823370.1.2.3,Phases=3,LineCode=tieSwitch,Length=0.001,Units=km,switch=T !numEQ 21942
new line.CTR181448 bus1=BMT174830610.1.2.3,bus2=BMT174830611.1.2.3,Phases=3,LineCode=tieSwitch,Length=0.001,Units=km,switch=T !numEQ 149080
new line.CTR189463 bus1=BMT151268127.1.2.3,bus2=BMT151268128.1.2.3,Phases=3,LineCode=tieSwitch,Length=0.001,Units=km,switch=T !numEQ 20352
new line.CTR197674 bus1=BMT101967483.1.2.3,bus2=BMT101967518.1.2.3,Phases=3,LineCode=tieSwitch,Length=0.001,Units=km,switch=T !numEQ 150683
new line.CTR198038 bus1=BMT101987111.1.2.3,bus2=BMT150341656.1.2.3,Phases=3,LineCode=tieSwitch,Length=0.001,Units=km,switch=T !numEQ 150902
new line.CTR212080 bus1=BMT101958040.1.2.3,bus2=BMT150341571.1.2.3,Phases=3,LineCode=tieSwitch,Length=0.001,Units=km,switch=T !numEQ 20323
new line.CTR212094 bus1=BMT101958845.1.2.3,bus2=BMT101958852.1.2.3,Phases=3,LineCode=tieSwitch,Length=0.001,Units=km,switch=T !numEQ 20103
new line.CTR212318 bus1=BMT101971879.1.2.3,bus2=BMT101973972.1.2.3,Phases=3,LineCode=tieSwitch,Length=0.001,Units=km,switch=T !numEQ 21327
new line.CTR212556 bus1=BMT101957746.1.2.3,bus2=BMT101961512.1.2.3,Phases=3,LineCode=tieSwitch,Length=0.001,Units=km,switch=T !numEQ 100566
new line.CTR212633 bus1=BMT101958551.1.2.3,bus2=BMT101958558.1.2.3,Phases=3,LineCode=tieSwitch,Length=0.001,Units=km,switch=T !numEQ 20060
new line.CTR212738 bus1=BMT150844896.1.2.3,bus2=BMT4015509.1.2.3,Phases=3,LineCode=tieSwitch,Length=0.001,Units=km,switch=T !numEQ 20247
open line.CTR212738 term=1
new line.CTR212850 bus1=BMT151268301.1.2.3,bus2=BMT151268416.1.2.3,Phases=3,LineCode=tieSwitch,Length=0.001,Units=km,switch=T !numEQ 100558
new line.CTR213116 bus1=BMT174830582.1.2.3,bus2=BMT174830586.1.2.3,Phases=3,LineCode=tieSwitch,Length=0.001,Units=km,switch=T !numEQ 20460
new line.CTR225940 bus1=BMT104068386.1.2.3,bus2=BMT164303720.1.2.3,Phases=3,LineCode=tieSwitch,Length=0.001,Units=km,switch=T !numEQ 382372
new line.CTR22625 bus1=BMT101975253.1.2.3,bus2=BMT162441245.1.2.3,Phases=3,LineCode=tieSwitch,Length=0.001,Units=km,switch=T !numEQ 149411
new line.CTR227305 bus1=BMT101978606.1.2.3,bus2=BMT171377423.1.2.3,Phases=3,LineCode=tieSwitch,Length=0.001,Units=km,switch=T !numEQ 20333
new line.CTR228145 bus1=BMT101979593.1.2.3,bus2=BMT165083861.1.2.3,Phases=3,LineCode=tieSwitch,Length=0.001,Units=km,switch=T !numEQ 21068
new line.CTR228173 bus1=BMT101976730.1.2.3,bus2=BMT101976856.1.2.3,Phases=3,LineCode=tieSwitch,Length=0.001,Units=km,switch=T !numEQ 20129
new line.CTR22849 bus1=BMT101965208.2,bus2=BMT153266805.2,Phases=1,LineCode=tieSwitch1,Length=0.001,Units=km,switch=T !numEQ 149542
new line.CTR239072 bus1=BMT151268275.1.2.3,bus2=BMT3989350.1.2.3,Phases=3,LineCode=tieSwitch,Length=0.001,Units=km,switch=T !numEQ 102561
open line.CTR239072 term=1
new line.CTR108487 bus1=BMT101986551.1.2.3,bus2=BMT150341642.1.2.3,Phases=3,LineCode=tieSwitch,Length=0.001,Units=km,switch=T !numEQ 20079
new line.CTR109089 bus1=BMT101961932.1.2.3,bus2=BMT150950787.1.2.3,Phases=3,LineCode=tieSwitch,Length=0.001,Units=km,switch=T !numEQ 141256
new line.CTR115102 bus1=BMT101978340.1.2.3,bus2=BMT117699290.1.2.3,Phases=3,LineCode=tieSwitch,Length=0.001,Units=km,switch=T !numEQ 22027
new line.CTR120919 bus1=BMT151268424.1.2.3,bus2=BMT163226568.1.2.3,Phases=3,LineCode=tieSwitch,Length=0.001,Units=km,switch=T !numEQ 20177
new line.CTR120975 bus1=BMT101986950.1.2.3,bus2=BMT101986957.1.2.3,Phases=3,LineCode=tieSwitch,Length=0.001,Units=km,switch=T !numEQ 21227
new line.CTR121437 bus1=BMT174830608.1.2.3,bus2=BMT174830619.1.2.3,Phases=3,LineCode=tieSwitch,Length=0.001,Units=km,switch=T !numEQ 149081
new line.CTR122193 bus1=BMT101959027.1.2.3,bus2=BMT101960546.1.2.3,Phases=3,LineCode=tieSwitch,Length=0.001,Units=km,switch=T !numEQ 21365
new line.CTR147533 bus1=BMT104064928.1,bus2=BMT104064984.1,Phases=1,LineCode=tieSwitch1,Length=0.001,Units=km,switch=T !numEQ 128452
new line.CTR147995 bus1=BMT160576497.1.2.3,bus2=BMT101971025.1.2.3,Phases=3,LineCode=tieSwitch,Length=0.001,Units=km,switch=T !numEQ 100542
open line.CTR147995 term=1
new line.CTR148289 bus1=BMT151268224.1.2.3,bus2=BMT151268488.1.2.3,Phases=3,LineCode=tieSwitch,Length=0.001,Units=km,switch=T !numEQ 205817
new line.CTR174049 bus1=BMT101959902.1.2.3,bus2=BMT101960280.1.2.3,Phases=3,LineCode=tieSwitch,Length=0.001,Units=km,switch=T !numEQ 135747
new line.CTR191731 bus1=BMT101981679.1.2.3,bus2=BMT163700494.1.2.3,Phases=3,LineCode=tieSwitch,Length=0.001,Units=km,switch=T !numEQ 205760
new line.CTR192088 bus1=BMT138059322.1.2.3,bus2=BMT138059343.1.2.3,Phases=3,LineCode=tieSwitch,Length=0.001,Units=km,switch=T !numEQ 286198
new line.CTR195427 bus1=BMT152847549.1.2.3,bus2=BMT4022922.1.2.3,Phases=3,LineCode=tieSwitch,Length=0.001,Units=km,switch=T !numEQ 20145
open line.CTR195427 term=1
new line.CTR195637 bus1=BMT101964172.1,bus2=BMT168331812.1,Phases=1,LineCode=tieSwitch1,Length=0.001,Units=km,switch=T !numEQ 128458
new line.CTR196176 bus1=BMT151268133.1.2.3,bus2=BMT151268555.1.2.3,Phases=3,LineCode=tieSwitch,Length=0.001,Units=km,switch=T !numEQ 134837
new line.CTR202224 bus1=BMT101959209.1.2.3,bus2=BMT101959251.1.2.3,Phases=3,LineCode=tieSwitch,Length=0.001,Units=km,switch=T !numEQ 20561
new line.CTR203610 bus1=BMT174830799.1.2.3,bus2=BMT175867459.1.2.3,Phases=3,LineCode=tieSwitch,Length=0.001,Units=km,switch=T !numEQ 149063
new line.CTR203869 bus1=BMT174830826.2,bus2=BMT174830830.2,Phases=1,LineCode=tieSwitch1,Length=0.001,Units=km,switch=T !numEQ 149114
new line.CTR209168 bus1=BMT101960777.1.2.3,bus2=BMT101960826.1.2.3,Phases=3,LineCode=tieSwitch,Length=0.001,Units=km,switch=T !numEQ 22149
new line.CTR209182 bus1=BMT101977514.1.2.3,bus2=BMT101977542.1.2.3,Phases=3,LineCode=tieSwitch,Length=0.001,Units=km,switch=T !numEQ 22131
new line.CTR209203 bus1=BMT101987587.3,bus2=BMT101987741.3,Phases=1,LineCode=tieSwitch1,Length=0.001,Units=km,switch=T !numEQ 22145
new line.CTR209315 bus1=BMT174830697.1.2.3,bus2=BMT174830698.1.2.3,Phases=3,LineCode=tieSwitch,Length=0.001,Units=km,switch=T !numEQ 146327
new line.CTR209525 bus1=BMT101958908.1.2.3,bus2=BMT101961127.1.2.3,Phases=3,LineCode=tieSwitch,Length=0.001,Units=km,switch=T !numEQ 22152
new line.CTR209602 bus1=BMT101961960.1.2.3,bus2=BMT101967350.1.2.3,Phases=3,LineCode=tieSwitch,Length=0.001,Units=km,switch=T !numEQ 195309
new line.CTR209644 bus1=BMT101976891.1.2.3,bus2=BMT101976912.1.2.3,Phases=3,LineCode=tieSwitch,Length=0.001,Units=km,switch=T !numEQ 22041
new line.CTR209665 bus1=BMT101977031.1.2.3,bus2=BMT101977556.1.2.3,Phases=3,LineCode=tieSwitch,Length=0.001,Units=km,switch=T !numEQ 149507
new line.CTR210057 bus1=BMT101986712.1.2.3,bus2=BMT2961946.1.2.3,Phases=3,LineCode=tieSwitch,Length=0.001,Units=km,switch=T !numEQ 20077
open line.CTR210057 term=1
new line.CTR210519 bus1=BMT101960854.1.2.3,bus2=BMT158443676.1.2.3,Phases=3,LineCode=tieSwitch,Length=0.001,Units=km,switch=T !numEQ 11011
new line.CTR210974 bus1=BMT101966965.1.2.3,bus2=BMT158883969.1.2.3,Phases=3,LineCode=tieSwitch,Length=0.001,Units=km,switch=T !numEQ 226238
new line.CTR211093 bus1=BMT101973020.1.2.3,bus2=BMT101973678.1.2.3,Phases=3,LineCode=tieSwitch,Length=0.001,Units=km,switch=T !numEQ 22044
new line.CTR211212 bus1=BMT151268262.1.2.3,bus2=BMT151268484.1.2.3,Phases=3,LineCode=tieSwitch,Length=0.001,Units=km,switch=T !numEQ 205819
new line.CTR223707 bus1=BMT159237252.1.2.3,bus2=BMT160063551.1.2.3,Phases=3,LineCode=tieSwitch,Length=0.001,Units=km,switch=T !numEQ 138469
new line.CTR223945 bus1=BMT101960476.1.2.3,bus2=BMT101960504.1.2.3,Phases=3,LineCode=tieSwitch,Length=0.001,Units=km,switch=T !numEQ 128105
new line.CTR22569 bus1=BMT101986656.1.2.3,bus2=BMT150341665.1.2.3,Phases=3,LineCode=tieSwitch,Length=0.001,Units=km,switch=T !numEQ 106225
new line.CTR234921 bus1=BMT151268087.1.2.3,bus2=BMT151268088.1.2.3,Phases=3,LineCode=tieSwitch,Length=0.001,Units=km,switch=T !numEQ 21169
new line.CTR235327 bus1=BMT173910188.1.2.3,bus2=BMT101980902.1.2.3,Phases=3,LineCode=tieSwitch,Length=0.001,Units=km,switch=T !numEQ 22006
new line.CTR236146 bus1=BMT101977843.3,bus2=BMT163890813.3,Phases=1,LineCode=tieSwitch1,Length=0.001,Units=km,switch=T !numEQ 112011
new line.CTR240955 bus1=BMT101965516.2,bus2=BMT101966041.2,Phases=1,LineCode=tieSwitch1,Length=0.001,Units=km,switch=T !numEQ 22086
new line.CTR243174 bus1=BMT101958943.1.2.3,bus2=BMT150341578.1.2.3,Phases=3,LineCode=tieSwitch,Length=0.001,Units=km,switch=T !numEQ 20551
new line.CTR249537 bus1=BMT101976086.2,bus2=BMT101976583.2,Phases=1,LineCode=tieSwitch1,Length=0.001,Units=km,switch=T !numEQ 2087
new line.CTR249579 bus1=BMT173556421.1.2.3,bus2=BMT101980111.1.2.3,Phases=3,LineCode=tieSwitch,Length=0.001,Units=km,switch=T !numEQ 22003
new line.CTR250608 bus1=BMT174830583.1.2.3,bus2=BMT174830584.1.2.3,Phases=3,LineCode=tieSwitch,Length=0.001,Units=km,switch=T !numEQ 20437
new line.CTR252113 bus1=BMT101964984.1,bus2=BMT101964998.1,Phases=1,LineCode=tieSwitch1,Length=0.001,Units=km,switch=T !numEQ 149541
new line.CTR268290 bus1=BMT101961820.1.2.3,bus2=BMT101967686.1.2.3,Phases=3,LineCode=tieSwitch,Length=0.001,Units=km,switch=T !numEQ 22220
new line.CTR270054 bus1=BMT174830693.1.2.3,bus2=BMT174830748.1.2.3,Phases=3,LineCode=tieSwitch,Length=0.001,Units=km,switch=T !numEQ 20065
new line.CTR276662 bus1=BMT101961974.1.2.3,bus2=BMT101967336.1.2.3,Phases=3,LineCode=tieSwitch,Length=0.001,Units=km,switch=T !numEQ 149930
new line.CTR207747 bus1=BMT101980958.1,bus2=BMT101981056.1,Phases=1,LineCode=tieSwitch1,Length=0.001,Units=km,switch=T !numEQ 10807
new line.CTR208139 bus1=BMT101962555.1.2.3,bus2=BMT176665614.1.2.3,Phases=3,LineCode=tieSwitch,Length=0.001,Units=km,switch=T !numEQ 230061
new line.CTR208790 bus1=BMT101986691.1.2.3,bus2=BMT159684516.1.2.3,Phases=3,LineCode=tieSwitch,Length=0.001,Units=km,switch=T !numEQ 192877
new line.CTR208804 bus1=BMT101958929.1.2.3,bus2=BMT101961106.1.2.3,Phases=3,LineCode=tieSwitch,Length=0.001,Units=km,switch=T !numEQ 20393
new line.CTR209014 bus1=BMT162175425.1.2.3,bus2=BMT101962814.1.2.3,Phases=3,LineCode=tieSwitch,Length=0.001,Units=km,switch=T !numEQ 304268
open line.CTR209014 term=1
new line.CTR209077 bus1=BMT161355735.1.2.3,bus2=BMT151670309.1.2.3,Phases=3,LineCode=tieSwitch,Length=0.001,Units=km,switch=T !numEQ 299189
new line.CTR220067 bus1=BMT101980125.1.2.3,bus2=BMT163712305.1.2.3,Phases=3,LineCode=tieSwitch,Length=0.001,Units=km,switch=T !numEQ 21186
new line.CTR220130 bus1=BMT101973041.1.2.3,bus2=BMT168129907.1.2.3,Phases=3,LineCode=tieSwitch,Length=0.001,Units=km,switch=T !numEQ 20512
new line.CTR220144 bus1=BMT101973076.2,bus2=BMT174795074.2,Phases=1,LineCode=tieSwitch1,Length=0.001,Units=km,switch=T !numEQ 21081
new line.CTR220172 bus1=BMT170370014.1.2.3,bus2=BMT2834266.1.2.3,Phases=3,LineCode=tieSwitch,Length=0.001,Units=km,switch=T !numEQ 20855
open line.CTR220172 term=1
new line.CTR220186 bus1=BMT101971536.1.2.3,bus2=BMT101971606.1.2.3,Phases=3,LineCode=tieSwitch,Length=0.001,Units=km,switch=T !numEQ 20034
new line.CTR220214 bus1=BMT101978354.1.2.3,bus2=BMT101978480.1.2.3,Phases=3,LineCode=tieSwitch,Length=0.001,Units=km,switch=T !numEQ 21042
new line.CTR220263 bus1=BMT101970899.1.2.3,bus2=BMT165453590.1.2.3,Phases=3,LineCode=tieSwitch,Length=0.001,Units=km,switch=T !numEQ 379704
new line.CTR220277 bus1=BMT101970920.1.2.3,bus2=BMT165704751.1.2.3,Phases=3,LineCode=tieSwitch,Length=0.001,Units=km,switch=T !numEQ 379710
new line.CTR220333 bus1=BMT167191399.1.2.3,bus2=BMT4017462.1.2.3,Phases=3,LineCode=tieSwitch,Length=0.001,Units=km,switch=T !numEQ 20236
open line.CTR220333 term=1
new line.CTR220347 bus1=BMT101971900.1.2.3,bus2=BMT165796024.1.2.3,Phases=3,LineCode=tieSwitch,Length=0.001,Units=km,switch=T !numEQ 286196
new line.CTR220361 bus1=BMT101971368.1.2.3,bus2=BMT101971375.1.2.3,Phases=3,LineCode=tieSwitch,Length=0.001,Units=km,switch=T !numEQ 20730
new line.CTR220382 bus1=BMT101958306.1.2.3,bus2=BMT101958320.1.2.3,Phases=3,LineCode=tieSwitch,Length=0.001,Units=km,switch=T !numEQ 21016
new line.CTR220396 bus1=BMT151268309.1.2.3,bus2=BMT169957123.1.2.3,Phases=3,LineCode=tieSwitch,Length=0.001,Units=km,switch=T !numEQ 20603
new line.CTR220410 bus1=BMT151268317.1.2.3,bus2=BMT151268335.1.2.3,Phases=3,LineCode=tieSwitch,Length=0.001,Units=km,switch=T !numEQ 20572
new line.CTR220424 bus1=BMT151268342.1.2.3,bus2=BMT151268344.1.2.3,Phases=3,LineCode=tieSwitch,Length=0.001,Units=km,switch=T !numEQ 20702
new line.CTR220522 bus1=BMT101959293.1.2.3,bus2=BMT163225634.1.2.3,Phases=3,LineCode=tieSwitch,Length=0.001,Units=km,switch=T !numEQ 102585
new line.CTR220536 bus1=BMT101959531.1.2.3,bus2=BMT101959636.1.2.3,Phases=3,LineCode=tieSwitch,Length=0.001,Units=km,switch=T !numEQ 20212
new line.CTR220550 bus1=BMT101963808.1.2.3,bus2=BMT101967308.1.2.3,Phases=3,LineCode=tieSwitch,Length=0.001,Units=km,switch=T !numEQ 21245
new line.CTR220627 bus1=BMT151268119.1.2.3,bus2=BMT151268571.1.2.3,Phases=3,LineCode=tieSwitch,Length=0.001,Units=km,switch=T !numEQ 20582