new line.TR10085706 bus1=BMT6149607B.1.2.3,bus2=BMT101967371.1.2.3,Phases=3,Linecode=CABA06_3_3,Length=0.049175000,Units=km
new line.TR10085713 bus1=BMT101967371.1.2.3,bus2=BMT101967378.1.2.3,Phases=3,Linecode=CAB102_3_3,Length=0.045618000,Units=km
new line.TR10090753 bus1=BMT151268514.1.2.3,bus2=BMT151268515.1.2.3,Phases=3,Linecode=CAB103_3_3,Length=0.048881000,Units=km
new line.TR10096262 bus1=BMT6169970B.1.2.3,bus2=BMT6169977B.1.2.3,Phases=3,Linecode=CABA08_3_3,Length=0.027007000,Units=km
new line.TR10096269 bus1=BMT6169977B.1.2.3,bus2=BMT6169998B.1.2.3,Phases=3,Linecode=CABA08_3_3,Length=0.035350000,Units=km
new line.TR10096276 bus1=BMT174831198.2,bus2=BMT3301523B.2,Phases=1,Linecode=CAB202_3_1,Length=0.097030000,Units=km
new line.TR10096283 bus1=BMT174831186.1.2.3,bus2=BMT174831185.1.2.3,Phases=3,Linecode=CABA08_3_3,Length=0.038220000,Units=km
new line.TR10096290 bus1=BMT6169998B.1.2.3,bus2=BMT174831186.1.2.3,Phases=3,Linecode=CABA08_3_3,Length=0.042965000,Units=km
new line.TR10096416 bus1=BMT174831185.1.2.3,bus2=BMT6170152B.1.2.3,Phases=3,Linecode=CABA08_3_3,Length=0.037225000,Units=km
new line.TR10096423 bus1=BMT6170152B.1.2.3,bus2=BMT6170159B.1.2.3,Phases=3,Linecode=CABA08_3_3,Length=0.039215000,Units=km
new line.TR10096430 bus1=BMT6170159B.1.2.3,bus2=BMT2544088B.1.2.3,Phases=3,Linecode=CABA08_3_3,Length=0.040322000,Units=km
new line.TR10096451 bus1=BMT6170187B.1.2.3,bus2=BMT2536864B.1.2.3,Phases=3,Linecode=CABA08_3_3,Length=0.030372000,Units=km
new line.TR10157239 bus1=BMT6276454B.1.2.3,bus2=BMT101988756.1.2.3,Phases=3,Linecode=CAB107_3_3,Length=0.012045000,Units=km
new line.TR10157253 bus1=BMT6276566B.1.2.3,bus2=BMT2547434B.1.2.3,Phases=3,Linecode=CAB107_3_3,Length=0.044610000,Units=km
new line.TR10162594 bus1=BMT6292211B.1.2.3,bus2=BMT5011980.1.2.3,Phases=3,Linecode=CABA08_3_3,Length=0.042784000,Units=km
new line.TR10163686 bus1=BMT101967378.1.2.3,bus2=BMT101967385.1.2.3,Phases=3,Linecode=CAB102_3_3,Length=0.056334000,Units=km
new line.TR10238565 bus1=BMT6421368B.1.2.3,bus2=BMT165874565.1.2.3,Phases=3,Linecode=CABA06_3_3,Length=0.041157000,Units=km
new line.TR10238586 bus1=BMT165874572.1.2.3,bus2=BMT6421445B.1.2.3,Phases=3,Linecode=CABA06_3_3,Length=0.048840000,Units=km
new line.TR10238621 bus1=BMT165874574.1.2.3,bus2=BMT6421487B.1.2.3,Phases=3,Linecode=CABA06_3_3,Length=0.043396000,Units=km
new line.TR10238628 bus1=BMT6421487B.1.2.3,bus2=BMT6421494B.1.2.3,Phases=3,Linecode=CABA06_3_3,Length=0.046079000,Units=km
new line.TR10238635 bus1=BMT6421494B.1.2.3,bus2=BMT6421501B.1.2.3,Phases=3,Linecode=CABA06_3_3,Length=0.050954000,Units=km
new line.TR10238642 bus1=BMT6421501B.1.2.3,bus2=BMT165874575.1.2.3,Phases=3,Linecode=CABA06_3_3,Length=0.051839000,Units=km
new line.TR10238649 bus1=BMT165874575.1.2.3,bus2=BMT6421669B.1.2.3,Phases=3,Linecode=CABA06_3_3,Length=0.052195000,Units=km
new line.TR10248960 bus1=BMT6439435B.1.2.3,bus2=BMT3501415B.1.2.3,Phases=3,Linecode=CAB202_3_3,Length=0.061050000,Units=km
new line.TR10248967 bus1=BMT6439449B.1.2.3,bus2=BMT6439435B.1.2.3,Phases=3,Linecode=CAB202_3_3,Length=0.067644000,Units=km
new line.TR10248974 bus1=BMT6439456B.1.2.3,bus2=BMT6439449B.1.2.3,Phases=3,Linecode=CAB202_3_3,Length=0.068041000,Units=km
new line.TR10248981 bus1=BMT173658995.1.2.3,bus2=BMT6439456B.1.2.3,Phases=3,Linecode=CAB202_3_3,Length=0.065970000,Units=km
new line.TR10248988 bus1=BMT101989134.1.2.3,bus2=BMT173658995.1.2.3,Phases=3,Linecode=CAB103_3_3,Length=0.042860000,Units=km
new line.TR10248995 bus1=BMT101989253.1.2.3,bus2=BMT101989260.1.2.3,Phases=3,Linecode=CAB103_3_3,Length=0.027215000,Units=km
new line.TR10249023 bus1=BMT166219000.1.2.3,bus2=BMT153209238.1.2.3,Phases=3,Linecode=CAB108_3_3,Length=0.009003000,Units=km
new line.TR10249030 bus1=BMT166219000.1.2.3,bus2=BMT166219001.1.2.3,Phases=3,Linecode=CABA08_3_3,Length=0.037681000,Units=km
new line.TR10249065 bus1=BMT166219001.1.2.3,bus2=BMT149246254.1.2.3,Phases=3,Linecode=CABA08_3_3,Length=0.037880000,Units=km
new line.TR10249072 bus1=BMT149352450.1.2.3,bus2=BMT6439736B.1.2.3,Phases=3,Linecode=CABA08_3_3,Length=0.041800000,Units=km
new line.TR10249079 bus1=BMT6439673B.1.2.3,bus2=BMT6439680B.1.2.3,Phases=3,Linecode=CABA08_3_3,Length=0.050042000,Units=km
new line.TR10249086 bus1=BMT6439680B.1.2.3,bus2=BMT149352451.1.2.3,Phases=3,Linecode=CABA08_3_3,Length=0.058089000,Units=km
new line.TR10249093 bus1=BMT149352451.1.2.3,bus2=BMT6439694B.1.2.3,Phases=3,Linecode=CABA08_3_3,Length=0.046903000,Units=km
new line.TR10249100 bus1=BMT6439694B.1.2.3,bus2=BMT6439701B.1.2.3,Phases=3,Linecode=CABA08_3_3,Length=0.057308000,Units=km
new line.TR10249107 bus1=BMT6439701B.1.2.3,bus2=BMT6439708B.1.2.3,Phases=3,Linecode=CABA08_3_3,Length=0.046721000,Units=km
new line.TR10249114 bus1=BMT6439708B.1.2.3,bus2=BMT6439715B.1.2.3,Phases=3,Linecode=CABA08_3_3,Length=0.043960000,Units=km
new line.TR10249121 bus1=BMT6439715B.1.2.3,bus2=BMT6439722B.1.2.3,Phases=3,Linecode=CABA08_3_3,Length=0.043948000,Units=km
new line.TR10249128 bus1=BMT6439722B.1.2.3,bus2=BMT6439729B.1.2.3,Phases=3,Linecode=CABA08_3_3,Length=0.041784000,Units=km
new line.TR10249135 bus1=BMT6439729B.1.2.3,bus2=BMT6439512B.1.2.3,Phases=3,Linecode=CABA08_3_3,Length=0.042024000,Units=km
new line.TR10249142 bus1=BMT6439736B.1.2.3,bus2=BMT6439673B.1.2.3,Phases=3,Linecode=CABA08_3_3,Length=0.040819000,Units=km
new line.TR10403324 bus1=BMT172707554.1,bus2=BMT172707556.1,Phases=1,Linecode=CAB202_3_1,Length=0.175240000,Units=km
new line.TR10403772 bus1=BMT155637686.1.2.3,bus2=BMT137966719.1.2.3,Phases=3,Linecode=CABA06_3_3,Length=0.061861000,Units=km
new line.TR10403898 bus1=BMT158748430.1.2.3,bus2=BMT6661594B.1.2.3,Phases=3,Linecode=CABA06_3_3,Length=0.060653000,Units=km
new line.TR10409785 bus1=BMT101974049.1.2.3,bus2=BMT101974056.1.2.3,Phases=3,Linecode=CAB902_4_3,Length=0.013157000,Units=km
new line.TR10412711 bus1=BMT174671169.3,bus2=BMT6670141B.3,Phases=1,Linecode=CAB202_3_1,Length=0.079850000,Units=km
new line.TR10412732 bus1=BMT6670141B.3,bus2=BMT174671171.3,Phases=1,Linecode=CAB202_3_1,Length=0.080042000,Units=km
new line.TR10412844 bus1=BMT174671171.3,bus2=BMT6670169B.3,Phases=1,Linecode=CAB202_3_1,Length=0.099853000,Units=km
new line.TR10412858 bus1=BMT6670169B.3,bus2=BMT6670176B.3,Phases=1,Linecode=CAB202_3_1,Length=0.029449000,Units=km
new line.TR10462530 bus1=BMT101973972.1.2.3,bus2=BMT101973979.1.2.3,Phases=3,Linecode=CAB102_3_3,Length=0.053160000,Units=km
new line.TR10480660 bus1=BMT135762594.2,bus2=BMT101977717.2,Phases=1,Linecode=CAB102_3_1,Length=0.018296000,Units=km
new line.TR10480681 bus1=BMT149565939.2,bus2=BMT149565940.2,Phases=1,Linecode=CAB102_3_1,Length=0.017070000,Units=km
new line.TR10564814 bus1=BMT1256739B.1.2.3,bus2=BMT6825093B.1.2.3,Phases=3,Linecode=CAB103_3_3,Length=0.015553000,Units=km
new line.TR10040549 bus1=BMT6053644B.1.2.3,bus2=BMT101960917.1.2.3,Phases=3,Linecode=CAB108_3_3,Length=0.043431000,Units=km
new line.TR10040556 bus1=BMT150341588.1.2.3,bus2=BMT150341589.1.2.3,Phases=3,Linecode=CAB611_3_3,Length=0.005002000,Units=km
new line.TR10040563 bus1=BMT101960959.1.2.3,bus2=BMT101960966.1.2.3,Phases=3,Linecode=CAB108_3_3,Length=0.007814000,Units=km
new line.TR10040605 bus1=BMT150341589.1.2.3,bus2=BMT150341590.1.2.3,Phases=3,Linecode=CAB611_3_3,Length=0.015627000,Units=km
new line.TR10040612 bus1=BMT150341590.1.2.3,bus2=BMT150341591.1.2.3,Phases=3,Linecode=CAB611_3_3,Length=0.005002000,Units=km
new line.TR10041536 bus1=BMT174830686.1.2.3,bus2=BMT174830687.1.2.3,Phases=3,Linecode=CAB611_3_3,Length=0.008161000,Units=km
new line.TR10041550 bus1=BMT174830684.1.2.3,bus2=BMT174830685.1.2.3,Phases=3,Linecode=CAB611_3_3,Length=0.007074000,Units=km
new line.TR10041557 bus1=BMT174830685.1.2.3,bus2=BMT174830686.1.2.3,Phases=3,Linecode=CAB611_3_3,Length=0.046640000,Units=km
new line.TR10057125 bus1=BMT6086208B.1.2.3,bus2=BMT1270494B.1.2.3,Phases=3,Linecode=CABA06_3_3,Length=0.017793000,Units=km
new line.TR10135868 bus1=BMT175584150.1.2.3,bus2=BMT149491546.1.2.3,Phases=3,Linecode=CABA08_3_3,Length=0.066445000,Units=km
new line.TR10135875 bus1=BMT175584146.1.2.3,bus2=BMT175584150.1.2.3,Phases=3,Linecode=CABA08_3_3,Length=0.046088000,Units=km
new line.TR10143456 bus1=BMT6252010B.2,bus2=BMT1254450B.2,Phases=1,Linecode=CAB103_3_1,Length=0.023430000,Units=km
new line.TR10146543 bus1=BMT6256917B.3,bus2=BMT174671152.3,Phases=1,Linecode=CAB202_3_1,Length=0.075295000,Units=km
new line.TR10146627 bus1=BMT6257029B.1.2.3,bus2=BMT4015425.1.2.3,Phases=3,Linecode=CAB108_3_3,Length=0.015561000,Units=km
new line.TR10384564 bus1=BMT6640825B.1,bus2=BMT6640832B.1,Phases=1,Linecode=CAB103_3_1,Length=0.059279000,Units=km
new line.TR10384599 bus1=BMT151268342.1,bus2=BMT6640825B.1,Phases=1,Linecode=CAB203_3_1,Length=0.023159000,Units=km
new line.TR10388064 bus1=BMT101970829.1.2.3,bus2=BMT101970836.1.2.3,Phases=3,Linecode=CABA08_3_3,Length=0.027594000,Units=km
new line.TR10388099 bus1=BMT165704510.1.2.3,bus2=BMT4023972.1.2.3,Phases=3,Linecode=CABA08_3_3,Length=0.015816000,Units=km
new line.TR10619358 bus1=BMT848380B.1.2.3,bus2=BMT6882094B.1.2.3,Phases=3,Linecode=CAB103_3_3,Length=0.027507000,Units=km
new line.TR10619365 bus1=BMT6882094B.1.2.3,bus2=BMT174830722.1.2.3,Phases=3,Linecode=CAB103_3_3,Length=0.022049000,Units=km
new line.TR10709973 bus1=BMT164549417.3,bus2=BMT6973143B.3,Phases=1,Linecode=CAB103_3_1,Length=0.006850000,Units=km
new line.TR10710008 bus1=BMT6973143B.3,bus2=BMT6973227B.3,Phases=1,Linecode=CAB103_3_1,Length=0.007472000,Units=km
new line.TR10710015 bus1=BMT6973227B.3,bus2=BMT1258412B.3,Phases=1,Linecode=CAB103_3_1,Length=0.010219000,Units=km
new line.TR10710918 bus1=BMT104139611.2,bus2=BMT6973780B.2,Phases=1,Linecode=CAB103_3_1,Length=0.012534000,Units=km
new line.TR10710932 bus1=BMT6973780B.2,bus2=BMT6973766B.2,Phases=1,Linecode=CAB103_3_1,Length=0.014769000,Units=km
new line.TR10711149 bus1=BMT6973766B.2,bus2=BMT6974095B.2,Phases=1,Linecode=CAB103_3_1,Length=0.058838000,Units=km
new line.TR10711156 bus1=BMT6974095B.2,bus2=BMT6974088B.2,Phases=1,Linecode=CAB103_3_1,Length=0.074270000,Units=km
new line.TR10711163 bus1=BMT6974088B.2,bus2=BMT6974074B.2,Phases=1,Linecode=CAB103_3_1,Length=0.053777000,Units=km
new line.TR10711219 bus1=BMT6974074B.2,bus2=BMT6974067B.2,Phases=1,Linecode=CAB103_3_1,Length=0.064434000,Units=km
new line.TR10711226 bus1=BMT6974067B.2,bus2=BMT6974060B.2,Phases=1,Linecode=CAB103_3_1,Length=0.073779000,Units=km
new line.TR10711233 bus1=BMT6974060B.2,bus2=BMT104139625.2,Phases=1,Linecode=CAB103_3_1,Length=0.036812000,Units=km
new line.TR10757825 bus1=BMT6439512B.1.2.3,bus2=BMT149352452.1.2.3,Phases=3,Linecode=CABA08_3_3,Length=0.046495000,Units=km
new line.TR10757832 bus1=BMT173658994.1.2.3,bus2=BMT101989134.1.2.3,Phases=3,Linecode=CABA08_3_3,Length=0.018475000,Units=km
new line.TR10757972 bus1=BMT149352452.1.2.3,bus2=BMT7019084B.1.2.3,Phases=3,Linecode=CABA06_3_3,Length=0.038257000,Units=km
new line.TR10758035 bus1=BMT7019084B.1.2.3,bus2=BMT7019217B.1.2.3,Phases=3,Linecode=CABA06_3_3,Length=0.044192000,Units=km
new line.TR10758063 bus1=BMT7019217B.1.2.3,bus2=BMT7019224B.1.2.3,Phases=3,Linecode=CABA06_3_3,Length=0.042568000,Units=km
new line.TR10758077 bus1=BMT7019224B.1.2.3,bus2=BMT7019231B.1.2.3,Phases=3,Linecode=CABA06_3_3,Length=0.038850000,Units=km
new line.TR10758091 bus1=BMT7019231B.1.2.3,bus2=BMT7019273B.1.2.3,Phases=3,Linecode=CABA06_3_3,Length=0.036072000,Units=km
new line.TR10758126 bus1=BMT7019273B.1.2.3,bus2=BMT7019364B.1.2.3,Phases=3,Linecode=CABA06_3_3,Length=0.038846000,Units=km
new line.TR10758140 bus1=BMT7019364B.1.2.3,bus2=BMT149352453.1.2.3,Phases=3,Linecode=CABA06_3_3,Length=0.041659000,Units=km
new line.TR10758154 bus1=BMT149352453.1.2.3,bus2=BMT7019406B.1.2.3,Phases=3,Linecode=CABA06_3_3,Length=0.044475000,Units=km
new line.TR10758168 bus1=BMT7019406B.1.2.3,bus2=BMT7019413B.1.2.3,Phases=3,Linecode=CABA06_3_3,Length=0.043176000,Units=km
new line.TR10758203 bus1=BMT7019413B.1.2.3,bus2=BMT149352454.1.2.3,Phases=3,Linecode=CABA06_3_3,Length=0.038435000,Units=km
new line.TR10758287 bus1=BMT149352454.1.2.3,bus2=BMT7019448B.1.2.3,Phases=3,Linecode=CABA06_3_3,Length=0.040470000,Units=km
new line.TR10758294 bus1=BMT7019448B.1.2.3,bus2=BMT149352456.1.2.3,Phases=3,Linecode=CABA06_3_3,Length=0.043197000,Units=km
new line.TR10758406 bus1=BMT149352456.1.2.3,bus2=BMT7019735B.1.2.3,Phases=3,Linecode=CABA06_3_3,Length=0.033954000,Units=km
new line.TR10758427 bus1=BMT7019735B.1.2.3,bus2=BMT7019749B.1.2.3,Phases=3,Linecode=CABA06_3_3,Length=0.041423000,Units=km
new line.TR10758434 bus1=BMT7019749B.1.2.3,bus2=BMT7019756B.1.2.3,Phases=3,Linecode=CABA06_3_3,Length=0.039703000,Units=km
new line.TR10758441 bus1=BMT7019756B.1.2.3,bus2=BMT7019763B.1.2.3,Phases=3,Linecode=CABA06_3_3,Length=0.039465000,Units=km
new line.TR10758448 bus1=BMT7019763B.1.2.3,bus2=BMT149352457.1.2.3,Phases=3,Linecode=CABA06_3_3,Length=0.040383000,Units=km
new line.TR10758455 bus1=BMT149352457.1.2.3,bus2=BMT7019777B.1.2.3,Phases=3,Linecode=CABA06_3_3,Length=0.036066000,Units=km
new line.TR10758462 bus1=BMT7019777B.1.2.3,bus2=BMT7019784B.1.2.3,Phases=3,Linecode=CABA06_3_3,Length=0.031411000,Units=km
new line.TR10758469 bus1=BMT7019784B.1.2.3,bus2=BMT149252870.1.2.3,Phases=3,Linecode=CABA06_3_3,Length=0.040125000,Units=km
new line.TR10758476 bus1=BMT151754418.1.2.3,bus2=BMT7019798B.1.2.3,Phases=3,Linecode=CABA06_3_3,Length=0.044436000,Units=km
new line.TR10758483 bus1=BMT7019798B.1.2.3,bus2=BMT151754419.1.2.3,Phases=3,Linecode=CABA06_3_3,Length=0.039913000,Units=km
new line.TR10097333 bus1=BMT156138458.1.2.3,bus2=BMT101972705.1.2.3,Phases=3,Linecode=CABA08_3_3,Length=0.039974000,Units=km
new line.TR10097340 bus1=BMT156138458.1.2.3,bus2=BMT155783178.1.2.3,Phases=3,Linecode=CABA08_3_3,Length=0.027321000,Units=km
new line.TR10097347 bus1=BMT155783178.1.2.3,bus2=BMT6171657B.1.2.3,Phases=3,Linecode=CABA08_3_3,Length=0.032705000,Units=km
new line.TR10097354 bus1=BMT6171657B.1.2.3,bus2=BMT165875225.1.2.3,Phases=3,Linecode=CABA08_3_3,Length=0.049994000,Units=km
new line.TR10107847 bus1=BMT6190046B.1.2.3,bus2=BMT1187271B.1.2.3,Phases=3,Linecode=CAB107_3_3,Length=0.008069000,Units=km
new line.TR10107854 bus1=BMT151268297.1.2.3,bus2=BMT6190046B.1.2.3,Phases=3,Linecode=CAB107_3_3,Length=0.007213000,Units=km
new line.TR10107861 bus1=BMT6190060B.1.2.3,bus2=BMT151268296.1.2.3,Phases=3,Linecode=CAB107_3_3,Length=0.007213000,Units=km
new line.TR10113048 bus1=BMT104972233.1,bus2=BMT3636732B.1,Phases=1,Linecode=CAB202_3_1,Length=0.040123000,Units=km
new line.TR10276519 bus1=BMT6481491B.1,bus2=BMT135652764.1,Phases=1,Linecode=CAB103_3_1,Length=0.043820000,Units=km
new line.TR10276526 bus1=BMT135652764.1,bus2=BMT6481505B.1,Phases=1,Linecode=CAB103_3_1,Length=0.046577000,Units=km
new line.TR10276533 bus1=BMT6481505B.1,bus2=BMT6481512B.1,Phases=1,Linecode=CAB103_3_1,Length=0.043478000,Units=km
new line.TR10276540 bus1=BMT6481512B.1,bus2=BMT6481519B.1,Phases=1,Linecode=CAB103_3_1,Length=0.044567000,Units=km
new line.TR10276547 bus1=BMT6481519B.1,bus2=BMT6481526B.1,Phases=1,Linecode=CAB103_3_1,Length=0.038600000,Units=km
new line.TR10358734 bus1=BMT4005485B.2,bus2=BMT176434628.2,Phases=1,Linecode=CAB103_3_1,Length=0.040249000,Units=km
new line.TR10358748 bus1=BMT176434628.2,bus2=BMT4005492B.2,Phases=1,Linecode=CAB103_3_1,Length=0.041903000,Units=km
new line.TR10358867 bus1=BMT4005492B.2,bus2=BMT6610886B.2,Phases=1,Linecode=CAB103_3_1,Length=0.039210000,Units=km
new line.TR10358874 bus1=BMT6610886B.2,bus2=BMT4005499B.2,Phases=1,Linecode=CAB103_3_1,Length=0.041953000,Units=km
new line.TR10685865 bus1=BMT1272328B.3,bus2=BMT6947754B.3,Phases=1,Linecode=CAB103_3_1,Length=0.015038000,Units=km
new line.TR10685872 bus1=BMT6947754B.3,bus2=BMT1272678B.3,Phases=1,Linecode=CAB103_3_1,Length=0.021030000,Units=km
new line.TR10689715 bus1=BMT1261303B.1.2.3,bus2=BMT1261254B.1.2.3,Phases=3,Linecode=CAB104_3_3,Length=0.038286000,Units=km
new line.TR10866710 bus1=BMT167006427.1,bus2=BMT167006429.1,Phases=1,Linecode=CAB202_3_1,Length=0.194996000,Units=km
new line.TR10867137 bus1=BMT174831173.1.2.3,bus2=BMT2543262B.1.2.3,Phases=3,Linecode=CABA06_3_3,Length=0.036065000,Units=km
new line.TR10867158 bus1=BMT2543262B.1.2.3,bus2=BMT2543269B.1.2.3,Phases=3,Linecode=CABA06_3_3,Length=0.034915000,Units=km
new line.TR10867172 bus1=BMT2543269B.1.2.3,bus2=BMT174831174.1.2.3,Phases=3,Linecode=CABA06_3_3,Length=0.034461000,Units=km
new line.TR10879604 bus1=BMT1237510B.1.2.3,bus2=BMT1237517B.1.2.3,Phases=3,Linecode=CABA06_3_3,Length=0.033376000,Units=km
new line.TR10879625 bus1=BMT1237517B.1.2.3,bus2=BMT1237524B.1.2.3,Phases=3,Linecode=CABA06_3_3,Length=0.031370000,Units=km
new line.TR10879646 bus1=BMT1237524B.1.2.3,bus2=BMT166491254.1.2.3,Phases=3,Linecode=CABA06_3_3,Length=0.032300000,Units=km
new line.TR10952817 bus1=BMT176661415.1.2.3,bus2=BMT7190332B.1.2.3,Phases=3,Linecode=CABA06_3_3,Length=0.051057000,Units=km
new line.TR10952859 bus1=BMT7190332B.1.2.3,bus2=BMT7190346B.1.2.3,Phases=3,Linecode=CABA06_3_3,Length=0.044433000,Units=km
new line.TR10952866 bus1=BMT7190346B.1.2.3,bus2=BMT7190353B.1.2.3,Phases=3,Linecode=CABA06_3_3,Length=0.056055000,Units=km
new line.TR10952880 bus1=BMT7190353B.1.2.3,bus2=BMT176661416.1.2.3,Phases=3,Linecode=CABA06_3_3,Length=0.050791000,Units=km
new line.TR10952936 bus1=BMT176661416.1.2.3,bus2=BMT7190374B.1.2.3,Phases=3,Linecode=CABA06_3_3,Length=0.050791000,Units=km
new line.TR10952950 bus1=BMT7190374B.1.2.3,bus2=BMT7190381B.1.2.3,Phases=3,Linecode=CABA06_3_3,Length=0.051640000,Units=km
new line.TR10952971 bus1=BMT7190381B.1.2.3,bus2=BMT7190402B.1.2.3,Phases=3,Linecode=CABA06_3_3,Length=0.051637000,Units=km
new line.TR10953006 bus1=BMT7190402B.1.2.3,bus2=BMT7190416B.1.2.3,Phases=3,Linecode=CABA06_3_3,Length=0.050787000,Units=km
new line.TR10953027 bus1=BMT7190416B.1.2.3,bus2=BMT163893172.1.2.3,Phases=3,Linecode=CABA06_3_3,Length=0.050787000,Units=km
new line.TR10953069 bus1=BMT163893172.1.2.3,bus2=BMT176661417.1.2.3,Phases=3,Linecode=CABA06_3_3,Length=0.050787000,Units=km
new line.TR10953097 bus1=BMT176661417.1.2.3,bus2=BMT137020319.1.2.3,Phases=3,Linecode=CABA06_3_3,Length=0.050788000,Units=km
new line.TR10956758 bus1=BMT101971907.1.2.3,bus2=BMT101971921.1.2.3,Phases=3,Linecode=CABA06_3_3,Length=0.017470000,Units=km
new line.TR10956772 bus1=BMT165355571.1.2.3,bus2=BMT7193748B.1.2.3,Phases=3,Linecode=CABA06_3_3,Length=0.060050000,Units=km
new line.TR10956779 bus1=BMT7193748B.1.2.3,bus2=BMT7193755B.1.2.3,Phases=3,Linecode=CABA06_3_3,Length=0.064158000,Units=km
new line.TR10956786 bus1=BMT7193755B.1.2.3,bus2=BMT7193769B.1.2.3,Phases=3,Linecode=CABA06_3_3,Length=0.066055000,Units=km
new line.TR10956793 bus1=BMT7193769B.1.2.3,bus2=BMT7193790B.1.2.3,Phases=3,Linecode=CABA06_3_3,Length=0.060224000,Units=km
new line.TR10956800 bus1=BMT7193790B.1.2.3,bus2=BMT7193804B.1.2.3,Phases=3,Linecode=CABA06_3_3,Length=0.061417000,Units=km
new line.TR10956807 bus1=BMT7193804B.1.2.3,bus2=BMT7193818B.1.2.3,Phases=3,Linecode=CABA06_3_3,Length=0.060918000,Units=km
new line.TR10956814 bus1=BMT7193818B.1.2.3,bus2=BMT7193832B.1.2.3,Phases=3,Linecode=CABA06_3_3,Length=0.060050000,Units=km
new line.TR10956821 bus1=BMT7193832B.1.2.3,bus2=BMT7193839B.1.2.3,Phases=3,Linecode=CABA06_3_3,Length=0.059186000,Units=km
new line.TR10956828 bus1=BMT7193839B.1.2.3,bus2=BMT165355572.1.2.3,Phases=3,Linecode=CABA06_3_3,Length=0.034071000,Units=km
new line.TR10956835 bus1=BMT165355572.1.2.3,bus2=BMT7193853B.1.2.3,Phases=3,Linecode=CABA06_3_3,Length=0.036728000,Units=km
new line.TR10956842 bus1=BMT7193853B.1.2.3,bus2=BMT165355573.1.2.3,Phases=3,Linecode=CABA06_3_3,Length=0.055091000,Units=km
new line.TR10959635 bus1=BMT174669676.2,bus2=BMT3561769B.2,Phases=1,Linecode=CAB202_3_1,Length=0.146486000,Units=km
new line.TR10959642 bus1=BMT3561769B.2,bus2=BMT7196401B.2,Phases=1,Linecode=CAB202_3_1,Length=0.099752000,Units=km
new line.TR10959705 bus1=BMT7196401B.2,bus2=BMT7196408B.2,Phases=1,Linecode=CAB202_3_1,Length=0.049673000,Units=km
new line.TR10959712 bus1=BMT7196408B.2,bus2=BMT3561797B.2,Phases=1,Linecode=CAB202_3_1,Length=0.079824000,Units=km
new line.TR10959733 bus1=BMT174830971.1.2.3,bus2=BMT174830972.1.2.3,Phases=3,Linecode=CAB609_3_3,Length=0.007282000,Units=km
new line.TR10758504 bus1=BMT151754419.1.2.3,bus2=BMT7019861B.1.2.3,Phases=3,Linecode=CABA06_3_3,Length=0.039073000,Units=km
new line.TR10758511 bus1=BMT7019861B.1.2.3,bus2=BMT151754420.1.2.3,Phases=3,Linecode=CABA06_3_3,Length=0.041097000,Units=km
new line.TR10758532 bus1=BMT151754420.1.2.3,bus2=BMT7019875B.1.2.3,Phases=3,Linecode=CABA06_3_3,Length=0.040159000,Units=km
new line.TR10758623 bus1=BMT7019875B.1.2.3,bus2=BMT101989288.1.2.3,Phases=3,Linecode=CABA06_3_3,Length=0.039160000,Units=km
new line.TR10758679 bus1=BMT150341669.1.2.3,bus2=BMT150341670.1.2.3,Phases=3,Linecode=CAB609_3_3,Length=0.005106000,Units=km
new line.TR10758686 bus1=BMT101989288.1.2.3,bus2=BMT7020078B.1.2.3,Phases=3,Linecode=CAB609_3_3,Length=0.005101000,Units=km
new line.TR10758700 bus1=BMT7019994B.1.2.3,bus2=BMT7020001B.1.2.3,Phases=3,Linecode=CAB609_3_3,Length=0.031011000,Units=km
new line.TR10758749 bus1=BMT150341670.1.2.3,bus2=BMT150341671.1.2.3,Phases=3,Linecode=CAB609_3_3,Length=0.071472000,Units=km
new line.TR10758777 bus1=BMT7020078B.1.2.3,bus2=BMT7019994B.1.2.3,Phases=3,Linecode=CAB609_3_3,Length=0.031819000,Units=km
new line.TR10758938 bus1=BMT150341671.1.2.3,bus2=BMT150341672.1.2.3,Phases=3,Linecode=CAB609_3_3,Length=0.006333000,Units=km
new line.TR10759337 bus1=BMT101989323.1.2.3,bus2=BMT7020498B.1.2.3,Phases=3,Linecode=CABA06_3_3,Length=0.042027000,Units=km
new line.TR10759358 bus1=BMT7020498B.1.2.3,bus2=BMT7020512B.1.2.3,Phases=3,Linecode=CABA06_3_3,Length=0.042027000,Units=km
new line.TR10759365 bus1=BMT7020512B.1.2.3,bus2=BMT7020533B.1.2.3,Phases=3,Linecode=CABA06_3_3,Length=0.040073000,Units=km
new line.TR10759379 bus1=BMT7020533B.1.2.3,bus2=BMT176686824.1.2.3,Phases=3,Linecode=CABA06_3_3,Length=0.037901000,Units=km
new line.TR10759393 bus1=BMT176686825.1.2.3,bus2=BMT7020603B.1.2.3,Phases=3,Linecode=CABA06_3_3,Length=0.007815000,Units=km
new line.TR10759400 bus1=BMT7020603B.1.2.3,bus2=BMT176686826.1.2.3,Phases=3,Linecode=CABA06_3_3,Length=0.025717000,Units=km
new line.TR10759505 bus1=BMT7020624B.1.2.3,bus2=BMT7020652B.1.2.3,Phases=3,Linecode=CABA06_3_3,Length=0.020630000,Units=km
new line.TR10759554 bus1=BMT7020652B.1.2.3,bus2=BMT7020659B.1.2.3,Phases=3,Linecode=CABA06_3_3,Length=0.022576000,Units=km
new line.TR10759561 bus1=BMT7020659B.1.2.3,bus2=BMT176686828.1.2.3,Phases=3,Linecode=CABA06_3_3,Length=0.023359000,Units=km
new line.TR10759568 bus1=BMT176686828.1.2.3,bus2=BMT7020701B.1.2.3,Phases=3,Linecode=CABA06_3_3,Length=0.037893000,Units=km
new line.TR10759596 bus1=BMT7020701B.1.2.3,bus2=BMT7020729B.1.2.3,Phases=3,Linecode=CABA06_3_3,Length=0.037893000,Units=km
new line.TR10759603 bus1=BMT7020729B.1.2.3,bus2=BMT7020750B.1.2.3,Phases=3,Linecode=CABA06_3_3,Length=0.037893000,Units=km
new line.TR10759666 bus1=BMT7020750B.1.2.3,bus2=BMT7020764B.1.2.3,Phases=3,Linecode=CABA06_3_3,Length=0.037893000,Units=km
new line.TR10759680 bus1=BMT7020764B.1.2.3,bus2=BMT7020778B.1.2.3,Phases=3,Linecode=CABA06_3_3,Length=0.038872000,Units=km
new line.TR10759701 bus1=BMT7020778B.1.2.3,bus2=BMT7020785B.1.2.3,Phases=3,Linecode=CABA06_3_3,Length=0.021616000,Units=km
new line.TR10759708 bus1=BMT7020785B.1.2.3,bus2=BMT176686829.1.2.3,Phases=3,Linecode=CABA06_3_3,Length=0.034015000,Units=km
new line.TR10759778 bus1=BMT176686826.1.2.3,bus2=BMT7020897B.1.2.3,Phases=3,Linecode=CABA06_3_3,Length=0.024522000,Units=km
new line.TR10759785 bus1=BMT7020897B.1.2.3,bus2=BMT7020624B.1.2.3,Phases=3,Linecode=CABA06_3_3,Length=0.021391000,Units=km
new line.TR10759855 bus1=BMT176686828.1.2.3,bus2=BMT7020960B.1.2.3,Phases=3,Linecode=CABA06_3_3,Length=0.029622000,Units=km
new line.TR10759862 bus1=BMT7020960B.1.2.3,bus2=BMT7020967B.1.2.3,Phases=3,Linecode=CABA06_3_3,Length=0.032765000,Units=km
new line.TR10759869 bus1=BMT7020967B.1.2.3,bus2=BMT7020974B.1.2.3,Phases=3,Linecode=CABA06_3_3,Length=0.034939000,Units=km
new line.TR10759876 bus1=BMT7020974B.1.2.3,bus2=BMT7021002B.1.2.3,Phases=3,Linecode=CABA06_3_3,Length=0.031800000,Units=km
new line.TR10759883 bus1=BMT7021002B.1.2.3,bus2=BMT7021009B.1.2.3,Phases=3,Linecode=CABA06_3_3,Length=0.028652000,Units=km
new line.TR10759890 bus1=BMT7021009B.1.2.3,bus2=BMT7021030B.1.2.3,Phases=3,Linecode=CABA06_3_3,Length=0.022574000,Units=km
new line.TR10759897 bus1=BMT7021030B.1.2.3,bus2=BMT176686830.1.2.3,Phases=3,Linecode=CABA06_3_3,Length=0.037865000,Units=km
new line.TR10761269 bus1=BMT176686825.1.2.3,bus2=BMT7022472B.1.2.3,Phases=3,Linecode=CABA06_3_3,Length=0.040073000,Units=km
new line.TR10761276 bus1=BMT7022472B.1.2.3,bus2=BMT7022500B.1.2.3,Phases=3,Linecode=CABA06_3_3,Length=0.033558000,Units=km
new line.TR10761283 bus1=BMT7022500B.1.2.3,bus2=BMT7022521B.1.2.3,Phases=3,Linecode=CABA06_3_3,Length=0.025245000,Units=km
new line.TR10761297 bus1=BMT7022521B.1.2.3,bus2=BMT7022584B.1.2.3,Phases=3,Linecode=CABA06_3_3,Length=0.026914000,Units=km
new line.TR10761304 bus1=BMT7022584B.1.2.3,bus2=BMT7022598B.1.2.3,Phases=3,Linecode=CABA06_3_3,Length=0.030895000,Units=km
new line.TR10761311 bus1=BMT7022598B.1.2.3,bus2=BMT7022486B.1.2.3,Phases=3,Linecode=CABA06_3_3,Length=0.010773000,Units=km
new line.TR10761318 bus1=BMT7022486B.1.2.3,bus2=BMT7022619B.1.2.3,Phases=3,Linecode=CABA06_3_3,Length=0.014426000,Units=km
new line.TR10761325 bus1=BMT7022486B.1.2.3,bus2=BMT7022451B.1.2.3,Phases=3,Linecode=CABA06_3_3,Length=0.018444000,Units=km
new line.TR10761458 bus1=BMT7022486B.1.2.3,bus2=BMT7022773B.1.2.3,Phases=3,Linecode=CABA06_3_3,Length=0.024337000,Units=km
new line.TR10761619 bus1=BMT7022773B.1.2.3,bus2=BMT7022969B.1.2.3,Phases=3,Linecode=CABA06_3_3,Length=0.030843000,Units=km
new line.TR10761626 bus1=BMT7022969B.1.2.3,bus2=BMT176686827.1.2.3,Phases=3,Linecode=CABA06_3_3,Length=0.036923000,Units=km
new line.TR10766785 bus1=BMT174715492.2,bus2=BMT174715494.2,Phases=1,Linecode=CABA06_3_1,Length=0.031033000,Units=km
new line.TR10844506 bus1=BMT174830999.1,bus2=BMT3274601B.1,Phases=1,Linecode=CAB103_3_1,Length=0.038959000,Units=km
new line.TR10844513 bus1=BMT3274601B.1,bus2=BMT863521B.1,Phases=1,Linecode=CAB103_3_1,Length=0.023776000,Units=km
new line.TR11038371 bus1=BMT2545341B.1.2.3,bus2=BMT7266142B.1.2.3,Phases=3,Linecode=CABA08_3_3,Length=0.044108000,Units=km
new line.TR11038378 bus1=BMT101967399.1.2.3,bus2=BMT7266142B.1.2.3,Phases=3,Linecode=CABA08_3_3,Length=0.041302000,Units=km
new line.TR11039589 bus1=BMT170106837.1.2.3,bus2=BMT170106838.1.2.3,Phases=3,Linecode=CAB103_3_3,Length=0.074350000,Units=km
new line.TR11039596 bus1=BMT170106838.1.2.3,bus2=BMT170106839.1.2.3,Phases=3,Linecode=CAB202_3_3,Length=0.131780000,Units=km
new line.TR11039603 bus1=BMT170106839.1.2.3,bus2=BMT170106840.1.2.3,Phases=3,Linecode=CAB103_3_3,Length=0.010003000,Units=km
new line.TR11098718 bus1=BMT101960840.1.2.3,bus2=BMT101960847.1.2.3,Phases=3,Linecode=CAB108_3_3,Length=0.019112000,Units=km
new line.TR10068318 bus1=BMT6108699B.1.2.3,bus2=BMT3235856B.1.2.3,Phases=3,Linecode=CABA08_3_3,Length=0.040132000,Units=km
new line.TR10068325 bus1=BMT6108706B.1.2.3,bus2=BMT6108699B.1.2.3,Phases=3,Linecode=CABA08_3_3,Length=0.037230000,Units=km
new line.TR10068332 bus1=BMT6108706B.1.2.3,bus2=BMT117185966.1.2.3,Phases=3,Linecode=CABA08_3_3,Length=0.043198000,Units=km
new line.TR10068339 bus1=BMT117185966.1.2.3,bus2=BMT6108741B.1.2.3,Phases=3,Linecode=CABA08_3_3,Length=0.040210000,Units=km
new line.TR10068346 bus1=BMT6108741B.1.2.3,bus2=BMT117185959.1.2.3,Phases=3,Linecode=CABA08_3_3,Length=0.037348000,Units=km
new line.TR10068353 bus1=BMT117185959.1.2.3,bus2=BMT6108755B.1.2.3,Phases=3,Linecode=CABA08_3_3,Length=0.043304000,Units=km
new line.TR10068360 bus1=BMT6108755B.1.2.3,bus2=BMT6108762B.1.2.3,Phases=3,Linecode=CABA08_3_3,Length=0.040217000,Units=km
new line.TR10068367 bus1=BMT6108762B.1.2.3,bus2=BMT6108769B.1.2.3,Phases=3,Linecode=CABA08_3_3,Length=0.040346000,Units=km
new line.TR10068374 bus1=BMT6108769B.1.2.3,bus2=BMT6108776B.1.2.3,Phases=3,Linecode=CABA08_3_3,Length=0.040264000,Units=km
new line.TR10068381 bus1=BMT6108776B.1.2.3,bus2=BMT6108783B.1.2.3,Phases=3,Linecode=CABA08_3_3,Length=0.038221000,Units=km
new line.TR10068388 bus1=BMT6108783B.1.2.3,bus2=BMT6108797B.1.2.3,Phases=3,Linecode=CABA08_3_3,Length=0.040228000,Units=km
new line.TR10068402 bus1=BMT6108797B.1.2.3,bus2=BMT6108804B.1.2.3,Phases=3,Linecode=CABA08_3_3,Length=0.040802000,Units=km
new line.TR10068409 bus1=BMT6108804B.1.2.3,bus2=BMT6108818B.1.2.3,Phases=3,Linecode=CABA08_3_3,Length=0.039367000,Units=km
new line.TR10068423 bus1=BMT6108818B.1.2.3,bus2=BMT6108839B.1.2.3,Phases=3,Linecode=CABA08_3_3,Length=0.040016000,Units=km
new line.TR10068444 bus1=BMT6108839B.1.2.3,bus2=BMT6108853B.1.2.3,Phases=3,Linecode=CABA08_3_3,Length=0.039860000,Units=km
new line.TR10068458 bus1=BMT6108853B.1.2.3,bus2=BMT6108909B.1.2.3,Phases=3,Linecode=CABA08_3_3,Length=0.008952000,Units=km
new line.TR10068500 bus1=BMT6108909B.1.2.3,bus2=BMT101961995.1.2.3,Phases=3,Linecode=CABA08_3_3,Length=0.017473000,Units=km
new line.TR10068507 bus1=BMT176423538.1.2.3,bus2=BMT6108923B.1.2.3,Phases=3,Linecode=CABA08_3_3,Length=0.015829000,Units=km
new line.TR10068514 bus1=BMT6108923B.1.2.3,bus2=BMT176423537.1.2.3,Phases=3,Linecode=CABA08_3_3,Length=0.040210000,Units=km
new line.TR10077404 bus1=BMT101978592.1.2.3,bus2=BMT1259434B.1.2.3,Phases=3,Linecode=CABA06_3_3,Length=0.026086000,Units=km
new line.TR10077411 bus1=BMT101978914.1.2.3,bus2=BMT101978921.1.2.3,Phases=3,Linecode=CAB902_4_3,Length=0.011003000,Units=km
new line.TR10121490 bus1=BMT170006625.1.2.3,bus2=BMT6212138B.1.2.3,Phases=3,Linecode=CABA08_3_3,Length=0.033371000,Units=km
new line.TR10121623 bus1=BMT6212138B.1.2.3,bus2=BMT6212145B.1.2.3,Phases=3,Linecode=CABA08_3_3,Length=0.039633000,Units=km
new line.TR10121637 bus1=BMT6212152B.1.2.3,bus2=BMT6212159B.1.2.3,Phases=3,Linecode=CABA08_3_3,Length=0.047520000,Units=km
new line.TR10121644 bus1=BMT6212159B.1.2.3,bus2=BMT6212166B.1.2.3,Phases=3,Linecode=CABA08_3_3,Length=0.046239000,Units=km