new line.CTR10315 bus1=BMT165758124.1.2.3,bus2=BMT165758126.1.2.3,Phases=3,LineCode=tieSwitch,Length=0.001,Units=km,switch=T !numEQ 118163
new line.CTR10322 bus1=BMT165757766.1.2.3,bus2=BMT165757767.1.2.3,Phases=3,LineCode=tieSwitch,Length=0.001,Units=km,switch=T !numEQ 118158
new line.CTR10329 bus1=BMT165757921.1.2.3,bus2=BMT165758086.1.2.3,Phases=3,LineCode=tieSwitch,Length=0.001,Units=km,switch=T !numEQ 118164
new line.CTR10364 bus1=BMT137198387.1.2.3,bus2=BMT137198422.1.2.3,Phases=3,LineCode=tieSwitch,Length=0.001,Units=km,switch=T !numEQ 118130
new line.CTR10371 bus1=BMT137193207.1.2.3,bus2=BMT137193592.1.2.3,Phases=3,LineCode=tieSwitch,Length=0.001,Units=km,switch=T !numEQ 118125
new line.CTR10378 bus1=BMT165758218.1.2.3,bus2=BMT165758264.1.2.3,Phases=3,LineCode=tieSwitch,Length=0.001,Units=km,switch=T !numEQ 118136
new line.CTR10392 bus1=BMT137197925.1.2.3,bus2=BMT137197946.1.2.3,Phases=3,LineCode=tieSwitch,Length=0.001,Units=km,switch=T !numEQ 118132
new line.CTR10399 bus1=BMT137193956.1.2.3,bus2=BMT137197771.1.2.3,Phases=3,LineCode=tieSwitch,Length=0.001,Units=km,switch=T !numEQ 118135
new line.CTR11596 bus1=BMT123332542.3,bus2=BMT169192365.3,Phases=1,LineCode=tieSwitch1,Length=0.001,Units=km,switch=T !numEQ 117642
new line.CTR11624 bus1=BMT123330043.1.2.3,bus2=BMT123330183.1.2.3,Phases=3,LineCode=tieSwitch,Length=0.001,Units=km,switch=T !numEQ 118632
new line.CTR137274 bus1=BMT165758578.1.2.3,bus2=BMT165758583.1.2.3,Phases=3,LineCode=tieSwitch,Length=0.001,Units=km,switch=T !numEQ 56544
new line.CTR137785 bus1=BMT123338282.1,bus2=BMT163930362.1,Phases=1,LineCode=tieSwitch1,Length=0.001,Units=km,switch=T !numEQ 112168
new line.CTR13801 bus1=BMT123329875.1.2.3,bus2=BMT123330225.1.2.3,Phases=3,LineCode=tieSwitch,Length=0.001,Units=km,switch=T !numEQ 48877
new line.CTR13808 bus1=BMT139641520.1.2.3,bus2=BMT144803950.1.2.3,Phases=3,LineCode=tieSwitch,Length=0.001,Units=km,switch=T !numEQ 120258
new line.CTR174318 bus1=BMT123313544.1.2.3,bus2=BMT161442040.1.2.3,Phases=3,LineCode=tieSwitch,Length=0.001,Units=km,switch=T !numEQ 115942
new line.CTR194954 bus1=BMT165759055.1.2.3,bus2=BMT165759095.1.2.3,Phases=3,LineCode=tieSwitch,Length=0.001,Units=km,switch=T !numEQ 309310
new line.CTR195094 bus1=BMT123347571.1.2.3,bus2=BMT170712207.1.2.3,Phases=3,LineCode=tieSwitch,Length=0.001,Units=km,switch=T !numEQ 128014
new line.CTR195157 bus1=BMT123347613.1.2.3,bus2=BMT123347620.1.2.3,Phases=3,LineCode=tieSwitch,Length=0.001,Units=km,switch=T !numEQ 116457
new line.CTR195171 bus1=BMT123344953.1.2.3,bus2=BMT123345079.1.2.3,Phases=3,LineCode=tieSwitch,Length=0.001,Units=km,switch=T !numEQ 12358
new line.CTR195185 bus1=BMT123340403.1,bus2=BMT161026934.1,Phases=1,LineCode=tieSwitch1,Length=0.001,Units=km,switch=T !numEQ 13173
new line.CTR195528 bus1=BMT123340361.1,bus2=BMT168494442.1,Phases=1,LineCode=tieSwitch1,Length=0.001,Units=km,switch=T !numEQ 13141
new line.CTR210494 bus1=BMT165758802.1.2.3,bus2=BMT165758803.1.2.3,Phases=3,LineCode=tieSwitch,Length=0.001,Units=km,switch=T !numEQ 49049
new line.CTR210508 bus1=BMT165758177.1.2.3,bus2=BMT165758178.1.2.3,Phases=3,LineCode=tieSwitch,Length=0.001,Units=km,switch=T !numEQ 48062
new line.CTR210879 bus1=BMT165758514.1.2.3,bus2=BMT165758516.1.2.3,Phases=3,LineCode=tieSwitch,Length=0.001,Units=km,switch=T !numEQ 48538
new line.CTR211019 bus1=BMT137194166.2,bus2=BMT161460636.2,Phases=1,LineCode=tieSwitch1,Length=0.001,Units=km,switch=T !numEQ 187304
new line.CTR211033 bus1=BMT165759472.1.2.3,bus2=BMT165759473.1.2.3,Phases=3,LineCode=tieSwitch,Length=0.001,Units=km,switch=T !numEQ 39780
new line.CTR211292 bus1=BMT123337799.2,bus2=BMT123337806.2,Phases=1,LineCode=tieSwitch1,Length=0.001,Units=km,switch=T !numEQ 212325
new line.CTR211348 bus1=BMT123338128.1,bus2=BMT163930382.1,Phases=1,LineCode=tieSwitch1,Length=0.001,Units=km,switch=T !numEQ 212327
new line.CTR211362 bus1=BMT165757789.1.2.3,bus2=BMT165757854.1.2.3,Phases=3,LineCode=tieSwitch,Length=0.001,Units=km,switch=T !numEQ 187368
new line.CTR211376 bus1=BMT165757788.1.2.3,bus2=BMT3545931.1.2.3,Phases=3,LineCode=tieSwitch,Length=0.001,Units=km,switch=T !numEQ 167740
open line.CTR211376 term=1
new line.CTR211383 bus1=BMT165758137.1.2.3,bus2=BMT165758207.1.2.3,Phases=3,LineCode=tieSwitch,Length=0.001,Units=km,switch=T !numEQ 143225
new line.CTR211390 bus1=BMT165757937.3,bus2=BMT165758069.3,Phases=1,LineCode=tieSwitch1,Length=0.001,Units=km,switch=T !numEQ 375769
new line.CTR211397 bus1=BMT165757941.1.2.3,bus2=BMT166080973.1.2.3,Phases=3,LineCode=tieSwitch,Length=0.001,Units=km,switch=T !numEQ 49538
new line.CTR211411 bus1=BMT165757970.1.2.3,bus2=BMT165757974.1.2.3,Phases=3,LineCode=tieSwitch,Length=0.001,Units=km,switch=T !numEQ 49476
new line.CTR211453 bus1=BMT165757938.3,bus2=BMT165758072.3,Phases=1,LineCode=tieSwitch1,Length=0.001,Units=km,switch=T !numEQ 48080
new line.CTR211460 bus1=BMT123345835.1.2.3,bus2=BMT153831948.1.2.3,Phases=3,LineCode=tieSwitch,Length=0.001,Units=km,switch=T !numEQ 48118
new line.CTR211474 bus1=BMT161572833.1.2.3,bus2=BMT123328986.1.2.3,Phases=3,LineCode=tieSwitch,Length=0.001,Units=km,switch=T !numEQ 120253
new line.CTR211481 bus1=BMT123329063.1.2.3,bus2=BMT123329000.1.2.3,Phases=3,LineCode=tieSwitch,Length=0.001,Units=km,switch=T !numEQ 56856
new line.CTR211502 bus1=BMT123329147.1.2.3,bus2=BMT135280485.1.2.3,Phases=3,LineCode=tieSwitch,Length=0.001,Units=km,switch=T !numEQ 120254
new line.CTR211509 bus1=BMT123329203.1.2.3,bus2=BMT156779317.1.2.3,Phases=3,LineCode=tieSwitch,Length=0.001,Units=km,switch=T !numEQ 120259
new line.CTR211516 bus1=BMT165757831.1.2.3,bus2=BMT165757832.1.2.3,Phases=3,LineCode=tieSwitch,Length=0.001,Units=km,switch=T !numEQ 294360
new line.CTR211537 bus1=BMT123329693.1.2.3,bus2=BMT123329700.1.2.3,Phases=3,LineCode=tieSwitch,Length=0.001,Units=km,switch=T !numEQ 187316
new line.CTR211544 bus1=BMT123336273.1.2.3,bus2=BMT156764509.1.2.3,Phases=3,LineCode=tieSwitch,Length=0.001,Units=km,switch=T !numEQ 183785
new line.CTR211558 bus1=BMT123329903.1.2.3,bus2=BMT157152316.1.2.3,Phases=3,LineCode=tieSwitch,Length=0.001,Units=km,switch=T !numEQ 48860
new line.CTR211572 bus1=BMT123329721.1.2.3,bus2=BMT155800668.1.2.3,Phases=3,LineCode=tieSwitch,Length=0.001,Units=km,switch=T !numEQ 48402
new line.CTR211614 bus1=BMT123330939.3,bus2=BMT123334887.3,Phases=1,LineCode=tieSwitch1,Length=0.001,Units=km,switch=T !numEQ 56832
new line.CTR211621 bus1=BMT123331044.1.2.3,bus2=BMT123331051.1.2.3,Phases=3,LineCode=tieSwitch,Length=0.001,Units=km,switch=T !numEQ 146303
new line.CTR211642 bus1=BMT123332549.3,bus2=BMT166618812.3,Phases=1,LineCode=tieSwitch1,Length=0.001,Units=km,switch=T !numEQ 49419
new line.CTR109715 bus1=BMT123329966.1.2.3,bus2=BMT134119213.1.2.3,Phases=3,LineCode=tieSwitch,Length=0.001,Units=km,switch=T !numEQ 167706
new line.CTR111283 bus1=BMT137196980.2,bus2=BMT137196994.2,Phases=1,LineCode=tieSwitch1,Length=0.001,Units=km,switch=T !numEQ 171440
new line.CTR121573 bus1=BMT137193340.1.2.3,bus2=BMT137193564.1.2.3,Phases=3,LineCode=tieSwitch,Length=0.001,Units=km,switch=T !numEQ 11155
new line.CTR121608 bus1=BMT123347977.1.2.3,bus2=BMT150695146.1.2.3,Phases=3,LineCode=tieSwitch,Length=0.001,Units=km,switch=T !numEQ 183396
new line.CTR130582 bus1=BMT123342846.2,bus2=BMT123343014.2,Phases=1,LineCode=tieSwitch1,Length=0.001,Units=km,switch=T !numEQ 116942
new line.CTR149573 bus1=BMT123341159.1.2.3,bus2=BMT123341320.1.2.3,Phases=3,LineCode=tieSwitch,Length=0.001,Units=km,switch=T !numEQ 122712
new line.CTR16167 bus1=BMT123311710.2,bus2=BMT123312053.2,Phases=1,LineCode=tieSwitch1,Length=0.001,Units=km,switch=T !numEQ 122657
new line.CTR16181 bus1=BMT123347543.1.2.3,bus2=BMT170711166.1.2.3,Phases=3,LineCode=tieSwitch,Length=0.001,Units=km,switch=T !numEQ 117348
new line.CTR171448 bus1=BMT159423681.2,bus2=BMT123313943.2,Phases=1,LineCode=tieSwitch1,Length=0.001,Units=km,switch=T !numEQ 115951
open line.CTR171448 term=1
new line.CTR194254 bus1=BMT137194320.2,bus2=BMT137196973.2,Phases=1,LineCode=tieSwitch1,Length=0.001,Units=km,switch=T !numEQ 145110
new line.CTR194282 bus1=BMT123329070.3,bus2=BMT123329091.3,Phases=1,LineCode=tieSwitch1,Length=0.001,Units=km,switch=T !numEQ 48677
new line.CTR194408 bus1=BMT165758354.1.2.3,bus2=BMT167343831.1.2.3,Phases=3,LineCode=tieSwitch,Length=0.001,Units=km,switch=T !numEQ 167990
new line.CTR212909 bus1=BMT123346150.3,bus2=BMT161018264.3,Phases=1,LineCode=tieSwitch1,Length=0.001,Units=km,switch=T !numEQ 135200
new line.CTR213490 bus1=BMT137197897.1.2.3,bus2=BMT137197904.1.2.3,Phases=3,LineCode=tieSwitch,Length=0.001,Units=km,switch=T !numEQ 49212
new line.CTR213707 bus1=BMT165758495.1.2.3,bus2=BMT165758501.1.2.3,Phases=3,LineCode=tieSwitch,Length=0.001,Units=km,switch=T !numEQ 48535
new line.CTR213749 bus1=BMT165758502.1,bus2=BMT165758895.1,Phases=1,LineCode=tieSwitch1,Length=0.001,Units=km,switch=T !numEQ 48124
new line.CTR213812 bus1=BMT165759215.3,bus2=BMT165759222.3,Phases=1,LineCode=tieSwitch1,Length=0.001,Units=km,switch=T !numEQ 147388
new line.CTR214267 bus1=BMT123311122.1.2.3,bus2=BMT156941419.1.2.3,Phases=3,LineCode=tieSwitch,Length=0.001,Units=km,switch=T !numEQ 379921
new line.CTR214295 bus1=BMT123312235.1,bus2=BMT170913515.1,Phases=1,LineCode=tieSwitch1,Length=0.001,Units=km,switch=T !numEQ 49237
new line.CTR214309 bus1=BMT123312389.3,bus2=BMT123318990.3,Phases=1,LineCode=tieSwitch1,Length=0.001,Units=km,switch=T !numEQ 136594
new line.CTR214316 bus1=BMT123312417.1,bus2=BMT123318913.1,Phases=1,LineCode=tieSwitch1,Length=0.001,Units=km,switch=T !numEQ 49240
new line.CTR214323 bus1=BMT123313957.2,bus2=BMT134165105.2,Phases=1,LineCode=tieSwitch1,Length=0.001,Units=km,switch=T !numEQ 120372
new line.CTR214330 bus1=BMT123313838.3,bus2=BMT161830390.3,Phases=1,LineCode=tieSwitch1,Length=0.001,Units=km,switch=T !numEQ 282827
new line.CTR214337 bus1=BMT123314209.2,bus2=BMT161522504.2,Phases=1,LineCode=tieSwitch1,Length=0.001,Units=km,switch=T !numEQ 187447
new line.CTR214344 bus1=BMT123314937.2,bus2=BMT123314986.2,Phases=1,LineCode=tieSwitch1,Length=0.001,Units=km,switch=T !numEQ 27522
new line.CTR214351 bus1=BMT123313817.1,bus2=BMT123317170.1,Phases=1,LineCode=tieSwitch1,Length=0.001,Units=km,switch=T !numEQ 282826
new line.CTR214358 bus1=BMT123313747.1,bus2=BMT123317240.1,Phases=1,LineCode=tieSwitch1,Length=0.001,Units=km,switch=T !numEQ 115946
new line.CTR214386 bus1=BMT123316092.2,bus2=BMT123316106.2,Phases=1,LineCode=tieSwitch1,Length=0.001,Units=km,switch=T !numEQ 48394
new line.CTR214393 bus1=BMT123314377.3,bus2=BMT123314811.3,Phases=1,LineCode=tieSwitch1,Length=0.001,Units=km,switch=T !numEQ 48583
new line.CTR214428 bus1=BMT123333431.3,bus2=BMT123333508.3,Phases=1,LineCode=tieSwitch1,Length=0.001,Units=km,switch=T !numEQ 116939
new line.CTR214463 bus1=BMT137194173.3,bus2=BMT144772751.3,Phases=1,LineCode=tieSwitch1,Length=0.001,Units=km,switch=T !numEQ 144486
new line.CTR214470 bus1=BMT123330988.1.2.3,bus2=BMT123331009.1.2.3,Phases=3,LineCode=tieSwitch,Length=0.001,Units=km,switch=T !numEQ 56834
new line.CTR214477 bus1=BMT137194187.3,bus2=BMT167952043.3,Phases=1,LineCode=tieSwitch1,Length=0.001,Units=km,switch=T !numEQ 187306
new line.CTR214484 bus1=BMT137194502.1,bus2=BMT137195923.1,Phases=1,LineCode=tieSwitch1,Length=0.001,Units=km,switch=T !numEQ 111720
new line.CTR214491 bus1=BMT123332668.3,bus2=BMT123333151.3,Phases=1,LineCode=tieSwitch1,Length=0.001,Units=km,switch=T !numEQ 49421
new line.CTR214505 bus1=BMT123333648.3,bus2=BMT160004304.3,Phases=1,LineCode=tieSwitch1,Length=0.001,Units=km,switch=T !numEQ 235157
new line.CTR214533 bus1=BMT123311829.2,bus2=BMT123311969.2,Phases=1,LineCode=tieSwitch1,Length=0.001,Units=km,switch=T !numEQ 47278
new line.CTR214540 bus1=BMT123311885.2,bus2=BMT166736583.2,Phases=1,LineCode=tieSwitch1,Length=0.001,Units=km,switch=T !numEQ 47113
new line.CTR214554 bus1=BMT137198583.1.2.3,bus2=BMT150012538.1.2.3,Phases=3,LineCode=tieSwitch,Length=0.001,Units=km,switch=T !numEQ 286340
new line.CTR214589 bus1=BMT123311864.2,bus2=BMT123311955.2,Phases=1,LineCode=tieSwitch1,Length=0.001,Units=km,switch=T !numEQ 11055
new line.CTR214617 bus1=BMT165758231.1.2.3,bus2=BMT169036836.1.2.3,Phases=3,LineCode=tieSwitch,Length=0.001,Units=km,switch=T !numEQ 289191
new line.CTR214652 bus1=BMT137198009.1.2.3,bus2=BMT159956370.1.2.3,Phases=3,LineCode=tieSwitch,Length=0.001,Units=km,switch=T !numEQ 187302
new line.CTR214694 bus1=BMT137193634.1.2.3,bus2=BMT145702855.1.2.3,Phases=3,LineCode=tieSwitch,Length=0.001,Units=km,switch=T !numEQ 48774
new line.CTR214708 bus1=BMT137193060.1.2.3,bus2=BMT171495653.1.2.3,Phases=3,LineCode=tieSwitch,Length=0.001,Units=km,switch=T !numEQ 118123
new line.CTR214715 bus1=BMT137198282.1.2.3,bus2=BMT137198723.1.2.3,Phases=3,LineCode=tieSwitch,Length=0.001,Units=km,switch=T !numEQ 285865
new line.CTR214722 bus1=BMT145702869.1.2.3,bus2=BMT137193690.1.2.3,Phases=3,LineCode=tieSwitch,Length=0.001,Units=km,switch=T !numEQ 48773
open line.CTR214722 term=1
new line.CTR214729 bus1=BMT137198576.1.2.3,bus2=BMT137198625.1.2.3,Phases=3,LineCode=tieSwitch,Length=0.001,Units=km,switch=T !numEQ 118127
new line.CTR214736 bus1=BMT137198478.1.2.3,bus2=BMT137198513.1.2.3,Phases=3,LineCode=tieSwitch,Length=0.001,Units=km,switch=T !numEQ 286274
new line.CTR214799 bus1=BMT123346318.1.2.3,bus2=BMT67659344.1.2.3,Phases=3,LineCode=tieSwitch,Length=0.001,Units=km,switch=T !numEQ 188622
open line.CTR214799 term=1
new line.CTR109155 bus1=BMT123342853.2,bus2=BMT161162880.2,Phases=1,LineCode=tieSwitch1,Length=0.001,Units=km,switch=T !numEQ 103357
new line.CTR12772 bus1=BMT165758733.1,bus2=BMT165758735.1,Phases=1,LineCode=tieSwitch1,Length=0.001,Units=km,switch=T !numEQ 49282
new line.CTR128125 bus1=BMT123319851.1.2.3,bus2=BMT123319858.1.2.3,Phases=3,LineCode=tieSwitch,Length=0.001,Units=km,switch=T !numEQ 183553
new line.CTR147004 bus1=BMT123320488.2,bus2=BMT148273578.2,Phases=1,LineCode=tieSwitch1,Length=0.001,Units=km,switch=T !numEQ 120380
new line.CTR147053 bus1=BMT165758820.1.2.3,bus2=BMT165758822.1.2.3,Phases=3,LineCode=tieSwitch,Length=0.001,Units=km,switch=T !numEQ 116831
new line.CTR182172 bus1=BMT123311101.1.2.3,bus2=BMT123320936.1.2.3,Phases=3,LineCode=tieSwitch,Length=0.001,Units=km,switch=T !numEQ 11072
new line.CTR199259 bus1=BMT169603034.3,bus2=BMT5930873.3,Phases=1,LineCode=tieSwitch1,Length=0.001,Units=km,switch=T !numEQ 193190
open line.CTR199259 term=1
new line.CTR199567 bus1=BMT123316568.1,bus2=BMT123317030.1,Phases=1,LineCode=tieSwitch1,Length=0.001,Units=km,switch=T !numEQ 49176
new line.CTR200001 bus1=BMT123336847.2,bus2=BMT123336994.2,Phases=1,LineCode=tieSwitch1,Length=0.001,Units=km,switch=T !numEQ 140420
new line.CTR200246 bus1=BMT123335251.2,bus2=BMT156867519.2,Phases=1,LineCode=tieSwitch1,Length=0.001,Units=km,switch=T !numEQ 49417
new line.CTR200288 bus1=BMT123343434.1.2.3,bus2=BMT123344253.1.2.3,Phases=3,LineCode=tieSwitch,Length=0.001,Units=km,switch=T !numEQ 201188
new line.CTR200379 bus1=BMT165759601.3,bus2=BMT165759603.3,Phases=1,LineCode=tieSwitch1,Length=0.001,Units=km,switch=T !numEQ 47051
new line.CTR200393 bus1=BMT123329952.1.2.3,bus2=BMT161347394.1.2.3,Phases=3,LineCode=tieSwitch,Length=0.001,Units=km,switch=T !numEQ 205728
new line.CTR200456 bus1=BMT134234972.1.2.3,bus2=BMT173166956.1.2.3,Phases=3,LineCode=tieSwitch,Length=0.001,Units=km,switch=T !numEQ 116768
new line.CTR200778 bus1=BMT137196616.2,bus2=BMT137196686.2,Phases=1,LineCode=tieSwitch1,Length=0.001,Units=km,switch=T !numEQ 122674
new line.CTR22068 bus1=BMT123333830.3,bus2=BMT160004603.3,Phases=1,LineCode=tieSwitch1,Length=0.001,Units=km,switch=T !numEQ 143845
new line.CTR22096 bus1=BMT165759241.3,bus2=BMT165759245.3,Phases=1,LineCode=tieSwitch1,Length=0.001,Units=km,switch=T !numEQ 144549
new line.CTR22124 bus1=BMT123338317.1,bus2=BMT163930372.1,Phases=1,LineCode=tieSwitch1,Length=0.001,Units=km,switch=T !numEQ 147504
new line.CTR221547 bus1=BMT123316778.1,bus2=BMT162945179.1,Phases=1,LineCode=tieSwitch1,Length=0.001,Units=km,switch=T !numEQ 255107
new line.CTR22215 bus1=BMT123333417.3,bus2=BMT160942720.3,Phases=1,LineCode=tieSwitch1,Length=0.001,Units=km,switch=T !numEQ 168031
new line.CTR222261 bus1=BMT123340291.2,bus2=BMT123340312.2,Phases=1,LineCode=tieSwitch1,Length=0.001,Units=km,switch=T !numEQ 184160
new line.CTR22229 bus1=BMT123312501.1,bus2=BMT123317730.1,Phases=1,LineCode=tieSwitch1,Length=0.001,Units=km,switch=T !numEQ 168138
new line.CTR22250 bus1=BMT123313292.3,bus2=BMT123313334.3,Phases=1,LineCode=tieSwitch1,Length=0.001,Units=km,switch=T !numEQ 144494
new line.CTR222821 bus1=BMT123331058.2,bus2=BMT123334824.2,Phases=1,LineCode=tieSwitch1,Length=0.001,Units=km,switch=T !numEQ 146304
new line.CTR22285 bus1=BMT123329665.1.2.3,bus2=BMT123329672.1.2.3,Phases=3,LineCode=tieSwitch,Length=0.001,Units=km,switch=T !numEQ 125600
new line.CTR22292 bus1=BMT123331506.1,bus2=BMT123331597.1,Phases=1,LineCode=tieSwitch1,Length=0.001,Units=km,switch=T !numEQ 143844
new line.CTR223003 bus1=BMT123344561.3,bus2=BMT153117317.3,Phases=1,LineCode=tieSwitch1,Length=0.001,Units=km,switch=T !numEQ 140974
new line.CTR223010 bus1=BMT123342636.3,bus2=BMT123342650.3,Phases=1,LineCode=tieSwitch1,Length=0.001,Units=km,switch=T !numEQ 168992
new line.CTR223045 bus1=BMT123338765.3,bus2=BMT169604666.3,Phases=1,LineCode=tieSwitch1,Length=0.001,Units=km,switch=T !numEQ 187343
new line.CTR223283 bus1=BMT165759148.2,bus2=BMT168892987.2,Phases=1,LineCode=tieSwitch1,Length=0.001,Units=km,switch=T !numEQ 170912
new line.CTR23916 bus1=BMT123345814.3,bus2=BMT123349013.3,Phases=1,LineCode=tieSwitch1,Length=0.001,Units=km,switch=T !numEQ 136213
new line.CTR239474 bus1=BMT123340277.1.2.3,bus2=BMT123340326.1.2.3,Phases=3,LineCode=tieSwitch,Length=0.001,Units=km,switch=T !numEQ 116704
new line.CTR239537 bus1=BMT123336553.1.2.3,bus2=BMT171515543.1.2.3,Phases=3,LineCode=tieSwitch,Length=0.001,Units=km,switch=T !numEQ 136008
new line.CTR239551 bus1=BMT137198366.1.2.3,bus2=BMT137198373.1.2.3,Phases=3,LineCode=tieSwitch,Length=0.001,Units=km,switch=T !numEQ 285869
new line.CTR239810 bus1=BMT123333438.3,bus2=BMT167975884.3,Phases=1,LineCode=tieSwitch1,Length=0.001,Units=km,switch=T !numEQ 262940
new line.CTR240125 bus1=BMT123336679.1.2.3,bus2=BMT161804776.1.2.3,Phases=3,LineCode=tieSwitch,Length=0.001,Units=km,switch=T !numEQ 120250
new line.CTR240139 bus1=BMT123336609.1.2.3,bus2=BMT168610968.1.2.3,Phases=3,LineCode=tieSwitch,Length=0.001,Units=km,switch=T !numEQ 49101
new line.CTR240160 bus1=BMT137193760.1.2.3,bus2=BMT137193767.1.2.3,Phases=3,LineCode=tieSwitch,Length=0.001,Units=km,switch=T !numEQ 48326
new line.CTR240167 bus1=BMT137193795.1.2.3,bus2=BMT137193802.1.2.3,Phases=3,LineCode=tieSwitch,Length=0.001,Units=km,switch=T !numEQ 49484
new line.CTR240174 bus1=BMT137193830.1.2.3,bus2=BMT137193879.1.2.3,Phases=3,LineCode=tieSwitch,Length=0.001,Units=km,switch=T !numEQ 216907
new line.CTR240181 bus1=BMT137193900.1.2.3,bus2=BMT137193907.1.2.3,Phases=3,LineCode=tieSwitch,Length=0.001,Units=km,switch=T !numEQ 49399
new line.CTR240188 bus1=BMT137193928.1.2.3,bus2=BMT158303243.1.2.3,Phases=3,LineCode=tieSwitch,Length=0.001,Units=km,switch=T !numEQ 118137
new line.CTR240230 bus1=BMT123330001.1.2.3,bus2=BMT150348720.1.2.3,Phases=3,LineCode=tieSwitch,Length=0.001,Units=km,switch=T !numEQ 47641
new line.CTR240251 bus1=BMT123343084.1,bus2=BMT123343112.1,Phases=1,LineCode=tieSwitch1,Length=0.001,Units=km,switch=T !numEQ 139465
new line.CTR241084 bus1=BMT123343686.1,bus2=BMT161026650.1,Phases=1,LineCode=tieSwitch1,Length=0.001,Units=km,switch=T !numEQ 117440
new line.CTR241287 bus1=BMT123320691.1.2.3,bus2=BMT123320726.1.2.3,Phases=3,LineCode=tieSwitch,Length=0.001,Units=km,switch=T !numEQ 49207
new line.CTR255329 bus1=BMT137196560.2,bus2=BMT162160552.2,Phases=1,LineCode=tieSwitch1,Length=0.001,Units=km,switch=T !numEQ 48700
new line.CTR255364 bus1=BMT123315672.2,bus2=BMT149991852.2,Phases=1,LineCode=tieSwitch1,Length=0.001,Units=km,switch=T !numEQ 169036
new line.CTR255504 bus1=BMT123318325.1,bus2=BMT123318563.1,Phases=1,LineCode=tieSwitch1,Length=0.001,Units=km,switch=T !numEQ 168034
new line.CTR10273 bus1=BMT137198205.1.2.3,bus2=BMT137198219.1.2.3,Phases=3,LineCode=tieSwitch,Length=0.001,Units=km,switch=T !numEQ 49105
new line.CTR125500 bus1=BMT165758586.1.2.3,bus2=BMT165758587.1.2.3,Phases=3,LineCode=tieSwitch,Length=0.001,Units=km,switch=T !numEQ 56069
new line.CTR12674 bus1=BMT165758007.1.2.3,bus2=BMT165758008.1.2.3,Phases=3,LineCode=tieSwitch,Length=0.001,Units=km,switch=T !numEQ 143379
new line.CTR13444 bus1=BMT123313047.1,bus2=BMT144077882.1,Phases=1,LineCode=tieSwitch1,Length=0.001,Units=km,switch=T !numEQ 144071
new line.CTR148474 bus1=BMT123318465.1,bus2=BMT123318507.1,Phases=1,LineCode=tieSwitch1,Length=0.001,Units=km,switch=T !numEQ 116984
new line.CTR158001 bus1=BMT157769294.1.2.3,bus2=BMT123319935.1.2.3,Phases=3,LineCode=tieSwitch,Length=0.001,Units=km,switch=T !numEQ 122703
open line.CTR158001 term=1
new line.CTR158554 bus1=BMT123345464.1.2.3,bus2=BMT149796575.1.2.3,Phases=3,LineCode=tieSwitch,Length=0.001,Units=km,switch=T !numEQ 187352
new line.CTR16839 bus1=BMT123317709.1.2.3,bus2=BMT123317716.1.2.3,Phases=3,LineCode=tieSwitch,Length=0.001,Units=km,switch=T !numEQ 137858
new line.CTR177713 bus1=BMT137192913.1.2.3,bus2=BMT148528623.1.2.3,Phases=3,LineCode=tieSwitch,Length=0.001,Units=km,switch=T !numEQ 187331
new line.CTR188255 bus1=BMT123311535.2,bus2=BMT164786260.2,Phases=1,LineCode=tieSwitch1,Length=0.001,Units=km,switch=T !numEQ 288002
new line.CTR197222 bus1=BMT165758201.1.2.3,bus2=BMT165758202.1.2.3,Phases=3,LineCode=tieSwitch,Length=0.001,Units=km,switch=T !numEQ 47615
new line.CTR197236 bus1=BMT123345541.1,bus2=BMT159111427.1,Phases=1,LineCode=tieSwitch1,Length=0.001,Units=km,switch=T !numEQ 120231
new line.CTR197831 bus1=BMT123343511.2,bus2=BMT123344099.2,Phases=1,LineCode=tieSwitch1,Length=0.001,Units=km,switch=T !numEQ 214631
new line.CTR197964 bus1=BMT123314335.3,bus2=BMT171285177.3,Phases=1,LineCode=tieSwitch1,Length=0.001,Units=km,switch=T !numEQ 187433
new line.CTR197978 bus1=BMT123343476.1.2.3,bus2=BMT170802312.1.2.3,Phases=3,LineCode=tieSwitch,Length=0.001,Units=km,switch=T !numEQ 201189
new line.CTR216066 bus1=BMT123316694.1,bus2=BMT163053927.1,Phases=1,LineCode=tieSwitch1,Length=0.001,Units=km,switch=T !numEQ 47988
new line.CTR216129 bus1=BMT123317961.1,bus2=BMT161582042.1,Phases=1,LineCode=tieSwitch1,Length=0.001,Units=km,switch=T !numEQ 236760
new line.CTR216395 bus1=BMT137194040.1.2.3,bus2=BMT137197568.1.2.3,Phases=3,LineCode=tieSwitch,Length=0.001,Units=km,switch=T !numEQ 184281
new line.CTR21662 bus1=BMT123349188.3,bus2=BMT156968159.3,Phases=1,LineCode=tieSwitch1,Length=0.001,Units=km,switch=T !numEQ 169778
new line.CTR21767 bus1=BMT123334124.3,bus2=BMT165407217.3,Phases=1,LineCode=tieSwitch1,Length=0.001,Units=km,switch=T !numEQ 168103
new line.CTR231550 bus1=BMT137197099.2,bus2=BMT137194250.2,Phases=1,LineCode=tieSwitch1,Length=0.001,Units=km,switch=T !numEQ 187308
open line.CTR231550 term=1
new line.CTR23174 bus1=BMT123331296.1,bus2=BMT159520161.1,Phases=1,LineCode=tieSwitch1,Length=0.001,Units=km,switch=T !numEQ 144505
new line.CTR231830 bus1=BMT123330113.1.2.3,bus2=BMT123330120.1.2.3,Phases=3,LineCode=tieSwitch,Length=0.001,Units=km,switch=T !numEQ 48007
new line.CTR231935 bus1=BMT123317562.1,bus2=BMT123317653.1,Phases=1,LineCode=tieSwitch1,Length=0.001,Units=km,switch=T !numEQ 134883
new line.CTR23216 bus1=BMT165759457.1.2.3,bus2=BMT165759458.1.2.3,Phases=3,LineCode=tieSwitch,Length=0.001,Units=km,switch=T !numEQ 168570
new line.CTR232306 bus1=BMT123337785.1.2.3,bus2=BMT171119217.1.2.3,Phases=3,LineCode=tieSwitch,Length=0.001,Units=km,switch=T !numEQ 134111
new line.CTR232313 bus1=BMT123316085.2,bus2=BMT123316120.2,Phases=1,LineCode=tieSwitch1,Length=0.001,Units=km,switch=T !numEQ 207545
new line.CTR232481 bus1=BMT123319382.2,bus2=BMT172160033.2,Phases=1,LineCode=tieSwitch1,Length=0.001,Units=km,switch=T !numEQ 116249
new line.CTR233251 bus1=BMT165758857.3,bus2=BMT165758860.3,Phases=1,LineCode=tieSwitch1,Length=0.001,Units=km,switch=T !numEQ 169782
new line.CTR247118 bus1=BMT165759037.1,bus2=BMT165759357.1,Phases=1,LineCode=tieSwitch1,Length=0.001,Units=km,switch=T !numEQ 49293
new line.CTR247188 bus1=BMT123345527.1.2.3,bus2=BMT123349783.1.2.3,Phases=3,LineCode=tieSwitch,Length=0.001,Units=km,switch=T !numEQ 136206
new line.CTR247230 bus1=BMT165758900.1,bus2=BMT167516256.1,Phases=1,LineCode=tieSwitch1,Length=0.001,Units=km,switch=T !numEQ 48126
new line.CTR247237 bus1=BMT165758902.1,bus2=BMT165758911.1,Phases=1,LineCode=tieSwitch1,Length=0.001,Units=km,switch=T !numEQ 48127
new line.CTR247258 bus1=BMT123313201.3,bus2=BMT123313439.3,Phases=1,LineCode=tieSwitch1,Length=0.001,Units=km,switch=T !numEQ 49173
new line.CTR247307 bus1=BMT165758832.1.2.3,bus2=BMT165758847.1.2.3,Phases=3,LineCode=tieSwitch,Length=0.001,Units=km,switch=T !numEQ 49359
new line.CTR247601 bus1=BMT123350847.1,bus2=BMT123350854.1,Phases=1,LineCode=tieSwitch1,Length=0.001,Units=km,switch=T !numEQ 107511
new line.CTR247622 bus1=BMT165758575.1.2.3,bus2=BMT165758576.1.2.3,Phases=3,LineCode=tieSwitch,Length=0.001,Units=km,switch=T !numEQ 168647
new line.CTR247629 bus1=BMT165758634.1.2.3,bus2=BMT165758581.1.2.3,Phases=3,LineCode=tieSwitch,Length=0.001,Units=km,switch=T !numEQ 168651
open line.CTR247629 term=1
new line.CTR247636 bus1=BMT165758633.1.2.3,bus2=BMT165758620.1.2.3,Phases=3,LineCode=tieSwitch,Length=0.001,Units=km,switch=T !numEQ 170913
open line.CTR247636 term=1
new line.CTR247979 bus1=BMT165758591.1.2.3,bus2=BMT165758599.1.2.3,Phases=3,LineCode=tieSwitch,Length=0.001,Units=km,switch=T !numEQ 106875
new line.CTR248119 bus1=BMT123320369.1.2.3,bus2=BMT144418992.1.2.3,Phases=3,LineCode=tieSwitch,Length=0.001,Units=km,switch=T !numEQ 106873
new line.CTR248574 bus1=BMT123312592.2,bus2=BMT123313467.2,Phases=1,LineCode=tieSwitch1,Length=0.001,Units=km,switch=T !numEQ 188678
new line.CTR248609 bus1=BMT123349090.1.2.3,bus2=BMT156965976.1.2.3,Phases=3,LineCode=tieSwitch,Length=0.001,Units=km,switch=T !numEQ 190773
new line.CTR248616 bus1=BMT150073562.1.2.3,bus2=BMT3507375.1.2.3,Phases=3,LineCode=tieSwitch,Length=0.001,Units=km,switch=T !numEQ 120374
open line.CTR248616 term=1
new line.CTR248742 bus1=BMT165758811.1.2.3,bus2=BMT169924032.1.2.3,Phases=3,LineCode=tieSwitch,Length=0.001,Units=km,switch=T !numEQ 49358
new line.CTR248917 bus1=BMT123332752.3,bus2=BMT123332983.3,Phases=1,LineCode=tieSwitch1,Length=0.001,Units=km,switch=T !numEQ 168323
new line.CTR249050 bus1=BMT165759306.2,bus2=BMT165759309.2,Phases=1,LineCode=tieSwitch1,Length=0.001,Units=km,switch=T !numEQ 120573
new line.CTR249085 bus1=BMT137195363.1,bus2=BMT137195398.1,Phases=1,LineCode=tieSwitch1,Length=0.001,Units=km,switch=T !numEQ 168901
new line.CTR249176 bus1=BMT165759392.2,bus2=BMT165759396.2,Phases=1,LineCode=tieSwitch1,Length=0.001,Units=km,switch=T !numEQ 49247
new line.CTR211656 bus1=BMT123332661.3,bus2=BMT159430147.3,Phases=1,LineCode=tieSwitch1,Length=0.001,Units=km,switch=T !numEQ 48101
new line.CTR211663 bus1=BMT123333396.3,bus2=BMT123334061.3,Phases=1,LineCode=tieSwitch1,Length=0.001,Units=km,switch=T !numEQ 48681
new line.CTR211677 bus1=BMT165758172.1,bus2=BMT165758182.1,Phases=1,LineCode=tieSwitch1,Length=0.001,Units=km,switch=T !numEQ 120332
new line.CTR211691 bus1=BMT165757805.1.2.3,bus2=BMT165757820.1.2.3,Phases=3,LineCode=tieSwitch,Length=0.001,Units=km,switch=T !numEQ 47973
new line.CTR211698 bus1=BMT165757806.1.2.3,bus2=BMT165757825.1.2.3,Phases=3,LineCode=tieSwitch,Length=0.001,Units=km,switch=T !numEQ 47974
new line.CTR211719 bus1=BMT123332493.3,bus2=BMT123334418.3,Phases=1,LineCode=tieSwitch1,Length=0.001,Units=km,switch=T !numEQ 47240
new line.CTR211726 bus1=BMT123349965.1,bus2=BMT123350168.1,Phases=1,LineCode=tieSwitch1,Length=0.001,Units=km,switch=T !numEQ 39758
new line.CTR211740 bus1=BMT123333424.3,bus2=BMT161471217.3,Phases=1,LineCode=tieSwitch1,Length=0.001,Units=km,switch=T !numEQ 47896
new line.CTR211817 bus1=BMT165758478.1.2.3,bus2=BMT168479105.1.2.3,Phases=3,LineCode=tieSwitch,Length=0.001,Units=km,switch=T !numEQ 39671
new line.CTR211866 bus1=BMT123348243.3,bus2=BMT123348257.3,Phases=1,LineCode=tieSwitch1,Length=0.001,Units=km,switch=T !numEQ 113958
new line.CTR211880 bus1=BMT123349020.3,bus2=BMT123349027.3,Phases=1,LineCode=tieSwitch1,Length=0.001,Units=km,switch=T !numEQ 49194
new line.CTR211901 bus1=BMT123345639.1.2.3,bus2=BMT144702373.1.2.3,Phases=3,LineCode=tieSwitch,Length=0.001,Units=km,switch=T !numEQ 136208
new line.CTR211915 bus1=BMT123345520.1,bus2=BMT149889287.1,Phases=1,LineCode=tieSwitch1,Length=0.001,Units=km,switch=T !numEQ 187354
new line.CTR211964 bus1=BMT123346010.1.2.3,bus2=BMT151305007.1.2.3,Phases=3,LineCode=tieSwitch,Length=0.001,Units=km,switch=T !numEQ 56345
new line.CTR211985 bus1=BMT123348873.3,bus2=BMT160965582.3,Phases=1,LineCode=tieSwitch1,Length=0.001,Units=km,switch=T !numEQ 244523
new line.CTR211999 bus1=BMT123347949.1.2.3,bus2=BMT123348075.1.2.3,Phases=3,LineCode=tieSwitch,Length=0.001,Units=km,switch=T !numEQ 49446
new line.CTR212006 bus1=BMT123347501.1.2.3,bus2=BMT159191662.1.2.3,Phases=3,LineCode=tieSwitch,Length=0.001,Units=km,switch=T !numEQ 56346
new line.CTR212013 bus1=BMT123347956.3,bus2=BMT172943420.3,Phases=1,LineCode=tieSwitch1,Length=0.001,Units=km,switch=T !numEQ 47230
new line.CTR212020 bus1=BMT123346486.3,bus2=BMT123346605.3,Phases=1,LineCode=tieSwitch1,Length=0.001,Units=km,switch=T !numEQ 47853
new line.CTR212027 bus1=BMT123346969.1.2.3,bus2=BMT123347025.1.2.3,Phases=3,LineCode=tieSwitch,Length=0.001,Units=km,switch=T !numEQ 120233
new line.CTR212034 bus1=BMT123347445.3,bus2=BMT159191612.3,Phases=1,LineCode=tieSwitch1,Length=0.001,Units=km,switch=T !numEQ 47126
new line.CTR212048 bus1=BMT148659866.1,bus2=BMT163374184.1,Phases=1,LineCode=tieSwitch1,Length=0.001,Units=km,switch=T !numEQ 48946
new line.CTR212097 bus1=BMT123338611.1,bus2=BMT123339857.1,Phases=1,LineCode=tieSwitch1,Length=0.001,Units=km,switch=T !numEQ 187484