new load.3005002071M1 bus1=BMT165757839.1.2.3.0,Phases=3,kv=13.8,kW=23.2399,pf=0.92,Vminpu=0.93,Vmaxpu=1.5,model=1,daily=A4-1,status=variable
new load.3007406376M1 bus1=BMT165757848.1.2.3.0,Phases=3,kv=13.8,kW=5.04382,pf=0.92,Vminpu=0.93,Vmaxpu=1.5,model=1,daily=A4-1,status=variable
new load.3009000231M1 bus1=BMT165758265.1.2.3.0,Phases=3,kv=13.8,kW=9.57688,pf=0.92,Vminpu=0.93,Vmaxpu=1.5,model=1,daily=A4-1,status=variable
new load.3009007049M1 bus1=BMT123330750.1.2.3.0,Phases=3,kv=13.8,kW=209.8046,pf=0.92,Vminpu=0.93,Vmaxpu=1.5,model=1,daily=A4-5,status=variable
new load.3009007077M1 bus1=BMT123320838.1.2.3.0,Phases=3,kv=13.8,kW=205.93092,pf=0.92,Vminpu=0.93,Vmaxpu=1.5,model=1,daily=A4-7,status=variable
new load.3009007087M1 bus1=BMT123345086.1.2.3.0,Phases=3,kv=13.8,kW=0.89384,pf=0.92,Vminpu=0.93,Vmaxpu=1.5,model=1,daily=A4-1,status=variable
new load.3009007097M1 bus1=BMT123337071.1.2.3.0,Phases=3,kv=13.8,kW=3.70306,pf=0.92,Vminpu=0.93,Vmaxpu=1.5,model=1,daily=A4-1,status=variable
new load.3009007107M1 bus1=BMT150348723.1.2.3.0,Phases=3,kv=13.8,kW=281.69564,pf=0.92,Vminpu=0.93,Vmaxpu=1.5,model=1,daily=A4-6,status=variable
new load.3009007112M1 bus1=BMT165758193.1.2.3.0,Phases=3,kv=13.8,kW=190.61374,pf=0.92,Vminpu=0.93,Vmaxpu=1.5,model=1,daily=A4-7,status=variable
new load.3009007114M1 bus1=BMT150344878.1.2.3.0,Phases=3,kv=13.8,kW=289.32442,pf=0.92,Vminpu=0.93,Vmaxpu=1.5,model=1,daily=A4-7,status=variable
new load.3009007118M1 bus1=BMT150695147.1.2.3.0,Phases=3,kv=13.8,kW=2.29846,pf=0.92,Vminpu=0.93,Vmaxpu=1.5,model=1,daily=A4-1,status=variable
new load.3009008188M1 bus1=BMT173166991.1.2.3.0,Phases=3,kv=13.8,kW=23.07128,pf=0.92,Vminpu=0.93,Vmaxpu=1.5,model=1,daily=A4-3,status=variable
new load.3009008900M1 bus1=BMT123347060.1.2.3.0,Phases=3,kv=13.8,kW=2.24364,pf=0.92,Vminpu=0.93,Vmaxpu=1.5,model=1,daily=A4-2,status=variable
new load.3009009438M1 bus1=BMT165759596.1.2.3.0,Phases=3,kv=13.8,kW=8.38956,pf=0.92,Vminpu=0.93,Vmaxpu=1.5,model=1,daily=A4-3,status=variable
new load.3009009908M1 bus1=BMT137197953.1.2.3.0,Phases=3,kv=13.8,kW=1.59614,pf=0.92,Vminpu=0.93,Vmaxpu=1.5,model=1,daily=A4-1,status=variable
new load.3009010272M1 bus1=BMT165758179.1.2.3.0,Phases=3,kv=13.8,kW=6.29216,pf=0.92,Vminpu=0.93,Vmaxpu=1.5,model=1,daily=A4-3,status=variable
new load.3009010273M1 bus1=BMT165758092.1.2.3.0,Phases=3,kv=13.8,kW=16.7791,pf=0.92,Vminpu=0.93,Vmaxpu=1.5,model=1,daily=A4-3,status=variable
new load.3009010615M1 bus1=BMT168610973.1.2.3.0,Phases=3,kv=13.8,kW=56.08638,pf=0.92,Vminpu=0.93,Vmaxpu=1.5,model=1,daily=A4-5,status=variable
new load.3009010845M1 bus1=BMT123341068.1.2.3.0,Phases=3,kv=13.8,kW=16.7791,pf=0.92,Vminpu=0.93,Vmaxpu=1.5,model=1,daily=A4-3,status=variable
new load.3009011372M1 bus1=BMT123311073.1.2.3.0,Phases=3,kv=13.8,kW=130.03808,pf=0.92,Vminpu=0.93,Vmaxpu=1.5,model=1,daily=A4-3,status=variable
new load.3009011660M1 bus1=BMT165758829.1.2.3.0,Phases=3,kv=13.8,kW=17.07208,pf=0.92,Vminpu=0.93,Vmaxpu=1.5,model=1,daily=A4-4,status=variable
new load.3009012196M1 bus1=BMT123341222.1.2.3.0,Phases=3,kv=13.8,kW=104.86942,pf=0.92,Vminpu=0.93,Vmaxpu=1.5,model=1,daily=A4-3,status=variable
new load.3009012243M1 bus1=BMT123330330.1.2.3.0,Phases=3,kv=13.8,kW=91.90306,pf=0.92,Vminpu=0.93,Vmaxpu=1.5,model=1,daily=A4-7,status=variable
new load.3009012640M1 bus1=BMT165758024.1.2.3.0,Phases=3,kv=13.8,kW=4.48728,pf=0.92,Vminpu=0.93,Vmaxpu=1.5,model=1,daily=A4-2,status=variable
new load.3009013288M1 bus1=BMT137198191.1.2.3.0,Phases=3,kv=13.8,kW=67.11644,pf=0.92,Vminpu=0.93,Vmaxpu=1.5,model=1,daily=A4-3,status=variable
new load.3009013726M1 bus1=BMT123342622.1.2.3.0,Phases=3,kv=13.8,kW=48.23994,pf=0.92,Vminpu=0.93,Vmaxpu=1.5,model=1,daily=A4-3,status=variable
new load.3009013766M1 bus1=BMT123335503.1.2.3.0,Phases=3,kv=13.8,kW=99.70912,pf=0.92,Vminpu=0.93,Vmaxpu=1.5,model=1,daily=A4-5,status=variable
new load.3009015203M1 bus1=BMT123351106.1.2.3.0,Phases=3,kv=13.8,kW=2.09738,pf=0.92,Vminpu=0.93,Vmaxpu=1.5,model=1,daily=A4-3,status=variable
new load.3009016497M1 bus1=BMT165758731.1.2.3.0,Phases=3,kv=13.8,kW=100.32996,pf=0.92,Vminpu=0.93,Vmaxpu=1.5,model=1,daily=A4-6,status=variable
new load.3009016673M1 bus1=BMT123320887.1.2.3.0,Phases=3,kv=13.8,kW=3.1923,pf=0.92,Vminpu=0.93,Vmaxpu=1.5,model=1,daily=A4-1,status=variable
new load.3009017334M1 bus1=BMT165758013.1.2.3.0,Phases=3,kv=13.8,kW=54.02382,pf=0.92,Vminpu=0.93,Vmaxpu=1.5,model=1,daily=A4-6,status=variable
new load.3009017936M1 bus1=BMT165758769.1.2.3.0,Phases=3,kv=13.8,kW=17.9491,pf=0.92,Vminpu=0.93,Vmaxpu=1.5,model=1,daily=A4-2,status=variable
new load.3009018575M1 bus1=BMT123340333.1.2.3.0,Phases=3,kv=13.8,kW=73.4086,pf=0.92,Vminpu=0.93,Vmaxpu=1.5,model=1,daily=A4-3,status=variable
new load.3009018838M1 bus1=BMT165758823.1.2.3.0,Phases=3,kv=13.8,kW=2.09738,pf=0.92,Vminpu=0.93,Vmaxpu=1.5,model=1,daily=A4-3,status=variable
new load.3009018982M1 bus1=BMT123342713.1.2.3.0,Phases=3,kv=13.8,kW=42.6291,pf=0.92,Vminpu=0.93,Vmaxpu=1.5,model=1,daily=A4-2,status=variable
new load.3009019090M1 bus1=BMT165758748.1.2.3.0,Phases=3,kv=13.8,kW=89.32276,pf=0.92,Vminpu=0.93,Vmaxpu=1.5,model=1,daily=A4-5,status=variable
new load.3009019156M1 bus1=BMT165759083.1.2.3.0,Phases=3,kv=13.8,kW=64.39548,pf=0.92,Vminpu=0.93,Vmaxpu=1.5,model=1,daily=A4-5,status=variable
new load.3009019157M1 bus1=BMT165759350.1.2.3.0,Phases=3,kv=13.8,kW=2.07728,pf=0.92,Vminpu=0.93,Vmaxpu=1.5,model=1,daily=A4-5,status=variable
new load.3009019228M1 bus1=BMT123347522.1.2.3.0,Phases=3,kv=13.8,kW=132.9455,pf=0.92,Vminpu=0.93,Vmaxpu=1.5,model=1,daily=A4-5,status=variable
new load.3009019688M1 bus1=BMT123317751.1.2.3.0,Phases=3,kv=13.8,kW=13.46182,pf=0.92,Vminpu=0.93,Vmaxpu=1.5,model=1,daily=A4-2,status=variable
new load.3009019689M1 bus1=BMT123317485.1.2.3.0,Phases=3,kv=13.8,kW=35.6556,pf=0.92,Vminpu=0.93,Vmaxpu=1.5,model=1,daily=A4-3,status=variable
new load.3009020111M1 bus1=BMT123347074.1.2.3.0,Phases=3,kv=13.8,kW=22.43636,pf=0.92,Vminpu=0.93,Vmaxpu=1.5,model=1,daily=A4-2,status=variable
new load.3009020237M1 bus1=BMT123320782.1.2.3.0,Phases=3,kv=13.8,kW=14.68172,pf=0.92,Vminpu=0.93,Vmaxpu=1.5,model=1,daily=A4-3,status=variable
new load.3009020239M1 bus1=BMT123313075.1.2.3.0,Phases=3,kv=13.8,kW=8.38956,pf=0.92,Vminpu=0.93,Vmaxpu=1.5,model=1,daily=A4-3,status=variable
new load.3009020240M1 bus1=BMT123312970.1.2.3.0,Phases=3,kv=13.8,kW=2.24364,pf=0.92,Vminpu=0.93,Vmaxpu=1.5,model=1,daily=A4-2,status=variable
new load.3009020625M1 bus1=BMT123348131.1.2.3.0,Phases=3,kv=13.8,kW=3.1923,pf=0.92,Vminpu=0.93,Vmaxpu=1.5,model=1,daily=A4-1,status=variable
new load.3009020651M1 bus1=BMT123344701.1.2.3.0,Phases=3,kv=13.8,kW=2.09738,pf=0.92,Vminpu=0.93,Vmaxpu=1.5,model=1,daily=A4-3,status=variable
new load.3009020687M1 bus1=BMT134119220.1.2.3.0,Phases=3,kv=13.8,kW=33.55822,pf=0.92,Vminpu=0.93,Vmaxpu=1.5,model=1,daily=A4-3,status=variable
new load.3009021271M1 bus1=BMT123319865.1.2.3.0,Phases=3,kv=13.8,kW=6.29216,pf=0.92,Vminpu=0.93,Vmaxpu=1.5,model=1,daily=A4-3,status=variable
new load.3009021601M1 bus1=BMT165758195.1.2.3.0,Phases=3,kv=13.8,kW=31.46082,pf=0.92,Vminpu=0.93,Vmaxpu=1.5,model=1,daily=A4-3,status=variable
new load.3009021692M1 bus1=BMT165759459.1.2.3.0,Phases=3,kv=13.8,kW=10.48694,pf=0.92,Vminpu=0.93,Vmaxpu=1.5,model=1,daily=A4-3,status=variable
new load.3009021693M1 bus1=BMT165759488.1.2.3.0,Phases=3,kv=13.8,kW=13.46182,pf=0.92,Vminpu=0.93,Vmaxpu=1.5,model=1,daily=A4-2,status=variable
new load.3009021781M1 bus1=BMT165757853.1.2.3.0,Phases=3,kv=13.8,kW=90.1877,pf=0.92,Vminpu=0.93,Vmaxpu=1.5,model=1,daily=A4-3,status=variable
new load.3010000332M1 bus1=BMT123342076.1.2.3.0,Phases=3,kv=13.8,kW=41.94776,pf=0.92,Vminpu=0.93,Vmaxpu=1.5,model=1,daily=A4-3,status=variable
new load.3010119006M1 bus1=BMT123347627.1.2.3.0,Phases=3,kv=13.8,kW=34.14414,pf=0.92,Vminpu=0.93,Vmaxpu=1.5,model=1,daily=A4-4,status=variable
new load.3010143793M1 bus1=BMT165759322.1.2.3.0,Phases=3,kv=13.8,kW=5.78826,pf=0.92,Vminpu=0.93,Vmaxpu=1.5,model=1,daily=A4-6,status=variable
new load.3010199630M1 bus1=BMT137193585.1.2.3.0,Phases=3,kv=13.8,kW=8.97454,pf=0.92,Vminpu=0.93,Vmaxpu=1.5,model=1,daily=A4-2,status=variable
new load.3010248913M1 bus1=BMT123320180.1.2.3.0,Phases=3,kv=13.8,kW=18.8765,pf=0.92,Vminpu=0.93,Vmaxpu=1.5,model=1,daily=A4-3,status=variable
new load.3010351777M1 bus1=BMT123350581.1.2.3.0,Phases=3,kv=13.8,kW=25.16866,pf=0.92,Vminpu=0.93,Vmaxpu=1.5,model=1,daily=A4-3,status=variable
new load.3010353571M1 bus1=BMT123312802.1.2.3.0,Phases=3,kv=13.8,kW=2.24364,pf=0.92,Vminpu=0.93,Vmaxpu=1.5,model=1,daily=A4-2,status=variable
new load.3010438854M1 bus1=BMT156965977.1.2.3.0,Phases=3,kv=13.8,kW=20.97388,pf=0.92,Vminpu=0.93,Vmaxpu=1.5,model=1,daily=A4-3,status=variable
new load.3010510571M1 bus1=BMT123349300.1.2.3.0,Phases=3,kv=13.8,kW=24.92728,pf=0.92,Vminpu=0.93,Vmaxpu=1.5,model=1,daily=A4-5,status=variable
new load.3010619478M1 bus1=BMT123334866.1.2.3.0,Phases=3,kv=13.8,kW=2.134,pf=0.92,Vminpu=0.93,Vmaxpu=1.5,model=1,daily=A4-4,status=variable
new load.3010777997M1 bus1=BMT171994391.1.2.3.0,Phases=3,kv=13.8,kW=144.66222,pf=0.92,Vminpu=0.93,Vmaxpu=1.5,model=1,daily=A4-7,status=variable
new load.3010843967M1 bus1=BMT165758066.1.2.3.0,Phases=3,kv=13.8,kW=31.41092,pf=0.92,Vminpu=0.93,Vmaxpu=1.5,model=1,daily=A4-2,status=variable
new load.3010901767M1 bus1=BMT165759081.1.2.3.0,Phases=3,kv=13.8,kW=35.89818,pf=0.92,Vminpu=0.93,Vmaxpu=1.5,model=1,daily=A4-2,status=variable
new load.3010927261M1 bus1=BMT153485757.1.2.3.0,Phases=3,kv=13.8,kW=8.97454,pf=0.92,Vminpu=0.93,Vmaxpu=1.5,model=1,daily=A4-2,status=variable
new load.3010941375M1 bus1=BMT123344449.1.2.3.0,Phases=3,kv=13.8,kW=16.7791,pf=0.92,Vminpu=0.93,Vmaxpu=1.5,model=1,daily=A4-3,status=variable
new load.3011133420M1 bus1=BMT137198443.1.2.3.0,Phases=3,kv=13.8,kW=102.77204,pf=0.92,Vminpu=0.93,Vmaxpu=1.5,model=1,daily=A4-3,status=variable
new load.3011134183M1 bus1=BMT123334880.1.2.3.0,Phases=3,kv=13.8,kW=90.68284,pf=0.92,Vminpu=0.93,Vmaxpu=1.5,model=1,daily=A4-6,status=variable
new load.3011344614M1 bus1=BMT151299506.1.2.3.0,Phases=3,kv=13.8,kW=6.29216,pf=0.92,Vminpu=0.93,Vmaxpu=1.5,model=1,daily=A4-3,status=variable
new load.3011655614M1 bus1=BMT137197750.1.2.3.0,Phases=3,kv=13.8,kW=4.48728,pf=0.92,Vminpu=0.93,Vmaxpu=1.5,model=1,daily=A4-2,status=variable
new load.3011777973M1 bus1=BMT140210312.1.2.3.0,Phases=3,kv=13.8,kW=8.97454,pf=0.92,Vminpu=0.93,Vmaxpu=1.5,model=1,daily=A4-2,status=variable
new load.3011868785M1 bus1=BMT137815542.1.2.3.0,Phases=3,kv=13.8,kW=23.4741,pf=0.92,Vminpu=0.93,Vmaxpu=1.5,model=1,daily=A4-4,status=variable
new load.3012134620M1 bus1=BMT150346702.1.2.3.0,Phases=3,kv=13.8,kW=228.50006,pf=0.92,Vminpu=0.93,Vmaxpu=1.5,model=1,daily=A4-5,status=variable
new load.3012174159M1 bus1=BMT142976845.1.2.3.0,Phases=3,kv=13.8,kW=12.58434,pf=0.92,Vminpu=0.93,Vmaxpu=1.5,model=1,daily=A4-3,status=variable
new load.3012283964M1 bus1=BMT151299091.1.2.3.0,Phases=3,kv=13.8,kW=24.92728,pf=0.92,Vminpu=0.93,Vmaxpu=1.5,model=1,daily=A4-5,status=variable
new load.3012528904M1 bus1=BMT164564667.1.2.3.0,Phases=3,kv=13.8,kW=73.4086,pf=0.92,Vminpu=0.93,Vmaxpu=1.5,model=1,daily=A4-3,status=variable
new load.3012531035M1 bus1=BMT163099462.1.2.3.0,Phases=3,kv=13.8,kW=20.19272,pf=0.92,Vminpu=0.93,Vmaxpu=1.5,model=1,daily=A4-2,status=variable
new load.3012757817M1 bus1=BMT162282424.1.2.3.0,Phases=3,kv=13.8,kW=6.29216,pf=0.92,Vminpu=0.93,Vmaxpu=1.5,model=1,daily=A4-3,status=variable
new load.3012786408M1 bus1=BMT157689275.1.2.3.0,Phases=3,kv=13.8,kW=14.68172,pf=0.92,Vminpu=0.93,Vmaxpu=1.5,model=1,daily=A4-3,status=variable
new load.3012857139M1 bus1=BMT159677689.1.2.3.0,Phases=3,kv=13.8,kW=2.134,pf=0.92,Vminpu=0.93,Vmaxpu=1.5,model=1,daily=A4-4,status=variable
new load.3012951523M1 bus1=BMT165759466.1.2.3.0,Phases=3,kv=13.8,kW=35.6556,pf=0.92,Vminpu=0.93,Vmaxpu=1.5,model=1,daily=A4-3,status=variable
new load.3012980575M1 bus1=BMT156970478.1.2.3.0,Phases=3,kv=13.8,kW=53.84728,pf=0.92,Vminpu=0.93,Vmaxpu=1.5,model=1,daily=A4-2,status=variable
new load.3013287539M1 bus1=BMT165758447.1.2.3.0,Phases=3,kv=13.8,kW=6.29216,pf=0.92,Vminpu=0.93,Vmaxpu=1.5,model=1,daily=A4-3,status=variable
new load.3013300623M1 bus1=BMT167679234.1.2.3.0,Phases=3,kv=13.8,kW=83.01454,pf=0.92,Vminpu=0.93,Vmaxpu=1.5,model=1,daily=A4-2,status=variable
new load.3013527864M1 bus1=BMT169924043.1.2.3.0,Phases=3,kv=13.8,kW=115.23648,pf=0.92,Vminpu=0.93,Vmaxpu=1.5,model=1,daily=A4-4,status=variable
