new line.RML10059472 bus1=BBT759490.2.3.0,bus2=RML1060059472.2.3.0,Phases=2,Linecode=CABBTG05_4_2,Length=0.009000000,Units=km
new line.RML10059545 bus1=BBT147919559.1.2.0,bus2=RML1060059545.1.2.0,Phases=2,Linecode=CABBTG05_4_2,Length=0.015000000,Units=km
new line.RML10059575 bus1=BBT3157067.1.2.0,bus2=RML1060059575.1.2.0,Phases=2,Linecode=CABBTG05_4_2,Length=0.010000000,Units=km
new line.RML10059578 bus1=BBT974537.1.0,bus2=RML1060059578.1.0,Phases=1,Linecode=CABBTG01_4_1,Length=0.015000000,Units=km
new line.RML10059728 bus1=BBT3418629.1.0,bus2=RML1060059728.1.0,Phases=1,Linecode=CABBTG02_4_1,Length=0.017000000,Units=km
new line.RML10059741 bus1=BBT67713069.1.0,bus2=RML1060059741.1.0,Phases=1,Linecode=CABBTG02_4_1,Length=0.006000000,Units=km
new line.RML10059746 bus1=BBT147918145.3.0,bus2=RML1060059746.3.0,Phases=1,Linecode=CABBTG02_4_1,Length=0.014000000,Units=km
new line.RML10059780 bus1=BBT146503858.1.2.0,bus2=RML1060059780.1.2.0,Phases=2,Linecode=CABBTG05_4_2,Length=0.017000000,Units=km
new line.RML10059874 bus1=BBT137716590.1.2.0,bus2=RML1060059874.1.2.0,Phases=2,Linecode=CABBTG05_4_2,Length=0.017000000,Units=km
new line.RML10059879 bus1=BBT821811.1.0,bus2=RML1060059879.1.0,Phases=1,Linecode=CABBTG02_4_1,Length=0.017000000,Units=km
new line.RML10059896 bus1=BBT776927.1.0,bus2=RML1060059896.1.0,Phases=1,Linecode=CABBTG02_4_1,Length=0.017000000,Units=km
new line.RML10059897 bus1=BBT3331920.1.0,bus2=RML1060059897.1.0,Phases=1,Linecode=CABBTG02_4_1,Length=0.025000000,Units=km
new line.RML10059916 bus1=BBT751090.2.0,bus2=RML1060059916.2.0,Phases=1,Linecode=CABBTG02_4_1,Length=0.019000000,Units=km
new line.RML10059920 bus1=BBT65443977.1.2.0,bus2=RML1060059920.1.2.0,Phases=2,Linecode=CABBTG05_4_2,Length=0.010000000,Units=km
new line.RML10059929 bus1=BBT760785.1.2.0,bus2=RML1060059929.1.2.0,Phases=2,Linecode=CABBTG05_4_2,Length=0.026000000,Units=km
new line.RML10059930 bus1=BBT765307.1.2.3.0,bus2=RML1060059930.1.2.3.0,Phases=3,Linecode=CABBTG09_4_3,Length=0.063,Units=km
new line.RML10059958 bus1=BBT2998923.1.2.0,bus2=RML1060059958.1.2.0,Phases=2,Linecode=CABBTG05_4_2,Length=0.014000000,Units=km
new line.RML10059968 bus1=BBT924046.2.0,bus2=RML1060059968.2.0,Phases=1,Linecode=CABBTG02_4_1,Length=0.013000000,Units=km
new line.RML10059977 bus1=BBT775254.1.2.0,bus2=RML1060059977.1.2.0,Phases=2,Linecode=CABBTG05_4_2,Length=0.020000000,Units=km
new line.RML10059981 bus1=BBT749725.2.0,bus2=RML1060059981.2.0,Phases=1,Linecode=CABBTG02_4_1,Length=0.008000000,Units=km
new line.RML10061285 bus1=BBT829812.1.0,bus2=RML1060061285.1.0,Phases=1,Linecode=CABBTG02_4_1,Length=0.017000000,Units=km
new line.RML10061298 bus1=BBT147917816.2.0,bus2=RML1060061298.2.0,Phases=1,Linecode=CABBTG02_4_1,Length=0.012000000,Units=km
new line.RML10061316 bus1=BBT3372989.1.2.0,bus2=RML1060061316.1.2.0,Phases=2,Linecode=CABBTG04_4_2,Length=0.027000000,Units=km
new line.RML10061318 bus1=BBT111627177.1.2.0,bus2=RML1060061318.1.2.0,Phases=2,Linecode=CABBTG04_4_2,Length=0.010000000,Units=km
new line.RML10061321 bus1=BBT747786.2.0,bus2=RML1060061321.2.0,Phases=1,Linecode=CABBTG01_4_1,Length=0.010000000,Units=km
new line.RML10061326 bus1=BBT751895.1.0,bus2=RML1060061326.1.0,Phases=1,Linecode=CABBTG02_4_1,Length=0.013000000,Units=km
new line.RML10061331 bus1=BBT147917809.2.0,bus2=RML1060061331.2.0,Phases=1,Linecode=CABBTG02_4_1,Length=0.017000000,Units=km
new line.RML10061337 bus1=BBT4093583.2.0,bus2=RML1060061337.2.0,Phases=1,Linecode=CABBTG02_4_1,Length=0.013000000,Units=km
new line.RML10061350 bus1=BBT147918131.3.0,bus2=RML1060061350.3.0,Phases=1,Linecode=CABBTG02_4_1,Length=0.014000000,Units=km
new line.RML10061351 bus1=BBT749305.2.3.0,bus2=RML1060061351.2.3.0,Phases=2,Linecode=CABBTG05_4_2,Length=0.017000000,Units=km
new line.RML10061357 bus1=BBT3251574.1.2.0,bus2=RML1060061357.1.2.0,Phases=2,Linecode=CABBTG04_4_2,Length=0.011000000,Units=km
new line.RML10062696 bus1=BBT767029.1.0,bus2=RML1060062696.1.0,Phases=1,Linecode=CABBTG02_4_1,Length=0.012000000,Units=km
new line.RML10062741 bus1=BBT94384819.1.2.0,bus2=RML1060062741.1.2.0,Phases=2,Linecode=CABBTG05_4_2,Length=0.014000000,Units=km
new line.RML10062750 bus1=BBT65350240.1.0,bus2=RML1060062750.1.0,Phases=1,Linecode=CABBTG02_4_1,Length=0.010000000,Units=km
new line.RML10062755 bus1=BBT147918124.2.0,bus2=RML1060062755.2.0,Phases=1,Linecode=CABBTG02_4_1,Length=0.012000000,Units=km
new line.RML10062772 bus1=BBT147918131.1.0,bus2=RML1060062772.1.0,Phases=1,Linecode=CABBTG02_4_1,Length=0.012000000,Units=km
new line.RML10062776 bus1=BBT147918138.1.0,bus2=RML1060062776.1.0,Phases=1,Linecode=CABBTG02_4_1,Length=0.012000000,Units=km
new line.RML10062780 bus1=BBT147918131.1.0,bus2=RML1060062780.1.0,Phases=1,Linecode=CABBTG02_4_1,Length=0.014000000,Units=km
new line.RML10062784 bus1=BBT147918138.1.0,bus2=RML1060062784.1.0,Phases=1,Linecode=CABBTG02_4_1,Length=0.012000000,Units=km
new line.RML10062788 bus1=BBT147917816.1.0,bus2=RML1060062788.1.0,Phases=1,Linecode=CABBTG02_4_1,Length=0.016000000,Units=km
new line.RML10062795 bus1=BBT974467.1.2.0,bus2=RML1060062795.1.2.0,Phases=2,Linecode=CABBTG05_4_2,Length=0.012000000,Units=km
new line.RML10062796 bus1=BBT147912062.1.0,bus2=RML1060062796.1.0,Phases=1,Linecode=CABBTG02_4_1,Length=0.010000000,Units=km
new line.RML10062813 bus1=BBT50717314.1.0,bus2=RML1060062813.1.0,Phases=1,Linecode=CABBTG02_4_1,Length=0.012000000,Units=km
new line.RML10062816 bus1=BBT766868.1.0,bus2=RML1060062816.1.0,Phases=1,Linecode=CABBTG02_4_1,Length=0.025000000,Units=km
new line.RML10062817 bus1=BBT147425548.1.0,bus2=RML1060062817.1.0,Phases=1,Linecode=CABBTG02_4_1,Length=0.012000000,Units=km
new line.RML10062818 bus1=BBT773952.1.2.3.0,bus2=RML1060062818.1.2.3.0,Phases=3,Linecode=CABBTG06_4_3,Length=0.012000000,Units=km
new line.RML10062829 bus1=BBT3251448.1.2.0,bus2=RML1060062829.1.2.0,Phases=2,Linecode=CABBTG05_4_2,Length=0.017000000,Units=km
new line.RML10062831 bus1=BBT83346183.1.0,bus2=RML1060062831.1.0,Phases=1,Linecode=CABBTG01_4_1,Length=0.017000000,Units=km
new line.RML10063018 bus1=BBT20644719.1.0,bus2=RML1060063018.1.0,Phases=1,Linecode=CABBTG02_4_1,Length=0.017000000,Units=km
new line.RML10063021 bus1=BBT20644719.2.0,bus2=RML1060063021.2.0,Phases=1,Linecode=CABBTG02_4_1,Length=0.017000000,Units=km
new line.RML10063026 bus1=BBT834600.1.2.0,bus2=RML1060063026.1.2.0,Phases=2,Linecode=CABBTG05_4_2,Length=0.030000000,Units=km
new line.RML10063065 bus1=BBT5092315.1.0,bus2=RML1060063065.1.0,Phases=1,Linecode=CABBTG01_4_1,Length=0.010000000,Units=km
new line.RML10063069 bus1=BBT68823101.1.0,bus2=RML1060063069.1.0,Phases=1,Linecode=CABBTG01_4_1,Length=0.008000000,Units=km
new line.RML10063099 bus1=BBT146156126.2.0,bus2=RML1060063099.2.0,Phases=1,Linecode=CABBTG01_4_1,Length=0.007000000,Units=km
new line.RML10063168 bus1=BBT3642762.1.0,bus2=RML1060063168.1.0,Phases=1,Linecode=CABBTG02_4_1,Length=0.017000000,Units=km
new line.RML10063254 bus1=BBT3657490.1.0,bus2=RML1060063254.1.0,Phases=1,Linecode=CABBTG01_4_1,Length=0.015000000,Units=km
new line.RML10063255 bus1=BBT775933.1.2.0,bus2=RML1060063255.1.2.0,Phases=2,Linecode=CABBTG05_4_2,Length=0.018000000,Units=km
new line.RML10066346 bus1=BBT3649846.1.2.0,bus2=RML1060066346.1.2.0,Phases=2,Linecode=CABBTG04_4_2,Length=0.029000000,Units=km
new line.RML10066349 bus1=BBT832339.2.3.0,bus2=RML1060066349.2.3.0,Phases=2,Linecode=CABBTG04_4_2,Length=0.017000000,Units=km
new line.RML10070635 bus1=BBT149053428.1.2.3.0,bus2=RML1060070635.1.2.3.0,Phases=3,Linecode=CABBTG07_4_3,Length=0.017000000,Units=km
new line.RML10071282 bus1=BBT147422867.1.2.0,bus2=RML1060071282.1.2.0,Phases=2,Linecode=CABBTG05_4_2,Length=0.008000000,Units=km
new line.RML10072388 bus1=BBT149106133.1.2.0,bus2=RML1060072388.1.2.0,Phases=2,Linecode=CABBT811_4_2,Length=0.011000000,Units=km
new line.RML10073750 bus1=BBT776437.1.0,bus2=RML1060073750.1.0,Phases=1,Linecode=CABBTG01_4_1,Length=0.012000000,Units=km
new line.RML10073787 bus1=BBT147424659.1.0,bus2=RML1060073787.1.0,Phases=1,Linecode=CABBTG02_4_1,Length=0.012000000,Units=km
new line.RML10073790 bus1=BBT147425541.2.0,bus2=RML1060073790.2.0,Phases=1,Linecode=CABBTG02_4_1,Length=0.008000000,Units=km
new line.RML10073793 bus1=BBT147425541.1.0,bus2=RML1060073793.1.0,Phases=1,Linecode=CABBTG02_4_1,Length=0.008000000,Units=km
new line.RML10073794 bus1=BBT147425541.3.0,bus2=RML1060073794.3.0,Phases=1,Linecode=CABBTG02_4_1,Length=0.012000000,Units=km
new line.RML10073803 bus1=BBT147424659.1.0,bus2=RML1060073803.1.0,Phases=1,Linecode=CABBTG02_4_1,Length=0.017000000,Units=km
new line.RML10073810 bus1=BBT3251343.1.2.0,bus2=RML1060073810.1.2.0,Phases=2,Linecode=CABBTG04_4_2,Length=0.013000000,Units=km
new line.RML10073813 bus1=BBT843014.1.0,bus2=RML1060073813.1.0,Phases=1,Linecode=CABBTG02_4_1,Length=0.012000000,Units=km
new line.RML10073817 bus1=BBT925096.2.0,bus2=RML1060073817.2.0,Phases=1,Linecode=CABBTG02_4_1,Length=0.014000000,Units=km
new line.RML10073820 bus1=BBT11269080.1.2.0,bus2=RML1060073820.1.2.0,Phases=2,Linecode=CABBTG05_4_2,Length=0.008000000,Units=km
new line.RML10073824 bus1=BBT769668.1.2.0,bus2=RML1060073824.1.2.0,Phases=2,Linecode=CABBTG05_4_2,Length=0.008000000,Units=km
new line.RML10073827 bus1=BBT768765.1.2.0,bus2=RML1060073827.1.2.0,Phases=2,Linecode=CABBTG05_4_2,Length=0.008000000,Units=km
new line.RML10073830 bus1=BBT36611565.1.0,bus2=RML1060073830.1.0,Phases=1,Linecode=CABBTG02_4_1,Length=0.012000000,Units=km
new line.RML10073832 bus1=BBT4289891.1.2.0,bus2=RML1060073832.1.2.0,Phases=2,Linecode=CABBTG05_4_2,Length=0.007000000,Units=km
new line.RML10073834 bus1=BBT758972.1.2.0,bus2=RML1060073834.1.2.0,Phases=2,Linecode=CABBTG05_4_2,Length=0.014000000,Units=km
new line.RML10073871 bus1=BBT969959.1.0,bus2=RML1060073871.1.0,Phases=1,Linecode=CABBTG02_4_1,Length=0.012000000,Units=km
new line.RML10073892 bus1=BBT750803.1.0,bus2=RML1060073892.1.0,Phases=1,Linecode=CABBTG02_4_1,Length=0.013000000,Units=km
new line.RML10073893 bus1=BBT4835954.1.2.0,bus2=RML1060073893.1.2.0,Phases=2,Linecode=CABBTG05_4_2,Length=0.011000000,Units=km
new line.RML10073908 bus1=BBT759469.2.0,bus2=RML1060073908.2.0,Phases=1,Linecode=CABBTG02_4_1,Length=0.012000000,Units=km
new line.RML10073910 bus1=BBT3251553.1.0,bus2=RML1060073910.1.0,Phases=1,Linecode=CABBTG02_4_1,Length=0.014000000,Units=km
new line.RML10073914 bus1=BBT752210.1.0,bus2=RML1060073914.1.0,Phases=1,Linecode=CABBTG02_4_1,Length=0.008000000,Units=km
new line.RML10073923 bus1=BBT748437.1.2.0,bus2=RML1060073923.1.2.0,Phases=2,Linecode=CABBTG05_4_2,Length=0.014000000,Units=km
new line.RML10073924 bus1=BBT768422.1.0,bus2=RML1060073924.1.0,Phases=1,Linecode=CABBTG02_4_1,Length=0.010000000,Units=km
new line.RML10073926 bus1=BBT777634.1.0,bus2=RML1060073926.1.0,Phases=1,Linecode=CABBTG02_4_1,Length=0.017000000,Units=km
new line.RML10073928 bus1=BBT836196.2.0,bus2=RML1060073928.2.0,Phases=1,Linecode=CABBTG02_4_1,Length=0.010000000,Units=km
new line.RML10073937 bus1=BBT140917354.1.2.3.0,bus2=RML1060073937.1.2.3.0,Phases=3,Linecode=CABBTG06_4_3,Length=0.008000000,Units=km
new line.RML10073940 bus1=BBT5052989.1.2.0,bus2=RML1060073940.1.2.0,Phases=2,Linecode=CABBTG05_4_2,Length=0.012000000,Units=km
new line.RML10073943 bus1=BBT147422307.1.0,bus2=RML1060073943.1.0,Phases=1,Linecode=CABBTG02_4_1,Length=0.012000000,Units=km
new line.RML10074004 bus1=BBT146342802.1.2.3.0,bus2=RML1060074004.1.2.3.0,Phases=3,Linecode=CABBTG08_4_3,Length=0.020000000,Units=km
new line.RML10074032 bus1=BBT828776.1.2.3.0,bus2=RML1060074032.1.2.3.0,Phases=3,Linecode=CABBTG06_4_3,Length=0.017000000,Units=km
new line.RML10116151 bus1=BBT83346498.2.0,bus2=RML1060116151.2.0,Phases=1,Linecode=CABBTG02_4_1,Length=0.013000000,Units=km
new line.RML10116176 bus1=BBT4093583.2.0,bus2=RML1060116176.2.0,Phases=1,Linecode=CABBTG02_4_1,Length=0.015000000,Units=km
new line.RML10116179 bus1=BBT147919566.3.0,bus2=RML1060116179.3.0,Phases=1,Linecode=CABBTG02_4_1,Length=0.006000000,Units=km
new line.RML10116182 bus1=BBT147919566.2.0,bus2=RML1060116182.2.0,Phases=1,Linecode=CABBTG02_4_1,Length=0.017000000,Units=km
new line.RML10116188 bus1=BBT147919580.2.0,bus2=RML1060116188.2.0,Phases=1,Linecode=CABBTG02_4_1,Length=0.018000000,Units=km
new line.RML10116201 bus1=BBT147918138.2.0,bus2=RML1060116201.2.0,Phases=1,Linecode=CABBTG02_4_1,Length=0.012000000,Units=km
new line.RML10116223 bus1=BBT147918131.3.0,bus2=RML1060116223.3.0,Phases=1,Linecode=CABBTG02_4_1,Length=0.006000000,Units=km
new line.RML10116225 bus1=BBT147918131.3.0,bus2=RML1060116225.3.0,Phases=1,Linecode=CABBTG02_4_1,Length=0.015000000,Units=km
new line.RML10116226 bus1=BBT147918131.1.0,bus2=RML1060116226.1.0,Phases=1,Linecode=CABBTG02_4_1,Length=0.022000000,Units=km
new line.RML10116231 bus1=BBT147919580.1.0,bus2=RML1060116231.1.0,Phases=1,Linecode=CABBTG02_4_1,Length=0.008000000,Units=km
new line.RML10116238 bus1=BBT147919559.1.0,bus2=RML1060116238.1.0,Phases=1,Linecode=CABBTG02_4_1,Length=0.015000000,Units=km
new line.RML10116241 bus1=BBT147919566.3.0,bus2=RML1060116241.3.0,Phases=1,Linecode=CABBTG02_4_1,Length=0.017000000,Units=km
new line.RML10116254 bus1=BBT147919559.3.0,bus2=RML1060116254.3.0,Phases=1,Linecode=CABBTG02_4_1,Length=0.017000000,Units=km
new line.RML10116259 bus1=BBT147919559.2.0,bus2=RML1060116259.2.0,Phases=1,Linecode=CABBTG02_4_1,Length=0.006000000,Units=km
new line.RML10116264 bus1=BBT147914295.2.0,bus2=RML1060116264.2.0,Phases=1,Linecode=CABBTG02_4_1,Length=0.011000000,Units=km
new line.RML10116274 bus1=BBT768233.2.3.0,bus2=RML1060116274.2.3.0,Phases=2,Linecode=CABBTG05_4_2,Length=0.009000000,Units=km
new line.RML10116291 bus1=BBT147918145.3.0,bus2=RML1060116291.3.0,Phases=1,Linecode=CABBTG02_4_1,Length=0.022000000,Units=km
new line.RML10116292 bus1=BBT147918138.2.0,bus2=RML1060116292.2.0,Phases=1,Linecode=CABBTG02_4_1,Length=0.017000000,Units=km
new line.RML10116294 bus1=BBT147918138.3.0,bus2=RML1060116294.3.0,Phases=1,Linecode=CABBTG02_4_1,Length=0.011000000,Units=km
new line.RML10116302 bus1=BBT147918124.1.0,bus2=RML1060116302.1.0,Phases=1,Linecode=CABBTG02_4_1,Length=0.017000000,Units=km
new line.RML10116305 bus1=BBT147918124.2.0,bus2=RML1060116305.2.0,Phases=1,Linecode=CABBTG02_4_1,Length=0.017000000,Units=km
new line.RML10116307 bus1=BBT147918131.3.0,bus2=RML1060116307.3.0,Phases=1,Linecode=CABBTG02_4_1,Length=0.016000000,Units=km
new line.RML10116310 bus1=BBT147918131.2.0,bus2=RML1060116310.2.0,Phases=1,Linecode=CABBTG02_4_1,Length=0.015000000,Units=km
new line.RML10116355 bus1=BBT3087109.1.2.0,bus2=RML1060116355.1.2.0,Phases=2,Linecode=CABBTG04_4_2,Length=0.016000000,Units=km
new line.RML10116372 bus1=BBT68933533.3.0,bus2=RML1060116372.3.0,Phases=1,Linecode=CABBTG02_4_1,Length=0.015000000,Units=km
new line.RML10117136 bus1=BBT760351.3.0,bus2=RML1060117136.3.0,Phases=1,Linecode=CABBTG02_4_1,Length=0.010000000,Units=km
new line.RML10117242 bus1=BBT147914309.1.0,bus2=RML1060117242.1.0,Phases=1,Linecode=CABBTG02_4_1,Length=0.012000000,Units=km
new line.RML10117260 bus1=BBT144420035.1.0,bus2=RML1060117260.1.0,Phases=1,Linecode=CABBTG02_4_1,Length=0.030000000,Units=km
new line.RML10117298 bus1=BBT3036373.1.2.0,bus2=RML1060117298.1.2.0,Phases=2,Linecode=CABBTG05_4_2,Length=0.012000000,Units=km
new line.RML10117301 bus1=BBT829056.1.0,bus2=RML1060117301.1.0,Phases=1,Linecode=CABBTG02_4_1,Length=0.013000000,Units=km
new line.RML10117305 bus1=BBT149627403.1.2.0,bus2=RML1060117305.1.2.0,Phases=2,Linecode=CABBTG05_4_2,Length=0.015000000,Units=km
new line.RML10117318 bus1=BBT827341.2.3.0,bus2=RML1060117318.2.3.0,Phases=2,Linecode=CABBTG05_4_2,Length=0.008000000,Units=km
new line.RML10117340 bus1=BBT977848.2.3.0,bus2=RML1060117340.2.3.0,Phases=2,Linecode=CABBTG05_4_2,Length=0.012000000,Units=km
new line.RML10117377 bus1=BBT969854.1.2.3.0,bus2=RML1060117377.1.2.3.0,Phases=3,Linecode=CABBTG06_4_3,Length=0.018000000,Units=km
new line.RML10117414 bus1=BBT3832693.1.2.0,bus2=RML1060117414.1.2.0,Phases=2,Linecode=CABBTG05_4_2,Length=0.008000000,Units=km
new line.RML10117568 bus1=BBT767904.1.2.0,bus2=RML1060117568.1.2.0,Phases=2,Linecode=CABBTG05_4_2,Length=0.017000000,Units=km
new line.RML10117571 bus1=BBT832542.1.0,bus2=RML1060117571.1.0,Phases=1,Linecode=CABBTG02_4_1,Length=0.017000000,Units=km
new line.RML10117573 bus1=BBT768079.1.0,bus2=RML1060117573.1.0,Phases=1,Linecode=CABBTG01_4_1,Length=0.018000000,Units=km
new line.RML10117588 bus1=BBT832122.1.2.0,bus2=RML1060117588.1.2.0,Phases=2,Linecode=CABBTG05_4_2,Length=0.017000000,Units=km
new line.RML10117601 bus1=BBT148834436.1.2.0,bus2=RML1060117601.1.2.0,Phases=2,Linecode=CABBTG05_4_2,Length=0.028000000,Units=km
new line.RML10117615 bus1=BBT3617576.1.2.0,bus2=RML1060117615.1.2.0,Phases=2,Linecode=CABBTG05_4_2,Length=0.017000000,Units=km
new line.RML10117622 bus1=BBT147425443.1.0,bus2=RML1060117622.1.0,Phases=1,Linecode=CABBTG02_4_1,Length=0.015000000,Units=km
new line.RML10117631 bus1=BBT773077.1.0,bus2=RML1060117631.1.0,Phases=1,Linecode=CABBTG01_4_1,Length=0.010000000,Units=km
new line.RML10117664 bus1=BBT147422286.1.0,bus2=RML1060117664.1.0,Phases=1,Linecode=CABBTG02_4_1,Length=0.010000000,Units=km
new line.RML10117685 bus1=BBT147399039.1.0,bus2=RML1060117685.1.0,Phases=1,Linecode=CABBTG02_4_1,Length=0.017000000,Units=km
new line.RML10117712 bus1=BBT988733.3.0,bus2=RML1060117712.3.0,Phases=1,Linecode=CABBTG02_4_1,Length=0.017000000,Units=km
new line.RML10117754 bus1=BBT147912048.1.2.0,bus2=RML1060117754.1.2.0,Phases=2,Linecode=CABBTG05_4_2,Length=0.017000000,Units=km
new line.RML10117757 bus1=BBT147400096.1.0,bus2=RML1060117757.1.0,Phases=1,Linecode=CABBTG02_4_1,Length=0.017000000,Units=km
new line.RML10117759 bus1=BBT759903.1.0,bus2=RML1060117759.1.0,Phases=1,Linecode=CABBTG01_4_1,Length=0.020000000,Units=km
new line.RML10117765 bus1=BBT770032.1.2.3.0,bus2=RML1060117765.1.2.3.0,Phases=3,Linecode=CABBTG06_4_3,Length=0.017000000,Units=km
new line.RML10117788 bus1=BBT3036198.1.2.0,bus2=RML1060117788.1.2.0,Phases=2,Linecode=CABBTG05_4_2,Length=0.012000000,Units=km
new line.RML10117850 bus1=BBT2999000.1.2.3.0,bus2=RML1060117850.1.2.3.0,Phases=3,Linecode=CABBTG06_4_3,Length=0.025000000,Units=km
new line.RML10117857 bus1=BBT749536.1.2.0,bus2=RML1060117857.1.2.0,Phases=2,Linecode=CABBTG05_4_2,Length=0.028000000,Units=km
new line.RML10117860 bus1=BBT140726240.1.0,bus2=RML1060117860.1.0,Phases=1,Linecode=CABBTG02_4_1,Length=0.020000000,Units=km
new line.RML10117863 bus1=BBT3418594.1.0,bus2=RML1060117863.1.0,Phases=1,Linecode=CABBTG02_4_1,Length=0.017000000,Units=km
new line.RML10117864 bus1=BBT769773.1.0,bus2=RML1060117864.1.0,Phases=1,Linecode=CABBTG02_4_1,Length=0.013000000,Units=km
new line.RML10117866 bus1=BBT752476.1.0,bus2=RML1060117866.1.0,Phases=1,Linecode=CABBTG02_4_1,Length=0.012000000,Units=km
new line.RML10117869 bus1=BBT755423.1.0,bus2=RML1060117869.1.0,Phases=1,Linecode=CABBTG02_4_1,Length=0.012000000,Units=km
new line.RML10117872 bus1=BBT960593.1.3.0,bus2=RML1060117872.1.3.0,Phases=2,Linecode=CABBTG05_4_2,Length=0.014000000,Units=km
new line.RML10117881 bus1=BBT3036303.1.2.3.0,bus2=RML1060117881.1.2.3.0,Phases=3,Linecode=CABBTG06_4_3,Length=0.016000000,Units=km
new line.RML10117883 bus1=BBT923290.1.0,bus2=RML1060117883.1.0,Phases=1,Linecode=CABBTG02_4_1,Length=0.028000000,Units=km
new line.RML10117894 bus1=BBT137811139.1.0,bus2=RML1060117894.1.0,Phases=1,Linecode=CABBTG02_4_1,Length=0.016000000,Units=km
new line.RML10117898 bus1=BBT759490.1.2.0,bus2=RML1060117898.1.2.0,Phases=2,Linecode=CABBTG05_4_2,Length=0.016000000,Units=km
new line.RML10117900 bus1=BBT5872339.2.0,bus2=RML1060117900.2.0,Phases=1,Linecode=CABBTG02_4_1,Length=0.015000000,Units=km
new line.RML10117904 bus1=BBT967950.1.0,bus2=RML1060117904.1.0,Phases=1,Linecode=CABBTG02_4_1,Length=0.017000000,Units=km
new line.RML10117914 bus1=BBT149189271.2.0,bus2=RML1060117914.2.0,Phases=1,Linecode=CABBTG02_4_1,Length=0.017000000,Units=km
new line.RML10117922 bus1=BBT147399039.1.0,bus2=RML1060117922.1.0,Phases=1,Linecode=CABBTG02_4_1,Length=0.012000000,Units=km
new line.RML10117928 bus1=BBT3036569.2.0,bus2=RML1060117928.2.0,Phases=1,Linecode=CABBTG02_4_1,Length=0.017000000,Units=km
new line.RML10117934 bus1=BBT756368.1.2.3.0,bus2=RML1060117934.1.2.3.0,Phases=3,Linecode=CABBTG12_4_3,Length=0.017000000,Units=km
new line.RML10118132 bus1=BBT149189096.1.0,bus2=RML1060118132.1.0,Phases=1,Linecode=CABBTG02_4_1,Length=0.020000000,Units=km
new line.RML10118139 bus1=BBT149189154.1.0,bus2=RML1060118139.1.0,Phases=1,Linecode=CABBTG01_4_1,Length=0.010000000,Units=km
new line.RML10118148 bus1=BBT829826.1.0,bus2=RML1060118148.1.0,Phases=1,Linecode=CABBTG02_4_1,Length=0.018000000,Units=km
new line.RML10118163 bus1=BBT746946.1.2.0,bus2=RML1060118163.1.2.0,Phases=2,Linecode=CABBTG05_4_2,Length=0.014000000,Units=km
new line.RML10118210 bus1=BBT836196.1.0,bus2=RML1060118210.1.0,Phases=1,Linecode=CABBTG02_4_1,Length=0.016000000,Units=km
new line.RML10118212 bus1=BBT836196.1.0,bus2=RML1060118212.1.0,Phases=1,Linecode=CABBTG02_4_1,Length=0.012000000,Units=km
new line.RML10118220 bus1=BBT3036772.1.2.0,bus2=RML1060118220.1.2.0,Phases=2,Linecode=CABBTG05_4_2,Length=0.017000000,Units=km
new line.RML10118240 bus1=BBT6314277.1.0,bus2=RML1060118240.1.0,Phases=1,Linecode=CABBTG02_4_1,Length=0.008000000,Units=km
new line.RML10118257 bus1=BBT842944.1.2.0,bus2=RML1060118257.1.2.0,Phases=2,Linecode=CABBTG05_4_2,Length=0.018000000,Units=km
new line.RML10118279 bus1=BBT821685.2.3.0,bus2=RML1060118279.2.3.0,Phases=2,Linecode=CABBTG05_4_2,Length=0.015000000,Units=km
new line.RML10147095 bus1=BBT149832555.1.2.0,bus2=RML1060147095.1.2.0,Phases=2,Linecode=CABBT807_4_2,Length=0.017000000,Units=km
new line.RML10147193 bus1=BBT67712929.1.2.0,bus2=RML1060147193.1.2.0,Phases=2,Linecode=CABBTG05_4_2,Length=0.012000000,Units=km
new line.RML10147235 bus1=BBT942883.1.2.0,bus2=RML1060147235.1.2.0,Phases=2,Linecode=CABBTG05_4_2,Length=0.015000000,Units=km
new line.RML10151166 bus1=BBT3657469.3.0,bus2=RML1060151166.3.0,Phases=1,Linecode=CABBTG02_4_1,Length=0.012000000,Units=km
new line.RML10151190 bus1=BBT975636.2.0,bus2=RML1060151190.2.0,Phases=1,Linecode=CABBTG02_4_1,Length=0.018000000,Units=km
new line.RML10152176 bus1=BBT829469.1.0,bus2=RML1060152176.1.0,Phases=1,Linecode=CABBTG01_4_1,Length=0.017000000,Units=km
new line.RML10153084 bus1=BBT5872283.2.0,bus2=RML1060153084.2.0,Phases=1,Linecode=CABBTG02_4_1,Length=0.017000000,Units=km
new line.RML10153088 bus1=BBT774540.3.0,bus2=RML1060153088.3.0,Phases=1,Linecode=CABBTG02_4_1,Length=0.017000000,Units=km
new line.RML10153092 bus1=BBT774540.3.0,bus2=RML1060153092.3.0,Phases=1,Linecode=CABBTG02_4_1,Length=0.017000000,Units=km
new line.RML10153101 bus1=BBT68631133.1.0,bus2=RML1060153101.1.0,Phases=1,Linecode=CABBTG02_4_1,Length=0.017000000,Units=km
new line.RML10153109 bus1=BBT923290.1.0,bus2=RML1060153109.1.0,Phases=1,Linecode=CABBTG02_4_1,Length=0.017000000,Units=km
new line.RML10153122 bus1=BBT753078.1.2.0,bus2=RML1060153122.1.2.0,Phases=2,Linecode=CABBTG05_4_2,Length=0.017000000,Units=km
new line.RML10153128 bus1=BBT779041.1.2.0,bus2=RML1060153128.1.2.0,Phases=2,Linecode=CABBTG05_4_2,Length=0.017000000,Units=km
new line.RML10153133 bus1=BBT3087123.1.0,bus2=RML1060153133.1.0,Phases=1,Linecode=CABBTG02_4_1,Length=0.017000000,Units=km
new line.RML10153142 bus1=BBT943492.2.3.0,bus2=RML1060153142.2.3.0,Phases=2,Linecode=CABBTG05_4_2,Length=0.017000000,Units=km
new line.RML10153148 bus1=BBT943506.1.3.0,bus2=RML1060153148.1.3.0,Phases=2,Linecode=CABBTG05_4_2,Length=0.017000000,Units=km
new line.RML10153221 bus1=BBT758482.2.0,bus2=RML1060153221.2.0,Phases=1,Linecode=CABBTG02_4_1,Length=0.017000000,Units=km
new line.RML10153307 bus1=BBT762360.2.0,bus2=RML1060153307.2.0,Phases=1,Linecode=CABBTG02_4_1,Length=0.017000000,Units=km
new line.RML10153340 bus1=BBT754597.1.2.0,bus2=RML1060153340.1.2.0,Phases=2,Linecode=CABBTG05_4_2,Length=0.017000000,Units=km
new line.RML10153349 bus1=BBT772720.3.0,bus2=RML1060153349.3.0,Phases=1,Linecode=CABBTG02_4_1,Length=0.017000000,Units=km
new line.RML10153355 bus1=BBT755703.3.0,bus2=RML1060153355.3.0,Phases=1,Linecode=CABBTG02_4_1,Length=0.017000000,Units=km
new line.RML10153365 bus1=BBT762087.3.0,bus2=RML1060153365.3.0,Phases=1,Linecode=CABBTG02_4_1,Length=0.017000000,Units=km
new line.RML10153399 bus1=BBT3036324.1.2.3.0,bus2=RML1060153399.1.2.3.0,Phases=3,Linecode=CABBTG06_4_3,Length=0.017000000,Units=km
new line.RML10153416 bus1=BBT147412150.1.0,bus2=RML1060153416.1.0,Phases=1,Linecode=CABBTG02_4_1,Length=0.017000000,Units=km
new line.RML10153440 bus1=BBT50717314.1.0,bus2=RML1060153440.1.0,Phases=1,Linecode=CABBTG02_4_1,Length=0.017000000,Units=km
new line.RML10153463 bus1=BBT755395.1.0,bus2=RML1060153463.1.0,Phases=1,Linecode=CABBTG02_4_1,Length=0.017000000,Units=km
new line.RML10153465 bus1=BBT147431694.1.0,bus2=RML1060153465.1.0,Phases=1,Linecode=CABBTG02_4_1,Length=0.017000000,Units=km
new line.RML10153469 bus1=BBT147431694.1.0,bus2=RML1060153469.1.0,Phases=1,Linecode=CABBTG02_4_1,Length=0.017000000,Units=km
new line.RML10153477 bus1=BBT767183.2.0,bus2=RML1060153477.2.0,Phases=1,Linecode=CABBTG02_4_1,Length=0.017000000,Units=km
new line.RML10153490 bus1=BBT753246.1.2.3.0,bus2=RML1060153490.1.2.3.0,Phases=3,Linecode=CABBTG06_4_3,Length=0.017000000,Units=km
new line.RML10153508 bus1=BBT773070.1.0,bus2=RML1060153508.1.0,Phases=1,Linecode=CABBTG02_4_1,Length=0.017000000,Units=km
new line.RML10153517 bus1=BBT924046.1.0,bus2=RML1060153517.1.0,Phases=1,Linecode=CABBTG01_4_1,Length=0.017000000,Units=km
new line.RML10153528 bus1=BBT3652793.2.0,bus2=RML1060153528.2.0,Phases=1,Linecode=CABBTG02_4_1,Length=0.017000000,Units=km
new line.RML10153587 bus1=BBT162444816.1.2.3.0,bus2=RML1060153587.1.2.3.0,Phases=3,Linecode=CABBTG12_4_3,Length=0.017000000,Units=km
new line.RML10153604 bus1=BBT746708.1.3.0,bus2=RML1060153604.1.3.0,Phases=2,Linecode=CABBTG05_4_2,Length=0.017000000,Units=km
new line.RML10153671 bus1=BBT960138.2.0,bus2=RML1060153671.2.0,Phases=1,Linecode=CABBTG02_4_1,Length=0.017000000,Units=km
new line.RML10153678 bus1=BBT921372.1.0,bus2=RML1060153678.1.0,Phases=1,Linecode=CABBTG02_4_1,Length=0.017000000,Units=km
new line.RML10153682 bus1=BBT773266.3.0,bus2=RML1060153682.3.0,Phases=1,Linecode=CABBTG02_4_1,Length=0.017000000,Units=km
new line.RML10153689 bus1=BBT68933526.1.2.3.0,bus2=RML1060153689.1.2.3.0,Phases=3,Linecode=CABBTG06_4_3,Length=0.017000000,Units=km
new line.RML10153694 bus1=BBT68933526.1.0,bus2=RML1060153694.1.0,Phases=1,Linecode=CABBTG02_4_1,Length=0.017000000,Units=km
new line.RML10153696 bus1=BBT68933526.1.0,bus2=RML1060153696.1.0,Phases=1,Linecode=CABBTG02_4_1,Length=0.017000000,Units=km
new line.RML10153698 bus1=BBT752448.1.0,bus2=RML1060153698.1.0,Phases=1,Linecode=CABBTG02_4_1,Length=0.017000000,Units=km
new line.RML10153701 bus1=BBT752476.2.0,bus2=RML1060153701.2.0,Phases=1,Linecode=CABBTG02_4_1,Length=0.017000000,Units=km
new line.RML10153723 bus1=BBT836763.1.2.0,bus2=RML1060153723.1.2.0,Phases=2,Linecode=CABBTG05_4_2,Length=0.017000000,Units=km
new line.RML10153730 bus1=BBT749396.1.0,bus2=RML1060153730.1.0,Phases=1,Linecode=CABBTG02_4_1,Length=0.017000000,Units=km
new line.RML10153737 bus1=BBT147918145.1.0,bus2=RML1060153737.1.0,Phases=1,Linecode=CABBTG02_4_1,Length=0.017000000,Units=km
new line.RML10153742 bus1=BBT147919566.2.3.0,bus2=RML1060153742.2.3.0,Phases=2,Linecode=CABBTG05_4_2,Length=0.017000000,Units=km
new line.RML10153748 bus1=BBT3098071.1.2.3.0,bus2=RML1060153748.1.2.3.0,Phases=3,Linecode=CABBTG06_4_3,Length=0.017000000,Units=km
new line.RML10153781 bus1=BBT11269080.1.2.0,bus2=RML1060153781.1.2.0,Phases=2,Linecode=CABBTG05_4_2,Length=0.017000000,Units=km
new line.RML10153784 bus1=BBT777634.1.2.0,bus2=RML1060153784.1.2.0,Phases=2,Linecode=CABBTG05_4_2,Length=0.017000000,Units=km
new line.RML10153792 bus1=BBT140726240.1.0,bus2=RML1060153792.1.0,Phases=1,Linecode=CABBTG02_4_1,Length=0.017000000,Units=km
new line.RML10153796 bus1=BBT140726170.1.0,bus2=RML1060153796.1.0,Phases=1,Linecode=CABBTG02_4_1,Length=0.017000000,Units=km
new line.RML10153807 bus1=BBT6314277.1.2.3.0,bus2=RML1060153807.1.2.3.0,Phases=3,Linecode=CABBTG10_4_3,Length=0.017000000,Units=km
new line.RML10153815 bus1=BBT766665.1.0,bus2=RML1060153815.1.0,Phases=1,Linecode=CABBTG01_4_1,Length=0.017000000,Units=km
new line.RML10153823 bus1=BBT975307.2.0,bus2=RML1060153823.2.0,Phases=1,Linecode=CABBTG02_4_1,Length=0.017000000,Units=km
new line.RML10153825 bus1=BBT3418636.2.0,bus2=RML1060153825.2.0,Phases=1,Linecode=CABBTG02_4_1,Length=0.017000000,Units=km
new line.RML10153854 bus1=BBT68822947.2.0,bus2=RML1060153854.2.0,Phases=1,Linecode=CABBTG02_4_1,Length=0.017000000,Units=km
new line.RML10050103 bus1=BBT758615.2.0,bus2=RML1060050103.2.0,Phases=1,Linecode=CABBTG02_4_1,Length=0.007000000,Units=km
new line.RML10051129 bus1=BBT760757.1.3.0,bus2=RML1060051129.1.3.0,Phases=2,Linecode=CABBTG04_4_2,Length=0.017000000,Units=km
new line.RML10051130 bus1=BBT755983.1.2.0,bus2=RML1060051130.1.2.0,Phases=2,Linecode=CABBTG05_4_2,Length=0.017000000,Units=km
new line.RML10051136 bus1=BBT760120.1.2.3.0,bus2=RML1060051136.1.2.3.0,Phases=3,Linecode=CABBTG11_4_3,Length=0.017000000,Units=km
new line.RML10051138 bus1=BBT764054.1.2.0,bus2=RML1060051138.1.2.0,Phases=2,Linecode=CABBTG05_4_2,Length=0.017000000,Units=km
new line.RML10051187 bus1=BBT970337.1.2.0,bus2=RML1060051187.1.2.0,Phases=2,Linecode=CABBTG05_4_2,Length=0.017000000,Units=km
new line.RML10051265 bus1=BBT826669.1.2.0,bus2=RML1060051265.1.2.0,Phases=2,Linecode=CABBTG05_4_2,Length=0.017000000,Units=km
new line.RML10051268 bus1=BBT827201.1.2.0,bus2=RML1060051268.1.2.0,Phases=2,Linecode=CABBTG05_4_2,Length=0.017000000,Units=km
new line.RML10051269 bus1=BBT828475.1.2.0,bus2=RML1060051269.1.2.0,Phases=2,Linecode=CABBTG05_4_2,Length=0.017000000,Units=km
new line.RML10051280 bus1=BBT827047.1.2.0,bus2=RML1060051280.1.2.0,Phases=2,Linecode=CABBTG05_4_2,Length=0.017000000,Units=km
new line.RML10051285 bus1=BBT3649846.1.2.3.0,bus2=RML1060051285.1.2.3.0,Phases=3,Linecode=CABBTG06_4_3,Length=0.029000000,Units=km