new line.TR12115848 bus1=BMT170753306.1.2.3,bus2=BMT170753305.1.2.3,Phases=3,Linecode=CAB103_3_3,Length=0.047986000,Units=km
new line.TR12115853 bus1=BMT170753303.1.2.3,bus2=BMT8708770B.1.2.3,Phases=3,Linecode=CAB202_3_3,Length=0.094000000,Units=km
new line.TR12115854 bus1=BMT8708770B.1.2.3,bus2=BMT170753304.1.2.3,Phases=3,Linecode=CAB202_3_3,Length=0.129938000,Units=km
new line.TR12115855 bus1=BMT170753304.1.2.3,bus2=BMT8708768B.1.2.3,Phases=3,Linecode=CAB103_3_3,Length=0.048028000,Units=km
new line.TR12115856 bus1=BMT8708768B.1.2.3,bus2=BMT170753305.1.2.3,Phases=3,Linecode=CAB103_3_3,Length=0.044159000,Units=km
new line.TR12115862 bus1=BMT170802313.2,bus2=BMT7085210B.2,Phases=1,Linecode=CAB202_3_1,Length=0.098713000,Units=km
new line.TR12115863 bus1=BMT7085210B.2,bus2=BMT8708783B.2,Phases=1,Linecode=CAB202_3_1,Length=0.097404000,Units=km
new line.TR12115864 bus1=BMT7091349B.2,bus2=BMT8708783B.2,Phases=1,Linecode=CAB202_3_1,Length=0.123004000,Units=km
new line.TR12118029 bus1=BMT169474498.3,bus2=BMT169474500.3,Phases=1,Linecode=CAB103_3_1,Length=0.044130000,Units=km
new line.TR12120534 bus1=BMT595795B.1.2.3,bus2=BMT148528630.1.2.3,Phases=3,Linecode=CAB107_3_3,Length=0.030351000,Units=km
new line.TR12120535 bus1=BMT165757786.1.2.3,bus2=BMT165757787.1.2.3,Phases=3,Linecode=CAB107_3_3,Length=0.020607000,Units=km
new line.TR12120551 bus1=BMT165757783.1.2.3,bus2=BMT597916B.1.2.3,Phases=3,Linecode=CABA08_3_3,Length=0.020240000,Units=km
new line.TR12184329 bus1=BMT8189131B.2,bus2=BMT8783907B.2,Phases=1,Linecode=CAB202_3_1,Length=0.085412000,Units=km
new line.TR12184331 bus1=BMT8783907B.2,bus2=BMT8783909B.2,Phases=1,Linecode=CAB202_3_1,Length=0.090103000,Units=km
new line.TR12184421 bus1=BMT8783909B.2,bus2=BMT160589943.2,Phases=1,Linecode=CAB202_3_1,Length=0.095220000,Units=km
new line.TR12186726 bus1=BMT162265365.1.2.3,bus2=BMT156903104.1.2.3,Phases=3,Linecode=CAB103_3_3,Length=0.039905000,Units=km
new line.TR12186730 bus1=BMT162265438.1.2.3,bus2=BMT162265439.1.2.3,Phases=3,Linecode=CAB103_3_3,Length=0.039905000,Units=km
new line.TR12186731 bus1=BMT162265439.1.2.3,bus2=BMT123337407.1.2.3,Phases=3,Linecode=CAB202_3_3,Length=0.067591000,Units=km
new line.TR12188626 bus1=BMT155044115.1.2.3,bus2=BMT155044121.1.2.3,Phases=3,Linecode=CAB103_3_3,Length=0.045991000,Units=km
new line.TR12188691 bus1=BMT8788776B.1.2.3,bus2=BMT8788777B.1.2.3,Phases=3,Linecode=CABA08_3_3,Length=0.029056000,Units=km
new line.TR12188692 bus1=BMT8788777B.1.2.3,bus2=BMT155044114.1.2.3,Phases=3,Linecode=CABA08_3_3,Length=0.040688000,Units=km
new line.TR12188693 bus1=BMT155044114.1.2.3,bus2=BMT8788781B.1.2.3,Phases=3,Linecode=CABA06_3_3,Length=0.045378000,Units=km
new line.TR12188694 bus1=BMT155044115.1.2.3,bus2=BMT8788781B.1.2.3,Phases=3,Linecode=CABA06_3_3,Length=0.018966000,Units=km
new line.TR12188704 bus1=BMT155044114.1.2.3,bus2=BMT150950213.1.2.3,Phases=3,Linecode=CABA08_3_3,Length=0.039340000,Units=km
new line.TR12188705 bus1=BMT150950213.1.2.3,bus2=BMT8788808B.1.2.3,Phases=3,Linecode=CABA08_3_3,Length=0.035761000,Units=km
new line.TR12188706 bus1=BMT8788808B.1.2.3,bus2=BMT8788809B.1.2.3,Phases=3,Linecode=CABA08_3_3,Length=0.041575000,Units=km
new line.TR12188707 bus1=BMT8788809B.1.2.3,bus2=BMT8788810B.1.2.3,Phases=3,Linecode=CABA08_3_3,Length=0.037105000,Units=km
new line.TR12188708 bus1=BMT155038690.1.2.3,bus2=BMT8788785B.1.2.3,Phases=3,Linecode=CABA06_3_3,Length=0.006322000,Units=km
new line.TR12188709 bus1=BMT8788785B.1.2.3,bus2=BMT155038691.1.2.3,Phases=3,Linecode=CABA06_3_3,Length=0.028006000,Units=km
new line.TR12188716 bus1=BMT155038691.1.2.3,bus2=BMT8788787B.1.2.3,Phases=3,Linecode=CABA06_3_3,Length=0.024176000,Units=km
new line.TR12188717 bus1=BMT8788787B.1.2.3,bus2=BMT8788788B.1.2.3,Phases=3,Linecode=CABA06_3_3,Length=0.028290000,Units=km
new line.TR12188718 bus1=BMT8788788B.1.2.3,bus2=BMT8788789B.1.2.3,Phases=3,Linecode=CABA06_3_3,Length=0.021945000,Units=km
new line.TR12188719 bus1=BMT8788789B.1.2.3,bus2=BMT155038692.1.2.3,Phases=3,Linecode=CABA06_3_3,Length=0.028832000,Units=km
new line.TR12188720 bus1=BMT8788810B.1.2.3,bus2=BMT8788811B.1.2.3,Phases=3,Linecode=CABA08_3_3,Length=0.038454000,Units=km
new line.TR12188721 bus1=BMT8788811B.1.2.3,bus2=BMT8788817B.1.2.3,Phases=3,Linecode=CABA08_3_3,Length=0.034870000,Units=km
new line.TR12188722 bus1=BMT8788817B.1.2.3,bus2=BMT8788819B.1.2.3,Phases=3,Linecode=CABA08_3_3,Length=0.034870000,Units=km
new line.TR12188723 bus1=BMT8788819B.1.2.3,bus2=BMT8788820B.1.2.3,Phases=3,Linecode=CABA08_3_3,Length=0.006081000,Units=km
new line.TR12188724 bus1=BMT8788820B.1.2.3,bus2=BMT155044116.1.2.3,Phases=3,Linecode=CABA08_3_3,Length=0.027447000,Units=km
new line.TR12188725 bus1=BMT155044116.1.2.3,bus2=BMT8788822B.1.2.3,Phases=3,Linecode=CABA08_3_3,Length=0.025049000,Units=km
new line.TR12188726 bus1=BMT8788822B.1.2.3,bus2=BMT8788823B.1.2.3,Phases=3,Linecode=CABA08_3_3,Length=0.028290000,Units=km
new line.TR12188727 bus1=BMT8788823B.1.2.3,bus2=BMT8788825B.1.2.3,Phases=3,Linecode=CABA08_3_3,Length=0.021624000,Units=km
new line.TR12188728 bus1=BMT8788825B.1.2.3,bus2=BMT155044117.1.2.3,Phases=3,Linecode=CABA08_3_3,Length=0.028290000,Units=km
new line.TR12188732 bus1=BMT155044117.1.2.3,bus2=BMT8788827B.1.2.3,Phases=3,Linecode=CABA08_3_3,Length=0.023314000,Units=km
new line.TR12188733 bus1=BMT8788827B.1.2.3,bus2=BMT8788828B.1.2.3,Phases=3,Linecode=CABA08_3_3,Length=0.029142000,Units=km
new line.TR12188734 bus1=BMT8788828B.1.2.3,bus2=BMT155044118.1.2.3,Phases=3,Linecode=CABA08_3_3,Length=0.020240000,Units=km
new line.TR12188735 bus1=BMT155044118.1.2.3,bus2=BMT155044119.1.2.3,Phases=3,Linecode=CABA08_3_3,Length=0.024176000,Units=km
new line.TR12188736 bus1=BMT155044118.1.2.3,bus2=BMT8788831B.1.2.3,Phases=3,Linecode=CABA06_3_3,Length=0.006322000,Units=km
new line.TR12188737 bus1=BMT8788831B.1.2.3,bus2=BMT8788867B.1.2.3,Phases=3,Linecode=CABA06_3_3,Length=0.037105000,Units=km
new line.TR12188738 bus1=BMT8788867B.1.2.3,bus2=BMT8788868B.1.2.3,Phases=3,Linecode=CABA06_3_3,Length=0.034870000,Units=km
new line.TR12188739 bus1=BMT8788868B.1.2.3,bus2=BMT155044120.1.2.3,Phases=3,Linecode=CABA06_3_3,Length=0.037997000,Units=km
new line.TR12188741 bus1=BMT8788874B.1.2.3,bus2=BMT155040745.1.2.3,Phases=3,Linecode=CABA06_3_3,Length=0.038167000,Units=km
new line.TR12188742 bus1=BMT153215324.1.2.3,bus2=BMT168184576.1.2.3,Phases=3,Linecode=CABA08_3_3,Length=0.008059000,Units=km
new line.TR12188743 bus1=BMT168184576.1.2.3,bus2=BMT150950265.1.2.3,Phases=3,Linecode=CABA08_3_3,Length=0.043547000,Units=km
new line.TR12188744 bus1=BMT155040744.1.2.3,bus2=BMT8788874B.1.2.3,Phases=3,Linecode=CABA06_3_3,Length=0.042172000,Units=km
new line.TR12188746 bus1=BMT168184577.1.2.3,bus2=BMT8788883B.1.2.3,Phases=3,Linecode=CABA08_3_3,Length=0.032049000,Units=km
new line.TR12111498 bus1=BMT2915882B.1.2.3,bus2=BMT8703991B.1.2.3,Phases=3,Linecode=CAB202_3_3,Length=0.049220000,Units=km
new line.TR12111499 bus1=BMT8703991B.1.2.3,bus2=BMT161354169.1.2.3,Phases=3,Linecode=CAB202_3_3,Length=0.057278000,Units=km
new line.TR12112765 bus1=BMT3120268B.1.2.3,bus2=BMT167883118.1.2.3,Phases=3,Linecode=CAB202_3_3,Length=0.165619000,Units=km
new line.TR12112766 bus1=BMT167883114.1.2.3,bus2=BMT167883116.1.2.3,Phases=3,Linecode=CAB103_3_3,Length=0.068094000,Units=km
new line.TR12112767 bus1=BMT167883116.1.2.3,bus2=BMT167883117.1.2.3,Phases=3,Linecode=CAB103_3_3,Length=0.020511000,Units=km
new line.TR12112768 bus1=BMT167883116.1.2.3,bus2=BMT167883118.1.2.3,Phases=3,Linecode=CAB203_3_3,Length=0.108539000,Units=km
new line.TR12112924 bus1=BMT2451642B.1.2.3,bus2=BMT148248041.1.2.3,Phases=3,Linecode=CAB202_3_3,Length=0.098952000,Units=km
new line.TR12112928 bus1=BMT2451649B.1.2.3,bus2=BMT8705464B.1.2.3,Phases=3,Linecode=CAB202_3_3,Length=0.127506000,Units=km
new line.TR12112929 bus1=BMT148248041.1.2.3,bus2=BMT8705464B.1.2.3,Phases=3,Linecode=CAB202_3_3,Length=0.080021000,Units=km
new line.TR12112946 bus1=BMT160565538.1.2.3,bus2=BMT148248497.1.2.3,Phases=3,Linecode=CAB103_3_3,Length=0.073507000,Units=km
new line.TR12112955 bus1=BMT163338449.1.2.3,bus2=BMT163338450.1.2.3,Phases=3,Linecode=CAB103_3_3,Length=0.029057000,Units=km
new line.TR12113643 bus1=BMT165758503.3,bus2=BMT8706373B.3,Phases=1,Linecode=CAB202_3_1,Length=0.078048000,Units=km
new line.TR12113644 bus1=BMT8706373B.3,bus2=BMT165758505.3,Phases=1,Linecode=CAB202_3_1,Length=0.078048000,Units=km
new line.TR12195252 bus1=BMT163930634.1.2.3,bus2=BMT151181243.1.2.3,Phases=3,Linecode=CAB103_3_3,Length=0.020605000,Units=km
new line.TR12195254 bus1=BMT160980368.1.2.3,bus2=BMT151181013.1.2.3,Phases=3,Linecode=CAB202_3_3,Length=0.121745000,Units=km
new line.TR12195259 bus1=BMT151181294.1.2.3,bus2=BMT151181295.1.2.3,Phases=3,Linecode=CAB103_3_3,Length=0.039792000,Units=km
new line.TR12195343 bus1=BMT165759240.3,bus2=BMT165759243.3,Phases=1,Linecode=CAB202_3_1,Length=0.148949000,Units=km
new line.TR12195394 bus1=BMT3070225B.1.2.3,bus2=BMT152376586.1.2.3,Phases=3,Linecode=CABA06_3_3,Length=0.011700000,Units=km
new line.TR12195395 bus1=BMT152376586.1.2.3,bus2=BMT3070246B.1.2.3,Phases=3,Linecode=CABA06_3_3,Length=0.033511000,Units=km
new line.TR12195397 bus1=BMT152376586.1.2.3,bus2=BMT3070267B.1.2.3,Phases=3,Linecode=CABA06_3_3,Length=0.010436000,Units=km
new line.TR12195398 bus1=BMT152376586.1.2.3,bus2=BMT151189908.1.2.3,Phases=3,Linecode=CABA06_3_3,Length=0.023077000,Units=km
new line.TR12195416 bus1=BMT152377602.1.2.3,bus2=BMT3070169B.1.2.3,Phases=3,Linecode=CABA06_3_3,Length=0.039200000,Units=km
new line.TR12195417 bus1=BMT3070169B.1.2.3,bus2=BMT8486764B.1.2.3,Phases=3,Linecode=CABA06_3_3,Length=0.038583000,Units=km
new line.TR12195421 bus1=BMT8486764B.1.2.3,bus2=BMT8796486B.1.2.3,Phases=3,Linecode=CABA06_3_3,Length=0.035719000,Units=km
new line.TR12195422 bus1=BMT8796486B.1.2.3,bus2=BMT8796487B.1.2.3,Phases=3,Linecode=CABA06_3_3,Length=0.036671000,Units=km
new line.TR12195423 bus1=BMT8796487B.1.2.3,bus2=BMT8796488B.1.2.3,Phases=3,Linecode=CABA06_3_3,Length=0.030351000,Units=km
new line.TR12195424 bus1=BMT8796488B.1.2.3,bus2=BMT152377603.1.2.3,Phases=3,Linecode=CABA06_3_3,Length=0.035098000,Units=km
new line.TR12195448 bus1=BMT152377603.1.2.3,bus2=BMT8796491B.1.2.3,Phases=3,Linecode=CABA06_3_3,Length=0.035719000,Units=km
new line.TR12195449 bus1=BMT8796491B.1.2.3,bus2=BMT8796492B.1.2.3,Phases=3,Linecode=CABA06_3_3,Length=0.035719000,Units=km
new line.TR12195450 bus1=BMT8796492B.1.2.3,bus2=BMT8796501B.1.2.3,Phases=3,Linecode=CABA06_3_3,Length=0.035719000,Units=km
new line.TR12195451 bus1=BMT8796501B.1.2.3,bus2=BMT8796504B.1.2.3,Phases=3,Linecode=CABA06_3_3,Length=0.035098000,Units=km
new line.TR12195452 bus1=BMT8796504B.1.2.3,bus2=BMT8796507B.1.2.3,Phases=3,Linecode=CABA06_3_3,Length=0.035719000,Units=km
new line.TR12195453 bus1=BMT8796507B.1.2.3,bus2=BMT8796508B.1.2.3,Phases=3,Linecode=CABA06_3_3,Length=0.035719000,Units=km
new line.TR12195465 bus1=BMT8796508B.1.2.3,bus2=BMT8796510B.1.2.3,Phases=3,Linecode=CABA06_3_3,Length=0.035719000,Units=km
new line.TR12195466 bus1=BMT8796510B.1.2.3,bus2=BMT8796512B.1.2.3,Phases=3,Linecode=CABA06_3_3,Length=0.035098000,Units=km
new line.TR12195467 bus1=BMT8796512B.1.2.3,bus2=BMT152377604.1.2.3,Phases=3,Linecode=CABA06_3_3,Length=0.035719000,Units=km
new line.TR12195569 bus1=BMT165759279.3,bus2=BMT165759281.3,Phases=1,Linecode=CAB103_3_1,Length=0.035980000,Units=km
new line.TR12197959 bus1=BMT130661430.1.2.3,bus2=BMT8799392B.1.2.3,Phases=3,Linecode=CAB202_3_3,Length=0.096238000,Units=km
new line.TR12197967 bus1=BMT8799392B.1.2.3,bus2=BMT8799393B.1.2.3,Phases=3,Linecode=CAB202_3_3,Length=0.110908000,Units=km
new line.TR12197970 bus1=BMT8799393B.1.2.3,bus2=BMT8799395B.1.2.3,Phases=3,Linecode=CAB202_3_3,Length=0.096191000,Units=km
new line.TR12197971 bus1=BMT8799395B.1.2.3,bus2=BMT172943360.1.2.3,Phases=3,Linecode=CAB202_3_3,Length=0.106550000,Units=km
new line.TR12197972 bus1=BMT172943360.1.2.3,bus2=BMT8799398B.1.2.3,Phases=3,Linecode=CAB202_3_3,Length=0.111898000,Units=km
new line.TR12197973 bus1=BMT8799398B.1.2.3,bus2=BMT172943361.1.2.3,Phases=3,Linecode=CAB202_3_3,Length=0.096775000,Units=km
new line.TR12197974 bus1=BMT172943361.1.2.3,bus2=BMT151299089.1.2.3,Phases=3,Linecode=CAB202_3_3,Length=0.107492000,Units=km
new line.TR12197994 bus1=BMT151299090.1.2.3,bus2=BMT151299091.1.2.3,Phases=3,Linecode=CAB103_3_3,Length=0.025945000,Units=km
new line.TR12198010 bus1=BMT161574441.1.2.3,bus2=BMT8799473B.1.2.3,Phases=3,Linecode=CAB103_3_3,Length=0.009995000,Units=km
new line.TR12198011 bus1=BMT8799473B.1.2.3,bus2=BMT161574442.1.2.3,Phases=3,Linecode=CAB103_3_3,Length=0.065087000,Units=km
new line.TR12198019 bus1=BMT2409768B.1.2.3,bus2=BMT151305008.1.2.3,Phases=3,Linecode=CAB202_3_3,Length=0.092903000,Units=km
new line.TR12198020 bus1=BMT151305008.1.2.3,bus2=BMT150190340.1.2.3,Phases=3,Linecode=CAB202_3_3,Length=0.018856000,Units=km
new line.TR12198216 bus1=BMT2409334B.1.2.3,bus2=BMT3126050B.1.2.3,Phases=3,Linecode=CAB204_3_3,Length=0.124960000,Units=km
new line.TR12200944 bus1=BMT583405B.1.2.3,bus2=BMT583447B.1.2.3,Phases=3,Linecode=CABA06_3_3,Length=0.006997000,Units=km
new line.TR12200945 bus1=BMT583447B.1.2.3,bus2=BMT583454B.1.2.3,Phases=3,Linecode=CABA06_3_3,Length=0.033227000,Units=km
new line.TR12200946 bus1=BMT583447B.1.2.3,bus2=BMT583412B.1.2.3,Phases=3,Linecode=CABA06_3_3,Length=0.005383000,Units=km
new line.TR12200947 bus1=BMT583447B.1.2.3,bus2=BMT583461B.1.2.3,Phases=3,Linecode=CABA06_3_3,Length=0.030351000,Units=km
new line.TR12200948 bus1=BMT583461B.1.2.3,bus2=BMT155800672.1.2.3,Phases=3,Linecode=CABA06_3_3,Length=0.033511000,Units=km
new line.TR12200949 bus1=BMT155800673.1.2.3,bus2=BMT8802332B.1.2.3,Phases=3,Linecode=CABA06_3_3,Length=0.034769000,Units=km
new line.TR12200950 bus1=BMT8802332B.1.2.3,bus2=BMT8802333B.1.2.3,Phases=3,Linecode=CABA06_3_3,Length=0.032558000,Units=km
new line.TR12200957 bus1=BMT8802333B.1.2.3,bus2=BMT155800674.1.2.3,Phases=3,Linecode=CABA06_3_3,Length=0.005383000,Units=km
new line.TR12200958 bus1=BMT155800674.1.2.3,bus2=BMT155800675.1.2.3,Phases=3,Linecode=CABA06_3_3,Length=0.033823000,Units=km
new line.TR12200959 bus1=BMT155800675.1.2.3,bus2=BMT8802335B.1.2.3,Phases=3,Linecode=CABA06_3_3,Length=0.037626000,Units=km
new line.TR12200960 bus1=BMT8802335B.1.2.3,bus2=BMT8802336B.1.2.3,Phases=3,Linecode=CABA06_3_3,Length=0.036671000,Units=km
new line.TR12200961 bus1=BMT8802336B.1.2.3,bus2=BMT8802337B.1.2.3,Phases=3,Linecode=CABA06_3_3,Length=0.032558000,Units=km
new line.TR12200962 bus1=BMT8802337B.1.2.3,bus2=BMT8802338B.1.2.3,Phases=3,Linecode=CABA06_3_3,Length=0.035719000,Units=km
new line.TR12200963 bus1=BMT8802338B.1.2.3,bus2=BMT8802339B.1.2.3,Phases=3,Linecode=CABA06_3_3,Length=0.007613000,Units=km
new line.TR12200964 bus1=BMT8802339B.1.2.3,bus2=BMT8802342B.1.2.3,Phases=3,Linecode=CABA06_3_3,Length=0.027191000,Units=km
new line.TR12200965 bus1=BMT8802342B.1.2.3,bus2=BMT8802343B.1.2.3,Phases=3,Linecode=CABA06_3_3,Length=0.027191000,Units=km
new line.TR12200966 bus1=BMT8802343B.1.2.3,bus2=BMT155800676.1.2.3,Phases=3,Linecode=CABA06_3_3,Length=0.042992000,Units=km
new line.TR12200967 bus1=BMT155800676.1.2.3,bus2=BMT8802345B.1.2.3,Phases=3,Linecode=CABA06_3_3,Length=0.038583000,Units=km
new line.TR12200968 bus1=BMT8802345B.1.2.3,bus2=BMT155800677.1.2.3,Phases=3,Linecode=CABA06_3_3,Length=0.028148000,Units=km
new line.TR12200969 bus1=BMT155735339.1.2.3,bus2=BMT2816888B.1.2.3,Phases=3,Linecode=CABA06_3_3,Length=0.031131000,Units=km
new line.TR12200970 bus1=BMT2816888B.1.2.3,bus2=BMT2816895B.1.2.3,Phases=3,Linecode=CABA06_3_3,Length=0.028148000,Units=km
new line.TR12200971 bus1=BMT2816895B.1.2.3,bus2=BMT2816902B.1.2.3,Phases=3,Linecode=CABA06_3_3,Length=0.034043000,Units=km
new line.TR12200972 bus1=BMT2816902B.1.2.3,bus2=BMT155735340.1.2.3,Phases=3,Linecode=CABA06_3_3,Length=0.033046000,Units=km
new line.TR12200973 bus1=BMT155735340.1.2.3,bus2=BMT8801969B.1.2.3,Phases=3,Linecode=CABA06_3_3,Length=0.029142000,Units=km
new line.TR12200974 bus1=BMT8801969B.1.2.3,bus2=BMT155735341.1.2.3,Phases=3,Linecode=CABA06_3_3,Length=0.034117000,Units=km
new line.TR12200975 bus1=BMT155735340.1.2.3,bus2=BMT8801972B.1.2.3,Phases=3,Linecode=CABA06_3_3,Length=0.005655000,Units=km
new line.TR12200976 bus1=BMT8801972B.1.2.3,bus2=BMT8801973B.1.2.3,Phases=3,Linecode=CABA06_3_3,Length=0.031307000,Units=km
new line.TR12200977 bus1=BMT8801973B.1.2.3,bus2=BMT8801977B.1.2.3,Phases=3,Linecode=CABA06_3_3,Length=0.032558000,Units=km
new line.TR12200978 bus1=BMT8801977B.1.2.3,bus2=BMT8801983B.1.2.3,Phases=3,Linecode=CABA06_3_3,Length=0.028448000,Units=km
new line.TR12200979 bus1=BMT8801983B.1.2.3,bus2=BMT8801988B.1.2.3,Phases=3,Linecode=CABA06_3_3,Length=0.007613000,Units=km
new line.TR12200980 bus1=BMT8801988B.1.2.3,bus2=BMT8801994B.1.2.3,Phases=3,Linecode=CABA06_3_3,Length=0.036671000,Units=km
new line.TR12200981 bus1=BMT8801994B.1.2.3,bus2=BMT155735342.1.2.3,Phases=3,Linecode=CABA06_3_3,Length=0.031608000,Units=km
new line.TR12200982 bus1=BMT155735342.1.2.3,bus2=BMT8802011B.1.2.3,Phases=3,Linecode=CABA06_3_3,Length=0.036384000,Units=km
new line.TR12200983 bus1=BMT8802011B.1.2.3,bus2=BMT8802012B.1.2.3,Phases=3,Linecode=CABA06_3_3,Length=0.037626000,Units=km
new line.TR12200984 bus1=BMT8802012B.1.2.3,bus2=BMT8802013B.1.2.3,Phases=3,Linecode=CABA06_3_3,Length=0.033511000,Units=km
new line.TR12200985 bus1=BMT8802013B.1.2.3,bus2=BMT8802036B.1.2.3,Phases=3,Linecode=CABA06_3_3,Length=0.007807000,Units=km
new line.TR12200986 bus1=BMT8802036B.1.2.3,bus2=BMT8802039B.1.2.3,Phases=3,Linecode=CABA06_3_3,Length=0.029004000,Units=km
new line.TR12200987 bus1=BMT8802039B.1.2.3,bus2=BMT8802050B.1.2.3,Phases=3,Linecode=CABA06_3_3,Length=0.024989000,Units=km
new line.TR12200988 bus1=BMT8802050B.1.2.3,bus2=BMT155735343.1.2.3,Phases=3,Linecode=CABA06_3_3,Length=0.022013000,Units=km
new line.TR12200989 bus1=BMT155735343.1.2.3,bus2=BMT8802317B.1.2.3,Phases=3,Linecode=CABA06_3_3,Length=0.027987000,Units=km
new line.TR12200990 bus1=BMT155735343.1.2.3,bus2=BMT8802313B.1.2.3,Phases=3,Linecode=CABA06_3_3,Length=0.007208000,Units=km
new line.TR12200991 bus1=BMT8802313B.1.2.3,bus2=BMT8802314B.1.2.3,Phases=3,Linecode=CABA06_3_3,Length=0.028147000,Units=km
new line.TR12200992 bus1=BMT8802314B.1.2.3,bus2=BMT8802315B.1.2.3,Phases=3,Linecode=CABA06_3_3,Length=0.029398000,Units=km
new line.TR12200993 bus1=BMT8802315B.1.2.3,bus2=BMT155735345.1.2.3,Phases=3,Linecode=CABA06_3_3,Length=0.036384000,Units=km
new line.TR12200994 bus1=BMT8802317B.1.2.3,bus2=BMT155735344.1.2.3,Phases=3,Linecode=CABA06_3_3,Length=0.034998000,Units=km
new line.TR12200995 bus1=BMT155735344.1.2.3,bus2=BMT8802319B.1.2.3,Phases=3,Linecode=CABA06_3_3,Length=0.006401000,Units=km
new line.TR12200996 bus1=BMT8802319B.1.2.3,bus2=BMT8802320B.1.2.3,Phases=3,Linecode=CABA06_3_3,Length=0.024989000,Units=km
new line.TR12200997 bus1=BMT8802320B.1.2.3,bus2=BMT155735346.1.2.3,Phases=3,Linecode=CABA06_3_3,Length=0.036384000,Units=km
new line.TR12200998 bus1=BMT155735344.1.2.3,bus2=BMT151407321.1.2.3,Phases=3,Linecode=CABA06_3_3,Length=0.033999000,Units=km
new line.TR12200999 bus1=BMT155735860.1.2.3,bus2=BMT8802323B.1.2.3,Phases=3,Linecode=CABA06_3_3,Length=0.039994000,Units=km
new line.TR12201000 bus1=BMT8802323B.1.2.3,bus2=BMT8802326B.1.2.3,Phases=3,Linecode=CABA06_3_3,Length=0.032001000,Units=km
new line.TR12201001 bus1=BMT8802326B.1.2.3,bus2=BMT155735861.1.2.3,Phases=3,Linecode=CABA06_3_3,Length=0.024989000,Units=km
new line.TR12201002 bus1=BMT155735861.1.2.3,bus2=BMT8802328B.1.2.3,Phases=3,Linecode=CABA06_3_3,Length=0.030003000,Units=km
new line.TR12201003 bus1=BMT8802328B.1.2.3,bus2=BMT8802329B.1.2.3,Phases=3,Linecode=CABA06_3_3,Length=0.027006000,Units=km
new line.TR12201004 bus1=BMT8802329B.1.2.3,bus2=BMT8802330B.1.2.3,Phases=3,Linecode=CABA06_3_3,Length=0.007807000,Units=km
new line.TR12201005 bus1=BMT8802330B.1.2.3,bus2=BMT8802351B.1.2.3,Phases=3,Linecode=CABA06_3_3,Length=0.026237000,Units=km
new line.TR12201006 bus1=BMT8802351B.1.2.3,bus2=BMT8802352B.1.2.3,Phases=3,Linecode=CABA06_3_3,Length=0.031307000,Units=km
new line.TR12201007 bus1=BMT8802352B.1.2.3,bus2=BMT8802353B.1.2.3,Phases=3,Linecode=CABA06_3_3,Length=0.025950000,Units=km
new line.TR12201008 bus1=BMT8802353B.1.2.3,bus2=BMT155735862.1.2.3,Phases=3,Linecode=CABA06_3_3,Length=0.030351000,Units=km
new line.TR12201009 bus1=BMT155735862.1.2.3,bus2=BMT8802358B.1.2.3,Phases=3,Linecode=CABA06_3_3,Length=0.038880000,Units=km
new line.TR12136260 bus1=BMT4896749B.1.2.3,bus2=BMT168755048.1.2.3,Phases=3,Linecode=CAB204_3_3,Length=0.065113000,Units=km
new line.TR12136261 bus1=BMT168755048.1.2.3,bus2=BMT168755049.1.2.3,Phases=3,Linecode=CAB204_3_3,Length=0.065427000,Units=km
new line.TR12136262 bus1=BMT168755048.1.2.3,bus2=BMT168755050.1.2.3,Phases=3,Linecode=CAB202_3_3,Length=0.136272000,Units=km
new line.TR12137729 bus1=BMT123330001.1.2.3,bus2=BMT581536B.1.2.3,Phases=3,Linecode=CABA06_3_3,Length=0.030003000,Units=km
new line.TR12137736 bus1=BMT581536B.1.2.3,bus2=BMT8731381B.1.2.3,Phases=3,Linecode=CABA06_3_3,Length=0.018020000,Units=km
new line.TR12137738 bus1=BMT8731381B.1.2.3,bus2=BMT8731381D.1.2.3,Phases=3,Linecode=CABA06_3_3,Length=0.000500000,Units=km
new line.TR12137740 bus1=BMT8731381D.1.2.3,bus2=BMT157152326.1.2.3,Phases=3,Linecode=CABA06_3_3,Length=0.035997000,Units=km
new line.TR12137818 bus1=BMT161026939.1,bus2=BMT161026940.1,Phases=1,Linecode=CAB202_3_1,Length=0.209132000,Units=km
new line.TR12139911 bus1=BMT160791976.1.2.3,bus2=BMT740191B.1.2.3,Phases=3,Linecode=CABA06_3_3,Length=0.036753000,Units=km
new line.TR12139912 bus1=BMT740191B.1.2.3,bus2=BMT160791977.1.2.3,Phases=3,Linecode=CABA06_3_3,Length=0.032265000,Units=km
new line.TR12140108 bus1=BMT161804778.1.2.3,bus2=BMT582243B.1.2.3,Phases=3,Linecode=CABA06_3_3,Length=0.039832000,Units=km
new line.TR12140109 bus1=BMT582243B.1.2.3,bus2=BMT161804779.1.2.3,Phases=3,Linecode=CABA06_3_3,Length=0.029719000,Units=km
new line.TR12140472 bus1=BMT4777259B.1.2.3,bus2=BMT4777336B.1.2.3,Phases=3,Linecode=CAB207_3_3,Length=0.233993000,Units=km
new line.TR12140497 bus1=BMT4777462B.1.2.3,bus2=BMT3385974B.1.2.3,Phases=3,Linecode=CAB207_3_3,Length=0.246190000,Units=km
new line.TR12140520 bus1=BMT170710089.1,bus2=BMT149181488.1,Phases=1,Linecode=CAB103_3_1,Length=0.012992000,Units=km
new line.TR12140521 bus1=BMT159942828.1,bus2=BMT2409376B.1,Phases=1,Linecode=CAB202_3_1,Length=0.109156000,Units=km
new line.TR12140531 bus1=BMT161995052.1.2.3,bus2=BMT8734417B.1.2.3,Phases=3,Linecode=CABA06_3_3,Length=0.022810000,Units=km
new line.TR12140587 bus1=BMT8734417B.1.2.3,bus2=BMT161995055.1.2.3,Phases=3,Linecode=CABA06_3_3,Length=0.041566000,Units=km
new line.TR12140588 bus1=BMT161995055.1.2.3,bus2=BMT161995056.1.2.3,Phases=3,Linecode=CABA06_3_3,Length=0.011173000,Units=km
new line.TR12140621 bus1=BMT161995055.1.2.3,bus2=BMT8734448B.1.2.3,Phases=3,Linecode=CABA06_3_3,Length=0.037988000,Units=km
new line.TR12140623 bus1=BMT161995055.1.2.3,bus2=BMT8734430B.1.2.3,Phases=3,Linecode=CABA06_3_3,Length=0.005382000,Units=km
new line.TR12140626 bus1=BMT8734430B.1.2.3,bus2=BMT149188856.1.2.3,Phases=3,Linecode=CABA06_3_3,Length=0.032628000,Units=km
new line.TR12140627 bus1=BMT161994985.1.2.3,bus2=BMT8734435B.1.2.3,Phases=3,Linecode=CABA06_3_3,Length=0.033084000,Units=km
new line.TR12140630 bus1=BMT8734435B.1.2.3,bus2=BMT161994986.1.2.3,Phases=3,Linecode=CABA06_3_3,Length=0.030394000,Units=km
new line.TR12140631 bus1=BMT161994986.1.2.3,bus2=BMT8734438B.1.2.3,Phases=3,Linecode=CABA06_3_3,Length=0.029050000,Units=km
new line.TR12140634 bus1=BMT8734438B.1.2.3,bus2=BMT8734463B.1.2.3,Phases=3,Linecode=CABA06_3_3,Length=0.033084000,Units=km
new line.TR12140636 bus1=BMT8734463B.1.2.3,bus2=BMT8734464B.1.2.3,Phases=3,Linecode=CABA06_3_3,Length=0.029947000,Units=km
new line.TR12140637 bus1=BMT8734464B.1.2.3,bus2=BMT8734465B.1.2.3,Phases=3,Linecode=CABA06_3_3,Length=0.032628000,Units=km
new line.TR12140641 bus1=BMT8734465B.1.2.3,bus2=BMT8734467B.1.2.3,Phases=3,Linecode=CABA06_3_3,Length=0.034862000,Units=km
new line.TR12140643 bus1=BMT8734467B.1.2.3,bus2=BMT8734481B.1.2.3,Phases=3,Linecode=CABA06_3_3,Length=0.037097000,Units=km
new line.TR12140644 bus1=BMT8734481B.1.2.3,bus2=BMT8734485B.1.2.3,Phases=3,Linecode=CABA06_3_3,Length=0.036225000,Units=km
new line.TR12140648 bus1=BMT8734485B.1.2.3,bus2=BMT8734486B.1.2.3,Phases=3,Linecode=CABA06_3_3,Length=0.034415000,Units=km
new line.TR12140650 bus1=BMT8734486B.1.2.3,bus2=BMT8734488B.1.2.3,Phases=3,Linecode=CABA06_3_3,Length=0.031744000,Units=km
new line.TR12140652 bus1=BMT8734488B.1.2.3,bus2=BMT161994987.1.2.3,Phases=3,Linecode=CABA06_3_3,Length=0.030394000,Units=km
new line.TR12143333 bus1=BMT150349128.1.2.3,bus2=BMT150349129.1.2.3,Phases=3,Linecode=CAB401_3_3,Length=0.004241000,Units=km
new line.TR12143335 bus1=BMT150349129.1.2.3,bus2=BMT150349130.1.2.3,Phases=3,Linecode=CAB401_3_3,Length=0.027772000,Units=km
new line.TR12143336 bus1=BMT150349130.1.2.3,bus2=BMT150349131.1.2.3,Phases=3,Linecode=CAB401_3_3,Length=0.004471000,Units=km
new line.TR12214670 bus1=BMT4977578B.1.2.3,bus2=BMT8815107B.1.2.3,Phases=3,Linecode=CABA08_3_3,Length=0.035719000,Units=km
new line.TR12214722 bus1=BMT4977592B.1.2.3,bus2=BMT8780116B.1.2.3,Phases=3,Linecode=CABA08_3_3,Length=0.035719000,Units=km
new line.TR12215469 bus1=BMT8815107B.1.2.3,bus2=BMT4977592B.1.2.3,Phases=3,Linecode=CABA08_3_3,Length=0.029398000,Units=km
new line.TR12304506 bus1=BMT160349451.1.2.3,bus2=BMT160349453.1.2.3,Phases=3,Linecode=CAB202_3_3,Length=0.084810000,Units=km
new line.TR12304507 bus1=BMT160349453.1.2.3,bus2=BMT123344351.1.2.3,Phases=3,Linecode=CAB202_3_3,Length=0.039604000,Units=km
new line.TR12304509 bus1=BMT160349453.1.2.3,bus2=BMT160349454.1.2.3,Phases=3,Linecode=CAB202_3_3,Length=0.090740000,Units=km
new line.TR12304879 bus1=BMT154971564.3,bus2=BMT8906128B.3,Phases=1,Linecode=CAB202_3_1,Length=0.087058000,Units=km
new line.TR12304882 bus1=BMT8906128B.3,bus2=BMT8906129B.3,Phases=1,Linecode=CAB202_3_1,Length=0.092100000,Units=km
new line.TR12304887 bus1=BMT8906129B.3,bus2=BMT8906131B.3,Phases=1,Linecode=CAB202_3_1,Length=0.077074000,Units=km
new line.TR12304891 bus1=BMT8906131B.3,bus2=BMT8906132B.3,Phases=1,Linecode=CAB202_3_1,Length=0.084062000,Units=km
new line.TR12304892 bus1=BMT8906132B.3,bus2=BMT8906134B.3,Phases=1,Linecode=CAB202_3_1,Length=0.084062000,Units=km
new line.TR12304894 bus1=BMT8906134B.3,bus2=BMT8906135B.3,Phases=1,Linecode=CAB202_3_1,Length=0.085020000,Units=km
new line.TR12304896 bus1=BMT8906135B.3,bus2=BMT154971565.3,Phases=1,Linecode=CAB202_3_1,Length=0.064006000,Units=km
new line.TR12307119 bus1=BMT8908383B.3,bus2=BMT159003726.3,Phases=1,Linecode=CAB202_3_1,Length=0.125352000,Units=km
new line.TR12307142 bus1=BMT130030149.1.2.3,bus2=BMT159003728.1.2.3,Phases=3,Linecode=CAB202_3_3,Length=0.231157000,Units=km
new line.TR12307143 bus1=BMT159003728.1.2.3,bus2=BMT5354199B.1.2.3,Phases=3,Linecode=CAB202_3_3,Length=0.023251000,Units=km
new line.TR12307144 bus1=BMT5354199B.1.2.3,bus2=BMT155043597.1.2.3,Phases=3,Linecode=CAB202_3_3,Length=0.012996000,Units=km
new line.TR12307145 bus1=BMT155043602.1.2.3,bus2=BMT5354206B.1.2.3,Phases=3,Linecode=CAB202_3_3,Length=0.069090000,Units=km
new line.TR12181048 bus1=BMT8780116B.1.2.3,bus2=BMT8780117B.1.2.3,Phases=3,Linecode=CABA08_3_3,Length=0.036671000,Units=km
new line.TR12181052 bus1=BMT8780118B.1.2.3,bus2=BMT8780119B.1.2.3,Phases=3,Linecode=CABA08_3_3,Length=0.024341000,Units=km
new line.TR12181053 bus1=BMT8780119B.1.2.3,bus2=BMT8780120B.1.2.3,Phases=3,Linecode=CABA08_3_3,Length=0.019916000,Units=km
new line.TR12181054 bus1=BMT8780120B.1.2.3,bus2=BMT8780122B.1.2.3,Phases=3,Linecode=CABA08_3_3,Length=0.007208000,Units=km
new line.TR12181055 bus1=BMT8780122B.1.2.3,bus2=BMT8780127B.1.2.3,Phases=3,Linecode=CABA08_3_3,Length=0.024989000,Units=km
new line.TR12181065 bus1=BMT8780117B.1.2.3,bus2=BMT158444589.1.2.3,Phases=3,Linecode=CABA08_3_3,Length=0.025287000,Units=km
new line.TR12181066 bus1=BMT8780118B.1.2.3,bus2=BMT158444589.1.2.3,Phases=3,Linecode=CABA08_3_3,Length=0.011700000,Units=km
new line.TR12181067 bus1=BMT158444589.1.2.3,bus2=BMT8780186B.1.2.3,Phases=3,Linecode=CABA06_3_3,Length=0.021831000,Units=km
new line.TR12181068 bus1=BMT8780186B.1.2.3,bus2=BMT158444591.1.2.3,Phases=3,Linecode=CABA06_3_3,Length=0.028448000,Units=km
new line.TR12181069 bus1=BMT158444589.1.2.3,bus2=BMT8780183B.1.2.3,Phases=3,Linecode=CABA06_3_3,Length=0.014860000,Units=km
new line.TR12181070 bus1=BMT8780183B.1.2.3,bus2=BMT150644917.1.2.3,Phases=3,Linecode=CABA06_3_3,Length=0.039831000,Units=km
new line.TR12181071 bus1=BMT152486375.1.2.3,bus2=BMT8780180B.1.2.3,Phases=3,Linecode=CABA06_3_3,Length=0.037930000,Units=km
new line.TR12181072 bus1=BMT8780180B.1.2.3,bus2=BMT152486376.1.2.3,Phases=3,Linecode=CABA06_3_3,Length=0.028448000,Units=km
new line.TR12181073 bus1=BMT152486376.1.2.3,bus2=BMT8780178B.1.2.3,Phases=3,Linecode=CABA06_3_3,Length=0.031608000,Units=km
new line.TR12181074 bus1=BMT8780178B.1.2.3,bus2=BMT8780177B.1.2.3,Phases=3,Linecode=CABA06_3_3,Length=0.026237000,Units=km
new line.TR12181075 bus1=BMT8780177B.1.2.3,bus2=BMT152486377.1.2.3,Phases=3,Linecode=CABA06_3_3,Length=0.035719000,Units=km
new line.TR12181076 bus1=BMT152486377.1.2.3,bus2=BMT8780175B.1.2.3,Phases=3,Linecode=CABA06_3_3,Length=0.029398000,Units=km
new line.TR12181077 bus1=BMT8780175B.1.2.3,bus2=BMT8780174B.1.2.3,Phases=3,Linecode=CABA06_3_3,Length=0.025287000,Units=km
new line.TR12181078 bus1=BMT8780174B.1.2.3,bus2=BMT8780173B.1.2.3,Phases=3,Linecode=CABA06_3_3,Length=0.024031000,Units=km
new line.TR12181079 bus1=BMT8780173B.1.2.3,bus2=BMT8780172B.1.2.3,Phases=3,Linecode=CABA06_3_3,Length=0.026237000,Units=km
new line.TR12181082 bus1=BMT8780172B.1.2.3,bus2=BMT152486378.1.2.3,Phases=3,Linecode=CABA06_3_3,Length=0.008059000,Units=km
new line.TR12181083 bus1=BMT152486378.1.2.3,bus2=BMT8780166B.1.2.3,Phases=3,Linecode=CABA06_3_3,Length=0.037930000,Units=km
new line.TR12181084 bus1=BMT8780166B.1.2.3,bus2=BMT152486379.1.2.3,Phases=3,Linecode=CABA06_3_3,Length=0.042992000,Units=km