new line.10100516 bus1=BBT147914337.1.2.3.0,bus2=BBT147903473.1.2.3.0,Phases=3,Linecode=BT803_BT803_4_3_4,Length=0.005097000,Units=km
new line.10100572 bus1=BBT147905314.1.2.3.0,bus2=BBT147905321.1.2.3.0,Phases=3,Linecode=BT513_BT513_7_3_1,Length=0.000500000,Units=km
new line.10100586 bus1=BBT147905321.1.2.3.0,bus2=BBT147905664.1.2.3.0,Phases=3,Linecode=BT803_BT803_4_3_4,Length=0.040294000,Units=km
new line.10100593 bus1=BBT147905664.1.2.3.0,bus2=BBT147905671.1.2.3.0,Phases=3,Linecode=BT803_BT803_4_3_4,Length=0.043120000,Units=km
new line.10100600 bus1=BBT147905671.1.2.3.0,bus2=BBT147905972.1.2.3.0,Phases=3,Linecode=BT803_BT803_4_3_4,Length=0.026408000,Units=km
new line.10100621 bus1=BBT147905671.1.2.3.0,bus2=BBT147906084.1.2.3.0,Phases=3,Linecode=BT803_BT803_4_3_4,Length=0.033107000,Units=km
new line.10100628 bus1=BBT147906084.1.2.3.0,bus2=BBT147906091.1.2.3.0,Phases=3,Linecode=BT803_BT803_4_3_4,Length=0.033985000,Units=km
new line.10100635 bus1=BBT147906091.1.2.3.0,bus2=BBT147906098.1.2.3.0,Phases=3,Linecode=BT803_BT803_4_3_4,Length=0.040294000,Units=km
new line.10100642 bus1=BBT147905321.1.2.3.0,bus2=BBT147906105.1.2.3.0,Phases=3,Linecode=BT803_BT803_4_3_4,Length=0.036054000,Units=km
new line.10100649 bus1=BBT147906105.1.2.3.0,bus2=BBT147906336.1.2.3.0,Phases=3,Linecode=BT803_BT803_4_3_4,Length=0.036753000,Units=km
new line.10100656 bus1=BBT147906336.1.2.3.0,bus2=BBT147906406.1.2.3.0,Phases=3,Linecode=BT803_BT803_4_3_4,Length=0.005383000,Units=km
new line.10100663 bus1=BBT147906406.1.2.3.0,bus2=BBT147906441.1.2.3.0,Phases=3,Linecode=BT803_BT803_4_3_4,Length=0.033046000,Units=km
new line.10100670 bus1=BBT147906441.1.2.3.0,bus2=BBT147906448.1.2.3.0,Phases=3,Linecode=BT803_BT803_4_3_4,Length=0.044264000,Units=km
new line.10100677 bus1=BBT147906448.1.2.3.0,bus2=BBT147906455.1.2.3.0,Phases=3,Linecode=BT803_BT803_4_3_4,Length=0.040032000,Units=km
new line.10100684 bus1=BBT147906448.1.2.3.0,bus2=BBT147906462.1.2.3.0,Phases=3,Linecode=BT803_BT803_4_3_4,Length=0.004998000,Units=km
new line.10100691 bus1=BBT147906462.1.2.3.0,bus2=BBT147906672.1.2.3.0,Phases=3,Linecode=BT803_BT803_4_3_4,Length=0.038167000,Units=km
new line.10100698 bus1=BBT147906672.1.2.3.0,bus2=BBT147906679.1.2.3.0,Phases=3,Linecode=BT803_BT803_4_3_4,Length=0.038167000,Units=km
new line.10100712 bus1=BBT147906679.1.2.3.0,bus2=BBT147906693.1.2.3.0,Phases=3,Linecode=BT803_BT803_4_3_4,Length=0.039581000,Units=km
new line.10100719 bus1=BBT147906693.1.2.3.0,bus2=BBT147906700.1.2.3.0,Phases=3,Linecode=BT803_BT803_4_3_4,Length=0.040294000,Units=km
new line.10100726 bus1=BBT147905972.1.2.3.0,bus2=BBT147906714.1.2.3.0,Phases=3,Linecode=BT803_BT803_4_3_4,Length=0.027283000,Units=km
new line.10100747 bus1=BBT147906406.1.2.3.0,bus2=BBT147909122.1.2.3.0,Phases=3,Linecode=BT803_BT803_4_3_4,Length=0.044991000,Units=km
new line.10100754 bus1=BBT147909122.1.2.3.0,bus2=BBT147909129.1.2.3.0,Phases=3,Linecode=BT803_BT803_4_3_4,Length=0.007277000,Units=km
new line.10100810 bus1=BBT147909129.1.2.3.0,bus2=BBT147910130.1.2.3.0,Phases=3,Linecode=BT803_BT803_4_3_4,Length=0.034351000,Units=km
new line.10100817 bus1=BBT147910130.1.2.3.0,bus2=BBT147910137.1.2.3.0,Phases=3,Linecode=BT803_BT803_4_3_4,Length=0.033985000,Units=km
new line.10100824 bus1=BBT147906091.1.2.3.0,bus2=BBT147910501.1.2.3.0,Phases=3,Linecode=BT803_BT803_4_3_4,Length=0.023527000,Units=km
new line.10100831 bus1=BBT147910501.1.2.3.0,bus2=BBT147910508.1.2.3.0,Phases=3,Linecode=BT803_BT803_4_3_4,Length=0.031814000,Units=km
new line.10100838 bus1=BBT147910508.1.2.3.0,bus2=BBT147910515.1.2.3.0,Phases=3,Linecode=BT803_BT803_4_3_4,Length=0.040294000,Units=km
new line.10100845 bus1=BBT147910515.1.2.3.0,bus2=BBT147910557.1.2.3.0,Phases=3,Linecode=BT803_BT803_4_3_4,Length=0.040294000,Units=km
new line.10100852 bus1=BBT147910585.1.2.3.0,bus2=BBT147910564.1.2.3.0,Phases=3,Linecode=BT803_BT803_4_3_4,Length=0.005097000,Units=km
new line.10100873 bus1=BBT147909129.1.2.3.0,bus2=BBT147910585.1.2.3.0,Phases=3,Linecode=BT803_BT803_4_3_4,Length=0.015550000,Units=km
new line.10100887 bus1=BBT147910557.1.2.3.0,bus2=BBT147910599.1.2.3.0,Phases=3,Linecode=BT803_BT803_4_3_4,Length=0.040294000,Units=km
new line.10100915 bus1=BBT147910585.1.2.3.0,bus2=BBT147911236.1.2.3.0,Phases=3,Linecode=BT803_BT803_4_3_4,Length=0.040294000,Units=km
new line.10100922 bus1=BBT147911936.1.2.3.0,bus2=BBT147911943.1.2.3.0,Phases=3,Linecode=BT513_BT513_7_3_1,Length=0.000500000,Units=km
new line.10100971 bus1=BBT147912321.1.2.3.0,bus2=BBT147912027.1.2.3.0,Phases=3,Linecode=BT803_BT803_4_3_4,Length=0.011309000,Units=km
new line.10100978 bus1=BBT147912034.1.2.3.0,bus2=BBT147912300.1.2.3.0,Phases=3,Linecode=BT803_BT803_4_3_4,Length=0.015805000,Units=km
new line.10100985 bus1=BBT147911943.1.2.3.0,bus2=BBT147912034.1.2.3.0,Phases=3,Linecode=BT803_BT803_4_3_4,Length=0.022794000,Units=km
new line.10100992 bus1=BBT147912034.1.2.3.0,bus2=BBT147912048.1.2.3.0,Phases=3,Linecode=BT803_BT803_4_3_4,Length=0.019791000,Units=km
new line.10100999 bus1=BBT147912034.1.2.3.0,bus2=BBT147912055.1.2.3.0,Phases=3,Linecode=BT803_BT803_4_3_4,Length=0.016963000,Units=km
new line.10101006 bus1=BBT147912048.1.2.3.0,bus2=BBT147912062.1.2.3.0,Phases=3,Linecode=BT803_BT803_4_3_4,Length=0.036753000,Units=km
new line.10101013 bus1=BBT147912062.1.2.3.0,bus2=BBT147912069.1.2.3.0,Phases=3,Linecode=BT803_BT803_4_3_4,Length=0.035340000,Units=km
new line.10101020 bus1=BBT147912069.1.2.3.0,bus2=BBT147912076.1.2.3.0,Phases=3,Linecode=BT803_BT803_4_3_4,Length=0.036753000,Units=km
new line.10101027 bus1=BBT147912076.1.2.3.0,bus2=BBT147912083.1.2.3.0,Phases=3,Linecode=BT803_BT803_4_3_4,Length=0.033956000,Units=km
new line.10101034 bus1=BBT147912083.1.2.3.0,bus2=BBT147912090.1.2.3.0,Phases=3,Linecode=BT803_BT803_4_3_4,Length=0.053688000,Units=km
new line.10101041 bus1=BBT147912055.1.2.3.0,bus2=BBT147912097.1.2.3.0,Phases=3,Linecode=BT803_BT803_4_3_4,Length=0.031814000,Units=km
new line.10101048 bus1=BBT147912097.1.2.3.0,bus2=BBT147912104.1.2.3.0,Phases=3,Linecode=BT803_BT803_4_3_4,Length=0.028987000,Units=km
new line.10101055 bus1=BBT147912104.1.2.3.0,bus2=BBT147912153.1.2.3.0,Phases=3,Linecode=BT803_BT803_4_3_4,Length=0.004241000,Units=km
new line.10101069 bus1=BBT147912153.1.2.3.0,bus2=BBT147912167.1.2.3.0,Phases=3,Linecode=BT803_BT803_4_3_4,Length=0.033001000,Units=km
new line.10101076 bus1=BBT147912153.1.2.3.0,bus2=BBT147912174.1.2.3.0,Phases=3,Linecode=BT803_BT803_4_3_4,Length=0.034999000,Units=km
new line.10101083 bus1=BBT147912174.1.2.3.0,bus2=BBT147912181.1.2.3.0,Phases=3,Linecode=BT803_BT803_4_3_4,Length=0.035042000,Units=km
new line.10101090 bus1=BBT147912181.1.2.3.0,bus2=BBT147912188.1.2.3.0,Phases=3,Linecode=BT803_BT803_4_3_4,Length=0.019305000,Units=km
new line.10101111 bus1=BBT147911943.1.2.3.0,bus2=BBT147912321.1.2.3.0,Phases=3,Linecode=BT803_BT803_4_3_4,Length=0.030401000,Units=km
new line.10101475 bus1=BBT147912321.1.2.3.0,bus2=BBT147913231.1.2.3.0,Phases=3,Linecode=BT803_BT803_4_3_4,Length=0.009216000,Units=km
new line.10101482 bus1=BBT147913231.1.2.3.0,bus2=BBT147913238.1.2.3.0,Phases=3,Linecode=BT803_BT803_4_3_4,Length=0.040994000,Units=km
new line.10101489 bus1=BBT147912321.1.2.3.0,bus2=BBT147913245.1.2.3.0,Phases=3,Linecode=BT803_BT803_4_3_4,Length=0.030401000,Units=km
new line.10060252 bus1=BBT3657490.1.2.3.0,bus2=BBT146885015.1.2.3.0,Phases=3,Linecode=BT810_BT810_4_3_4,Length=0.030400000,Units=km
new line.10060259 bus1=BBT146885015.1.2.3.0,bus2=BBT146885022.1.2.3.0,Phases=3,Linecode=BT810_BT810_4_3_4,Length=0.032374000,Units=km
new line.10060266 bus1=BBT146885022.1.2.3.0,bus2=BBT146885029.1.2.3.0,Phases=3,Linecode=BT810_BT810_4_3_4,Length=0.005655000,Units=km
new line.10060273 bus1=BBT146885029.1.2.3.0,bus2=BBT146885036.1.2.3.0,Phases=3,Linecode=BT810_BT810_4_3_4,Length=0.038454000,Units=km
new line.10062982 bus1=BBT3219892.1.2.3.0,bus2=BBT146956352.1.2.3.0,Phases=3,Linecode=BT810_BT810_4_3_4,Length=0.025698000,Units=km
new line.10070962 bus1=BBT147119123.1.2.3.0,bus2=BBT754702.1.2.3.0,Phases=3,Linecode=BT518_BT518_7_3_1,Length=0.000500000,Units=km
new line.10070969 bus1=BBT754702.1.2.3.0,bus2=BBT147119158.1.2.3.0,Phases=3,Linecode=BT803_BT803_4_3_4,Length=0.024073000,Units=km
new line.10070976 bus1=BBT147119158.1.2.3.0,bus2=BBT147119165.1.2.3.0,Phases=3,Linecode=BT803_BT803_4_3_4,Length=0.023335000,Units=km
new line.10073391 bus1=BBT147189900.1.2.0,bus2=BBT147189907.1.2.0,Phases=2,Linecode=BT513_BT513_7_2_1,Length=0.000500000,Units=km
new line.10081084 bus1=BBT147398465.1.2.3.0,bus2=BBT147398472.1.2.3.0,Phases=3,Linecode=BT518_BT518_7_3_1,Length=0.000500000,Units=km
new line.10081091 bus1=BBT147399032.1.2.3.0,bus2=BBT147399039.1.2.3.0,Phases=3,Linecode=BT513_BT513_7_3_1,Length=0.000500000,Units=km
new line.10081098 bus1=BBT147400089.1.2.3.0,bus2=BBT147400096.1.2.3.0,Phases=3,Linecode=BT513_BT513_7_3_1,Length=0.000500000,Units=km
new line.10081154 bus1=BBT147401965.1.2.3.0,bus2=BBT147401972.1.2.3.0,Phases=3,Linecode=BT518_BT518_7_3_1,Length=0.000500000,Units=km
new line.10081161 bus1=BBT147403029.1.2.3.0,bus2=BBT147403036.1.2.3.0,Phases=3,Linecode=BT513_BT513_7_3_1,Length=0.000500000,Units=km
new line.10081182 bus1=BBT147403162.1.2.3.0,bus2=BBT147403169.1.2.3.0,Phases=3,Linecode=BT513_BT513_7_3_1,Length=0.000500000,Units=km
new line.10081231 bus1=BBT147404660.1.2.3.0,bus2=BBT147404667.1.2.3.0,Phases=3,Linecode=BT518_BT518_7_3_1,Length=0.000500000,Units=km
new line.10081252 bus1=BBT147404835.1.2.3.0,bus2=BBT147404842.1.2.3.0,Phases=3,Linecode=BT513_BT513_7_3_1,Length=0.000500000,Units=km
new line.10081259 bus1=BBT147404947.1.2.3.0,bus2=BBT147404954.1.2.3.0,Phases=3,Linecode=BT518_BT518_7_3_1,Length=0.000500000,Units=km
new line.10081301 bus1=BBT147406025.1.2.3.0,bus2=BBT147406032.1.2.3.0,Phases=3,Linecode=BT518_BT518_7_3_1,Length=0.000500000,Units=km
new line.10081357 bus1=BBT147407495.1.2.3.0,bus2=BBT147407509.1.2.3.0,Phases=3,Linecode=BT518_BT518_7_3_1,Length=0.000500000,Units=km
new line.10081448 bus1=BBT147408853.1.2.3.0,bus2=BBT147408860.1.2.3.0,Phases=3,Linecode=BT513_BT513_7_3_1,Length=0.000500000,Units=km
new line.10081469 bus1=BBT147409189.1.2.3.0,bus2=BBT147409196.1.2.3.0,Phases=3,Linecode=BT513_BT513_7_3_1,Length=0.000500000,Units=km
new line.10081476 bus1=BBT147409609.1.2.3.0,bus2=BBT147409616.1.2.3.0,Phases=3,Linecode=BT518_BT518_7_3_1,Length=0.000500000,Units=km
new line.10081483 bus1=BBT147409742.1.2.3.0,bus2=BBT147409749.1.2.3.0,Phases=3,Linecode=BT518_BT518_7_3_1,Length=0.000500000,Units=km
new line.10081504 bus1=BBT147410288.1.2.3.0,bus2=BBT147410295.1.2.3.0,Phases=3,Linecode=BT513_BT513_7_3_1,Length=0.000500000,Units=km
new line.10081525 bus1=BBT147410365.1.2.3.0,bus2=BBT147410372.1.2.3.0,Phases=3,Linecode=BT518_BT518_7_3_1,Length=0.000500000,Units=km
new line.10081630 bus1=BBT147399039.1.2.3.0,bus2=BBT147412150.1.2.3.0,Phases=3,Linecode=BT803_BT803_4_3_4,Length=0.031766000,Units=km
new line.10081679 bus1=BBT147399039.1.2.3.0,bus2=BBT147413137.1.2.3.0,Phases=3,Linecode=BT803_BT803_4_3_4,Length=0.031561000,Units=km
new line.10081686 bus1=BBT147413137.1.2.3.0,bus2=BBT147413144.1.2.3.0,Phases=3,Linecode=BT803_BT803_4_3_4,Length=0.029601000,Units=km
new line.10081693 bus1=BBT147413144.1.2.3.0,bus2=BBT147413151.1.2.3.0,Phases=3,Linecode=BT803_BT803_4_3_4,Length=0.002999000,Units=km
new line.10081700 bus1=BBT147413151.1.2.3.0,bus2=BBT147413158.1.2.3.0,Phases=3,Linecode=BT803_BT803_4_3_4,Length=0.012037000,Units=km
new line.10081707 bus1=BBT147413151.1.2.3.0,bus2=BBT147413165.1.2.3.0,Phases=3,Linecode=BT803_BT803_4_3_4,Length=0.011041000,Units=km
new line.10081714 bus1=BBT147413151.1.2.3.0,bus2=BBT147413172.1.2.3.0,Phases=3,Linecode=BT803_BT803_4_3_4,Length=0.024505000,Units=km
new line.10081721 bus1=BBT147413172.1.2.3.0,bus2=BBT147413179.1.2.3.0,Phases=3,Linecode=BT803_BT803_4_3_4,Length=0.021368000,Units=km
new line.10081728 bus1=BBT147413179.1.2.3.0,bus2=BBT147413186.1.2.3.0,Phases=3,Linecode=BT803_BT803_4_3_4,Length=0.024505000,Units=km
new line.10081735 bus1=BBT147413165.1.2.3.0,bus2=BBT147413193.1.2.3.0,Phases=3,Linecode=BT803_BT803_4_3_4,Length=0.030581000,Units=km
new line.10081742 bus1=BBT147413193.1.2.3.0,bus2=BBT147413200.1.2.3.0,Phases=3,Linecode=BT803_BT803_4_3_4,Length=0.030581000,Units=km
new line.10081749 bus1=BBT147413165.1.2.3.0,bus2=BBT147413207.1.2.3.0,Phases=3,Linecode=BT803_BT803_4_3_4,Length=0.031561000,Units=km
new line.10081756 bus1=BBT147413207.1.2.3.0,bus2=BBT147413214.1.2.3.0,Phases=3,Linecode=BT803_BT803_4_3_4,Length=0.031561000,Units=km
new line.10081763 bus1=BBT147412150.1.2.3.0,bus2=BBT147413221.1.2.3.0,Phases=3,Linecode=BT803_BT803_4_3_4,Length=0.028430000,Units=km
new line.10081770 bus1=BBT147413221.1.2.3.0,bus2=BBT147413228.1.2.3.0,Phases=3,Linecode=BT803_BT803_4_3_4,Length=0.018377000,Units=km
new line.10081777 bus1=BBT147413228.1.2.3.0,bus2=BBT147413235.1.2.3.0,Phases=3,Linecode=BT803_BT803_4_3_4,Length=0.010626000,Units=km
new line.10081784 bus1=BBT147413235.1.2.3.0,bus2=BBT147413242.1.2.3.0,Phases=3,Linecode=BT803_BT803_4_3_4,Length=0.027283000,Units=km
new line.10081791 bus1=BBT147413242.1.2.3.0,bus2=BBT147413249.1.2.3.0,Phases=3,Linecode=BT803_BT803_4_3_4,Length=0.031766000,Units=km
new line.10081798 bus1=BBT147398472.1.2.3.0,bus2=BBT147413256.1.2.3.0,Phases=3,Linecode=BT803_BT803_4_3_4,Length=0.041418000,Units=km
new line.10081805 bus1=BBT147398472.1.2.3.0,bus2=BBT147413263.1.2.3.0,Phases=3,Linecode=BT803_BT803_4_3_4,Length=0.039441000,Units=km
new line.10081812 bus1=BBT147413256.1.2.3.0,bus2=BBT147413270.1.2.3.0,Phases=3,Linecode=BT803_BT803_4_3_4,Length=0.024320000,Units=km
new line.10081819 bus1=BBT147413263.1.2.3.0,bus2=BBT147413277.1.2.3.0,Phases=3,Linecode=BT803_BT803_4_3_4,Length=0.032374000,Units=km
new line.10081826 bus1=BBT147413270.1.2.3.0,bus2=BBT147413284.1.2.3.0,Phases=3,Linecode=BT803_BT803_4_3_4,Length=0.005097000,Units=km
new line.10081833 bus1=BBT147413284.1.2.3.0,bus2=BBT147413291.1.2.3.0,Phases=3,Linecode=BT803_BT803_4_3_4,Length=0.031291000,Units=km
new line.10081840 bus1=BBT147413291.1.2.3.0,bus2=BBT147413298.1.2.3.0,Phases=3,Linecode=BT803_BT803_4_3_4,Length=0.029719000,Units=km
new line.10081847 bus1=BBT147413298.1.2.3.0,bus2=BBT147413305.1.2.3.0,Phases=3,Linecode=BT803_BT803_4_3_4,Length=0.033956000,Units=km
new line.10081854 bus1=BBT147413305.1.2.3.0,bus2=BBT147413312.1.2.3.0,Phases=3,Linecode=BT803_BT803_4_3_4,Length=0.036053000,Units=km
new line.10081861 bus1=BBT147413270.1.2.3.0,bus2=BBT147413319.1.2.3.0,Phases=3,Linecode=BT803_BT803_4_3_4,Length=0.005998000,Units=km
new line.10081868 bus1=BBT147413270.1.2.3.0,bus2=BBT147413326.1.2.3.0,Phases=3,Linecode=BT803_BT803_4_3_4,Length=0.015993000,Units=km
new line.10081875 bus1=BBT147413326.1.2.3.0,bus2=BBT147413333.1.2.3.0,Phases=3,Linecode=BT803_BT803_4_3_4,Length=0.036040000,Units=km
new line.10081882 bus1=BBT147413333.1.2.3.0,bus2=BBT147413340.1.2.3.0,Phases=3,Linecode=BT803_BT803_4_3_4,Length=0.035042000,Units=km
new line.10081910 bus1=BBT147413277.1.2.3.0,bus2=BBT147413669.1.2.3.0,Phases=3,Linecode=BT803_BT803_4_3_4,Length=0.041418000,Units=km
new line.10081917 bus1=BBT147413669.1.2.3.0,bus2=BBT147413676.1.2.3.0,Phases=3,Linecode=BT803_BT803_4_3_4,Length=0.034219000,Units=km
new line.10081924 bus1=BBT147413291.1.2.3.0,bus2=BBT147413739.1.2.3.0,Phases=3,Linecode=BT803_BT803_4_3_4,Length=0.032513000,Units=km
new line.10081931 bus1=BBT147401972.1.2.3.0,bus2=BBT147413746.1.2.3.0,Phases=3,Linecode=BT803_BT803_4_3_4,Length=0.029719000,Units=km
new line.10081938 bus1=BBT147413746.1.2.3.0,bus2=BBT147413753.1.2.3.0,Phases=3,Linecode=BT803_BT803_4_3_4,Length=0.028987000,Units=km
new line.10081945 bus1=BBT147413746.1.2.3.0,bus2=BBT147413760.1.2.3.0,Phases=3,Linecode=BT803_BT803_4_3_4,Length=0.006997000,Units=km
new line.10081952 bus1=BBT147413760.1.2.3.0,bus2=BBT147413767.1.2.3.0,Phases=3,Linecode=BT803_BT803_4_3_4,Length=0.034698000,Units=km
new line.10081959 bus1=BBT147413767.1.2.3.0,bus2=BBT147413774.1.2.3.0,Phases=3,Linecode=BT803_BT803_4_3_4,Length=0.047360000,Units=km
new line.10081966 bus1=BBT147413774.1.2.3.0,bus2=BBT147413781.1.2.3.0,Phases=3,Linecode=BT803_BT803_4_3_4,Length=0.007208000,Units=km
new line.10081973 bus1=BBT147413781.1.2.3.0,bus2=BBT147413788.1.2.3.0,Phases=3,Linecode=BT803_BT803_4_3_4,Length=0.035042000,Units=km
new line.10081980 bus1=BBT147413781.1.2.3.0,bus2=BBT147413795.1.2.3.0,Phases=3,Linecode=BT803_BT803_4_3_4,Length=0.032048000,Units=km
new line.10081987 bus1=BBT147401972.1.2.3.0,bus2=BBT147413914.1.2.3.0,Phases=3,Linecode=BT803_BT803_4_3_4,Length=0.021204000,Units=km
new line.10081994 bus1=BBT147413914.1.2.3.0,bus2=BBT147413921.1.2.3.0,Phases=3,Linecode=BT803_BT803_4_3_4,Length=0.009052000,Units=km
new line.10082001 bus1=BBT147413921.1.2.3.0,bus2=BBT147413928.1.2.3.0,Phases=3,Linecode=BT803_BT803_4_3_4,Length=0.028272000,Units=km
new line.10082008 bus1=BBT147413928.1.2.3.0,bus2=BBT147413935.1.2.3.0,Phases=3,Linecode=BT803_BT803_4_3_4,Length=0.029719000,Units=km
new line.10082015 bus1=BBT147413935.1.2.3.0,bus2=BBT147413942.1.2.3.0,Phases=3,Linecode=BT803_BT803_4_3_4,Length=0.034640000,Units=km
new line.10082022 bus1=BBT147413942.1.2.3.0,bus2=BBT147413949.1.2.3.0,Phases=3,Linecode=BT803_BT803_4_3_4,Length=0.026161000,Units=km
new line.10082029 bus1=BBT147413949.1.2.3.0,bus2=BBT147413984.1.2.3.0,Phases=3,Linecode=BT803_BT803_4_3_4,Length=0.013033000,Units=km
new line.10082036 bus1=BBT147413984.1.2.3.0,bus2=BBT147414019.1.2.3.0,Phases=3,Linecode=BT803_BT803_4_3_4,Length=0.035998000,Units=km
new line.10082043 bus1=BBT147413914.1.2.3.0,bus2=BBT147414026.1.2.3.0,Phases=3,Linecode=BT803_BT803_4_3_4,Length=0.019097000,Units=km
new line.10082050 bus1=BBT147404667.1.2.3.0,bus2=BBT147414033.1.2.3.0,Phases=3,Linecode=BT803_BT803_4_3_4,Length=0.030400000,Units=km
new line.10082057 bus1=BBT147414033.1.2.3.0,bus2=BBT147414040.1.2.3.0,Phases=3,Linecode=BT803_BT803_4_3_4,Length=0.032543000,Units=km
new line.10082064 bus1=BBT147404667.1.2.3.0,bus2=BBT147414047.1.2.3.0,Phases=3,Linecode=BT803_BT803_4_3_4,Length=0.034640000,Units=km
new line.10082071 bus1=BBT147414047.1.2.3.0,bus2=BBT147414054.1.2.3.0,Phases=3,Linecode=BT803_BT803_4_3_4,Length=0.030400000,Units=km
new line.10082078 bus1=BBT147414054.1.2.3.0,bus2=BBT147414292.1.2.3.0,Phases=3,Linecode=BT803_BT803_4_3_4,Length=0.018593000,Units=km
new line.10082085 bus1=BBT147414292.1.2.3.0,bus2=BBT147414299.1.2.3.0,Phases=3,Linecode=BT803_BT803_4_3_4,Length=0.022794000,Units=km
new line.10082092 bus1=BBT147414299.1.2.3.0,bus2=BBT147414306.1.2.3.0,Phases=3,Linecode=BT803_BT803_4_3_4,Length=0.019305000,Units=km
new line.10082099 bus1=BBT147414299.1.2.3.0,bus2=BBT147414313.1.2.3.0,Phases=3,Linecode=BT803_BT803_4_3_4,Length=0.017197000,Units=km
new line.10082106 bus1=BBT147414313.1.2.3.0,bus2=BBT147414320.1.2.3.0,Phases=3,Linecode=BT803_BT803_4_3_4,Length=0.030400000,Units=km
new line.10082127 bus1=BBT147414040.1.2.3.0,bus2=BBT147417617.1.2.3.0,Phases=3,Linecode=BT803_BT803_4_3_4,Length=0.032513000,Units=km
new line.10082134 bus1=BBT147417617.1.2.3.0,bus2=BBT147417673.1.2.3.0,Phases=3,Linecode=BT803_BT803_4_3_4,Length=0.009430000,Units=km
new line.10082141 bus1=BBT147417673.1.2.3.0,bus2=BBT147417897.1.2.3.0,Phases=3,Linecode=BT803_BT803_4_3_4,Length=0.044083000,Units=km
new line.10082148 bus1=BBT147417897.1.2.3.0,bus2=BBT147417960.1.2.3.0,Phases=3,Linecode=BT803_BT803_4_3_4,Length=0.037038000,Units=km
new line.10082155 bus1=BBT147417897.1.2.3.0,bus2=BBT147417974.1.2.3.0,Phases=3,Linecode=BT803_BT803_4_3_4,Length=0.015518000,Units=km
new line.10082162 bus1=BBT147417974.1.2.3.0,bus2=BBT147417981.1.2.3.0,Phases=3,Linecode=BT803_BT803_4_3_4,Length=0.012037000,Units=km
new line.10082176 bus1=BBT147417981.1.2.3.0,bus2=BBT147418072.1.2.3.0,Phases=3,Linecode=BT803_BT803_4_3_4,Length=0.019790000,Units=km
new line.10082183 bus1=BBT147418072.1.2.3.0,bus2=BBT147418107.1.2.3.0,Phases=3,Linecode=BT803_BT803_4_3_4,Length=0.024748000,Units=km
new line.10082190 bus1=BBT147418107.1.2.3.0,bus2=BBT147418268.1.2.3.0,Phases=3,Linecode=BT803_BT803_4_3_4,Length=0.030400000,Units=km
new line.10082197 bus1=BBT147418268.1.2.3.0,bus2=BBT147418443.1.2.3.0,Phases=3,Linecode=BT803_BT803_4_3_4,Length=0.029719000,Units=km
new line.10082218 bus1=BBT147417673.1.2.3.0,bus2=BBT147419017.1.2.3.0,Phases=3,Linecode=BT803_BT803_4_3_4,Length=0.023012000,Units=km
new line.10082225 bus1=BBT147404954.1.2.3.0,bus2=BBT147419143.1.2.3.0,Phases=3,Linecode=BT803_BT803_4_3_4,Length=0.036053000,Units=km
new line.10082232 bus1=BBT147419143.1.2.3.0,bus2=BBT147419150.1.2.3.0,Phases=3,Linecode=BT803_BT803_4_3_4,Length=0.008059000,Units=km
new line.10082239 bus1=BBT147419150.1.2.3.0,bus2=BBT147419157.1.2.3.0,Phases=3,Linecode=BT803_BT803_4_3_4,Length=0.030401000,Units=km
new line.10082246 bus1=BBT147419157.1.2.3.0,bus2=BBT147419164.1.2.3.0,Phases=3,Linecode=BT803_BT803_4_3_4,Length=0.008059000,Units=km
new line.10082253 bus1=BBT147419150.1.2.3.0,bus2=BBT147419171.1.2.3.0,Phases=3,Linecode=BT803_BT803_4_3_4,Length=0.038880000,Units=km
new line.10082260 bus1=BBT147419171.1.2.3.0,bus2=BBT147419178.1.2.3.0,Phases=3,Linecode=BT803_BT803_4_3_4,Length=0.039606000,Units=km
new line.10082267 bus1=BBT147419178.1.2.3.0,bus2=BBT147419185.1.2.3.0,Phases=3,Linecode=BT803_BT803_4_3_4,Length=0.038880000,Units=km
new line.10082274 bus1=BBT147404954.1.2.3.0,bus2=BBT147419192.1.2.3.0,Phases=3,Linecode=BT803_BT803_4_3_4,Length=0.025484000,Units=km
new line.10082281 bus1=BBT147419192.1.2.3.0,bus2=BBT147419199.1.2.3.0,Phases=3,Linecode=BT803_BT803_4_3_4,Length=0.010046000,Units=km
new line.10082288 bus1=BBT147419199.1.2.3.0,bus2=BBT147419206.1.2.3.0,Phases=3,Linecode=BT803_BT803_4_3_4,Length=0.038880000,Units=km
new line.10082295 bus1=BBT147419206.1.2.3.0,bus2=BBT147419213.1.2.3.0,Phases=3,Linecode=BT803_BT803_4_3_4,Length=0.040293000,Units=km
new line.10082302 bus1=BBT147419213.1.2.3.0,bus2=BBT147419220.1.2.3.0,Phases=3,Linecode=BT803_BT803_4_3_4,Length=0.040293000,Units=km
new line.10082309 bus1=BBT147419192.1.2.3.0,bus2=BBT147419360.1.2.3.0,Phases=3,Linecode=BT803_BT803_4_3_4,Length=0.027647000,Units=km
new line.10082316 bus1=BBT147404842.1.2.3.0,bus2=BBT147419759.1.2.3.0,Phases=3,Linecode=BT803_BT803_4_3_4,Length=0.031814000,Units=km
new line.10082323 bus1=BBT147419759.1.2.3.0,bus2=BBT147419766.1.2.3.0,Phases=3,Linecode=BT803_BT803_4_3_4,Length=0.009052000,Units=km
new line.10082330 bus1=BBT147419766.1.2.3.0,bus2=BBT147419885.1.2.3.0,Phases=3,Linecode=BT803_BT803_4_3_4,Length=0.038880000,Units=km
new line.10082337 bus1=BBT147419759.1.2.3.0,bus2=BBT147420074.1.2.3.0,Phases=3,Linecode=BT803_BT803_4_3_4,Length=0.022618000,Units=km
new line.10082344 bus1=BBT147404842.1.2.3.0,bus2=BBT147420081.1.2.3.0,Phases=3,Linecode=BT803_BT803_4_3_4,Length=0.021922000,Units=km
new line.10082351 bus1=BBT147420081.1.2.3.0,bus2=BBT147420088.1.2.3.0,Phases=3,Linecode=BT803_BT803_4_3_4,Length=0.008996000,Units=km
new line.10082358 bus1=BBT147420088.1.2.3.0,bus2=BBT147420221.1.2.3.0,Phases=3,Linecode=BT803_BT803_4_3_4,Length=0.040343000,Units=km
new line.10082365 bus1=BBT147420221.1.2.3.0,bus2=BBT147420228.1.2.3.0,Phases=3,Linecode=BT803_BT803_4_3_4,Length=0.043120000,Units=km
new line.10082372 bus1=BBT147420228.1.2.3.0,bus2=BBT147420235.1.2.3.0,Phases=3,Linecode=BT803_BT803_4_3_4,Length=0.038193000,Units=km
new line.10082379 bus1=BBT147419885.1.2.3.0,bus2=BBT147420242.1.2.3.0,Phases=3,Linecode=BT803_BT803_4_3_4,Length=0.043120000,Units=km
new line.10082386 bus1=BBT147420242.1.2.3.0,bus2=BBT147420249.1.2.3.0,Phases=3,Linecode=BT803_BT803_4_3_4,Length=0.037467000,Units=km
new line.10082400 bus1=BBT147420081.1.2.3.0,bus2=BBT147420459.1.2.3.0,Phases=3,Linecode=BT803_BT803_4_3_4,Length=0.031099000,Units=km
new line.10082407 bus1=BBT147406032.1.2.3.0,bus2=BBT147420557.1.2.3.0,Phases=3,Linecode=BT803_BT803_4_3_4,Length=0.033227000,Units=km
new line.10082414 bus1=BBT147420557.1.2.3.0,bus2=BBT147420564.1.2.3.0,Phases=3,Linecode=BT803_BT803_4_3_4,Length=0.034640000,Units=km
new line.10082421 bus1=BBT147420564.1.2.3.0,bus2=BBT147420606.1.2.3.0,Phases=3,Linecode=BT803_BT803_4_3_4,Length=0.034640000,Units=km
new line.10082428 bus1=BBT147420606.1.2.3.0,bus2=BBT147420648.1.2.3.0,Phases=3,Linecode=BT803_BT803_4_3_4,Length=0.036109000,Units=km
new line.10082435 bus1=BBT147420648.1.2.3.0,bus2=BBT147420767.1.2.3.0,Phases=3,Linecode=BT803_BT803_4_3_4,Length=0.006401000,Units=km
new line.10082442 bus1=BBT147420767.1.2.3.0,bus2=BBT147420774.1.2.3.0,Phases=3,Linecode=BT803_BT803_4_3_4,Length=0.033956000,Units=km
new line.10082449 bus1=BBT147414292.1.2.3.0,bus2=BBT147420781.1.2.3.0,Phases=3,Linecode=BT803_BT803_4_3_4,Length=0.015258000,Units=km
new line.10082491 bus1=BBT147403169.1.2.3.0,bus2=BBT147421369.1.2.3.0,Phases=3,Linecode=BT803_BT803_4_3_4,Length=0.023335000,Units=km
new line.10082498 bus1=BBT147403169.1.2.3.0,bus2=BBT147421376.1.2.3.0,Phases=3,Linecode=BT803_BT803_4_3_4,Length=0.027007000,Units=km
new line.10082505 bus1=BBT147421369.1.2.3.0,bus2=BBT147421383.1.2.3.0,Phases=3,Linecode=BT803_BT803_4_3_4,Length=0.007997000,Units=km
new line.10082512 bus1=BBT147421369.1.2.3.0,bus2=BBT147421390.1.2.3.0,Phases=3,Linecode=BT803_BT803_4_3_4,Length=0.023335000,Units=km
new line.10082519 bus1=BBT147421390.1.2.3.0,bus2=BBT147421397.1.2.3.0,Phases=3,Linecode=BT803_BT803_4_3_4,Length=0.024989000,Units=km
new line.10082547 bus1=BBT147421383.1.2.3.0,bus2=BBT147422006.1.2.3.0,Phases=3,Linecode=BT803_BT803_4_3_4,Length=0.041707000,Units=km
new line.10082561 bus1=BBT147422006.1.2.3.0,bus2=BBT147422048.1.2.3.0,Phases=3,Linecode=BT803_BT803_4_3_4,Length=0.037467000,Units=km
new line.10082575 bus1=BBT147422048.1.2.3.0,bus2=BBT147422062.1.2.3.0,Phases=3,Linecode=BT803_BT803_4_3_4,Length=0.037467000,Units=km
new line.10082589 bus1=BBT147421397.1.2.3.0,bus2=BBT147422111.1.2.3.0,Phases=3,Linecode=BT803_BT803_4_3_4,Length=0.035340000,Units=km
new line.10082596 bus1=BBT147422111.1.2.3.0,bus2=BBT147422118.1.2.3.0,Phases=3,Linecode=BT803_BT803_4_3_4,Length=0.037467000,Units=km
new line.10082603 bus1=BBT147421397.1.2.3.0,bus2=BBT147422167.1.2.3.0,Phases=3,Linecode=BT803_BT803_4_3_4,Length=0.033227000,Units=km
new line.10082610 bus1=BBT147403036.1.2.3.0,bus2=BBT147422174.1.2.3.0,Phases=3,Linecode=BT803_BT803_4_3_4,Length=0.017684000,Units=km
new line.10082631 bus1=BBT147403036.1.2.3.0,bus2=BBT147422188.1.2.3.0,Phases=3,Linecode=BT803_BT803_4_3_4,Length=0.029685000,Units=km
new line.10082673 bus1=BBT147422174.1.2.3.0,bus2=BBT147422195.1.2.3.0,Phases=3,Linecode=BT803_BT803_4_3_4,Length=0.007068000,Units=km
new line.10082680 bus1=BBT147422188.1.2.3.0,bus2=BBT147422230.1.2.3.0,Phases=3,Linecode=BT803_BT803_4_3_4,Length=0.005829000,Units=km
new line.10082687 bus1=BBT147422230.1.2.3.0,bus2=BBT147422237.1.2.3.0,Phases=3,Linecode=BT803_BT803_4_3_4,Length=0.029056000,Units=km
new line.10082694 bus1=BBT147422237.1.2.3.0,bus2=BBT147422244.1.2.3.0,Phases=3,Linecode=BT803_BT803_4_3_4,Length=0.018674000,Units=km
new line.10082701 bus1=BBT147422244.1.2.3.0,bus2=BBT147422251.1.2.3.0,Phases=3,Linecode=BT803_BT803_4_3_4,Length=0.016993000,Units=km
new line.10082708 bus1=BBT147422251.1.2.3.0,bus2=BBT147422286.1.2.3.0,Phases=3,Linecode=BT803_BT803_4_3_4,Length=0.027574000,Units=km
new line.10082715 bus1=BBT147422230.1.2.3.0,bus2=BBT147422293.1.2.3.0,Phases=3,Linecode=BT803_BT803_4_3_4,Length=0.016272000,Units=km
new line.10082722 bus1=BBT147422230.1.2.3.0,bus2=BBT147422300.1.2.3.0,Phases=3,Linecode=BT803_BT803_4_3_4,Length=0.010812000,Units=km
new line.10082729 bus1=BBT147422300.1.2.3.0,bus2=BBT147422307.1.2.3.0,Phases=3,Linecode=BT803_BT803_4_3_4,Length=0.030400000,Units=km
new line.10082743 bus1=BBT147422307.1.2.3.0,bus2=BBT147422314.1.2.3.0,Phases=3,Linecode=BT803_BT803_4_3_4,Length=0.033926000,Units=km
new line.10082750 bus1=BBT147422293.1.2.3.0,bus2=BBT147422321.1.2.3.0,Phases=3,Linecode=BT803_BT803_4_3_4,Length=0.026895000,Units=km
new line.10082764 bus1=BBT147422321.1.2.3.0,bus2=BBT147422335.1.2.3.0,Phases=3,Linecode=BT803_BT803_4_3_4,Length=0.014759000,Units=km
new line.10082771 bus1=BBT147422335.1.2.3.0,bus2=BBT147422342.1.2.3.0,Phases=3,Linecode=BT803_BT803_4_3_4,Length=0.014312000,Units=km
new line.10082778 bus1=BBT147420648.1.2.3.0,bus2=BBT147422349.1.2.3.0,Phases=3,Linecode=BT803_BT803_4_3_4,Length=0.008996000,Units=km
new line.10082785 bus1=BBT147421376.1.2.3.0,bus2=BBT147422356.1.2.3.0,Phases=3,Linecode=BT803_BT803_4_3_4,Length=0.011995000,Units=km
new line.10082792 bus1=BBT147422356.1.2.3.0,bus2=BBT147422461.1.2.3.0,Phases=3,Linecode=BT803_BT803_4_3_4,Length=0.033227000,Units=km
new line.10082799 bus1=BBT147422461.1.2.3.0,bus2=BBT147422468.1.2.3.0,Phases=3,Linecode=BT803_BT803_4_3_4,Length=0.033227000,Units=km
new line.10082806 bus1=BBT147422468.1.2.3.0,bus2=BBT147422475.1.2.3.0,Phases=3,Linecode=BT803_BT803_4_3_4,Length=0.035340000,Units=km
new line.10082813 bus1=BBT147422475.1.2.3.0,bus2=BBT147422482.1.2.3.0,Phases=3,Linecode=BT803_BT803_4_3_4,Length=0.035368000,Units=km
new line.10082820 bus1=BBT147422356.1.2.3.0,bus2=BBT147422489.1.2.3.0,Phases=3,Linecode=BT803_BT803_4_3_4,Length=0.009216000,Units=km
new line.10082827 bus1=BBT147422489.1.2.3.0,bus2=BBT147422496.1.2.3.0,Phases=3,Linecode=BT803_BT803_4_3_4,Length=0.034813000,Units=km
new line.10082834 bus1=BBT147422293.1.2.3.0,bus2=BBT147422503.1.2.3.0,Phases=3,Linecode=BT803_BT803_4_3_4,Length=0.027574000,Units=km
new line.10082848 bus1=BBT147422174.1.2.3.0,bus2=BBT147422804.1.2.3.0,Phases=3,Linecode=BT803_BT803_4_3_4,Length=0.017684000,Units=km
new line.10082855 bus1=BBT147422804.1.2.3.0,bus2=BBT147422811.1.2.3.0,Phases=3,Linecode=BT803_BT803_4_3_4,Length=0.025445000,Units=km
new line.10082862 bus1=BBT147422804.1.2.3.0,bus2=BBT147422818.1.2.3.0,Phases=3,Linecode=BT803_BT803_4_3_4,Length=0.007068000,Units=km
new line.10082869 bus1=BBT147422804.1.2.3.0,bus2=BBT147422860.1.2.3.0,Phases=3,Linecode=BT803_BT803_4_3_4,Length=0.004998000,Units=km
new line.10082876 bus1=BBT147422174.1.2.3.0,bus2=BBT147422867.1.2.3.0,Phases=3,Linecode=BT803_BT803_4_3_4,Length=0.007807000,Units=km