new load.3010035198M1 bus1=RML1057639311.1.2.3.0,Phases=3,kv=0.22,kW=0.53456,pf=0.92,Vminpu=0.92,Vmaxpu=1.5,model=8,zipv=[0.5,0,0.5,1,0,0,0],daily=COM3_2,status=variable
new load.3002347572M1 bus1=RML1052208403.1.2.0,Phases=2,kv=0.24,kW=6.74968,pf=0.92,Vminpu=0.92,Vmaxpu=1.5,model=8,zipv=[0.5,0,0.5,1,0,0,0],daily=RUR4_1,status=variable
new load.3010238277M1 bus1=RML1057767313.1.2.0,Phases=2,kv=0.22,kW=0.10638,pf=0.92,Vminpu=0.92,Vmaxpu=1.5,model=8,zipv=[0.5,0,0.5,1,0,0,0],daily=RES2_5,status=variable
new load.3002347540M1 bus1=RML1056388159.1.2.3.0,Phases=3,kv=0.22,kW=9.0447,pf=0.92,Vminpu=0.92,Vmaxpu=1.5,model=8,zipv=[0.5,0,0.5,1,0,0,0],daily=COM4_3,status=variable
new load.3002347561M1 bus1=RML1057066620.1.2.0,Phases=2,kv=0.24,kW=0.94312,pf=0.92,Vminpu=0.92,Vmaxpu=1.5,model=8,zipv=[0.5,0,0.5,1,0,0,0],daily=RUR3_1,status=variable
new load.3002347556M1 bus1=RML1052272075.1.2.3.0,Phases=3,kv=0.22,kW=2.0054,pf=0.92,Vminpu=0.92,Vmaxpu=1.5,model=8,zipv=[0.5,0,0.5,1,0,0,0],daily=RUR4_1,status=variable
new load.3002347562M1 bus1=RML1056642448.1.2.0,Phases=2,kv=0.24,kW=2.37354,pf=0.92,Vminpu=0.92,Vmaxpu=1.5,model=8,zipv=[0.5,0,0.5,1,0,0,0],daily=RUR2_3,status=variable
new load.3002347573M1 bus1=RML1052272593.1.2.0,Phases=2,kv=0.24,kW=1.54904,pf=0.92,Vminpu=0.92,Vmaxpu=1.5,model=8,zipv=[0.5,0,0.5,1,0,0,0],daily=RUR2_3,status=variable
new load.3002347570M1 bus1=RML1056977335.1.2.3.0,Phases=3,kv=0.22,kW=3.52236,pf=0.92,Vminpu=0.92,Vmaxpu=1.5,model=8,zipv=[0.5,0,0.5,1,0,0,0],daily=RUR4_1,status=variable
new load.3004304192M1 bus1=RML1052273517.1.2.0,Phases=2,kv=0.22,kW=1.4666,pf=0.92,Vminpu=0.92,Vmaxpu=1.5,model=8,zipv=[0.5,0,0.5,1,0,0,0],daily=RUR2_23,status=variable
new load.3003710654M1 bus1=RML1052275295.1.2.3.0,Phases=3,kv=0.22,kW=1.18254,pf=0.92,Vminpu=0.92,Vmaxpu=1.5,model=8,zipv=[0.5,0,0.5,1,0,0,0],daily=RUR2_8,status=variable
new load.3003710656M1 bus1=RML1060904899.1.2.3.0,Phases=3,kv=0.22,kW=1.61144,pf=0.92,Vminpu=0.92,Vmaxpu=1.5,model=8,zipv=[0.5,0,0.5,1,0,0,0],daily=RUR3_7,status=variable
new load.3003710655M1 bus1=RML1052275701.1.2.0,Phases=2,kv=0.24,kW=1.73872,pf=0.92,Vminpu=0.92,Vmaxpu=1.5,model=8,zipv=[0.5,0,0.5,1,0,0,0],daily=RUR2_8,status=variable
new load.3010042750M1 bus1=RML1052541631.1.2.0,Phases=2,kv=0.24,kW=1.01634,pf=0.92,Vminpu=0.92,Vmaxpu=1.5,model=8,zipv=[0.5,0,0.5,1,0,0,0],daily=RES2_2,status=variable
new load.3010049688M1 bus1=RML1052541631.1.2.0,Phases=2,kv=0.24,kW=0.63826,pf=0.92,Vminpu=0.92,Vmaxpu=1.5,model=8,zipv=[0.5,0,0.5,1,0,0,0],daily=RES1_2,status=variable
new load.3010110255M1 bus1=RML1057763435.2.0,Phases=1,kv=0.12,kW=0.07856,pf=0.92,Vminpu=0.92,Vmaxpu=1.5,model=8,zipv=[0.5,0,0.5,1,0,0,0],daily=RES1_2,status=variable
new load.3003774447M1 bus1=RML1052542093.1.2.0,Phases=2,kv=0.24,kW=0.99878,pf=0.92,Vminpu=0.92,Vmaxpu=1.5,model=8,zipv=[0.5,0,0.5,1,0,0,0],daily=RES2_7,status=variable
new load.3007702503M1 bus1=RML1057541717.1.2.0,Phases=2,kv=0.24,kW=0.1682,pf=0.92,Vminpu=0.92,Vmaxpu=1.5,model=8,zipv=[0.5,0,0.5,1,0,0,0],daily=RES1_1,status=variable
new load.3007695864M1 bus1=RML1057546274.3.0,Phases=1,kv=0.127,kW=0.58266,pf=0.92,Vminpu=0.92,Vmaxpu=1.5,model=8,zipv=[0.5,0,0.5,1,0,0,0],daily=RES1_26,status=variable
new load.3003774446M1 bus1=RML1052542065.2.3.0,Phases=2,kv=0.22,kW=0.43556,pf=0.92,Vminpu=0.92,Vmaxpu=1.5,model=8,zipv=[0.5,0,0.5,1,0,0,0],daily=RES2_7,status=variable
new load.3002347539M1 bus1=RML1056388166.1.2.0,Phases=2,kv=0.24,kW=0.92942,pf=0.92,Vminpu=0.92,Vmaxpu=1.5,model=8,zipv=[0.5,0,0.5,1,0,0,0],daily=RUR2_3,status=variable
new load.3002347547M1 bus1=RML1056388026.1.2.3.0,Phases=3,kv=0.22,kW=1.16626,pf=0.92,Vminpu=0.92,Vmaxpu=1.5,model=8,zipv=[0.5,0,0.5,1,0,0,0],daily=RUR3_1,status=variable
new load.3007747785M1 bus1=RML1057583073.1.2.0,Phases=2,kv=0.22,kW=0.47524,pf=0.92,Vminpu=0.92,Vmaxpu=1.5,model=8,zipv=[0.5,0,0.5,1,0,0,0],daily=RES2_1,status=variable
new load.3004528049M1 bus1=RML1052541288.1.3.0,Phases=2,kv=0.22,kW=0.637,pf=0.92,Vminpu=0.92,Vmaxpu=1.5,model=8,zipv=[0.5,0,0.5,1,0,0,0],daily=RES2_2,status=variable
new load.3007633173M1 bus1=RML1057501404.1.2.0,Phases=2,kv=0.22,kW=0.88334,pf=0.92,Vminpu=0.92,Vmaxpu=1.5,model=8,zipv=[0.5,0,0.5,1,0,0,0],daily=RES5_20,status=variable
new load.3007689491M1 bus1=RML1057547856.1.2.0,Phases=2,kv=0.22,kW=1.04272,pf=0.92,Vminpu=0.92,Vmaxpu=1.5,model=8,zipv=[0.5,0,0.5,1,0,0,0],daily=RES4_20,status=variable
new load.3007692325M1 bus1=RML1057544405.1.2.0,Phases=2,kv=0.22,kW=0.23794,pf=0.92,Vminpu=0.92,Vmaxpu=1.5,model=8,zipv=[0.5,0,0.5,1,0,0,0],daily=RES2_28,status=variable
new load.3010353676M1 bus1=RML1057782503.3.0,Phases=1,kv=0.127,kW=2.16724,pf=0.92,Vminpu=0.92,Vmaxpu=1.5,model=8,zipv=[0.5,0,0.5,1,0,0,0],daily=RES3_6,status=variable
new load.3010318514M1 bus1=RML1057913592.1.0,Phases=1,kv=0.12,kW=0.96304,pf=0.92,Vminpu=0.92,Vmaxpu=1.5,model=8,zipv=[0.5,0,0.5,1,0,0,0],daily=RES2_5,status=variable
new load.3007585422M1 bus1=RML1057463198.1.0,Phases=1,kv=0.12,kW=0.10164,pf=0.92,Vminpu=0.92,Vmaxpu=1.5,model=8,zipv=[0.5,0,0.5,1,0,0,0],daily=RES1_19,status=variable
new load.3004528048M1 bus1=RML1052542121.1.0,Phases=1,kv=0.12,kW=0.37314,pf=0.92,Vminpu=0.92,Vmaxpu=1.5,model=8,zipv=[0.5,0,0.5,1,0,0,0],daily=RES1_2,status=variable
new load.3007564776M1 bus1=RML1057446244.1.0,Phases=1,kv=0.12,kW=0.11394,pf=0.92,Vminpu=0.92,Vmaxpu=1.5,model=8,zipv=[0.5,0,0.5,1,0,0,0],daily=RES1_18,status=variable
new load.3004214172M1 bus1=RML1052541246.1.2.0,Phases=2,kv=0.24,kW=0.64714,pf=0.92,Vminpu=0.92,Vmaxpu=1.5,model=8,zipv=[0.5,0,0.5,1,0,0,0],daily=RES2_22,status=variable
new load.3002347558M1 bus1=RML1056384001.1.2.0,Phases=2,kv=0.24,kW=1.90704,pf=0.92,Vminpu=0.92,Vmaxpu=1.5,model=8,zipv=[0.5,0,0.5,1,0,0,0],daily=RUR4_1,status=variable
new load.3002347553M1 bus1=RML1056388096.1.2.0,Phases=2,kv=0.24,kW=9.82118,pf=0.92,Vminpu=0.92,Vmaxpu=1.5,model=8,zipv=[0.5,0,0.5,1,0,0,0],daily=RES6_5,status=variable
new load.3002347546M1 bus1=RML1052541155.1.2.3.0,Phases=3,kv=0.22,kW=2.58886,pf=0.92,Vminpu=0.92,Vmaxpu=1.5,model=8,zipv=[0.5,0,0.5,1,0,0,0],daily=RUR4_1,status=variable
new load.3010250165M1 bus1=RML1057726174.1.2.0,Phases=2,kv=0.24,kW=0.6047,pf=0.92,Vminpu=0.92,Vmaxpu=1.5,model=8,zipv=[0.5,0,0.5,1,0,0,0],daily=RES2_5,status=variable
new load.3002347545M1 bus1=RML1056388005.1.2.0,Phases=2,kv=0.22,kW=9.02014,pf=0.92,Vminpu=0.92,Vmaxpu=1.5,model=8,zipv=[0.5,0,0.5,1,0,0,0],daily=RUR4_1,status=variable
new load.3002347542M1 bus1=RML1056385282.1.2.0,Phases=2,kv=0.24,kW=1.4441,pf=0.92,Vminpu=0.92,Vmaxpu=1.5,model=8,zipv=[0.5,0,0.5,1,0,0,0],daily=RUR2_3,status=variable
new load.3002347549M1 bus1=RML1056640061.2.0,Phases=1,kv=0.12,kW=0.31968,pf=0.92,Vminpu=0.92,Vmaxpu=1.5,model=8,zipv=[0.5,0,0.5,1,0,0,0],daily=RUR1_5,status=variable
new load.3002347551M1 bus1=RML1056388075.1.0,Phases=1,kv=0.12,kW=1.96598,pf=0.92,Vminpu=0.92,Vmaxpu=1.5,model=8,zipv=[0.5,0,0.5,1,0,0,0],daily=RUR1_5,status=variable
new load.3002347550M1 bus1=RML1056388054.1.2.0,Phases=2,kv=0.24,kW=0.86312,pf=0.92,Vminpu=0.92,Vmaxpu=1.5,model=8,zipv=[0.5,0,0.5,1,0,0,0],daily=RUR1_5,status=variable
new load.3002347541M1 bus1=RML1060805404.1.2.0,Phases=2,kv=0.24,kW=0.76452,pf=0.92,Vminpu=0.92,Vmaxpu=1.5,model=8,zipv=[0.5,0,0.5,1,0,0,0],daily=RUR2_3,status=variable
new load.3003907970M1 bus1=RML1052536157.2.3.0,Phases=2,kv=0.22,kW=0.58042,pf=0.92,Vminpu=0.92,Vmaxpu=1.5,model=8,zipv=[0.5,0,0.5,1,0,0,0],daily=RUR2_12,status=variable
new load.3010104154M1 bus1=RML1057658743.1.0,Phases=1,kv=0.12,kW=0.42222,pf=0.92,Vminpu=0.92,Vmaxpu=1.5,model=8,zipv=[0.5,0,0.5,1,0,0,0],daily=RES1_2,status=variable
new load.3010282958M1 bus1=RML1057743807.1.0,Phases=1,kv=0.12,kW=2.707,pf=0.92,Vminpu=0.92,Vmaxpu=1.5,model=8,zipv=[0.5,0,0.5,1,0,0,0],daily=RES4_8,status=variable
new load.3002347555M1 bus1=RML1056642462.1.2.0,Phases=2,kv=0.24,kW=0.89508,pf=0.92,Vminpu=0.92,Vmaxpu=1.5,model=8,zipv=[0.5,0,0.5,1,0,0,0],daily=RUR1_5,status=variable
new load.3002347554M1 bus1=RML1052542170.1.2.0,Phases=2,kv=0.24,kW=2.38792,pf=0.92,Vminpu=0.92,Vmaxpu=1.5,model=8,zipv=[0.5,0,0.5,1,0,0,0],daily=RES5_5,status=variable
new load.3002347563M1 bus1=RML1057066634.1.2.0,Phases=2,kv=0.24,kW=0.20404,pf=0.92,Vminpu=0.92,Vmaxpu=1.5,model=8,zipv=[0.5,0,0.5,1,0,0,0],daily=COM1_4,status=variable
new load.3004130991M1 bus1=RML1056642434.1.2.0,Phases=2,kv=0.24,kW=2.24754,pf=0.92,Vminpu=0.92,Vmaxpu=1.5,model=8,zipv=[0.5,0,0.5,1,0,0,0],daily=RUR2_19,status=variable
new load.3002347560M1 bus1=RML1052274042.1.2.0,Phases=2,kv=0.24,kW=2.16536,pf=0.92,Vminpu=0.92,Vmaxpu=1.5,model=8,zipv=[0.5,0,0.5,1,0,0,0],daily=RES4_5,status=variable
new load.3007641419M1 bus1=RML1057504344.1.0,Phases=1,kv=0.12,kW=0.44832,pf=0.92,Vminpu=0.92,Vmaxpu=1.5,model=8,zipv=[0.5,0,0.5,1,0,0,0],daily=RES2_26,status=variable
new load.3002347564M1 bus1=RML1056951862.1.2.0,Phases=2,kv=0.24,kW=2.28358,pf=0.92,Vminpu=0.92,Vmaxpu=1.5,model=8,zipv=[0.5,0,0.5,1,0,0,0],daily=RUR2_3,status=variable
new load.3002347567M1 bus1=RML1057063645.1.2.0,Phases=2,kv=0.24,kW=1.70136,pf=0.92,Vminpu=0.92,Vmaxpu=1.5,model=8,zipv=[0.5,0,0.5,1,0,0,0],daily=RES4_5,status=variable
new load.3002347566M1 bus1=RML1056951855.1.2.0,Phases=2,kv=0.24,kW=2.2071,pf=0.92,Vminpu=0.92,Vmaxpu=1.5,model=8,zipv=[0.5,0,0.5,1,0,0,0],daily=RUR4_1,status=variable
new load.3002347559M1 bus1=RML1056293694.1.2.0,Phases=2,kv=0.24,kW=0.20838,pf=0.92,Vminpu=0.92,Vmaxpu=1.5,model=8,zipv=[0.5,0,0.5,1,0,0,0],daily=RUR4_1,status=variable
new load.3002347544M1 bus1=RML1056388131.1.2.0,Phases=2,kv=0.24,kW=0.39958,pf=0.92,Vminpu=0.92,Vmaxpu=1.5,model=8,zipv=[0.5,0,0.5,1,0,0,0],daily=RUR1_5,status=variable
new load.3002347508M1 bus1=RML1058357098.1.2.0,Phases=2,kv=0.24,kW=0.42974,pf=0.92,Vminpu=0.92,Vmaxpu=1.5,model=8,zipv=[0.5,0,0.5,1,0,0,0],daily=RUR2_3,status=variable
new load.3002347509M1 bus1=RML1052530361.1.2.3.0,Phases=3,kv=0.22,kW=1.4691,pf=0.92,Vminpu=0.92,Vmaxpu=1.5,model=8,zipv=[0.5,0,0.5,1,0,0,0],daily=RUR2_3,status=variable
new load.3002347504M1 bus1=RML1060239155.1.2.3.0,Phases=3,kv=0.22,kW=5.88622,pf=0.92,Vminpu=0.92,Vmaxpu=1.5,model=8,zipv=[0.5,0,0.5,1,0,0,0],daily=IND4_2,status=variable
new load.3002347502M1 bus1=RML1056641986.1.2.3.0,Phases=3,kv=0.22,kW=11.62898,pf=0.92,Vminpu=0.92,Vmaxpu=1.5,model=8,zipv=[0.5,0,0.5,1,0,0,0],daily=RUR4_1,status=variable
new load.3002347500M1 bus1=RML1056641930.1.2.0,Phases=2,kv=0.24,kW=1.07434,pf=0.92,Vminpu=0.92,Vmaxpu=1.5,model=8,zipv=[0.5,0,0.5,1,0,0,0],daily=RUR2_3,status=variable
new load.3002347506M1 bus1=RML1056642007.1.2.3.0,Phases=3,kv=0.22,kW=0.96686,pf=0.92,Vminpu=0.92,Vmaxpu=1.5,model=8,zipv=[0.5,0,0.5,1,0,0,0],daily=RUR4_1,status=variable
new load.3004304184M1 bus1=RML1056642161.1.2.0,Phases=2,kv=0.24,kW=0.63938,pf=0.92,Vminpu=0.92,Vmaxpu=1.5,model=8,zipv=[0.5,0,0.5,1,0,0,0],daily=RUR2_23,status=variable
new load.3002347489M1 bus1=RML1056638955.1.2.3.0,Phases=3,kv=0.22,kW=8.335,pf=0.92,Vminpu=0.92,Vmaxpu=1.5,model=8,zipv=[0.5,0,0.5,1,0,0,0],daily=RUR4_1,status=variable
new load.3002347501M1 bus1=RML1056388201.1.2.0,Phases=2,kv=0.24,kW=1.08688,pf=0.92,Vminpu=0.92,Vmaxpu=1.5,model=8,zipv=[0.5,0,0.5,1,0,0,0],daily=RUR1_5,status=variable
new load.3002347505M1 bus1=RML1056388208.1.2.3.0,Phases=3,kv=0.22,kW=33.20664,pf=0.92,Vminpu=0.92,Vmaxpu=1.5,model=8,zipv=[0.5,0,0.5,1,0,0,0],daily=RUR4_1,status=variable
new load.3007643073M1 bus1=RML1057511638.1.2.3.0,Phases=3,kv=0.22,kW=0.67348,pf=0.92,Vminpu=0.92,Vmaxpu=1.5,model=8,zipv=[0.5,0,0.5,1,0,0,0],daily=COM1_25,status=variable
new load.3007651791M1 bus1=RML1057511638.1.2.3.0,Phases=3,kv=0.22,kW=1.14636,pf=0.92,Vminpu=0.92,Vmaxpu=1.5,model=8,zipv=[0.5,0,0.5,1,0,0,0],daily=COM1_25,status=variable
new load.3007652168M1 bus1=RML1057511638.1.2.3.0,Phases=3,kv=0.22,kW=1.15788,pf=0.92,Vminpu=0.92,Vmaxpu=1.5,model=8,zipv=[0.5,0,0.5,1,0,0,0],daily=COM2_26,status=variable
new load.3007536482M1 bus1=RML1057422976.2.0,Phases=1,kv=0.127,kW=0.99352,pf=0.92,Vminpu=0.92,Vmaxpu=1.5,model=8,zipv=[0.5,0,0.5,1,0,0,0],daily=RES2_21,status=variable
new load.3007716365M1 bus1=RML1057556347.1.0,Phases=1,kv=0.127,kW=0.72828,pf=0.92,Vminpu=0.92,Vmaxpu=1.5,model=8,zipv=[0.5,0,0.5,1,0,0,0],daily=RES2_1,status=variable
new load.3010291080M1 bus1=RML1057745319.3.0,Phases=1,kv=0.127,kW=0.70864,pf=0.92,Vminpu=0.92,Vmaxpu=1.5,model=8,zipv=[0.5,0,0.5,1,0,0,0],daily=RES1_4,status=variable
new load.3002347479M1 bus1=RML1052530368.1.2.0,Phases=2,kv=0.24,kW=0.88214,pf=0.92,Vminpu=0.92,Vmaxpu=1.5,model=8,zipv=[0.5,0,0.5,1,0,0,0],daily=RUR3_1,status=variable
new load.3010251759M1 bus1=RML1057726027.1.2.0,Phases=2,kv=0.22,kW=0.80628,pf=0.92,Vminpu=0.92,Vmaxpu=1.5,model=8,zipv=[0.5,0,0.5,1,0,0,0],daily=RES2_5,status=variable
new load.3010134298M1 bus1=RML1057663027.1.0,Phases=1,kv=0.127,kW=0.69716,pf=0.92,Vminpu=0.92,Vmaxpu=1.5,model=8,zipv=[0.5,0,0.5,1,0,0,0],daily=RES1_2,status=variable
new load.3007620939M1 bus1=RML1057490078.2.0,Phases=1,kv=0.127,kW=0.59098,pf=0.92,Vminpu=0.92,Vmaxpu=1.5,model=8,zipv=[0.5,0,0.5,1,0,0,0],daily=RES2_24,status=variable
new load.3010060006M1 bus1=RML1059817039.1.2.3.0,Phases=3,kv=0.22,kW=7.26652,pf=0.92,Vminpu=0.92,Vmaxpu=1.5,model=8,zipv=[0.5,0,0.5,1,0,0,0],daily=COM4_3,status=variable
new load.3002347485M1 bus1=RML1056385324.1.2.0,Phases=2,kv=0.24,kW=0.16066,pf=0.92,Vminpu=0.92,Vmaxpu=1.5,model=8,zipv=[0.5,0,0.5,1,0,0,0],daily=RUR3_1,status=variable
new load.3002347486M1 bus1=RML1052536136.1.2.0,Phases=2,kv=0.24,kW=1.93372,pf=0.92,Vminpu=0.92,Vmaxpu=1.5,model=8,zipv=[0.5,0,0.5,1,0,0,0],daily=RUR4_1,status=variable
new load.3002347470M1 bus1=RML1056388187.1.2.0,Phases=2,kv=0.24,kW=1.81888,pf=0.92,Vminpu=0.92,Vmaxpu=1.5,model=8,zipv=[0.5,0,0.5,1,0,0,0],daily=RUR2_3,status=variable
new load.3002347473M1 bus1=RML1056387991.1.2.3.0,Phases=3,kv=0.22,kW=1.47196,pf=0.92,Vminpu=0.92,Vmaxpu=1.5,model=8,zipv=[0.5,0,0.5,1,0,0,0],daily=RUR4_1,status=variable
new load.3002347464M1 bus1=RML1052541176.1.2.3.0,Phases=3,kv=0.22,kW=7.19612,pf=0.92,Vminpu=0.92,Vmaxpu=1.5,model=8,zipv=[0.5,0,0.5,1,0,0,0],daily=IND4_1,status=variable
new load.3002533644M1 bus1=RML1052560356.1.0,Phases=1,kv=0.127,kW=3.55244,pf=0.92,Vminpu=0.92,Vmaxpu=1.5,model=8,zipv=[0.5,0,0.5,1,0,0,0],daily=RES4_9,status=variable
new load.3002533645M1 bus1=RML1052560237.1.0,Phases=1,kv=0.127,kW=0.40882,pf=0.92,Vminpu=0.92,Vmaxpu=1.5,model=8,zipv=[0.5,0,0.5,1,0,0,0],daily=RES1_4,status=variable
new load.3002533647M1 bus1=RML1052560216.1.0,Phases=1,kv=0.127,kW=1.11422,pf=0.92,Vminpu=0.92,Vmaxpu=1.5,model=8,zipv=[0.5,0,0.5,1,0,0,0],daily=RES2_5,status=variable
new load.3002533648M1 bus1=RML1052560090.1.2.0,Phases=2,kv=0.22,kW=1.06294,pf=0.92,Vminpu=0.92,Vmaxpu=1.5,model=8,zipv=[0.5,0,0.5,1,0,0,0],daily=RES1_4,status=variable
new load.3002533649M1 bus1=RML1052560104.1.2.0,Phases=2,kv=0.22,kW=0.70864,pf=0.92,Vminpu=0.92,Vmaxpu=1.5,model=8,zipv=[0.5,0,0.5,1,0,0,0],daily=RES1_4,status=variable
new load.3002533650M1 bus1=RML1052560027.1.0,Phases=1,kv=0.127,kW=0.87346,pf=0.92,Vminpu=0.92,Vmaxpu=1.5,model=8,zipv=[0.5,0,0.5,1,0,0,0],daily=RES2_5,status=variable
new load.3002533651M1 bus1=RML1052560013.2.0,Phases=1,kv=0.127,kW=0.6719,pf=0.92,Vminpu=0.92,Vmaxpu=1.5,model=8,zipv=[0.5,0,0.5,1,0,0,0],daily=RES2_5,status=variable
new load.3002533652M1 bus1=RML1052559999.3.0,Phases=1,kv=0.127,kW=0.86226,pf=0.92,Vminpu=0.92,Vmaxpu=1.5,model=8,zipv=[0.5,0,0.5,1,0,0,0],daily=RES2_5,status=variable
new load.3002533654M1 bus1=RML1052559929.2.0,Phases=1,kv=0.127,kW=0.5451,pf=0.92,Vminpu=0.92,Vmaxpu=1.5,model=8,zipv=[0.5,0,0.5,1,0,0,0],daily=RES1_4,status=variable
new load.3002533655M1 bus1=RML1052559943.3.0,Phases=1,kv=0.127,kW=0.79508,pf=0.92,Vminpu=0.92,Vmaxpu=1.5,model=8,zipv=[0.5,0,0.5,1,0,0,0],daily=RES2_5,status=variable
new load.3002533656M1 bus1=RML1052559957.1.0,Phases=1,kv=0.127,kW=3.22982,pf=0.92,Vminpu=0.92,Vmaxpu=1.5,model=8,zipv=[0.5,0,0.5,1,0,0,0],daily=RES3_6,status=variable
new load.3002533657M1 bus1=RML1052560083.2.0,Phases=1,kv=0.127,kW=2.77744,pf=0.92,Vminpu=0.92,Vmaxpu=1.5,model=8,zipv=[0.5,0,0.5,1,0,0,0],daily=RES3_6,status=variable
new load.3002533658M1 bus1=RML1052560076.2.0,Phases=1,kv=0.127,kW=1.11746,pf=0.92,Vminpu=0.92,Vmaxpu=1.5,model=8,zipv=[0.5,0,0.5,1,0,0,0],daily=RES1_4,status=variable
new load.3002533660M1 bus1=RML1052560034.1.0,Phases=1,kv=0.127,kW=1.00844,pf=0.92,Vminpu=0.92,Vmaxpu=1.5,model=8,zipv=[0.5,0,0.5,1,0,0,0],daily=RES1_4,status=variable
new load.3002533661M1 bus1=RML1052560300.2.0,Phases=1,kv=0.127,kW=0.96304,pf=0.92,Vminpu=0.92,Vmaxpu=1.5,model=8,zipv=[0.5,0,0.5,1,0,0,0],daily=RES2_5,status=variable
new load.3002533662M1 bus1=RML1052560293.2.0,Phases=1,kv=0.127,kW=0.68308,pf=0.92,Vminpu=0.92,Vmaxpu=1.5,model=8,zipv=[0.5,0,0.5,1,0,0,0],daily=RES2_5,status=variable
new load.3002533664M1 bus1=RML1052560321.2.0,Phases=1,kv=0.127,kW=0.76314,pf=0.92,Vminpu=0.92,Vmaxpu=1.5,model=8,zipv=[0.5,0,0.5,1,0,0,0],daily=RES1_4,status=variable
new load.3002533665M1 bus1=RML1052560265.3.0,Phases=1,kv=0.127,kW=0.83986,pf=0.92,Vminpu=0.92,Vmaxpu=1.5,model=8,zipv=[0.5,0,0.5,1,0,0,0],daily=RES2_5,status=variable
new load.3002533666M1 bus1=RML1052560258.3.0,Phases=1,kv=0.127,kW=0.90706,pf=0.92,Vminpu=0.92,Vmaxpu=1.5,model=8,zipv=[0.5,0,0.5,1,0,0,0],daily=RES2_5,status=variable
new load.3002533667M1 bus1=RML1052560244.2.0,Phases=1,kv=0.127,kW=0.71668,pf=0.92,Vminpu=0.92,Vmaxpu=1.5,model=8,zipv=[0.5,0,0.5,1,0,0,0],daily=RES2_5,status=variable
new load.3002533669M1 bus1=RML1052560167.1.0,Phases=1,kv=0.127,kW=1.03024,pf=0.92,Vminpu=0.92,Vmaxpu=1.5,model=8,zipv=[0.5,0,0.5,1,0,0,0],daily=RES2_5,status=variable
new load.3002533670M1 bus1=RML1052560146.2.3.0,Phases=2,kv=0.22,kW=0.5879,pf=0.92,Vminpu=0.92,Vmaxpu=1.5,model=8,zipv=[0.5,0,0.5,1,0,0,0],daily=RES2_5,status=variable
new load.3002533848M1 bus1=RML1052560153.1.0,Phases=1,kv=0.127,kW=0.73908,pf=0.92,Vminpu=0.92,Vmaxpu=1.5,model=8,zipv=[0.5,0,0.5,1,0,0,0],daily=RES2_5,status=variable
new load.3002533849M1 bus1=RML1052560251.1.3.0,Phases=2,kv=0.22,kW=1.55704,pf=0.92,Vminpu=0.92,Vmaxpu=1.5,model=8,zipv=[0.5,0,0.5,1,0,0,0],daily=RES3_6,status=variable
new load.3002533850M1 bus1=RML1052560335.1.2.3.0,Phases=3,kv=0.22,kW=0.6495,pf=0.92,Vminpu=0.92,Vmaxpu=1.5,model=8,zipv=[0.5,0,0.5,1,0,0,0],daily=RES2_5,status=variable
new load.3002533851M1 bus1=RML1052560328.1.2.3.0,Phases=3,kv=0.22,kW=1.0357,pf=0.92,Vminpu=0.92,Vmaxpu=1.5,model=8,zipv=[0.5,0,0.5,1,0,0,0],daily=RES1_4,status=variable
new load.3002533865M1 bus1=RML1052560384.2.0,Phases=1,kv=0.127,kW=1.02464,pf=0.92,Vminpu=0.92,Vmaxpu=1.5,model=8,zipv=[0.5,0,0.5,1,0,0,0],daily=RES2_5,status=variable
new load.3002533866M1 bus1=RML1052560349.2.0,Phases=1,kv=0.127,kW=1.03584,pf=0.92,Vminpu=0.92,Vmaxpu=1.5,model=8,zipv=[0.5,0,0.5,1,0,0,0],daily=RES2_5,status=variable
new load.3002533867M1 bus1=RML1052560342.1.0,Phases=1,kv=0.127,kW=0.79508,pf=0.92,Vminpu=0.92,Vmaxpu=1.5,model=8,zipv=[0.5,0,0.5,1,0,0,0],daily=RES2_5,status=variable
new load.3002533868M1 bus1=RML1052560272.1.0,Phases=1,kv=0.127,kW=0.51784,pf=0.92,Vminpu=0.92,Vmaxpu=1.5,model=8,zipv=[0.5,0,0.5,1,0,0,0],daily=RES1_4,status=variable
new load.3002533869M1 bus1=RML1052560286.1.0,Phases=1,kv=0.127,kW=0.52632,pf=0.92,Vminpu=0.92,Vmaxpu=1.5,model=8,zipv=[0.5,0,0.5,1,0,0,0],daily=RES2_5,status=variable
new load.3002533870M1 bus1=RML1052560132.3.0,Phases=1,kv=0.127,kW=0.80628,pf=0.92,Vminpu=0.92,Vmaxpu=1.5,model=8,zipv=[0.5,0,0.5,1,0,0,0],daily=RES2_5,status=variable
new load.3002533871M1 bus1=RML1052560174.2.0,Phases=1,kv=0.127,kW=0.5711,pf=0.92,Vminpu=0.92,Vmaxpu=1.5,model=8,zipv=[0.5,0,0.5,1,0,0,0],daily=RES2_5,status=variable
new load.3002533873M1 bus1=RML1052560202.3.0,Phases=1,kv=0.127,kW=0.40882,pf=0.92,Vminpu=0.92,Vmaxpu=1.5,model=8,zipv=[0.5,0,0.5,1,0,0,0],daily=RES1_4,status=variable
new load.3002347476M1 bus1=RML1056385205.1.2.0,Phases=2,kv=0.24,kW=2.1671,pf=0.92,Vminpu=0.92,Vmaxpu=1.5,model=8,zipv=[0.5,0,0.5,1,0,0,0],daily=RUR4_1,status=variable
new load.3002347475M1 bus1=RML1056638906.1.2.0,Phases=2,kv=0.24,kW=0.3466,pf=0.92,Vminpu=0.92,Vmaxpu=1.5,model=8,zipv=[0.5,0,0.5,1,0,0,0],daily=RUR3_1,status=variable
new load.3002347474M1 bus1=RML1052536178.1.2.0,Phases=2,kv=0.24,kW=1.49864,pf=0.92,Vminpu=0.92,Vmaxpu=1.5,model=8,zipv=[0.5,0,0.5,1,0,0,0],daily=RUR4_1,status=variable
new load.3004049781M1 bus1=RML1056385177.1.2.3.0,Phases=3,kv=0.22,kW=4.05096,pf=0.92,Vminpu=0.92,Vmaxpu=1.5,model=8,zipv=[0.5,0,0.5,1,0,0,0],daily=RUR4_12,status=variable
new load.3002347472M1 bus1=RML1052536073.1.2.3.0,Phases=3,kv=0.22,kW=1.8387,pf=0.92,Vminpu=0.92,Vmaxpu=1.5,model=8,zipv=[0.5,0,0.5,1,0,0,0],daily=RUR4_1,status=variable
new load.3002347477M1 bus1=RML1052536171.1.2.0,Phases=2,kv=0.24,kW=0.46412,pf=0.92,Vminpu=0.92,Vmaxpu=1.5,model=8,zipv=[0.5,0,0.5,1,0,0,0],daily=RUR3_1,status=variable
new load.3002533953M1 bus1=RML1052564857.1.2.3.0,Phases=3,kv=0.22,kW=2.06558,pf=0.92,Vminpu=0.92,Vmaxpu=1.5,model=8,zipv=[0.5,0,0.5,1,0,0,0],daily=RES5_8,status=variable
new load.3002533954M1 bus1=RML1052564850.1.2.0,Phases=2,kv=0.22,kW=2.9668,pf=0.92,Vminpu=0.92,Vmaxpu=1.5,model=8,zipv=[0.5,0,0.5,1,0,0,0],daily=RES3_6,status=variable
new load.3007710468M1 bus1=RML1057555444.1.2.3.0,Phases=3,kv=0.22,kW=1.99628,pf=0.92,Vminpu=0.92,Vmaxpu=1.5,model=8,zipv=[0.5,0,0.5,1,0,0,0],daily=COM3_1,status=variable
new load.3010301468M1 bus1=RML1057754601.1.2.3.0,Phases=3,kv=0.22,kW=1.17804,pf=0.92,Vminpu=0.92,Vmaxpu=1.5,model=8,zipv=[0.5,0,0.5,1,0,0,0],daily=COM1_10,status=variable
new load.3010282856M1 bus1=RML1057744052.1.2.0,Phases=2,kv=0.22,kW=0.3613,pf=0.92,Vminpu=0.92,Vmaxpu=1.5,model=8,zipv=[0.5,0,0.5,1,0,0,0],daily=COM1_9,status=variable
new load.3002533853M1 bus1=RML1052566810.1.2.0,Phases=2,kv=0.24,kW=1.1856,pf=0.92,Vminpu=0.92,Vmaxpu=1.5,model=8,zipv=[0.5,0,0.5,1,0,0,0],daily=RES1_4,status=variable
new load.3002533854M1 bus1=RML1052566880.2.0,Phases=1,kv=0.12,kW=0.69428,pf=0.92,Vminpu=0.92,Vmaxpu=1.5,model=8,zipv=[0.5,0,0.5,1,0,0,0],daily=RES2_5,status=variable
new load.3002533855M1 bus1=RML1052566887.1.2.0,Phases=2,kv=0.24,kW=0.5655,pf=0.92,Vminpu=0.92,Vmaxpu=1.5,model=8,zipv=[0.5,0,0.5,1,0,0,0],daily=RES2_5,status=variable
new load.3002533856M1 bus1=RML1052566873.1.2.0,Phases=2,kv=0.24,kW=2.13568,pf=0.92,Vminpu=0.92,Vmaxpu=1.5,model=8,zipv=[0.5,0,0.5,1,0,0,0],daily=RES3_6,status=variable
new load.3002533857M1 bus1=RML1052566915.2.0,Phases=1,kv=0.12,kW=0.87906,pf=0.92,Vminpu=0.92,Vmaxpu=1.5,model=8,zipv=[0.5,0,0.5,1,0,0,0],daily=RES2_5,status=variable
new load.3002533858M1 bus1=RML1052566908.1.0,Phases=1,kv=0.12,kW=0.13998,pf=0.92,Vminpu=0.92,Vmaxpu=1.5,model=8,zipv=[0.5,0,0.5,1,0,0,0],daily=RES2_5,status=variable
new load.3002533859M1 bus1=RML1052566901.2.0,Phases=1,kv=0.12,kW=0.5935,pf=0.92,Vminpu=0.92,Vmaxpu=1.5,model=8,zipv=[0.5,0,0.5,1,0,0,0],daily=RES2_5,status=variable
new load.3002533819M1 bus1=RML1052567111.2.0,Phases=1,kv=0.12,kW=3.2262,pf=0.92,Vminpu=0.92,Vmaxpu=1.5,model=8,zipv=[0.5,0,0.5,1,0,0,0],daily=RES4_9,status=variable
new load.3002533820M1 bus1=RML1052567125.1.2.0,Phases=2,kv=0.24,kW=2.51442,pf=0.92,Vminpu=0.92,Vmaxpu=1.5,model=8,zipv=[0.5,0,0.5,1,0,0,0],daily=RES3_6,status=variable
new load.3002533821M1 bus1=RML1052567139.2.0,Phases=1,kv=0.12,kW=1.42028,pf=0.92,Vminpu=0.92,Vmaxpu=1.5,model=8,zipv=[0.5,0,0.5,1,0,0,0],daily=RES3_6,status=variable
new load.3002533822M1 bus1=RML1052567090.2.0,Phases=1,kv=0.12,kW=0.6719,pf=0.92,Vminpu=0.92,Vmaxpu=1.5,model=8,zipv=[0.5,0,0.5,1,0,0,0],daily=RES2_5,status=variable
new load.3002533823M1 bus1=RML1052567104.1.0,Phases=1,kv=0.12,kW=2.34608,pf=0.92,Vminpu=0.92,Vmaxpu=1.5,model=8,zipv=[0.5,0,0.5,1,0,0,0],daily=RES3_6,status=variable
new load.3002533824M1 bus1=RML1052567083.1.0,Phases=1,kv=0.12,kW=1.90422,pf=0.92,Vminpu=0.92,Vmaxpu=1.5,model=8,zipv=[0.5,0,0.5,1,0,0,0],daily=RES3_6,status=variable
new load.3002533825M1 bus1=RML1052567020.1.0,Phases=1,kv=0.12,kW=0.97424,pf=0.92,Vminpu=0.92,Vmaxpu=1.5,model=8,zipv=[0.5,0,0.5,1,0,0,0],daily=RES2_5,status=variable
new load.3002533826M1 bus1=RML1052567034.2.0,Phases=1,kv=0.12,kW=0.45912,pf=0.92,Vminpu=0.92,Vmaxpu=1.5,model=8,zipv=[0.5,0,0.5,1,0,0,0],daily=RES2_5,status=variable
new load.3002533827M1 bus1=RML1052566929.1.0,Phases=1,kv=0.12,kW=0.85666,pf=0.92,Vminpu=0.92,Vmaxpu=1.5,model=8,zipv=[0.5,0,0.5,1,0,0,0],daily=RES2_5,status=variable
new load.3002533828M1 bus1=RML1052566936.1.0,Phases=1,kv=0.12,kW=0.90146,pf=0.92,Vminpu=0.92,Vmaxpu=1.5,model=8,zipv=[0.5,0,0.5,1,0,0,0],daily=RES2_5,status=variable
new load.3002533829M1 bus1=RML1052566964.1.0,Phases=1,kv=0.12,kW=0.6047,pf=0.92,Vminpu=0.92,Vmaxpu=1.5,model=8,zipv=[0.5,0,0.5,1,0,0,0],daily=RES2_5,status=variable
new load.3002533830M1 bus1=RML1052566978.1.2.0,Phases=2,kv=0.24,kW=0.5711,pf=0.92,Vminpu=0.92,Vmaxpu=1.5,model=8,zipv=[0.5,0,0.5,1,0,0,0],daily=RES2_5,status=variable
new load.3002533831M1 bus1=RML1052566992.2.0,Phases=1,kv=0.12,kW=2.32504,pf=0.92,Vminpu=0.92,Vmaxpu=1.5,model=8,zipv=[0.5,0,0.5,1,0,0,0],daily=RES3_6,status=variable
new load.3002533832M1 bus1=RML1052567006.2.0,Phases=1,kv=0.12,kW=1.15342,pf=0.92,Vminpu=0.92,Vmaxpu=1.5,model=8,zipv=[0.5,0,0.5,1,0,0,0],daily=RES2_5,status=variable
new load.3002533811M1 bus1=RML1052567097.1.2.0,Phases=2,kv=0.24,kW=0.91266,pf=0.92,Vminpu=0.92,Vmaxpu=1.5,model=8,zipv=[0.5,0,0.5,1,0,0,0],daily=RES2_5,status=variable
new load.3002533812M1 bus1=RML1052567146.2.0,Phases=1,kv=0.12,kW=0.6607,pf=0.92,Vminpu=0.92,Vmaxpu=1.5,model=8,zipv=[0.5,0,0.5,1,0,0,0],daily=RES2_5,status=variable
new load.3002533814M1 bus1=RML1052567118.2.0,Phases=1,kv=0.12,kW=1.11886,pf=0.92,Vminpu=0.92,Vmaxpu=1.5,model=8,zipv=[0.5,0,0.5,1,0,0,0],daily=RES5_8,status=variable
new load.3002533837M1 bus1=RML1052566999.1.0,Phases=1,kv=0.12,kW=1.10302,pf=0.92,Vminpu=0.92,Vmaxpu=1.5,model=8,zipv=[0.5,0,0.5,1,0,0,0],daily=RES2_5,status=variable
new load.3002533838M1 bus1=RML1052566985.1.0,Phases=1,kv=0.12,kW=0.95184,pf=0.92,Vminpu=0.92,Vmaxpu=1.5,model=8,zipv=[0.5,0,0.5,1,0,0,0],daily=RES2_5,status=variable
new load.3002533839M1 bus1=RML1052566971.1.2.0,Phases=2,kv=0.24,kW=0.06814,pf=0.92,Vminpu=0.92,Vmaxpu=1.5,model=8,zipv=[0.5,0,0.5,1,0,0,0],daily=RES1_4,status=variable
new load.3002533840M1 bus1=RML1052566957.2.0,Phases=1,kv=0.12,kW=0.76148,pf=0.92,Vminpu=0.92,Vmaxpu=1.5,model=8,zipv=[0.5,0,0.5,1,0,0,0],daily=RES2_5,status=variable
new load.3002533841M1 bus1=RML1052566943.2.0,Phases=1,kv=0.12,kW=0.5451,pf=0.92,Vminpu=0.92,Vmaxpu=1.5,model=8,zipv=[0.5,0,0.5,1,0,0,0],daily=RES1_4,status=variable
new load.3002533842M1 bus1=RML1052566950.1.0,Phases=1,kv=0.12,kW=0.5451,pf=0.92,Vminpu=0.92,Vmaxpu=1.5,model=8,zipv=[0.5,0,0.5,1,0,0,0],daily=RES1_4,status=variable
new load.3002533843M1 bus1=RML1052566831.1.0,Phases=1,kv=0.12,kW=0.45352,pf=0.92,Vminpu=0.92,Vmaxpu=1.5,model=8,zipv=[0.5,0,0.5,1,0,0,0],daily=RES2_5,status=variable
new load.3002533844M1 bus1=RML1052566845.1.0,Phases=1,kv=0.12,kW=0.07278,pf=0.92,Vminpu=0.92,Vmaxpu=1.5,model=8,zipv=[0.5,0,0.5,1,0,0,0],daily=RES2_5,status=variable
new load.3002533845M1 bus1=RML1052566859.1.0,Phases=1,kv=0.12,kW=2.47234,pf=0.92,Vminpu=0.92,Vmaxpu=1.5,model=8,zipv=[0.5,0,0.5,1,0,0,0],daily=RES3_6,status=variable
new load.3002533847M1 bus1=RML1052566789.2.0,Phases=1,kv=0.12,kW=2.63014,pf=0.92,Vminpu=0.92,Vmaxpu=1.5,model=8,zipv=[0.5,0,0.5,1,0,0,0],daily=RES3_6,status=variable
new load.3007610643M1 bus1=RML1052567132.1.2.0,Phases=2,kv=0.24,kW=0.32082,pf=0.92,Vminpu=0.92,Vmaxpu=1.5,model=8,zipv=[0.5,0,0.5,1,0,0,0],daily=RES2_24,status=variable
new load.3002533671M1 bus1=RML1052566775.2.0,Phases=1,kv=0.12,kW=0.75588,pf=0.92,Vminpu=0.92,Vmaxpu=1.5,model=8,zipv=[0.5,0,0.5,1,0,0,0],daily=RES2_5,status=variable
new load.3002533672M1 bus1=RML1052566782.1.0,Phases=1,kv=0.12,kW=0.45352,pf=0.92,Vminpu=0.92,Vmaxpu=1.5,model=8,zipv=[0.5,0,0.5,1,0,0,0],daily=RES2_5,status=variable
new load.3002533673M1 bus1=RML1052566796.1.0,Phases=1,kv=0.12,kW=0.43114,pf=0.92,Vminpu=0.92,Vmaxpu=1.5,model=8,zipv=[0.5,0,0.5,1,0,0,0],daily=RES2_5,status=variable
new load.3002533674M1 bus1=RML1052566866.1.0,Phases=1,kv=0.12,kW=1.04932,pf=0.92,Vminpu=0.92,Vmaxpu=1.5,model=8,zipv=[0.5,0,0.5,1,0,0,0],daily=RES1_4,status=variable
new load.3002533675M1 bus1=RML1052566852.2.0,Phases=1,kv=0.12,kW=0.94064,pf=0.92,Vminpu=0.92,Vmaxpu=1.5,model=8,zipv=[0.5,0,0.5,1,0,0,0],daily=RES2_5,status=variable
new load.3002533676M1 bus1=RML1052566838.1.2.0,Phases=2,kv=0.24,kW=0.6607,pf=0.92,Vminpu=0.92,Vmaxpu=1.5,model=8,zipv=[0.5,0,0.5,1,0,0,0],daily=RES2_5,status=variable
new load.3002533677M1 bus1=RML1052566824.1.0,Phases=1,kv=0.12,kW=0.5599,pf=0.92,Vminpu=0.92,Vmaxpu=1.5,model=8,zipv=[0.5,0,0.5,1,0,0,0],daily=RES2_5,status=variable
new load.3002533678M1 bus1=RML1052566922.1.2.0,Phases=2,kv=0.24,kW=3.37118,pf=0.92,Vminpu=0.92,Vmaxpu=1.5,model=8,zipv=[0.5,0,0.5,1,0,0,0],daily=RES4_9,status=variable
new load.3002533679M1 bus1=RML1052567048.2.0,Phases=1,kv=0.12,kW=0.81766,pf=0.92,Vminpu=0.92,Vmaxpu=1.5,model=8,zipv=[0.5,0,0.5,1,0,0,0],daily=RES1_4,status=variable
new load.3002533680M1 bus1=RML1052567041.1.0,Phases=1,kv=0.12,kW=2.43026,pf=0.92,Vminpu=0.92,Vmaxpu=1.5,model=8,zipv=[0.5,0,0.5,1,0,0,0],daily=RES3_6,status=variable
new load.3002533681M1 bus1=RML1052567027.1.2.0,Phases=2,kv=0.24,kW=0.84546,pf=0.92,Vminpu=0.92,Vmaxpu=1.5,model=8,zipv=[0.5,0,0.5,1,0,0,0],daily=RES2_5,status=variable
new load.3002533684M1 bus1=RML1052567013.1.0,Phases=1,kv=0.12,kW=0.99664,pf=0.92,Vminpu=0.92,Vmaxpu=1.5,model=8,zipv=[0.5,0,0.5,1,0,0,0],daily=RES2_5,status=variable
new load.3002533685M1 bus1=RML1052567076.1.0,Phases=1,kv=0.12,kW=0.62686,pf=0.92,Vminpu=0.92,Vmaxpu=1.5,model=8,zipv=[0.5,0,0.5,1,0,0,0],daily=RES1_4,status=variable
new load.3002533686M1 bus1=RML1052567069.2.0,Phases=1,kv=0.12,kW=0.5935,pf=0.92,Vminpu=0.92,Vmaxpu=1.5,model=8,zipv=[0.5,0,0.5,1,0,0,0],daily=RES2_5,status=variable
new load.3007744462M1 bus1=RML1052567216.2.0,Phases=1,kv=0.127,kW=0.07358,pf=0.92,Vminpu=0.92,Vmaxpu=1.5,model=8,zipv=[0.5,0,0.5,1,0,0,0],daily=RES1_1,status=variable
new load.3010020993M1 bus1=RML1052567251.1.0,Phases=1,kv=0.127,kW=0.90182,pf=0.92,Vminpu=0.92,Vmaxpu=1.5,model=8,zipv=[0.5,0,0.5,1,0,0,0],daily=RES2_2,status=variable