new line.10244844 bus1=BBT2978480.1.2.3.0,bus2=BBT1450807.1.2.3.0,Phases=3,Linecode=BT803_BT803_4_3_4,Length=0.014147000,Units=km
new line.10245166 bus1=BBT2978627.1.2.3.0,bus2=BBT1450212.1.2.3.0,Phases=3,Linecode=BT803_BT803_4_3_4,Length=0.029027000,Units=km
new line.10265571 bus1=BBT2985977.1.2.0,bus2=BBT2985984.1.2.0,Phases=2,Linecode=BT108_BT107_7_2_1,Length=0.065788000,Units=km
new line.10265592 bus1=BBT2985963.1.2.0,bus2=BBT2985970.1.2.0,Phases=2,Linecode=BT108_BT107_7_2_1,Length=0.056606000,Units=km
new line.10265837 bus1=BBT12521511.1.2.0,bus2=BBT12521518.1.2.0,Phases=2,Linecode=BT808_BT808_4_2_3,Length=0.043856000,Units=km
new line.10265858 bus1=BBT2986145.1.2.0,bus2=BBT12521511.1.2.0,Phases=2,Linecode=BT808_BT808_4_2_3,Length=0.010634000,Units=km
new line.10265865 bus1=BBT2986138.1.2.0,bus2=BBT2986145.1.2.0,Phases=2,Linecode=BT518_BT518_7_2_1,Length=0.000501000,Units=km
new line.11371130 bus1=BBT3425773.1.2.0,bus2=BBT3644299.1.2.0,Phases=2,Linecode=BT517_BT517_7_2_1,Length=0.000501000,Units=km
new line.11371144 bus1=BBT3644299.1.2.0,bus2=BBT3865212.1.2.0,Phases=2,Linecode=BT808_BT808_4_2_3,Length=0.045016000,Units=km
new line.11371165 bus1=BBT3673706.1.2.0,bus2=BBT3673713.1.2.0,Phases=2,Linecode=BT808_BT808_4_2_3,Length=0.047440000,Units=km
new line.11769185 bus1=BBT4963218.1.2.3.0,bus2=BBT4963225.1.2.3.0,Phases=3,Linecode=BT810_BT810_4_3_4,Length=0.024422000,Units=km
new line.11769220 bus1=BBT4963232.1.2.0,bus2=BBT4963274.1.2.0,Phases=2,Linecode=BT810_BT810_4_2_4,Length=0.026258000,Units=km
new line.11769241 bus1=BBT3544731.1.2.0,bus2=BBT4963232.1.2.0,Phases=2,Linecode=BT810_BT810_4_2_4,Length=0.036810000,Units=km
new line.11769248 bus1=BBT3544724.1.2.0,bus2=BBT3544731.1.2.0,Phases=2,Linecode=BT518_BT518_7_2_1,Length=0.000501000,Units=km
new line.11769255 bus1=BBT3544731.1.2.0,bus2=BBT3544752.1.2.0,Phases=2,Linecode=BT107_BT106_7_2_1,Length=0.041051000,Units=km
new line.11769262 bus1=BBT3544731.1.2.0,bus2=BBT19996797.1.2.0,Phases=2,Linecode=BT808_BT808_4_2_3,Length=0.019217000,Units=km
new line.11769283 bus1=BBT3544752.1.2.0,bus2=BBT3544759.1.2.0,Phases=2,Linecode=BT107_BT106_7_2_1,Length=0.042027000,Units=km
new line.11769318 bus1=BBT3544738.1.2.0,bus2=BBT3544745.1.2.0,Phases=2,Linecode=BT808_BT808_4_2_3,Length=0.008547000,Units=km
new line.11769346 bus1=BBT3544745.1.2.0,bus2=BBT4963295.1.2.0,Phases=2,Linecode=BT808_BT808_4_2_3,Length=0.034941000,Units=km
new line.11769367 bus1=BBT3544703.1.2.3.0,bus2=BBT4963211.1.2.3.0,Phases=3,Linecode=BT810_BT810_4_3_4,Length=0.038289000,Units=km
new line.11769381 bus1=BBT3544696.1.2.3.0,bus2=BBT3544703.1.2.3.0,Phases=3,Linecode=BT803_BT803_4_3_4,Length=0.047451000,Units=km
new line.11769388 bus1=BBT3544689.1.2.3.0,bus2=BBT3544696.1.2.3.0,Phases=3,Linecode=BT518_BT518_7_3_1,Length=0.000501000,Units=km
new line.11769395 bus1=BBT3544696.1.2.3.0,bus2=BBT3544710.1.2.3.0,Phases=3,Linecode=BT803_BT803_4_3_4,Length=0.028471000,Units=km
new line.11769409 bus1=BBT3544710.1.2.3.0,bus2=BBT3544717.1.2.3.0,Phases=3,Linecode=BT803_BT803_4_3_4,Length=0.030375000,Units=km
new line.11769570 bus1=BBT3544871.1.2.0,bus2=BBT3544878.1.2.0,Phases=2,Linecode=BT807_BT807_4_2_3,Length=0.037229000,Units=km
new line.11769591 bus1=BBT3544864.1.2.0,bus2=BBT3544871.1.2.0,Phases=2,Linecode=BT807_BT807_4_2_3,Length=0.033628000,Units=km
new line.11769619 bus1=BBT3544857.1.2.0,bus2=BBT3544864.1.2.0,Phases=2,Linecode=BT807_BT807_4_2_3,Length=0.034682000,Units=km
new line.11769640 bus1=BBT3544857.1.2.0,bus2=BBT3544850.1.2.0,Phases=2,Linecode=BT807_BT807_4_2_3,Length=0.035481000,Units=km
new line.11769661 bus1=BBT3544850.1.2.0,bus2=BBT3544843.1.2.0,Phases=2,Linecode=BT807_BT807_4_2_3,Length=0.041015000,Units=km
new line.11769682 bus1=BBT3544843.1.2.0,bus2=BBT169941973.1.2.0,Phases=2,Linecode=BT807_BT807_4_2_3,Length=0.037670000,Units=km
new line.11769689 bus1=BBT3544773.1.2.0,bus2=BBT3544801.1.2.0,Phases=2,Linecode=BT518_BT518_7_2_1,Length=0.000501000,Units=km
new line.11769696 bus1=BBT3544787.1.2.0,bus2=BBT3544780.1.2.0,Phases=2,Linecode=BT807_BT807_4_2_3,Length=0.039308000,Units=km
new line.11769717 bus1=BBT3544794.1.2.0,bus2=BBT3544787.1.2.0,Phases=2,Linecode=BT807_BT807_4_2_3,Length=0.034378000,Units=km
new line.11769738 bus1=BBT3544801.1.2.0,bus2=BBT3544794.1.2.0,Phases=2,Linecode=BT807_BT807_4_2_3,Length=0.025009000,Units=km
new line.11769773 bus1=BBT3544801.1.2.0,bus2=BBT3544808.1.2.0,Phases=2,Linecode=BT807_BT807_4_2_3,Length=0.032074000,Units=km
new line.11769801 bus1=BBT3544808.1.2.0,bus2=BBT3544815.1.2.0,Phases=2,Linecode=BT807_BT807_4_2_3,Length=0.017895000,Units=km
new line.11769808 bus1=BBT3544808.1.2.0,bus2=BBT3544829.1.2.0,Phases=2,Linecode=BT807_BT807_4_2_3,Length=0.032027000,Units=km
new line.11769829 bus1=BBT3544815.1.2.0,bus2=BBT3544822.1.2.0,Phases=2,Linecode=BT807_BT807_4_2_3,Length=0.027213000,Units=km
new line.11769857 bus1=BBT3544829.1.2.0,bus2=BBT3544836.1.2.0,Phases=2,Linecode=BT807_BT807_4_2_3,Length=0.033746000,Units=km
new line.11778719 bus1=BBT3547818.1.2.0,bus2=BBT3547825.1.2.0,Phases=2,Linecode=BT317_BT317_7_2_1,Length=0.000501000,Units=km
new line.11790535 bus1=BBT3551192.1.2.0,bus2=BBT3551206.1.2.0,Phases=2,Linecode=BT107_BT106_7_2_1,Length=0.058544000,Units=km
new line.11790542 bus1=BBT3551185.1.2.0,bus2=BBT3551192.1.2.0,Phases=2,Linecode=BT508_BT508_7_2_1,Length=0.000501000,Units=km
new line.11790549 bus1=BBT3551192.1.2.0,bus2=BBT3551199.1.2.0,Phases=2,Linecode=BT107_BT106_7_2_1,Length=0.034726000,Units=km
new line.11790563 bus1=BBT3551213.1.2.0,bus2=BBT3551220.1.2.0,Phases=2,Linecode=BT810_BT810_4_2_4,Length=0.051370000,Units=km
new line.11790584 bus1=BBT3551220.1.2.0,bus2=BBT3551227.1.2.0,Phases=2,Linecode=BT808_BT808_4_2_3,Length=0.040064000,Units=km
new line.11793538 bus1=BBT3552389.1.2.3.0,bus2=BBT1448476.1.2.3.0,Phases=3,Linecode=BT805_BT805_4_3_4,Length=0.032214000,Units=km
new line.12144616 bus1=BBT3673685.1.2.0,bus2=BBT3673706.1.2.0,Phases=2,Linecode=BT808_BT808_4_2_3,Length=0.044027000,Units=km
new line.12144623 bus1=BBT3673678.1.2.0,bus2=BBT3673685.1.2.0,Phases=2,Linecode=BT518_BT518_7_2_1,Length=0.000501000,Units=km
new line.12144630 bus1=BBT3673685.1.2.0,bus2=BBT3673699.1.2.0,Phases=2,Linecode=BT808_BT808_4_2_3,Length=0.045116000,Units=km
new line.12144658 bus1=BBT3673699.1.2.0,bus2=BBT4935421.1.2.0,Phases=2,Linecode=BT808_BT808_4_2_3,Length=0.040276000,Units=km
new line.12144665 bus1=BBT3673713.1.2.0,bus2=BBT3673734.1.2.0,Phases=2,Linecode=BT808_BT808_4_2_3,Length=0.046016000,Units=km
new line.12144672 bus1=BBT3673713.1.2.0,bus2=BBT3673727.1.2.0,Phases=2,Linecode=BT808_BT808_4_2_3,Length=0.045293000,Units=km
new line.12144686 bus1=BBT3673734.1.2.0,bus2=BBT4269119.1.2.0,Phases=2,Linecode=BT808_BT808_4_2_3,Length=0.060021000,Units=km
new line.13349085 bus1=BBT4177657.1.2.0,bus2=BBT4177664.1.2.0,Phases=2,Linecode=BT505_BT505_7_2_1,Length=0.000501000,Units=km
new line.13349092 bus1=BBT4177664.1.2.0,bus2=BBT4177671.1.2.0,Phases=2,Linecode=BT808_BT808_4_2_3,Length=0.034188000,Units=km
new line.13349099 bus1=BBT4177664.1.2.0,bus2=BBT4177678.1.2.0,Phases=2,Linecode=BT808_BT808_4_2_3,Length=0.067031000,Units=km
new line.13349106 bus1=BBT4177664.1.2.0,bus2=BBT4479112.1.2.0,Phases=2,Linecode=BT808_BT808_4_2_3,Length=0.056322000,Units=km
new line.13677756 bus1=BBT4358159.1.2.3.0,bus2=BBT4358166.1.2.3.0,Phases=3,Linecode=BT513_BT513_7_3_1,Length=0.000501000,Units=km
new line.10643186 bus1=BBT3129582.1.2.0,bus2=BBT3129589.1.2.0,Phases=2,Linecode=BT808_BT808_4_2_3,Length=0.058817000,Units=km
new line.10643200 bus1=BBT3129589.1.2.0,bus2=BBT3129610.1.2.0,Phases=2,Linecode=BT808_BT808_4_2_3,Length=0.058817000,Units=km
new line.10643249 bus1=BBT3129610.1.2.0,bus2=BBT3129624.1.2.0,Phases=2,Linecode=BT808_BT808_4_2_3,Length=0.057335000,Units=km
new line.11050215 bus1=BBT3292101.1.2.0,bus2=BBT3768647.1.2.0,Phases=2,Linecode=BT304_BT304_5_2_1,Length=0.018364000,Units=km
new line.11050236 bus1=BBT3292122.1.2.0,bus2=BBT3292129.1.2.0,Phases=2,Linecode=BT304_BT304_5_2_1,Length=0.021031000,Units=km
new line.11050243 bus1=BBT3292122.1.2.0,bus2=BBT3292136.1.2.0,Phases=2,Linecode=BT304_BT304_5_2_1,Length=0.013347000,Units=km
new line.11050271 bus1=BBT3292115.1.2.0,bus2=BBT3768640.1.2.0,Phases=2,Linecode=BT304_BT304_5_2_1,Length=0.009059000,Units=km
new line.11066525 bus1=BBT3300172.1.2.3.0,bus2=BBT3300179.1.2.3.0,Phases=3,Linecode=BT803_BT803_4_3_4,Length=0.043432000,Units=km
new line.11066546 bus1=BBT3300179.1.2.3.0,bus2=BBT3300186.1.2.3.0,Phases=3,Linecode=BT803_BT803_4_3_4,Length=0.034841000,Units=km
new line.11066567 bus1=BBT3300186.1.2.3.0,bus2=BBT3300193.1.2.3.0,Phases=3,Linecode=BT803_BT803_4_3_4,Length=0.037027000,Units=km
new line.11066602 bus1=BBT3300193.1.2.3.0,bus2=BBT4361253.1.2.3.0,Phases=3,Linecode=BT810_BT810_4_3_4,Length=0.046878000,Units=km
new line.11074519 bus1=BBT3302342.1.2.0,bus2=BBT3302349.1.2.0,Phases=2,Linecode=BT302_BT503_5_2_1,Length=0.012654000,Units=km
new line.11074540 bus1=BBT3302391.1.2.0,bus2=BBT3766988.1.2.0,Phases=2,Linecode=BT302_BT302_5_2_1,Length=0.019242000,Units=km
new line.11074596 bus1=BBT3302384.1.2.0,bus2=BBT3302391.1.2.0,Phases=2,Linecode=BT302_BT302_5_2_1,Length=0.014871000,Units=km
new line.11074624 bus1=BBT3302377.1.2.0,bus2=BBT3302384.1.2.0,Phases=2,Linecode=BT302_BT302_5_2_1,Length=0.015817000,Units=km
new line.11074680 bus1=BBT3302356.1.2.0,bus2=BBT3302363.1.2.0,Phases=2,Linecode=BT302_BT302_5_2_1,Length=0.011666000,Units=km
new line.11074708 bus1=BBT3302349.1.2.0,bus2=BBT3302356.1.2.0,Phases=2,Linecode=BT302_BT503_5_2_1,Length=0.010300000,Units=km
new line.11074722 bus1=BBT3302363.1.2.0,bus2=BBT3302370.1.2.0,Phases=2,Linecode=BT302_BT503_5_2_1,Length=0.012811000,Units=km
new line.11074757 bus1=BBT3302370.1.2.0,bus2=BBT3302377.1.2.0,Phases=2,Linecode=BT302_BT302_5_2_1,Length=0.013043000,Units=km
new line.11481765 bus1=BBT3552382.1.2.3.0,bus2=BBT3552389.1.2.3.0,Phases=3,Linecode=BT805_BT805_4_3_4,Length=0.019423000,Units=km
new line.13692092 bus1=BBT4376828.1.2.0,bus2=BBT4376835.1.2.0,Phases=2,Linecode=BT808_BT808_4_2_3,Length=0.044027000,Units=km
new line.13708262 bus1=BBT4394006.1.2.0,bus2=BBT4394013.1.2.0,Phases=2,Linecode=BT518_BT518_7_2_1,Length=0.000501000,Units=km
new line.13708269 bus1=BBT4394013.1.2.0,bus2=BBT4394020.1.2.0,Phases=2,Linecode=BT808_BT808_4_2_3,Length=0.039839000,Units=km
new line.13708276 bus1=BBT4394013.1.2.0,bus2=BBT4394034.1.2.0,Phases=2,Linecode=BT808_BT808_4_2_3,Length=0.043947000,Units=km
new line.13708283 bus1=BBT4394013.1.2.0,bus2=BBT4394048.1.2.0,Phases=2,Linecode=BT808_BT808_4_2_3,Length=0.048058000,Units=km
new line.13708297 bus1=BBT4394020.1.2.0,bus2=BBT4394027.1.2.0,Phases=2,Linecode=BT808_BT808_4_2_3,Length=0.059054000,Units=km
new line.13708311 bus1=BBT4394034.1.2.0,bus2=BBT4394041.1.2.0,Phases=2,Linecode=BT808_BT808_4_2_3,Length=0.060038000,Units=km
new line.13708339 bus1=BBT4394048.1.2.0,bus2=BBT4394055.1.2.0,Phases=2,Linecode=BT808_BT808_4_2_3,Length=0.064030000,Units=km
new line.13708353 bus1=BBT4394055.1.2.0,bus2=BBT4394062.1.2.0,Phases=2,Linecode=BT808_BT808_4_2_3,Length=0.060021000,Units=km
new line.13708367 bus1=BBT4394062.1.2.0,bus2=BBT4394069.1.2.0,Phases=2,Linecode=BT808_BT808_4_2_3,Length=0.060021000,Units=km
new line.13717334 bus1=BBT4399466.1.2.0,bus2=BBT4399473.1.2.0,Phases=2,Linecode=BT518_BT518_7_2_1,Length=0.000501000,Units=km
new line.13717341 bus1=BBT4399473.1.2.0,bus2=BBT4399480.1.2.0,Phases=2,Linecode=BT808_BT808_4_2_3,Length=0.029421000,Units=km
new line.13729864 bus1=BBT4412003.1.2.0,bus2=BBT4412010.1.2.0,Phases=2,Linecode=BT518_BT518_7_2_1,Length=0.000501000,Units=km
new line.13729871 bus1=BBT4412010.1.2.0,bus2=BBT4412017.1.2.0,Phases=2,Linecode=BT814_BT814_4_2_3,Length=0.061609000,Units=km
new line.14115774 bus1=BBT4938053.1.2.3.0,bus2=BBT31672349.1.2.3.0,Phases=3,Linecode=BT810_BT810_4_3_4,Length=0.039826000,Units=km
new line.14119757 bus1=BBT4947650.1.2.3.0,bus2=BBT1472073.1.2.3.0,Phases=3,Linecode=BT106_BT108_7_3_1,Length=0.015562000,Units=km
new line.14119764 bus1=BBT4947650.1.2.3.0,bus2=BBT4947727.1.2.3.0,Phases=3,Linecode=BT810_BT810_4_3_4,Length=0.031059000,Units=km
new line.14119778 bus1=BBT4947727.1.2.3.0,bus2=BBT4947734.1.2.3.0,Phases=3,Linecode=BT810_BT810_4_3_4,Length=0.029624000,Units=km
new line.14119792 bus1=BBT4947734.1.2.3.0,bus2=BBT4947741.1.2.3.0,Phases=3,Linecode=BT810_BT810_4_3_4,Length=0.029438000,Units=km
new line.14119841 bus1=BBT4947888.1.2.3.0,bus2=BBT4947895.1.2.3.0,Phases=3,Linecode=BT803_BT803_4_3_4,Length=0.035705000,Units=km
new line.14119869 bus1=BBT4947881.1.2.3.0,bus2=BBT4947888.1.2.3.0,Phases=3,Linecode=BT803_BT803_4_3_4,Length=0.045137000,Units=km
new line.14119918 bus1=BBT4947755.1.2.3.0,bus2=BBT4947762.1.2.3.0,Phases=3,Linecode=BT514_BT514_7_3_1,Length=0.000501000,Units=km
new line.14126617 bus1=BBT4963295.1.2.0,bus2=BBT4963330.1.2.0,Phases=2,Linecode=BT808_BT808_4_2_3,Length=0.038341000,Units=km
new line.16177610 bus1=BBT12160269.1.2.3.0,bus2=BBT5029956.1.2.3.0,Phases=3,Linecode=BT810_BT810_4_3_4,Length=0.035523000,Units=km
new line.16177855 bus1=BBT12180394.1.2.0,bus2=BBT12180401.1.2.0,Phases=2,Linecode=BT304_BT304_7_2_1,Length=0.000501000,Units=km
new line.16775641 bus1=BBT35996270.1.2.3.0,bus2=BBT35996277.1.2.3.0,Phases=3,Linecode=BT513_BT513_7_3_1,Length=0.000501000,Units=km
new line.16781591 bus1=BBT4479119.1.2.0,bus2=BBT36118735.1.2.0,Phases=2,Linecode=BT808_BT808_4_2_3,Length=0.047314000,Units=km
new line.16781598 bus1=BBT36118735.1.2.0,bus2=BBT36118742.1.2.0,Phases=2,Linecode=BT808_BT808_4_2_3,Length=0.042122000,Units=km
new line.16781605 bus1=BBT4479119.1.2.0,bus2=BBT36118910.1.2.0,Phases=2,Linecode=BT808_BT808_4_2_3,Length=0.032261000,Units=km
new line.16781612 bus1=BBT36118910.1.2.0,bus2=BBT36118917.1.2.0,Phases=2,Linecode=BT808_BT808_4_2_3,Length=0.032768000,Units=km
new line.16781626 bus1=BBT36118917.1.2.0,bus2=BBT36118945.1.2.0,Phases=2,Linecode=BT808_BT808_4_2_3,Length=0.040214000,Units=km
new line.16781654 bus1=BBT36118945.1.2.0,bus2=BBT36118966.1.2.0,Phases=2,Linecode=BT808_BT808_4_2_3,Length=0.039218000,Units=km
new line.16781661 bus1=BBT36118966.1.2.0,bus2=BBT36118973.1.2.0,Phases=2,Linecode=BT808_BT808_4_2_3,Length=0.041209000,Units=km
new line.16781668 bus1=BBT36118973.1.2.0,bus2=BBT36118980.1.2.0,Phases=2,Linecode=BT808_BT808_4_2_3,Length=0.042969000,Units=km
new line.18401272 bus1=BBT9764057.1.2.3.0,bus2=BBT125176207.1.2.3.0,Phases=3,Linecode=BT803_BT803_4_3_4,Length=0.035789000,Units=km
new line.18401279 bus1=BBT125176207.1.2.3.0,bus2=BBT125176354.1.2.3.0,Phases=3,Linecode=BT803_BT803_4_3_4,Length=0.038924000,Units=km
new line.18401286 bus1=BBT125176354.1.2.3.0,bus2=BBT125176361.1.2.3.0,Phases=3,Linecode=BT803_BT803_4_3_4,Length=0.038484000,Units=km
new line.10898161 bus1=BBT3233644.1.2.3.0,bus2=BBT3233721.1.2.3.0,Phases=3,Linecode=BT803_BT803_4_3_4,Length=0.047651000,Units=km
new line.10898168 bus1=BBT3233637.1.2.3.0,bus2=BBT3233644.1.2.3.0,Phases=3,Linecode=BT518_BT518_7_3_1,Length=0.000501000,Units=km
new line.10898175 bus1=BBT3233644.1.2.3.0,bus2=BBT3233749.1.2.3.0,Phases=3,Linecode=BT803_BT803_4_3_4,Length=0.062648000,Units=km
new line.10898203 bus1=BBT3233749.1.2.3.0,bus2=BBT3233791.1.2.3.0,Phases=3,Linecode=BT803_BT803_4_3_4,Length=0.042957000,Units=km
new line.10898210 bus1=BBT3233749.1.2.3.0,bus2=BBT3300172.1.2.3.0,Phases=3,Linecode=BT803_BT803_4_3_4,Length=0.051106000,Units=km
new line.10898245 bus1=BBT3233819.1.2.3.0,bus2=BBT3233826.1.2.3.0,Phases=3,Linecode=BT803_BT803_4_3_4,Length=0.041692000,Units=km
new line.10898273 bus1=BBT3233812.1.2.3.0,bus2=BBT3233819.1.2.3.0,Phases=3,Linecode=BT803_BT803_4_3_4,Length=0.039839000,Units=km
new line.10898287 bus1=BBT3233693.1.2.3.0,bus2=BBT3233812.1.2.3.0,Phases=3,Linecode=BT803_BT803_4_3_4,Length=0.045238000,Units=km
new line.10898294 bus1=BBT3233686.1.2.3.0,bus2=BBT3233693.1.2.3.0,Phases=3,Linecode=BT509_BT509_7_3_1,Length=0.000501000,Units=km
new line.10898301 bus1=BBT3233693.1.2.3.0,bus2=BBT3233833.1.2.3.0,Phases=3,Linecode=BT803_BT803_4_3_4,Length=0.045820000,Units=km
new line.10898329 bus1=BBT3233833.1.2.3.0,bus2=BBT3233840.1.2.3.0,Phases=3,Linecode=BT803_BT803_4_3_4,Length=0.037656000,Units=km
new line.10898371 bus1=BBT3233840.1.2.3.0,bus2=BBT3233847.1.2.3.0,Phases=3,Linecode=BT803_BT803_4_3_4,Length=0.037027000,Units=km
new line.10898406 bus1=BBT3233847.1.2.3.0,bus2=BBT27266528.1.2.3.0,Phases=3,Linecode=BT810_BT810_4_3_4,Length=0.044838000,Units=km
new line.11993199 bus1=BBT3621885.1.2.3.0,bus2=BBT3621892.1.2.3.0,Phases=3,Linecode=BT314_BT314_7_3_1,Length=0.000501000,Units=km
new line.11993241 bus1=BBT3622088.1.2.3.0,bus2=BBT3622095.1.2.3.0,Phases=3,Linecode=BT309_BT309_7_3_1,Length=0.000501000,Units=km
new line.12014066 bus1=BBT3630579.1.2.0,bus2=BBT3630586.1.2.0,Phases=2,Linecode=BT304_BT304_7_2_1,Length=0.000501000,Units=km
new line.12438336 bus1=BBT3865212.1.2.0,bus2=BBT4376828.1.2.0,Phases=2,Linecode=BT808_BT808_4_2_3,Length=0.045016000,Units=km
new line.13470710 bus1=BBT4244815.1.2.0,bus2=BBT4244822.1.2.0,Phases=2,Linecode=BT801_BT801_4_2_3,Length=0.031634000,Units=km
new line.13470731 bus1=BBT4244822.1.2.0,bus2=BBT4244829.1.2.0,Phases=2,Linecode=BT801_BT801_4_2_3,Length=0.030540000,Units=km
new line.13470752 bus1=BBT4244829.1.2.0,bus2=BBT4244836.1.2.0,Phases=2,Linecode=BT801_BT801_4_2_3,Length=0.028855000,Units=km
new line.13470773 bus1=BBT4244836.1.2.0,bus2=BBT4244843.1.2.0,Phases=2,Linecode=BT801_BT801_4_2_3,Length=0.028312000,Units=km
new line.14232261 bus1=BBT5206461.1.2.0,bus2=BBT5206468.1.2.0,Phases=2,Linecode=BT808_BT808_4_2_3,Length=0.042027000,Units=km
new line.14232275 bus1=BBT5206468.1.2.0,bus2=BBT5206482.1.2.0,Phases=2,Linecode=BT808_BT808_4_2_3,Length=0.042027000,Units=km
new line.14232289 bus1=BBT5206482.1.2.0,bus2=BBT5206489.1.2.0,Phases=2,Linecode=BT808_BT808_4_2_3,Length=0.041246000,Units=km
new line.16296645 bus1=BBT18876034.1.2.3.0,bus2=BBT18876041.1.2.3.0,Phases=3,Linecode=BT514_BT514_7_3_1,Length=0.000501000,Units=km
new line.16302854 bus1=BBT19307976.1.2.0,bus2=BBT19307983.1.2.0,Phases=2,Linecode=BT517_BT517_7_2_1,Length=0.000501000,Units=km
new line.16303120 bus1=BBT19307787.1.2.0,bus2=BBT19307794.1.2.0,Phases=2,Linecode=BT517_BT517_7_2_1,Length=0.000501000,Units=km
new line.16313046 bus1=BBT19996797.1.2.0,bus2=BBT3544738.1.2.0,Phases=2,Linecode=BT808_BT808_4_2_3,Length=0.022812000,Units=km
new line.17454228 bus1=BBT2978809.1.2.3.0,bus2=BBT68594745.1.2.3.0,Phases=3,Linecode=BT810_BT810_4_3_4,Length=0.044569000,Units=km
new line.17454235 bus1=BBT68594745.1.2.3.0,bus2=BBT68594752.1.2.3.0,Phases=3,Linecode=BT810_BT810_4_3_4,Length=0.041051000,Units=km
new line.17454242 bus1=BBT68594752.1.2.3.0,bus2=BBT68594871.1.2.3.0,Phases=3,Linecode=BT810_BT810_4_3_4,Length=0.042464000,Units=km
new line.17733003 bus1=BBT1456120.1.2.0,bus2=BBT81158114.1.2.0,Phases=2,Linecode=BT108_BT108_7_2_1,Length=0.048120000,Units=km
new line.18476144 bus1=BBT129930159.1.2.3.0,bus2=BBT129930166.1.2.3.0,Phases=3,Linecode=BT518_BT518_7_3_1,Length=0.000501000,Units=km
new line.18476235 bus1=BBT129930166.1.2.3.0,bus2=BBT129932245.1.2.3.0,Phases=3,Linecode=BT513_BT513_5_3_1,Length=0.004002000,Units=km
new line.18476305 bus1=BBT129932245.1.2.3.0,bus2=BBT129934100.1.2.3.0,Phases=3,Linecode=BT513_BT513_5_3_1,Length=0.014005000,Units=km
new line.18476333 bus1=BBT129934100.1.2.3.0,bus2=BBT129934289.1.2.3.0,Phases=3,Linecode=BT503_BT503_5_3_1,Length=0.029438000,Units=km
new line.18476347 bus1=BBT129934289.2.3.0,bus2=BBT129934723.2.3.0,Phases=2,Linecode=BT503_BT503_5_2_1,Length=0.005002000,Units=km
new line.18476361 bus1=BBT129934289.1.2.0,bus2=BBT129934821.1.2.0,Phases=2,Linecode=BT503_BT503_5_2_1,Length=0.029709000,Units=km
new line.18476375 bus1=BBT129934821.1.2.0,bus2=BBT129935031.1.2.0,Phases=2,Linecode=BT503_BT503_5_2_1,Length=0.004245000,Units=km
new line.18476396 bus1=BBT129934100.1.2.3.0,bus2=BBT129938419.1.2.3.0,Phases=3,Linecode=BT518_BT518_5_3_1,Length=0.014566000,Units=km
new line.18476424 bus1=BBT129938419.1.3.0,bus2=BBT129939413.1.3.0,Phases=2,Linecode=BT518_BT518_5_2_1,Length=0.004474000,Units=km
new line.18476431 bus1=BBT129938419.1.2.3.0,bus2=BBT129939497.1.2.3.0,Phases=3,Linecode=BT518_BT518_5_3_1,Length=0.038653000,Units=km
new line.18476438 bus1=BBT129934100.1.2.3.0,bus2=BBT129939532.1.2.3.0,Phases=3,Linecode=BT518_BT518_5_3_1,Length=0.023353000,Units=km
new line.18476445 bus1=BBT129939497.1.2.0,bus2=BBT129939567.1.2.0,Phases=2,Linecode=BT518_BT518_5_2_1,Length=0.004474000,Units=km
new line.18476452 bus1=BBT129939497.1.2.3.0,bus2=BBT129939644.1.2.3.0,Phases=3,Linecode=BT518_BT518_5_3_1,Length=0.042956000,Units=km
new line.18476459 bus1=BBT129939644.1.2.3.0,bus2=BBT129939952.1.2.3.0,Phases=3,Linecode=BT518_BT518_5_3_1,Length=0.037550000,Units=km
new line.18476466 bus1=BBT129939644.2.3.0,bus2=BBT129940036.2.3.0,Phases=2,Linecode=BT518_BT518_5_2_1,Length=0.005002000,Units=km
new line.18476487 bus1=BBT129939952.1.3.0,bus2=BBT129941198.1.3.0,Phases=2,Linecode=BT518_BT518_5_2_1,Length=0.004245000,Units=km
new line.18476494 bus1=BBT129939952.1.2.3.0,bus2=BBT129941205.1.2.3.0,Phases=3,Linecode=BT518_BT518_5_3_1,Length=0.014871000,Units=km
new line.18476501 bus1=BBT129941205.1.2.3.0,bus2=BBT129941268.1.2.3.0,Phases=3,Linecode=BT518_BT518_5_3_1,Length=0.020888000,Units=km
new line.18476515 bus1=BBT129941205.1.2.3.0,bus2=BBT129941394.1.2.3.0,Phases=3,Linecode=BT505_BT505_5_3_1,Length=0.030243000,Units=km
new line.18476522 bus1=BBT129941394.1.2.0,bus2=BBT129941401.1.2.0,Phases=2,Linecode=BT505_BT505_5_2_1,Length=0.004474000,Units=km
new line.18476529 bus1=BBT129941394.1.2.3.0,bus2=BBT129941408.1.2.3.0,Phases=3,Linecode=BT505_BT505_5_3_1,Length=0.051641000,Units=km
new line.18476543 bus1=BBT129941408.2.3.0,bus2=BBT129941597.2.3.0,Phases=2,Linecode=BT505_BT505_5_2_1,Length=0.004125000,Units=km
new line.18476550 bus1=BBT129941408.1.2.3.0,bus2=BBT129941800.1.2.3.0,Phases=3,Linecode=BT505_BT505_5_3_1,Length=0.050177000,Units=km
new line.18476557 bus1=BBT129941800.1.3.0,bus2=BBT129941870.1.3.0,Phases=2,Linecode=BT505_BT505_5_2_1,Length=0.004002000,Units=km
new line.18476564 bus1=BBT129941800.1.2.3.0,bus2=BBT129941877.1.2.3.0,Phases=3,Linecode=BT505_BT505_5_3_1,Length=0.050266000,Units=km
new line.18476571 bus1=BBT129941877.2.3.0,bus2=BBT129941884.2.3.0,Phases=2,Linecode=BT505_BT505_5_2_1,Length=0.005002000,Units=km
new line.18476578 bus1=BBT129941877.1.2.3.0,bus2=BBT129941891.1.2.3.0,Phases=3,Linecode=BT503_BT503_5_3_1,Length=0.054351000,Units=km
new line.18476585 bus1=BBT129941891.1.3.0,bus2=BBT129941898.1.3.0,Phases=2,Linecode=BT503_BT503_5_2_1,Length=0.004002000,Units=km
new line.18476613 bus1=BBT129941891.1.2.0,bus2=BBT129944362.1.2.0,Phases=2,Linecode=BT503_BT503_5_2_1,Length=0.056588000,Units=km
new line.18476620 bus1=BBT129944362.1.2.0,bus2=BBT129944369.1.2.0,Phases=2,Linecode=BT503_BT503_5_2_1,Length=0.004002000,Units=km
new line.18476627 bus1=BBT129941268.1.2.0,bus2=BBT129944376.1.2.0,Phases=2,Linecode=BT518_BT518_5_2_1,Length=0.005002000,Units=km
new line.18476634 bus1=BBT129941268.1.2.3.0,bus2=BBT129944383.1.2.3.0,Phases=3,Linecode=BT518_BT518_5_3_1,Length=0.032027000,Units=km
new line.18476641 bus1=BBT129941268.2.3.0,bus2=BBT129944390.2.3.0,Phases=2,Linecode=BT503_BT503_5_2_1,Length=0.038013000,Units=km
new line.18476648 bus1=BBT129944390.2.3.0,bus2=BBT129944397.2.3.0,Phases=2,Linecode=BT503_BT503_5_2_1,Length=0.004002000,Units=km
new line.18476655 bus1=BBT129944383.1.2.3.0,bus2=BBT129944404.1.2.3.0,Phases=3,Linecode=BT521_BT521_5_3_1,Length=0.015039000,Units=km
new line.18476662 bus1=BBT129944404.1.2.3.0,bus2=BBT129944411.1.2.3.0,Phases=3,Linecode=BT521_BT521_5_3_1,Length=0.004002000,Units=km
new line.18476669 bus1=BBT129944411.1.2.3.0,bus2=BBT129944418.1.2.3.0,Phases=3,Linecode=BT521_BT521_5_3_1,Length=0.045026000,Units=km
new line.18476676 bus1=BBT129944418.1.2.3.0,bus2=BBT129944425.1.2.3.0,Phases=3,Linecode=BT521_BT521_5_3_1,Length=0.004002000,Units=km
new line.18476683 bus1=BBT129944425.1.2.3.0,bus2=BBT129944432.1.2.3.0,Phases=3,Linecode=BT521_BT521_5_3_1,Length=0.050027000,Units=km
new line.18476690 bus1=BBT129944432.1.2.3.0,bus2=BBT129944439.1.2.3.0,Phases=3,Linecode=BT521_BT521_5_3_1,Length=0.004002000,Units=km
new line.18476697 bus1=BBT129944439.1.2.3.0,bus2=BBT129944446.1.2.3.0,Phases=3,Linecode=BT521_BT521_5_3_1,Length=0.042026000,Units=km
new line.18476704 bus1=BBT129944446.1.2.3.0,bus2=BBT129944453.1.2.3.0,Phases=3,Linecode=BT521_BT521_5_3_1,Length=0.004002000,Units=km
new line.18476711 bus1=BBT129944453.1.2.3.0,bus2=BBT129944460.1.2.3.0,Phases=3,Linecode=BT505_BT505_5_3_1,Length=0.051496000,Units=km
new line.18476718 bus1=BBT129944460.1.2.3.0,bus2=BBT129944467.1.2.3.0,Phases=3,Linecode=BT505_BT505_5_3_1,Length=0.004002000,Units=km
new line.18476725 bus1=BBT129944467.1.2.3.0,bus2=BBT129944474.1.2.3.0,Phases=3,Linecode=BT505_BT505_5_3_1,Length=0.045721000,Units=km
new line.18476732 bus1=BBT129944474.1.2.3.0,bus2=BBT129944481.1.2.3.0,Phases=3,Linecode=BT505_BT505_5_3_1,Length=0.004002000,Units=km
new line.18476739 bus1=BBT129944481.1.3.0,bus2=BBT129944488.1.3.0,Phases=2,Linecode=BT503_BT503_5_2_1,Length=0.045370000,Units=km
new line.18476746 bus1=BBT129944488.1.3.0,bus2=BBT129944495.1.3.0,Phases=2,Linecode=BT503_BT503_5_2_1,Length=0.004002000,Units=km
new line.18476753 bus1=BBT129944383.1.2.3.0,bus2=BBT129944502.1.2.3.0,Phases=3,Linecode=BT521_BT521_5_3_1,Length=0.030027000,Units=km
new line.18476760 bus1=BBT129944502.1.2.3.0,bus2=BBT129944509.1.2.3.0,Phases=3,Linecode=BT521_BT521_5_3_1,Length=0.004002000,Units=km
new line.18476767 bus1=BBT129944509.1.2.3.0,bus2=BBT129944516.1.2.3.0,Phases=3,Linecode=BT521_BT521_5_3_1,Length=0.045026000,Units=km
new line.18476774 bus1=BBT129944516.1.2.3.0,bus2=BBT129944523.1.2.3.0,Phases=3,Linecode=BT521_BT521_5_3_1,Length=0.004002000,Units=km
new line.18476781 bus1=BBT129944516.1.2.3.0,bus2=BBT129944530.1.2.3.0,Phases=3,Linecode=BT505_BT505_5_3_1,Length=0.019007000,Units=km
new line.18476788 bus1=BBT129944530.1.2.3.0,bus2=BBT129944537.1.2.3.0,Phases=3,Linecode=BT505_BT505_5_3_1,Length=0.030816000,Units=km
new line.18476802 bus1=BBT129944523.1.2.3.0,bus2=BBT129944551.1.2.3.0,Phases=3,Linecode=BT505_BT505_5_3_1,Length=0.045060000,Units=km
new line.18476809 bus1=BBT129944551.1.2.3.0,bus2=BBT129944558.1.2.3.0,Phases=3,Linecode=BT505_BT505_5_3_1,Length=0.004002000,Units=km
new line.18476816 bus1=BBT129944558.2.3.0,bus2=BBT129944565.2.3.0,Phases=2,Linecode=BT503_BT503_5_2_1,Length=0.046059000,Units=km
new line.18476823 bus1=BBT129944565.2.3.0,bus2=BBT129944572.2.3.0,Phases=2,Linecode=BT503_BT503_5_2_1,Length=0.004002000,Units=km
new line.18476830 bus1=BBT129944537.1.2.0,bus2=BBT129944579.1.2.0,Phases=2,Linecode=BT505_BT505_5_2_1,Length=0.004125000,Units=km
new line.18476837 bus1=BBT129944537.1.2.3.0,bus2=BBT129944586.1.2.3.0,Phases=3,Linecode=BT503_BT503_5_3_1,Length=0.050614000,Units=km
new line.18476844 bus1=BBT129944586.1.3.0,bus2=BBT129944593.1.3.0,Phases=2,Linecode=BT503_BT503_5_2_1,Length=0.004474000,Units=km
new line.18476851 bus1=BBT129944586.1.2.3.0,bus2=BBT129944600.1.2.3.0,Phases=3,Linecode=BT503_BT503_5_3_1,Length=0.049413000,Units=km
new line.18476858 bus1=BBT129944600.2.3.0,bus2=BBT129944607.2.3.0,Phases=2,Linecode=BT503_BT503_5_2_1,Length=0.003607000,Units=km
new line.18476879 bus1=BBT129939532.1.2.3.0,bus2=BBT129944628.1.2.3.0,Phases=3,Linecode=BT518_BT518_5_3_1,Length=0.015658000,Units=km
new line.18476886 bus1=BBT129944628.1.2.3.0,bus2=BBT129944635.1.2.3.0,Phases=3,Linecode=BT521_BT521_5_3_1,Length=0.003607000,Units=km
new line.18476893 bus1=BBT129944628.1.2.3.0,bus2=BBT129944642.1.2.3.0,Phases=3,Linecode=BT521_BT521_5_3_1,Length=0.045237000,Units=km
new line.18476900 bus1=BBT129944635.1.2.3.0,bus2=BBT129944649.1.2.3.0,Phases=3,Linecode=BT503_BT503_5_3_1,Length=0.043397000,Units=km
new line.18476907 bus1=BBT129944649.1.2.3.0,bus2=BBT129944656.1.2.3.0,Phases=3,Linecode=BT503_BT503_5_3_1,Length=0.003607000,Units=km
new line.18476914 bus1=BBT129944656.1.2.3.0,bus2=BBT129944663.1.2.3.0,Phases=3,Linecode=BT503_BT503_5_3_1,Length=0.044298000,Units=km
new line.18476921 bus1=BBT129944663.1.2.3.0,bus2=BBT129944670.1.2.3.0,Phases=3,Linecode=BT503_BT503_5_3_1,Length=0.003607000,Units=km
new line.18476928 bus1=BBT129944670.1.2.0,bus2=BBT129944677.1.2.0,Phases=2,Linecode=BT503_BT503_5_2_1,Length=0.035353000,Units=km
new line.18476935 bus1=BBT129944677.1.2.0,bus2=BBT129944684.1.2.0,Phases=2,Linecode=BT503_BT503_5_2_1,Length=0.005002000,Units=km
new line.18476963 bus1=BBT129944628.1.2.3.0,bus2=BBT129945321.1.2.3.0,Phases=3,Linecode=BT503_BT503_5_3_1,Length=0.030424000,Units=km
new line.18476970 bus1=BBT129945321.1.2.0,bus2=BBT129945328.1.2.0,Phases=2,Linecode=BT503_BT503_5_2_1,Length=0.023268000,Units=km
new line.18476977 bus1=BBT129945328.1.2.0,bus2=BBT129945335.1.2.0,Phases=2,Linecode=BT503_BT503_5_2_1,Length=0.004474000,Units=km
new line.18476984 bus1=BBT129945321.1.2.3.0,bus2=BBT129945342.1.2.3.0,Phases=3,Linecode=BT503_BT503_5_3_1,Length=0.013898000,Units=km
new line.18476991 bus1=BBT129945342.1.3.0,bus2=BBT129945349.1.3.0,Phases=2,Linecode=BT503_BT503_5_2_1,Length=0.038092000,Units=km
new line.18476998 bus1=BBT129945342.2.3.0,bus2=BBT129945356.2.3.0,Phases=2,Linecode=BT503_BT503_5_2_1,Length=0.005002000,Units=km
new line.18477005 bus1=BBT129945349.1.3.0,bus2=BBT129945363.1.3.0,Phases=2,Linecode=BT503_BT503_5_2_1,Length=0.004474000,Units=km
new line.18477019 bus1=BBT129939532.1.2.3.0,bus2=BBT129945475.1.2.3.0,Phases=3,Linecode=BT505_BT505_5_3_1,Length=0.029742000,Units=km
new line.18477026 bus1=BBT129945475.1.2.0,bus2=BBT129945482.1.2.0,Phases=2,Linecode=BT505_BT505_5_2_1,Length=0.004474000,Units=km
new line.18477033 bus1=BBT129945475.1.2.3.0,bus2=BBT129945489.1.2.3.0,Phases=3,Linecode=BT505_BT505_5_3_1,Length=0.031776000,Units=km
new line.18477040 bus1=BBT129945489.2.3.0,bus2=BBT129945496.2.3.0,Phases=2,Linecode=BT505_BT505_5_2_1,Length=0.004474000,Units=km
new line.18477047 bus1=BBT129945489.1.2.3.0,bus2=BBT129945601.1.2.3.0,Phases=3,Linecode=BT505_BT505_5_3_1,Length=0.032322000,Units=km