new line.TR10075178 bus1=BMT169106836.1.2.3,bus2=BMT169106837.1.2.3,Phases=3,Linecode=CABA08_3_3,Length=0.025816000,Units=km
new line.TR10078909 bus1=BMT6131393B.3,bus2=BMT171255440.3,Phases=1,Linecode=CAB202_3_1,Length=0.043856000,Units=km
new line.TR10150141 bus1=BMT6263728B.1,bus2=BMT149111556.1,Phases=1,Linecode=CAB202_3_1,Length=0.079677000,Units=km
new line.TR10150148 bus1=BMT6263749B.1,bus2=BMT6263770B.1,Phases=1,Linecode=CAB202_3_1,Length=0.099282000,Units=km
new line.TR10150155 bus1=BMT6263770B.1,bus2=BMT6263728B.1,Phases=1,Linecode=CAB202_3_1,Length=0.090303000,Units=km
new line.TR10150162 bus1=BMT149111556.1,bus2=BMT6263791B.1,Phases=1,Linecode=CAB202_3_1,Length=0.099799000,Units=km
new line.TR10150169 bus1=BMT6263791B.1,bus2=BMT6263819B.1,Phases=1,Linecode=CAB202_3_1,Length=0.091037000,Units=km
new line.TR10150183 bus1=BMT6263819B.1,bus2=BMT6263826B.1,Phases=1,Linecode=CAB202_3_1,Length=0.090031000,Units=km
new line.TR10150190 bus1=BMT6263826B.1,bus2=BMT149111440.1,Phases=1,Linecode=CAB202_3_1,Length=0.149216000,Units=km
new line.TR10150204 bus1=BMT149111440.1,bus2=BMT6263847B.1,Phases=1,Linecode=CAB202_3_1,Length=0.100035000,Units=km
new line.TR10150211 bus1=BMT6263847B.1,bus2=BMT6263861B.1,Phases=1,Linecode=CAB202_3_1,Length=0.129663000,Units=km
new line.TR10150225 bus1=BMT6263861B.1,bus2=BMT6263868B.1,Phases=1,Linecode=CAB202_3_1,Length=0.134080000,Units=km
new line.TR10150232 bus1=BMT6263868B.1,bus2=BMT149111557.1,Phases=1,Linecode=CAB202_3_1,Length=0.133590000,Units=km
new line.TR10150239 bus1=BMT149111557.1,bus2=BMT6264008B.1,Phases=1,Linecode=CAB202_3_1,Length=0.067921000,Units=km
new line.TR10150330 bus1=BMT6264008B.1,bus2=BMT149111558.1,Phases=1,Linecode=CAB202_3_1,Length=0.079790000,Units=km
new line.TR10156490 bus1=BMT102964108.1.2.3,bus2=BMT102964115.1.2.3,Phases=3,Linecode=CABA06_3_3,Length=0.022812000,Units=km
new line.TR10176881 bus1=BMT6320442B.1.2.3,bus2=BMT6320470B.1.2.3,Phases=3,Linecode=CAB107_3_3,Length=0.064559000,Units=km
new line.TR10176895 bus1=BMT6320470B.1.2.3,bus2=BMT102963023.1.2.3,Phases=3,Linecode=CAB107_3_3,Length=0.007813000,Units=km
new line.TR10176902 bus1=BMT6320477B.1.2.3,bus2=BMT166918525.1.2.3,Phases=3,Linecode=CAB107_3_3,Length=0.055490000,Units=km
new line.TR10176909 bus1=BMT6320484B.1.2.3,bus2=BMT102963051.1.2.3,Phases=3,Linecode=CAB107_3_3,Length=0.120693000,Units=km
new line.TR10176916 bus1=BMT6320498B.1.2.3,bus2=BMT3653210B.1.2.3,Phases=3,Linecode=CAB107_3_3,Length=0.078799000,Units=km
new line.TR10176951 bus1=BMT6320568B.1.2.3,bus2=BMT3653217B.1.2.3,Phases=3,Linecode=CAB107_3_3,Length=0.075318000,Units=km
new line.TR10176986 bus1=BMT6320617B.1.2.3,bus2=BMT3653224B.1.2.3,Phases=3,Linecode=CAB107_3_3,Length=0.082016000,Units=km
new line.TR10176993 bus1=BMT6320631B.1.2.3,bus2=BMT3637313B.1.2.3,Phases=3,Linecode=CAB107_3_3,Length=0.075318000,Units=km
new line.TR10177000 bus1=BMT6320638B.1.2.3,bus2=BMT6320645B.1.2.3,Phases=3,Linecode=CAB107_3_3,Length=0.038092000,Units=km
new line.TR10177007 bus1=BMT6320645B.1.2.3,bus2=BMT6320687B.1.2.3,Phases=3,Linecode=CAB107_3_3,Length=0.036728000,Units=km
new line.TR10177028 bus1=BMT6320687B.1.2.3,bus2=BMT166918527.1.2.3,Phases=3,Linecode=CAB107_3_3,Length=0.039460000,Units=km
new line.TR10177056 bus1=BMT6320736B.1.2.3,bus2=BMT2492288B.1.2.3,Phases=3,Linecode=CAB207_3_3,Length=0.077493000,Units=km
new line.TR10178813 bus1=BMT6323242C.1.2.3,bus2=BMT6323256C.1.2.3,Phases=3,Linecode=CABA08_3_3,Length=0.023030000,Units=km
new line.TR10178834 bus1=BMT6323256C.1.2.3,bus2=BMT6323319C.1.2.3,Phases=3,Linecode=CABA08_3_3,Length=0.047524000,Units=km
new line.TR10178897 bus1=BMT6323319C.1.2.3,bus2=BMT6323326C.1.2.3,Phases=3,Linecode=CABA08_3_3,Length=0.027028000,Units=km
new line.TR10178911 bus1=BMT6323326C.1.2.3,bus2=BMT6323333C.1.2.3,Phases=3,Linecode=CABA08_3_3,Length=0.020623000,Units=km
new line.TR10393608 bus1=BMT163696009.1.2.3,bus2=BMT6651290B.1.2.3,Phases=3,Linecode=CAB207_3_3,Length=0.027813000,Units=km
new line.TR10393615 bus1=BMT163696008.1.2.3,bus2=BMT6651304B.1.2.3,Phases=3,Linecode=CAB207_3_3,Length=0.110296000,Units=km
new line.TR10393622 bus1=BMT6651290B.1.2.3,bus2=BMT6651304B.1.2.3,Phases=3,Linecode=CAB207_3_3,Length=0.081863000,Units=km
new line.TR10410373 bus1=BMT159978240.1,bus2=BMT6668195B.1,Phases=1,Linecode=CAB202_3_1,Length=0.086245000,Units=km
new line.TR10410380 bus1=BMT6668195B.1,bus2=BMT159978241.1,Phases=1,Linecode=CAB202_3_1,Length=0.141371000,Units=km
new line.TR10411192 bus1=BMT149111557.1,bus2=BMT149111559.1,Phases=1,Linecode=CAB202_3_1,Length=0.090508000,Units=km
new line.TR10455439 bus1=BMT171255444.1.2.3,bus2=BMT6716390B.1.2.3,Phases=3,Linecode=CAB103_3_3,Length=0.059703000,Units=km
new line.TR10455446 bus1=BMT6716390B.1.2.3,bus2=BMT6716397B.1.2.3,Phases=3,Linecode=CAB103_3_3,Length=0.069450000,Units=km
new line.TR10455453 bus1=BMT6716397B.1.2.3,bus2=BMT6716404B.1.2.3,Phases=3,Linecode=CAB103_3_3,Length=0.069378000,Units=km
new line.TR10455460 bus1=BMT6716404B.1.2.3,bus2=BMT102963849.1.2.3,Phases=3,Linecode=CAB103_3_3,Length=0.069450000,Units=km
new line.TR10455467 bus1=BMT102964892.1.2.3,bus2=BMT102964899.1.2.3,Phases=3,Linecode=CAB103_3_3,Length=0.030490000,Units=km
new line.TR10472603 bus1=BMT102965753.1.2.3,bus2=BMT102965760.1.2.3,Phases=3,Linecode=CAB902_4_3,Length=0.011185000,Units=km
new line.TR10595376 bus1=BMT112628350.1.2.3,bus2=BMT6857475B.1.2.3,Phases=3,Linecode=CAB202_3_3,Length=0.120116000,Units=km
new line.TR10595383 bus1=BMT6857475B.1.2.3,bus2=BMT112628357.1.2.3,Phases=3,Linecode=CAB202_3_3,Length=0.174039000,Units=km
new line.TR10595425 bus1=BMT161913173.1.2.3,bus2=BMT161913174.1.2.3,Phases=3,Linecode=CAB902_4_3,Length=0.015658000,Units=km
new line.TR10635346 bus1=BMT2493065B.1.2.3,bus2=BMT151235512.1.2.3,Phases=3,Linecode=CAB202_3_3,Length=0.114043000,Units=km
new line.TR10635353 bus1=BMT151235512.1.2.3,bus2=BMT151235513.1.2.3,Phases=3,Linecode=CAB202_3_3,Length=0.060659000,Units=km
new line.TR10636725 bus1=BMT151235512.3,bus2=BMT6897977B.3,Phases=1,Linecode=CAB202_3_1,Length=0.114056000,Units=km
new line.TR10636739 bus1=BMT6897977B.3,bus2=BMT151235514.3,Phases=1,Linecode=CAB202_3_1,Length=0.133267000,Units=km
new line.TR10643424 bus1=BMT170041449.1.2.3,bus2=BMT1232624C.1.2.3,Phases=3,Linecode=CABA06_3_3,Length=0.027304000,Units=km
new line.TR10712017 bus1=BMT1232624C.1.2.3,bus2=BMT1232631C.1.2.3,Phases=3,Linecode=CABA06_3_3,Length=0.069486000,Units=km
new line.TR10713291 bus1=BMT1232631C.1.2.3,bus2=BMT1232638B.1.2.3,Phases=3,Linecode=CABA06_3_3,Length=0.038846000,Units=km
new line.TR10713305 bus1=BMT1232638B.1.2.3,bus2=BMT6975012B.1.2.3,Phases=3,Linecode=CABA06_3_3,Length=0.051174000,Units=km
new line.TR10843169 bus1=BMT154627194.1.2.3,bus2=BMT102965732.1.2.3,Phases=3,Linecode=CAB103_3_3,Length=0.018391000,Units=km
new line.TR10843323 bus1=BMT102965739.1.2.3,bus2=BMT7095048B.1.2.3,Phases=3,Linecode=CAB902_4_3,Length=0.012046000,Units=km
new line.TR10843337 bus1=BMT7095048B.1.2.3,bus2=BMT102965746.1.2.3,Phases=3,Linecode=CAB902_4_3,Length=0.009223000,Units=km
new line.TR10917488 bus1=BMT116907940.1.2.3,bus2=BMT7159826B.1.2.3,Phases=3,Linecode=CAB107_3_3,Length=0.027668000,Units=km
new line.TR10917495 bus1=BMT7159826B.1.2.3,bus2=BMT6320442B.1.2.3,Phases=3,Linecode=CAB107_3_3,Length=0.034217000,Units=km
new line.TR11251157 bus1=BMT1242375B.1.2.3,bus2=BMT102965928.1.2.3,Phases=3,Linecode=CAB107_3_3,Length=0.048120000,Units=km
new line.TR11251164 bus1=BMT102965928.1.2.3,bus2=BMT1242382B.1.2.3,Phases=3,Linecode=CAB107_3_3,Length=0.020256000,Units=km
new line.TR11374224 bus1=BMT162496654.1.2.3,bus2=BMT1243551B.1.2.3,Phases=3,Linecode=CABA06_3_3,Length=0.033627000,Units=km
new line.TR11374231 bus1=BMT1243551B.1.2.3,bus2=BMT1243544B.1.2.3,Phases=3,Linecode=CABA06_3_3,Length=0.028435000,Units=km
new line.TR11374238 bus1=BMT1243544B.1.2.3,bus2=BMT162496656.1.2.3,Phases=3,Linecode=CABA06_3_3,Length=0.035240000,Units=km
new line.TR11377801 bus1=BMT163695779.1.2.3,bus2=BMT163695781.1.2.3,Phases=3,Linecode=CAB207_3_3,Length=0.074972000,Units=km
new line.TR11377808 bus1=BMT163695781.1.2.3,bus2=BMT7581345B.1.2.3,Phases=3,Linecode=CAB207_3_3,Length=0.072888000,Units=km
new line.TR11377815 bus1=BMT7581345B.1.2.3,bus2=BMT102963443.1.2.3,Phases=3,Linecode=CAB207_3_3,Length=0.072205000,Units=km
new line.TR11400159 bus1=BMT7605047B.1.2.3,bus2=BMT7605068B.1.2.3,Phases=3,Linecode=CAB207_3_3,Length=0.059569000,Units=km
new line.TR11400166 bus1=BMT2492365B.1.2.3,bus2=BMT7605082B.1.2.3,Phases=3,Linecode=CAB207_3_3,Length=0.057405000,Units=km
new line.TR11400194 bus1=BMT149165724.1.2.3,bus2=BMT7605110B.1.2.3,Phases=3,Linecode=CAB207_3_3,Length=0.046707000,Units=km
new line.TR11400201 bus1=BMT2492365B.1.2.3,bus2=BMT7605110B.1.2.3,Phases=3,Linecode=CAB207_3_3,Length=0.051758000,Units=km
new line.TR11400348 bus1=BMT165431053.1.2.3,bus2=BMT106949467.1.2.3,Phases=3,Linecode=CAB107_3_3,Length=0.104845000,Units=km
new line.TR11400439 bus1=BMT165431963.1.2.3,bus2=BMT102965053.1.2.3,Phases=3,Linecode=CAB107_3_3,Length=0.033313000,Units=km
new line.TR11400922 bus1=BMT165431052.1.2.3,bus2=BMT165431053.1.2.3,Phases=3,Linecode=CAB207_3_3,Length=0.021221000,Units=km
new line.TR11418877 bus1=BMT102966236.1.2.3,bus2=BMT1244104B.1.2.3,Phases=3,Linecode=CAB902_4_3,Length=0.036809000,Units=km
new line.TR11418891 bus1=BMT1244104B.1.2.3,bus2=BMT102966243.1.2.3,Phases=3,Linecode=CAB902_4_3,Length=0.014041000,Units=km
new line.TR11429195 bus1=BMT163904133.1.2.3,bus2=BMT7635301B.1.2.3,Phases=3,Linecode=CAB104_3_3,Length=0.070238000,Units=km
new line.TR11429202 bus1=BMT7635301B.1.2.3,bus2=BMT163904135.1.2.3,Phases=3,Linecode=CAB104_3_3,Length=0.065825000,Units=km
new line.TR11429405 bus1=BMT106929594.1.2.3,bus2=BMT7635378B.1.2.3,Phases=3,Linecode=CAB207_3_3,Length=0.084201000,Units=km
new line.TR11429412 bus1=BMT2492400B.1.2.3,bus2=BMT7635378B.1.2.3,Phases=3,Linecode=CAB207_3_3,Length=0.135194000,Units=km
new line.TR11429517 bus1=BMT7635448B.1.2.3,bus2=BMT163695779.1.2.3,Phases=3,Linecode=CAB207_3_3,Length=0.063677000,Units=km
new line.TR11429531 bus1=BMT7635448B.1.2.3,bus2=BMT7635455B.1.2.3,Phases=3,Linecode=CAB207_3_3,Length=0.067965000,Units=km
new line.TR11429538 bus1=BMT3481458B.1.2.3,bus2=BMT7635462B.1.2.3,Phases=3,Linecode=CAB207_3_3,Length=0.062990000,Units=km
new line.TR11429545 bus1=BMT7635462B.1.2.3,bus2=BMT7635455B.1.2.3,Phases=3,Linecode=CAB207_3_3,Length=0.060129000,Units=km
new line.TR11429552 bus1=BMT163695923.1.2.3,bus2=BMT102963408.1.2.3,Phases=3,Linecode=CAB107_3_3,Length=0.028312000,Units=km
new line.TR11430063 bus1=BMT163695922.1.2.3,bus2=BMT7635728B.1.2.3,Phases=3,Linecode=CAB207_3_3,Length=0.063536000,Units=km
new line.TR11430070 bus1=BMT7635728B.1.2.3,bus2=BMT163695923.1.2.3,Phases=3,Linecode=CAB207_3_3,Length=0.057326000,Units=km
new line.TR11430217 bus1=BMT163695778.1.2.3,bus2=BMT3481458B.1.2.3,Phases=3,Linecode=CAB207_3_3,Length=0.042027000,Units=km
new line.TR11460394 bus1=BMT157790064.1.2.3,bus2=BMT3201178C.1.2.3,Phases=3,Linecode=CABA08_3_3,Length=0.078058000,Units=km
new line.TR11460401 bus1=BMT3201178C.1.2.3,bus2=BMT3201171C.1.2.3,Phases=3,Linecode=CABA08_3_3,Length=0.064029000,Units=km
new line.TR11460408 bus1=BMT3201171C.1.2.3,bus2=BMT3069340C.1.2.3,Phases=3,Linecode=CABA08_3_3,Length=0.071200000,Units=km
new line.TR11460429 bus1=BMT3069340C.1.2.3,bus2=BMT7662475C.1.2.3,Phases=3,Linecode=CABA08_3_3,Length=0.032707000,Units=km
new line.TR11460436 bus1=BMT7662475C.1.2.3,bus2=BMT3201164C.1.2.3,Phases=3,Linecode=CABA08_3_3,Length=0.033253000,Units=km
new line.TR11460499 bus1=BMT3201164C.1.2.3,bus2=BMT7662496C.1.2.3,Phases=3,Linecode=CABA08_3_3,Length=0.028802000,Units=km
new line.TR11460506 bus1=BMT7662496C.1.2.3,bus2=BMT3201157C.1.2.3,Phases=3,Linecode=CABA08_3_3,Length=0.034797000,Units=km
new line.TR11460527 bus1=BMT3201157C.1.2.3,bus2=BMT7662503C.1.2.3,Phases=3,Linecode=CABA08_3_3,Length=0.028470000,Units=km
new line.TR11460534 bus1=BMT7662503C.1.2.3,bus2=BMT3201150C.1.2.3,Phases=3,Linecode=CABA08_3_3,Length=0.024360000,Units=km
new line.TR11460555 bus1=BMT3201150C.1.2.3,bus2=BMT7662510C.1.2.3,Phases=3,Linecode=CABA08_3_3,Length=0.020256000,Units=km
new line.TR11460576 bus1=BMT7662510C.1.2.3,bus2=BMT7662517C.1.2.3,Phases=3,Linecode=CABA08_3_3,Length=0.018980000,Units=km
new line.TR11460611 bus1=BMT7662517C.1.2.3,bus2=BMT7662524C.1.2.3,Phases=3,Linecode=CABA08_3_3,Length=0.023418000,Units=km
new line.TR11460625 bus1=BMT7662524C.1.2.3,bus2=BMT157790065.1.2.3,Phases=3,Linecode=CABA08_3_3,Length=0.026580000,Units=km
new line.TR11460646 bus1=BMT157790067.1.2.3,bus2=BMT102962638.1.2.3,Phases=3,Linecode=CABA06_3_3,Length=0.031586000,Units=km
new line.TR11460674 bus1=BMT157790065.1.2.3,bus2=BMT3201143C.1.2.3,Phases=3,Linecode=CABA08_3_3,Length=0.038288000,Units=km
new line.TR11460716 bus1=BMT3201143C.1.2.3,bus2=BMT3201136C.1.2.3,Phases=3,Linecode=CABA08_3_3,Length=0.041451000,Units=km
new line.TR11461353 bus1=BMT169104656.1.2.3,bus2=BMT169104657.1.2.3,Phases=3,Linecode=CABA08_3_3,Length=0.010821000,Units=km
new line.TR11482668 bus1=BMT3201136C.1.2.3,bus2=BMT3201129C.1.2.3,Phases=3,Linecode=CABA08_3_3,Length=0.044026000,Units=km
new line.TR11482675 bus1=BMT3201129C.1.2.3,bus2=BMT3201122C.1.2.3,Phases=3,Linecode=CABA08_3_3,Length=0.050346000,Units=km
new line.TR11483102 bus1=BMT157790066.1.2.3,bus2=BMT7689999C.1.2.3,Phases=3,Linecode=CABA08_3_3,Length=0.028470000,Units=km
new line.TR11483109 bus1=BMT7689999C.1.2.3,bus2=BMT3201108C.1.2.3,Phases=3,Linecode=CABA08_3_3,Length=0.026580000,Units=km
new line.TR11483130 bus1=BMT3201108C.1.2.3,bus2=BMT7690013C.1.2.3,Phases=3,Linecode=CABA08_3_3,Length=0.029742000,Units=km
new line.TR11483137 bus1=BMT7690013C.1.2.3,bus2=BMT3201101C.1.2.3,Phases=3,Linecode=CABA08_3_3,Length=0.027523000,Units=km
new line.TR11483158 bus1=BMT3201101C.1.2.3,bus2=BMT7690034C.1.2.3,Phases=3,Linecode=CABA08_3_3,Length=0.031964000,Units=km
new line.TR11483165 bus1=BMT7690034C.1.2.3,bus2=BMT3201094C.1.2.3,Phases=3,Linecode=CABA08_3_3,Length=0.033849000,Units=km
new line.TR11483186 bus1=BMT3201094C.1.2.3,bus2=BMT7690048C.1.2.3,Phases=3,Linecode=CABA08_3_3,Length=0.032905000,Units=km
new line.TR11483193 bus1=BMT7690048C.1.2.3,bus2=BMT3201087C.1.2.3,Phases=3,Linecode=CABA08_3_3,Length=0.032905000,Units=km
new line.TR11483214 bus1=BMT3201087C.1.2.3,bus2=BMT7690062C.1.2.3,Phases=3,Linecode=CABA08_3_3,Length=0.030686000,Units=km
new line.TR11483228 bus1=BMT7690062C.1.2.3,bus2=BMT3201080C.1.2.3,Phases=3,Linecode=CABA08_3_3,Length=0.030686000,Units=km
new line.TR11483256 bus1=BMT3201080C.1.2.3,bus2=BMT7690083C.1.2.3,Phases=3,Linecode=CABA08_3_3,Length=0.026580000,Units=km
new line.TR11483270 bus1=BMT7690083C.1.2.3,bus2=BMT3201073C.1.2.3,Phases=3,Linecode=CABA08_3_3,Length=0.027866000,Units=km
new line.TR11483305 bus1=BMT3201073C.1.2.3,bus2=BMT7690090C.1.2.3,Phases=3,Linecode=CABA08_3_3,Length=0.032707000,Units=km
new line.TR11483312 bus1=BMT7690090C.1.2.3,bus2=BMT3201066C.1.2.3,Phases=3,Linecode=CABA08_3_3,Length=0.028170000,Units=km
new line.TR11483431 bus1=BMT3201066C.1.2.3,bus2=BMT7690160C.1.2.3,Phases=3,Linecode=CABA08_3_3,Length=0.033538000,Units=km
new line.TR11483438 bus1=BMT7690160C.1.2.3,bus2=BMT3169524C.1.2.3,Phases=3,Linecode=CABA08_3_3,Length=0.042394000,Units=km
new line.TR11483480 bus1=BMT3169517C.1.2.3,bus2=BMT7690223C.1.2.3,Phases=3,Linecode=CABA08_3_3,Length=0.025504000,Units=km
new line.TR11483487 bus1=BMT7690223C.1.2.3,bus2=BMT157790068.1.2.3,Phases=3,Linecode=CABA08_3_3,Length=0.025504000,Units=km
new line.TR11483494 bus1=BMT157790068.1.2.3,bus2=BMT3169510C.1.2.3,Phases=3,Linecode=CABA08_3_3,Length=0.055191000,Units=km
new line.TR11483536 bus1=BMT3169510C.1.2.3,bus2=BMT7690251C.1.2.3,Phases=3,Linecode=CABA08_3_3,Length=0.026917000,Units=km
new line.TR11483543 bus1=BMT7690251C.1.2.3,bus2=BMT3169503C.1.2.3,Phases=3,Linecode=CABA08_3_3,Length=0.028329000,Units=km
new line.TR11483627 bus1=BMT3169503C.1.2.3,bus2=BMT7690279C.1.2.3,Phases=3,Linecode=CABA08_3_3,Length=0.028329000,Units=km
new line.TR11483837 bus1=BMT7690279C.1.2.3,bus2=BMT3069403C.1.2.3,Phases=3,Linecode=CABA08_3_3,Length=0.038223000,Units=km
new line.TR11483991 bus1=BMT3069403C.1.2.3,bus2=BMT7690461C.1.2.3,Phases=3,Linecode=CABA08_3_3,Length=0.028329000,Units=km
new line.TR11483998 bus1=BMT7690461C.1.2.3,bus2=BMT157790069.1.2.3,Phases=3,Linecode=CABA08_3_3,Length=0.029742000,Units=km
new line.TR11484019 bus1=BMT157790069.1.2.3,bus2=BMT7690468C.1.2.3,Phases=3,Linecode=CABA08_3_3,Length=0.029742000,Units=km
new line.TR11484026 bus1=BMT7690468C.1.2.3,bus2=BMT3169489C.1.2.3,Phases=3,Linecode=CABA08_3_3,Length=0.029742000,Units=km
new line.TR11484047 bus1=BMT3169489C.1.2.3,bus2=BMT7690496C.1.2.3,Phases=3,Linecode=CABA08_3_3,Length=0.030490000,Units=km
new line.TR11484054 bus1=BMT7690496C.1.2.3,bus2=BMT3169482C.1.2.3,Phases=3,Linecode=CABA08_3_3,Length=0.031156000,Units=km
new line.TR11484075 bus1=BMT3169482C.1.2.3,bus2=BMT7690895C.1.2.3,Phases=3,Linecode=CABA08_3_3,Length=0.028329000,Units=km
new line.TR11484082 bus1=BMT7690895C.1.2.3,bus2=BMT3169475C.1.2.3,Phases=3,Linecode=CABA08_3_3,Length=0.032569000,Units=km
new line.TR11484103 bus1=BMT3169475C.1.2.3,bus2=BMT7690902C.1.2.3,Phases=3,Linecode=CABA08_3_3,Length=0.029421000,Units=km
new line.TR11484117 bus1=BMT7690902C.1.2.3,bus2=BMT3169468C.1.2.3,Phases=3,Linecode=CABA08_3_3,Length=0.028028000,Units=km
new line.TR11489409 bus1=BMT167511074.1.2.3,bus2=BMT7696110B.1.2.3,Phases=3,Linecode=CAB107_3_3,Length=0.056456000,Units=km
new line.TR11489416 bus1=BMT7696110B.1.2.3,bus2=BMT102963569.1.2.3,Phases=3,Linecode=CAB107_3_3,Length=0.057448000,Units=km
new line.TR11489486 bus1=BMT163694345.1.2.3,bus2=BMT102963527.1.2.3,Phases=3,Linecode=CAB207_3_3,Length=0.044118000,Units=km
new line.TR11489493 bus1=BMT171255432.1.2.3,bus2=BMT171255433.1.2.3,Phases=3,Linecode=CAB202_3_3,Length=0.046889000,Units=km
new line.TR11489556 bus1=BMT7696264B.1.2.3,bus2=BMT167511074.1.2.3,Phases=3,Linecode=CAB107_3_3,Length=0.057891000,Units=km
new line.TR11489584 bus1=BMT7696278B.1.2.3,bus2=BMT129297289.1.2.3,Phases=3,Linecode=CAB107_3_3,Length=0.056340000,Units=km
new line.TR11489598 bus1=BMT2492491B.1.2.3,bus2=BMT7696327B.1.2.3,Phases=3,Linecode=CAB107_3_3,Length=0.063528000,Units=km
new line.TR11489605 bus1=BMT7696278B.1.2.3,bus2=BMT7696327B.1.2.3,Phases=3,Linecode=CAB107_3_3,Length=0.091579000,Units=km
new line.TR11489829 bus1=BMT7696614B.1.2.3,bus2=BMT3415287B.1.2.3,Phases=3,Linecode=CAB207_3_3,Length=0.060096000,Units=km
new line.TR11489843 bus1=BMT3659223B.1.2.3,bus2=BMT163695782.1.2.3,Phases=3,Linecode=CAB207_3_3,Length=0.071137000,Units=km
new line.TR11489850 bus1=BMT163695782.1.2.3,bus2=BMT7696614B.1.2.3,Phases=3,Linecode=CAB207_3_3,Length=0.058235000,Units=km
new line.TR11489857 bus1=BMT163695782.1.2.3,bus2=BMT163695783.1.2.3,Phases=3,Linecode=CAB103_3_3,Length=0.004002000,Units=km
new line.TR11513902 bus1=BMT3169468C.1.2.3,bus2=BMT7690944C.1.2.3,Phases=3,Linecode=CABA08_3_3,Length=0.024175000,Units=km
new line.TR11513930 bus1=BMT7690944C.1.2.3,bus2=BMT157790071.1.2.3,Phases=3,Linecode=CABA08_3_3,Length=0.034026000,Units=km
new line.TR11513937 bus1=BMT157790071.1.2.3,bus2=BMT3169440C.1.2.3,Phases=3,Linecode=CABA08_3_3,Length=0.049666000,Units=km
new line.TR11514042 bus1=BMT3169440C.1.2.3,bus2=BMT7726623C.1.2.3,Phases=3,Linecode=CABA08_3_3,Length=0.033072000,Units=km
new line.TR11514049 bus1=BMT7726623C.1.2.3,bus2=BMT3169426C.1.2.3,Phases=3,Linecode=CABA08_3_3,Length=0.034144000,Units=km
new line.TR11514070 bus1=BMT3169426C.1.2.3,bus2=BMT7726630C.1.2.3,Phases=3,Linecode=CABA08_3_3,Length=0.026086000,Units=km
new line.TR11514098 bus1=BMT7726630C.1.2.3,bus2=BMT103887961.1.2.3,Phases=3,Linecode=CABA08_3_3,Length=0.029079000,Units=km
new line.TR11514119 bus1=BMT163040190.1.2.3,bus2=BMT7726637C.1.2.3,Phases=3,Linecode=CABA08_3_3,Length=0.030077000,Units=km
new line.TR11514126 bus1=BMT7726637C.1.2.3,bus2=BMT163040192.1.2.3,Phases=3,Linecode=CABA08_3_3,Length=0.033148000,Units=km
new line.TR11514140 bus1=BMT2520778C.1.2.3,bus2=BMT169104656.1.2.3,Phases=3,Linecode=CABA08_3_3,Length=0.038092000,Units=km
new line.TR11514147 bus1=BMT157790065.1.2.3,bus2=BMT157790067.1.2.3,Phases=3,Linecode=CABA08_3_3,Length=0.025504000,Units=km
new line.TR11535742 bus1=BMT163040192.1.2.3,bus2=BMT7745964C.1.2.3,Phases=3,Linecode=CABA08_3_3,Length=0.027028000,Units=km
new line.TR11535749 bus1=BMT7745964C.1.2.3,bus2=BMT3169412C.1.2.3,Phases=3,Linecode=CABA08_3_3,Length=0.030160000,Units=km
new line.TR11535756 bus1=BMT3169412C.1.2.3,bus2=BMT7745971C.1.2.3,Phases=3,Linecode=CABA08_3_3,Length=0.032027000,Units=km
new line.TR11535763 bus1=BMT7745971C.1.2.3,bus2=BMT3169405C.1.2.3,Phases=3,Linecode=CABA08_3_3,Length=0.028028000,Units=km
new line.TR11535770 bus1=BMT3169405C.1.2.3,bus2=BMT3169398C.1.2.3,Phases=3,Linecode=CABA08_3_3,Length=0.042770000,Units=km
new line.TR11535777 bus1=BMT3169398C.1.2.3,bus2=BMT3169391C.1.2.3,Phases=3,Linecode=CABA08_3_3,Length=0.034217000,Units=km
new line.TR11535784 bus1=BMT3169391C.1.2.3,bus2=BMT7745978C.1.2.3,Phases=3,Linecode=CABA08_3_3,Length=0.034026000,Units=km
new line.TR11535791 bus1=BMT7745978C.1.2.3,bus2=BMT3169384C.1.2.3,Phases=3,Linecode=CABA08_3_3,Length=0.040263000,Units=km
new line.TR11535805 bus1=BMT3169377C.1.2.3,bus2=BMT1236047C.1.2.3,Phases=3,Linecode=CABA08_3_3,Length=0.031634000,Units=km
new line.TR11535812 bus1=BMT1236047C.1.2.3,bus2=BMT163040193.1.2.3,Phases=3,Linecode=CABA08_3_3,Length=0.036632000,Units=km
new line.TR11535833 bus1=BMT163040193.1.2.3,bus2=BMT3552375.1.2.3,Phases=3,Linecode=CABA08_3_3,Length=0.021641000,Units=km
new line.TR11535896 bus1=BMT3169314B.1.2.3,bus2=BMT7745999B.1.2.3,Phases=3,Linecode=CABA08_3_3,Length=0.023353000,Units=km
new line.TR11535903 bus1=BMT3169307B.1.2.3,bus2=BMT7745999B.1.2.3,Phases=3,Linecode=CABA08_3_3,Length=0.024050000,Units=km
new line.TR11553893 bus1=BMT1236978C.1.2.3,bus2=BMT1236985C.1.2.3,Phases=3,Linecode=CABA08_3_3,Length=0.036262000,Units=km
new line.TR11553907 bus1=BMT1236964C.1.2.3,bus2=BMT1236971C.1.2.3,Phases=3,Linecode=CABA08_3_3,Length=0.033538000,Units=km
new line.TR11553914 bus1=BMT1236971C.1.2.3,bus2=BMT1236978C.1.2.3,Phases=3,Linecode=CABA08_3_3,Length=0.034494000,Units=km
new line.TR11553956 bus1=BMT1236950C.1.2.3,bus2=BMT153294065.1.2.3,Phases=3,Linecode=CABA08_3_3,Length=0.036068000,Units=km
new line.TR11553963 bus1=BMT153294065.1.2.3,bus2=BMT1236964C.1.2.3,Phases=3,Linecode=CABA08_3_3,Length=0.036413000,Units=km
new line.TR11553977 bus1=BMT1236929C.1.2.3,bus2=BMT1236915C.1.2.3,Phases=3,Linecode=CABA08_3_3,Length=0.036026000,Units=km
new line.TR11553984 bus1=BMT1236915C.1.2.3,bus2=BMT1236922C.1.2.3,Phases=3,Linecode=CABA08_3_3,Length=0.032027000,Units=km
new line.TR11553991 bus1=BMT1236922C.1.2.3,bus2=BMT1236943C.1.2.3,Phases=3,Linecode=CABA08_3_3,Length=0.035183000,Units=km
new line.TR11553998 bus1=BMT1236943C.1.2.3,bus2=BMT1236950C.1.2.3,Phases=3,Linecode=CABA08_3_3,Length=0.035126000,Units=km
new line.TR11554012 bus1=BMT1236901B.1.2.3,bus2=BMT105693177.1.2.3,Phases=3,Linecode=CABA08_3_3,Length=0.024050000,Units=km
new line.TR11554019 bus1=BMT105693177.1.2.3,bus2=BMT1236936C.1.2.3,Phases=3,Linecode=CABA08_3_3,Length=0.030605000,Units=km
new line.TR11554026 bus1=BMT1236936C.1.2.3,bus2=BMT1236929C.1.2.3,Phases=3,Linecode=CABA08_3_3,Length=0.035026000,Units=km
new line.TR11554033 bus1=BMT170041448.1.2.3,bus2=BMT7761623B.1.2.3,Phases=3,Linecode=CABA08_3_3,Length=0.016559000,Units=km
new line.TR11554040 bus1=BMT7761623B.1.2.3,bus2=BMT7761644B.1.2.3,Phases=3,Linecode=CABA08_3_3,Length=0.027902000,Units=km
new line.TR11554047 bus1=BMT7761644B.1.2.3,bus2=BMT7761637B.1.2.3,Phases=3,Linecode=CABA08_3_3,Length=0.026009000,Units=km
new line.TR11554054 bus1=BMT7761637B.1.2.3,bus2=BMT7761651B.1.2.3,Phases=3,Linecode=CABA08_3_3,Length=0.033746000,Units=km
new line.TR11554061 bus1=BMT7761651B.1.2.3,bus2=BMT170041449.1.2.3,Phases=3,Linecode=CABA08_3_3,Length=0.030424000,Units=km
new line.TR11554089 bus1=BMT1235809B.1.2.3,bus2=BMT153294064.1.2.3,Phases=3,Linecode=CAB108_3_3,Length=0.024360000,Units=km
new line.TR11554096 bus1=BMT153294064.1.2.3,bus2=BMT1236901B.1.2.3,Phases=3,Linecode=CABA08_3_3,Length=0.021221000,Units=km
new line.TR11556658 bus1=BMT102965151.1.2.3,bus2=BMT102963387.1.2.3,Phases=3,Linecode=CAB107_3_3,Length=0.054222000,Units=km
new line.TR11563259 bus1=BMT169104657.1.2.3,bus2=BMT166628743.1.2.3,Phases=3,Linecode=CABA08_3_3,Length=0.018034000,Units=km
new line.TR11563630 bus1=BMT2520778B.1.2.3,bus2=BMT2520778C.1.2.3,Phases=3,Linecode=CABA08_3_3,Length=0.000501000,Units=km
new line.TR11563658 bus1=BMT169103817.1.2.3,bus2=BMT7769036B.1.2.3,Phases=3,Linecode=CABA08_3_3,Length=0.010004000,Units=km
new line.TR11563840 bus1=BMT4056445B.1.2.3,bus2=BMT7769092B.1.2.3,Phases=3,Linecode=CABA08_3_3,Length=0.015817000,Units=km
new line.TR11575047 bus1=BMT149165724.1.2.3,bus2=BMT7778710B.1.2.3,Phases=3,Linecode=CAB207_3_3,Length=0.065818000,Units=km
new line.TR11575054 bus1=BMT7778710B.1.2.3,bus2=BMT149165725.1.2.3,Phases=3,Linecode=CAB207_3_3,Length=0.056659000,Units=km
new line.TR11575096 bus1=BMT7605068B.1.2.3,bus2=BMT7778850B.1.2.3,Phases=3,Linecode=CAB207_3_3,Length=0.062311000,Units=km
new line.TR11575103 bus1=BMT7605082B.1.2.3,bus2=BMT7778850B.1.2.3,Phases=3,Linecode=CAB207_3_3,Length=0.061641000,Units=km
new line.TR11575229 bus1=BMT7605047B.1.2.3,bus2=BMT106943118.1.2.3,Phases=3,Linecode=CAB207_3_3,Length=0.060849000,Units=km
new line.TR11575236 bus1=BMT163696007.1.2.3,bus2=BMT2492372B.1.2.3,Phases=3,Linecode=CAB207_3_3,Length=0.031839000,Units=km
new line.TR11575271 bus1=BMT2492372B.1.2.3,bus2=BMT7779109B.1.2.3,Phases=3,Linecode=CAB207_3_3,Length=0.028294000,Units=km
new line.TR11575278 bus1=BMT7779109B.1.2.3,bus2=BMT163696008.1.2.3,Phases=3,Linecode=CAB207_3_3,Length=0.056588000,Units=km
new line.TR11575285 bus1=BMT163696008.1.2.3,bus2=BMT7779165B.1.2.3,Phases=3,Linecode=CAB207_3_3,Length=0.078672000,Units=km
new line.TR11575292 bus1=BMT7779165B.1.2.3,bus2=BMT2492435B.1.2.3,Phases=3,Linecode=CAB207_3_3,Length=0.075954000,Units=km
new line.TR11575299 bus1=BMT149165722.1.2.3,bus2=BMT7779193B.1.2.3,Phases=3,Linecode=CAB207_3_3,Length=0.067291000,Units=km
new line.TR11575306 bus1=BMT7779193B.1.2.3,bus2=BMT149165724.1.2.3,Phases=3,Linecode=CAB207_3_3,Length=0.067291000,Units=km
new line.TR11575327 bus1=BMT3137744B.1.2.3,bus2=BMT7779249B.1.2.3,Phases=3,Linecode=CAB207_3_3,Length=0.065970000,Units=km
new line.TR11575334 bus1=BMT3137730B.1.2.3,bus2=BMT7779249B.1.2.3,Phases=3,Linecode=CAB207_3_3,Length=0.040474000,Units=km
new line.TR11575418 bus1=BMT3137744B.1.2.3,bus2=BMT149165721.1.2.3,Phases=3,Linecode=CAB207_3_3,Length=0.059686000,Units=km
new line.TR11575467 bus1=BMT149165720.1.2.3,bus2=BMT149165721.1.2.3,Phases=3,Linecode=CAB107_3_3,Length=0.069680000,Units=km
new line.TR11575817 bus1=BMT3659160B.1.2.3,bus2=BMT7779760B.1.2.3,Phases=3,Linecode=CAB207_3_3,Length=0.061029000,Units=km
new line.TR11575824 bus1=BMT3659167B.1.2.3,bus2=BMT7779760B.1.2.3,Phases=3,Linecode=CAB207_3_3,Length=0.060029000,Units=km
new line.TR11581501 bus1=BMT1236992B.1.2.3,bus2=BMT107406952.1.2.3,Phases=3,Linecode=CABA08_3_3,Length=0.020032000,Units=km
new line.TR11581508 bus1=BMT107406952.1.2.3,bus2=BMT153294615.1.2.3,Phases=3,Linecode=CABA08_3_3,Length=0.024008000,Units=km
new line.TR11581550 bus1=BMT1236985C.1.2.3,bus2=BMT107407470.1.2.3,Phases=3,Linecode=CABA08_3_3,Length=0.022098000,Units=km
new line.TR11581557 bus1=BMT153294614.1.2.3,bus2=BMT1236992B.1.2.3,Phases=3,Linecode=CABA08_3_3,Length=0.023095000,Units=km
new line.TR11582558 bus1=BMT154627192.1.2.3,bus2=BMT7785738B.1.2.3,Phases=3,Linecode=CAB202_3_3,Length=0.021102000,Units=km
new line.TR11582565 bus1=BMT2938503B.1.2.3,bus2=BMT7785738B.1.2.3,Phases=3,Linecode=CAB202_3_3,Length=0.060394000,Units=km
new line.TR11591945 bus1=BMT151949168.1,bus2=BMT7794796B.1,Phases=1,Linecode=CAB202_3_1,Length=0.063347000,Units=km
new line.TR11591952 bus1=BMT7794796B.1,bus2=BMT151949169.1,Phases=1,Linecode=CAB202_3_1,Length=0.062416000,Units=km
new line.TR11592071 bus1=BMT163694677.1.2.3,bus2=BMT163694678.1.2.3,Phases=3,Linecode=CAB107_3_3,Length=0.058961000,Units=km
new line.TR11592078 bus1=BMT102963569.1.2.3,bus2=BMT152984135.1.2.3,Phases=3,Linecode=CAB107_3_3,Length=0.074491000,Units=km
new line.TR11625797 bus1=BMT3201122C.1.2.3,bus2=BMT157790066.1.2.3,Phases=3,Linecode=CABA08_3_3,Length=0.051941000,Units=km
new line.TR11626189 bus1=BMT3169524C.1.2.3,bus2=BMT7826016C.1.2.3,Phases=3,Linecode=CABA08_3_3,Length=0.015817000,Units=km
new line.TR11626196 bus1=BMT3169517C.1.2.3,bus2=BMT7826016C.1.2.3,Phases=3,Linecode=CABA08_3_3,Length=0.020816000,Units=km
new line.TR11651858 bus1=BMT3169384C.1.2.3,bus2=BMT7846785C.1.2.3,Phases=3,Linecode=CABA08_3_3,Length=0.024707000,Units=km
new line.TR11651865 bus1=BMT7846785C.1.2.3,bus2=BMT3169377C.1.2.3,Phases=3,Linecode=CABA08_3_3,Length=0.027469000,Units=km
new line.TR11653692 bus1=BMT3189397B.1.2.3,bus2=BMT163040194.1.2.3,Phases=3,Linecode=CABA08_3_3,Length=0.022480000,Units=km
new line.TR11653699 bus1=BMT163040194.1.2.3,bus2=BMT2697689B.1.2.3,Phases=3,Linecode=CABA08_3_3,Length=0.012211000,Units=km
new line.TR11653706 bus1=BMT163040194.1.2.3,bus2=BMT163040195.1.2.3,Phases=3,Linecode=CABA08_3_3,Length=0.048286000,Units=km
new line.TR11663863 bus1=BMT171255440.3,bus2=BMT7857236B.3,Phases=1,Linecode=CAB103_3_1,Length=0.019806000,Units=km
new line.TR11663898 bus1=BMT7857236B.3,bus2=BMT7857250B.3,Phases=1,Linecode=CAB103_3_1,Length=0.055993000,Units=km
new line.TR11663905 bus1=BMT7857250B.3,bus2=BMT7857257B.3,Phases=1,Linecode=CAB103_3_1,Length=0.050347000,Units=km
new line.TR11663912 bus1=BMT7857257B.3,bus2=BMT171255442.3,Phases=1,Linecode=CAB103_3_1,Length=0.057405000,Units=km
new line.TR11729677 bus1=BMT3652965C.1.2.3,bus2=BMT6323543C.1.2.3,Phases=3,Linecode=CABA08_3_3,Length=0.044793000,Units=km
new line.TR11729684 bus1=BMT6323543C.1.2.3,bus2=BMT3652979C.1.2.3,Phases=3,Linecode=CABA08_3_3,Length=0.039409000,Units=km
new line.TR11729691 bus1=BMT3652979C.1.2.3,bus2=BMT6323515C.1.2.3,Phases=3,Linecode=CABA08_3_3,Length=0.039409000,Units=km