new line.RML10096858 bus1=BBT4146745.3.0,bus2=RML1060096858.3.0,Phases=1,Linecode=CABBTG02_4_1,Length=0.017000000,Units=km
new line.RML10097065 bus1=BBT3233819.2.3.0,bus2=RML1060097065.2.3.0,Phases=2,Linecode=CABBTG05_4_2,Length=0.017000000,Units=km
new line.RML10174649 bus1=BBT5388552.1.2.3.0,bus2=RML1060174649.1.2.3.0,Phases=3,Linecode=CABBTG06_4_3,Length=0.017000000,Units=km
new line.RML10176119 bus1=BBT1418033.1.2.0,bus2=RML1060176119.1.2.0,Phases=2,Linecode=CABBTG05_4_2,Length=0.017000000,Units=km
new line.RML10246618 bus1=BBT3284590.1.2.3.0,bus2=RML1060246618.1.2.3.0,Phases=3,Linecode=CABBTG06_4_3,Length=0.017000000,Units=km
new line.RML10248136 bus1=BBT1414225.2.0,bus2=RML1060248136.2.0,Phases=1,Linecode=CABBTG02_4_1,Length=0.017000000,Units=km
new line.RML10248459 bus1=BBT5029935.1.2.3.0,bus2=RML1060248459.1.2.3.0,Phases=3,Linecode=CABBTG08_4_3,Length=0.017000000,Units=km
new line.RML10248676 bus1=BBT1450212.2.3.0,bus2=RML1060248676.2.3.0,Phases=2,Linecode=CABBTG13_4_2,Length=0.017000000,Units=km
new line.RML10250762 bus1=BBT55148025.1.2.0,bus2=RML1060250762.1.2.0,Phases=2,Linecode=CABBTG13_4_2,Length=0.017000000,Units=km
new line.RML10250775 bus1=BBT1415723.1.2.0,bus2=RML1060250775.1.2.0,Phases=2,Linecode=CABBTG13_4_2,Length=0.017000000,Units=km
new line.RML10250779 bus1=BBT3233728.2.0,bus2=RML1060250779.2.0,Phases=1,Linecode=CABBTG02_4_1,Length=0.017000000,Units=km
new line.RML10250783 bus1=BBT3233819.1.2.0,bus2=RML1060250783.1.2.0,Phases=2,Linecode=CABBTG13_4_2,Length=0.017000000,Units=km
new line.RML10250789 bus1=BBT3644334.2.0,bus2=RML1060250789.2.0,Phases=1,Linecode=CABBTG02_4_1,Length=0.017000000,Units=km
new line.RML10250796 bus1=BBT3233833.2.0,bus2=RML1060250796.2.0,Phases=1,Linecode=CABBTG02_4_1,Length=0.017000000,Units=km
new line.RML10369047 bus1=BBT3477426.2.0,bus2=RML1060369047.2.0,Phases=1,Linecode=CABBTG02_4_1,Length=0.017000000,Units=km
new line.RML10370203 bus1=BBT4146724.1.0,bus2=RML1060370203.1.0,Phases=1,Linecode=CABBTG02_4_1,Length=0.017000000,Units=km
new line.RML10370208 bus1=BBT12353007.2.0,bus2=RML1060370208.2.0,Phases=1,Linecode=CABBTG02_4_1,Length=0.017000000,Units=km
new line.RML10429303 bus1=BBT5029935.1.2.3.0,bus2=RML1060429303.1.2.3.0,Phases=3,Linecode=CABBTG06_4_3,Length=0.017000000,Units=km
new line.RML10495239 bus1=BBT36118742.1.0,bus2=RML1060495239.1.0,Phases=1,Linecode=CABBTG02_4_1,Length=0.017000000,Units=km
new line.RML10817143 bus1=BBT3644355.2.0,bus2=RML1060817143.2.0,Phases=1,Linecode=CABBTG02_4_1,Length=0.016000000,Units=km
new line.RML10875395 bus1=BBT169941973.1.0,bus2=RML1060875395.1.0,Phases=1,Linecode=CABBTG02_4_1,Length=0.017000000,Units=km
new line.RML10876077 bus1=BBT42459405.1.2.0,bus2=RML1060876077.1.2.0,Phases=2,Linecode=CABBTG05_4_2,Length=0.017000000,Units=km
new line.RML10876143 bus1=BBT50885025.1.2.3.0,bus2=RML1060876143.1.2.3.0,Phases=3,Linecode=CABBTG06_4_3,Length=0.017000000,Units=km
new line.RML10876181 bus1=BBT1434777.1.2.0,bus2=RML1060876181.1.2.0,Phases=2,Linecode=CABBTG05_4_2,Length=0.017000000,Units=km
new line.RML11026268 bus1=BBT55147080.1.0,bus2=RML1061026268.1.0,Phases=1,Linecode=CABBT802_4_1,Length=0.014000000,Units=km
new line.RML2272033 bus1=BBT1231826.1.2.3.0,bus2=RML1052272033.1.2.3.0,Phases=3,Linecode=CABBTG07_4_3,Length=0.017000000,Units=km
new line.RML2272075 bus1=BBT1232050.1.2.3.0,bus2=RML1052272075.1.2.3.0,Phases=3,Linecode=CABBTG07_4_3,Length=0.017000000,Units=km
new line.RML2272593 bus1=BBT1232568.1.2.0,bus2=RML1052272593.1.2.0,Phases=2,Linecode=CABBTG05_4_2,Length=0.017000000,Units=km
new line.RML2272600 bus1=BBT3547825.1.2.0,bus2=RML1052272600.1.2.0,Phases=2,Linecode=CABBTG05_4_2,Length=0.017000000,Units=km
new line.RML2273510 bus1=BBT1233492.1.2.3.0,bus2=RML1052273510.1.2.3.0,Phases=3,Linecode=CABBTG07_4_3,Length=0.017000000,Units=km
new line.RML2273517 bus1=BBT1233534.1.2.0,bus2=RML1052273517.1.2.0,Phases=2,Linecode=CABBTG05_4_2,Length=0.017000000,Units=km
new line.RML2274042 bus1=BBT1422275.1.2.0,bus2=RML1052274042.1.2.0,Phases=2,Linecode=CABBTG05_4_2,Length=0.017000000,Units=km
new line.RML2275295 bus1=BBT1233828.1.2.3.0,bus2=RML1052275295.1.2.3.0,Phases=3,Linecode=CABBTG07_4_3,Length=0.017000000,Units=km
new line.RML2275316 bus1=BBT1233870.1.2.3.0,bus2=RML1052275316.1.2.3.0,Phases=3,Linecode=CABBTG07_4_3,Length=0.017000000,Units=km
new line.RML2275701 bus1=BBT1234164.1.2.0,bus2=RML1052275701.1.2.0,Phases=2,Linecode=CABBTG05_4_2,Length=0.017000000,Units=km
new line.RML2539846 bus1=BBT153979279.1.2.3.0,bus2=RML1052539846.1.2.3.0,Phases=3,Linecode=CABBTG07_4_3,Length=0.017000000,Units=km
new line.RML2540959 bus1=BBT3233840.1.0,bus2=RML1052540959.1.0,Phases=1,Linecode=CABBTG01_4_1,Length=0.017000000,Units=km
new line.RML2540966 bus1=BBT3233693.1.2.3.0,bus2=RML1052540966.1.2.3.0,Phases=3,Linecode=CABBTG06_4_3,Length=0.017000000,Units=km
new line.RML2541085 bus1=BBT1414232.1.2.0,bus2=RML1052541085.1.2.0,Phases=2,Linecode=CABBTG05_4_2,Length=0.017000000,Units=km
new line.RML2541092 bus1=BBT1414232.2.0,bus2=RML1052541092.2.0,Phases=1,Linecode=CABBTG01_4_1,Length=0.017000000,Units=km
new line.RML2541099 bus1=BBT1415723.1.2.0,bus2=RML1052541099.1.2.0,Phases=2,Linecode=CABBTG05_4_2,Length=0.017000000,Units=km
new line.RML2541106 bus1=BBT3609579.1.2.0,bus2=RML1052541106.1.2.0,Phases=2,Linecode=CABBTG05_4_2,Length=0.017000000,Units=km
new line.RML2541113 bus1=BBT3609565.1.2.0,bus2=RML1052541113.1.2.0,Phases=2,Linecode=CABBTG05_4_2,Length=0.017000000,Units=km
new line.RML2541120 bus1=BBT1416899.1.2.0,bus2=RML1052541120.1.2.0,Phases=2,Linecode=CABBTG05_4_2,Length=0.017000000,Units=km
new line.RML2541127 bus1=BBT1416899.1.2.0,bus2=RML1052541127.1.2.0,Phases=2,Linecode=CABBTG05_4_2,Length=0.017000000,Units=km
new line.RML2541134 bus1=BBT1416899.1.2.0,bus2=RML1052541134.1.2.0,Phases=2,Linecode=CABBTG05_4_2,Length=0.017000000,Units=km
new line.RML2541141 bus1=BBT1416899.1.0,bus2=RML1052541141.1.0,Phases=1,Linecode=CABBTG01_4_1,Length=0.017000000,Units=km
new line.RML2541148 bus1=BBT1416899.1.2.0,bus2=RML1052541148.1.2.0,Phases=2,Linecode=CABBTG05_4_2,Length=0.017000000,Units=km
new line.RML2541155 bus1=BBT1416185.1.2.3.0,bus2=RML1052541155.1.2.3.0,Phases=3,Linecode=CABBTG07_4_3,Length=0.017000000,Units=km
new line.RML2541176 bus1=BBT1438375.1.2.3.0,bus2=RML1052541176.1.2.3.0,Phases=3,Linecode=CABBTG07_4_3,Length=0.017000000,Units=km
new line.RML2541197 bus1=BBT1435029.1.2.3.0,bus2=RML1052541197.1.2.3.0,Phases=3,Linecode=CABBTG06_4_3,Length=0.017000000,Units=km
new line.RML2541246 bus1=BBT1415702.1.2.0,bus2=RML1052541246.1.2.0,Phases=2,Linecode=CABBTG05_4_2,Length=0.017000000,Units=km
new line.RML2541253 bus1=BBT1415695.1.0,bus2=RML1052541253.1.0,Phases=1,Linecode=CABBTG01_4_1,Length=0.017000000,Units=km
new line.RML2541260 bus1=BBT1415660.1.2.0,bus2=RML1052541260.1.2.0,Phases=2,Linecode=CABBTG05_4_2,Length=0.017000000,Units=km
new line.RML2541267 bus1=BBT1415541.2.3.0,bus2=RML1052541267.2.3.0,Phases=2,Linecode=CABBTG05_4_2,Length=0.017000000,Units=km
new line.RML2541274 bus1=BBT1415653.2.0,bus2=RML1052541274.2.0,Phases=1,Linecode=CABBTG01_4_1,Length=0.017000000,Units=km
new line.RML2541288 bus1=BBT1415541.1.3.0,bus2=RML1052541288.1.3.0,Phases=2,Linecode=CABBTG05_4_2,Length=0.017000000,Units=km
new line.RML10102314 bus1=BBT4361253.2.0,bus2=RML1060102314.2.0,Phases=1,Linecode=CABBTG02_4_1,Length=0.017000000,Units=km
new line.RML10102318 bus1=BBT1417669.1.2.0,bus2=RML1060102318.1.2.0,Phases=2,Linecode=CABBTG05_4_2,Length=0.017000000,Units=km
new line.RML10102323 bus1=BBT4146724.1.2.0,bus2=RML1060102323.1.2.0,Phases=2,Linecode=CABBTG05_4_2,Length=0.017000000,Units=km
new line.RML10102325 bus1=BBT4146724.1.2.0,bus2=RML1060102325.1.2.0,Phases=2,Linecode=CABBTG05_4_2,Length=0.017000000,Units=km
new line.RML10156120 bus1=BBT4691380.1.2.0,bus2=RML1060156120.1.2.0,Phases=2,Linecode=CABBTG05_4_2,Length=0.017000000,Units=km
new line.RML10161860 bus1=BBT3609572.1.2.0,bus2=RML1060161860.1.2.0,Phases=2,Linecode=CABBTG05_4_2,Length=0.021000000,Units=km
new line.RML10217522 bus1=BBT1443821.1.2.3.0,bus2=RML1060217522.1.2.3.0,Phases=3,Linecode=CABBTG10_4_3,Length=0.017000000,Units=km
new line.RML10217540 bus1=BBT1443849.1.2.0,bus2=RML1060217540.1.2.0,Phases=2,Linecode=CABBTG13_4_2,Length=0.017000000,Units=km
new line.RML10328039 bus1=BBT3477489.1.2.3.0,bus2=RML1060328039.1.2.3.0,Phases=3,Linecode=CABBTG06_4_3,Length=0.017000000,Units=km
new line.RML10328317 bus1=BBT4156783.1.0,bus2=RML1060328317.1.0,Phases=1,Linecode=CABBTG02_4_1,Length=0.017000000,Units=km
new line.RML10328362 bus1=BBT1456155.1.0,bus2=RML1060328362.1.0,Phases=1,Linecode=CABBTG02_4_1,Length=0.017000000,Units=km
new line.RML10329210 bus1=BBT1443457.1.0,bus2=RML1060329210.1.0,Phases=1,Linecode=CABBTG02_4_1,Length=0.017000000,Units=km
new line.RML10330980 bus1=BBT4146731.1.2.3.0,bus2=RML1060330980.1.2.3.0,Phases=3,Linecode=CABBTG06_4_3,Length=0.017000000,Units=km
new line.RML10467679 bus1=BBT3233735.1.2.0,bus2=RML1060467679.1.2.0,Phases=2,Linecode=CABBTG05_4_2,Length=0.017000000,Units=km
new line.RML10467799 bus1=BBT3477496.1.2.0,bus2=RML1060467799.1.2.0,Phases=2,Linecode=CABBTG05_4_2,Length=0.009000000,Units=km
new line.RML10584352 bus1=BBT1434714.1.0,bus2=RML1060584352.1.0,Phases=1,Linecode=CABBTG02_4_1,Length=0.018000000,Units=km
new line.RML10584520 bus1=BBT4146955.1.2.0,bus2=RML1060584520.1.2.0,Phases=2,Linecode=CABBTG05_4_2,Length=0.006000000,Units=km
new line.RML10584584 bus1=BBT3233742.3.0,bus2=RML1060584584.3.0,Phases=1,Linecode=CABBTG02_4_1,Length=0.030000000,Units=km
new line.RML10589226 bus1=BBT36039607.1.0,bus2=RML1060589226.1.0,Phases=1,Linecode=CABBTG02_4_1,Length=0.030000000,Units=km
new line.RML10590255 bus1=BBT3544696.3.0,bus2=RML1060590255.3.0,Phases=1,Linecode=CABBTG02_4_1,Length=0.012000000,Units=km
new line.RML10590259 bus1=BBT3544710.1.0,bus2=RML1060590259.1.0,Phases=1,Linecode=CABBTG02_4_1,Length=0.018000000,Units=km
new line.RML10650120 bus1=BBT1414407.1.2.0,bus2=RML1060650120.1.2.0,Phases=2,Linecode=CABBTG05_4_2,Length=0.017000000,Units=km
new line.RML10650161 bus1=BBT1458983.2.3.0,bus2=RML1060650161.2.3.0,Phases=2,Linecode=CABBTG05_4_2,Length=0.017000000,Units=km
new line.RML10652955 bus1=BBT156067103.1.2.0,bus2=RML1060652955.1.2.0,Phases=2,Linecode=CABBTG05_4_2,Length=0.087,Units=km
new line.RML10823674 bus1=BBT1414708.1.0,bus2=RML1060823674.1.0,Phases=1,Linecode=CABBTG02_4_1,Length=0.017000000,Units=km
new line.RML10947456 bus1=BBT36118910.1.0,bus2=RML1060947456.1.0,Phases=1,Linecode=CABBTG02_4_1,Length=0.017000000,Units=km
new line.RML10953640 bus1=BBT169918647.1.2.0,bus2=RML1060953640.1.2.0,Phases=2,Linecode=CABBTG05_4_2,Length=0.020000000,Units=km
new line.RML2208403 bus1=BBT1188895.1.2.0,bus2=RML1052208403.1.2.0,Phases=2,Linecode=CABBTG05_4_2,Length=0.017000000,Units=km
new line.RML2580733 bus1=BBT5447233.1.0,bus2=RML1052580733.1.0,Phases=1,Linecode=CABBTG01_4_1,Length=0.017000000,Units=km
new line.RML2580796 bus1=BBT1457870.1.2.3.0,bus2=RML1052580796.1.2.3.0,Phases=3,Linecode=CABBTG07_4_3,Length=0.017000000,Units=km
new line.RML2582105 bus1=BBT1458941.1.0,bus2=RML1052582105.1.0,Phases=1,Linecode=CABBTG01_4_1,Length=0.017000000,Units=km
new line.RML2582112 bus1=BBT1458948.1.0,bus2=RML1052582112.1.0,Phases=1,Linecode=CABBTG01_4_1,Length=0.017000000,Units=km
new line.RML2582119 bus1=BBT1458948.1.2.0,bus2=RML1052582119.1.2.0,Phases=2,Linecode=CABBTG13_4_2,Length=0.017000000,Units=km
new line.RML2582126 bus1=BBT1458948.3.0,bus2=RML1052582126.3.0,Phases=1,Linecode=CABBTG01_4_1,Length=0.017000000,Units=km
new line.RML2582133 bus1=BBT1458948.3.0,bus2=RML1052582133.3.0,Phases=1,Linecode=CABBTG01_4_1,Length=0.017000000,Units=km
new line.RML2582140 bus1=BBT1458948.3.0,bus2=RML1052582140.3.0,Phases=1,Linecode=CABBTG01_4_1,Length=0.017000000,Units=km
new line.RML2582147 bus1=BBT1458955.1.3.0,bus2=RML1052582147.1.3.0,Phases=2,Linecode=CABBTG05_4_2,Length=0.017000000,Units=km
new line.RML2582154 bus1=BBT1458955.2.3.0,bus2=RML1052582154.2.3.0,Phases=2,Linecode=CABBTG05_4_2,Length=0.017000000,Units=km
new line.RML2582161 bus1=BBT1458955.2.0,bus2=RML1052582161.2.0,Phases=1,Linecode=CABBTG01_4_1,Length=0.017000000,Units=km
new line.RML2582168 bus1=BBT1458955.3.0,bus2=RML1052582168.3.0,Phases=1,Linecode=CABBTG01_4_1,Length=0.017000000,Units=km
new line.RML2582175 bus1=BBT1458962.1.0,bus2=RML1052582175.1.0,Phases=1,Linecode=CABBTG01_4_1,Length=0.017000000,Units=km
new line.RML2582182 bus1=BBT1458962.2.0,bus2=RML1052582182.2.0,Phases=1,Linecode=CABBTG01_4_1,Length=0.017000000,Units=km
new line.RML2582189 bus1=BBT1458962.1.0,bus2=RML1052582189.1.0,Phases=1,Linecode=CABBTG01_4_1,Length=0.017000000,Units=km
new line.RML2582196 bus1=BBT1458962.1.2.3.0,bus2=RML1052582196.1.2.3.0,Phases=3,Linecode=CABBTG07_4_3,Length=0.017000000,Units=km
new line.RML2582203 bus1=BBT1458962.2.0,bus2=RML1052582203.2.0,Phases=1,Linecode=CABBTG02_4_1,Length=0.017000000,Units=km
new line.RML2582210 bus1=BBT1458962.3.0,bus2=RML1052582210.3.0,Phases=1,Linecode=CABBTG01_4_1,Length=0.017000000,Units=km
new line.RML2582217 bus1=BBT1458969.1.0,bus2=RML1052582217.1.0,Phases=1,Linecode=CABBTG01_4_1,Length=0.017000000,Units=km
new line.RML2582224 bus1=BBT1458969.1.0,bus2=RML1052582224.1.0,Phases=1,Linecode=CABBTG01_4_1,Length=0.017000000,Units=km
new line.RML2582231 bus1=BBT1458976.1.0,bus2=RML1052582231.1.0,Phases=1,Linecode=CABBTG01_4_1,Length=0.017000000,Units=km
new line.RML2582238 bus1=BBT1458976.1.2.3.0,bus2=RML1052582238.1.2.3.0,Phases=3,Linecode=CABBTG11_4_3,Length=0.017000000,Units=km
new line.RML2582252 bus1=BBT1458983.3.0,bus2=RML1052582252.3.0,Phases=1,Linecode=CABBTG01_4_1,Length=0.017000000,Units=km
new line.RML2582259 bus1=BBT1458983.2.3.0,bus2=RML1052582259.2.3.0,Phases=2,Linecode=CABBTG04_4_2,Length=0.017000000,Units=km
new line.RML2582266 bus1=BBT1458983.3.0,bus2=RML1052582266.3.0,Phases=1,Linecode=CABBTG01_4_1,Length=0.017000000,Units=km
new line.RML2582273 bus1=BBT1458990.3.0,bus2=RML1052582273.3.0,Phases=1,Linecode=CABBTG01_4_1,Length=0.017000000,Units=km
new line.RML2582280 bus1=BBT1458997.1.2.3.0,bus2=RML1052582280.1.2.3.0,Phases=3,Linecode=CABBTG07_4_3,Length=0.017000000,Units=km
new line.RML2582287 bus1=BBT1458997.3.0,bus2=RML1052582287.3.0,Phases=1,Linecode=CABBTG01_4_1,Length=0.017000000,Units=km
new line.RML2582294 bus1=BBT1458997.1.0,bus2=RML1052582294.1.0,Phases=1,Linecode=CABBTG01_4_1,Length=0.017000000,Units=km
new line.RML10239155 bus1=BBT1425418.1.2.3.0,bus2=RML1060239155.1.2.3.0,Phases=3,Linecode=CABBTG06_4_3,Length=0.017000000,Units=km
new line.RML10239197 bus1=BBT150933017.1.2.0,bus2=RML1060239197.1.2.0,Phases=2,Linecode=CABBTG05_4_2,Length=0.017000000,Units=km
new line.RML10239231 bus1=BBT1445669.1.2.3.0,bus2=RML1060239231.1.2.3.0,Phases=3,Linecode=CABBTG06_4_3,Length=0.017000000,Units=km
new line.RML10240300 bus1=BBT5017013.1.2.0,bus2=RML1060240300.1.2.0,Phases=2,Linecode=CABBTG05_4_2,Length=0.017000000,Units=km
new line.RML10374105 bus1=BBT2985963.1.0,bus2=RML1060374105.1.0,Phases=1,Linecode=CABBTG02_4_1,Length=0.017000000,Units=km
new line.RML10377305 bus1=BBT1450828.1.2.3.0,bus2=RML1060377305.1.2.3.0,Phases=3,Linecode=CABBTG06_4_3,Length=0.017000000,Units=km
new line.RML10379394 bus1=BBT1418033.1.0,bus2=RML1060379394.1.0,Phases=1,Linecode=CABBTG02_4_1,Length=0.017000000,Units=km
new line.RML10602966 bus1=BBT4156797.2.0,bus2=RML1060602966.2.0,Phases=1,Linecode=CABBTG02_4_1,Length=0.014000000,Units=km
new line.RML10665997 bus1=BBT3233742.1.2.0,bus2=RML1060665997.1.2.0,Phases=2,Linecode=CABBTG05_4_2,Length=0.017000000,Units=km
new line.RML10671264 bus1=BBT1448518.1.2.3.0,bus2=RML1060671264.1.2.3.0,Phases=3,Linecode=CABBTG06_4_3,Length=0.017000000,Units=km
new line.RML10729846 bus1=BBT1451031.1.2.0,bus2=RML1060729846.1.2.0,Phases=2,Linecode=CABBTG05_4_2,Length=0.017000000,Units=km
new line.RML10729941 bus1=BBT2985977.2.0,bus2=RML1060729941.2.0,Phases=1,Linecode=CABBTG02_4_1,Length=0.017000000,Units=km
new line.RML10734673 bus1=BBT4244822.1.2.0,bus2=RML1060734673.1.2.0,Phases=2,Linecode=CABBTG05_4_2,Length=0.017000000,Units=km
new line.RML10904899 bus1=BBT1233828.1.2.3.0,bus2=RML1060904899.1.2.3.0,Phases=3,Linecode=CABBTG06_4_3,Length=0.017000000,Units=km
new line.RML10908538 bus1=BBT4146955.1.2.0,bus2=RML1060908538.1.2.0,Phases=2,Linecode=CABBTG05_4_2,Length=0.017000000,Units=km
new line.RML10908567 bus1=BBT1434770.1.2.0,bus2=RML1060908567.1.2.0,Phases=2,Linecode=CABBTG05_4_2,Length=0.017000000,Units=km
new line.RML10970351 bus1=BBT156067376.1.2.0,bus2=RML1060970351.1.2.0,Phases=2,Linecode=CABBT811_4_2,Length=0.017000000,Units=km
new line.RML10972129 bus1=BBT12521518.1.2.0,bus2=RML1060972129.1.2.0,Phases=2,Linecode=CABBTG05_4_2,Length=0.017000000,Units=km
new line.RML10974667 bus1=BBT1440657.1.2.0,bus2=RML1060974667.1.2.0,Phases=2,Linecode=CABBTG05_4_2,Length=0.017000000,Units=km
new line.RML2554476 bus1=BBT1434728.2.0,bus2=RML1052554476.2.0,Phases=1,Linecode=CABBTG02_4_1,Length=0.017000000,Units=km
new line.RML2554483 bus1=BBT1434728.1.2.0,bus2=RML1052554483.1.2.0,Phases=2,Linecode=CABBTG05_4_2,Length=0.017000000,Units=km
new line.RML2554490 bus1=BBT1434742.2.0,bus2=RML1052554490.2.0,Phases=1,Linecode=CABBTG01_4_1,Length=0.017000000,Units=km
new line.RML2554497 bus1=BBT1434756.1.0,bus2=RML1052554497.1.0,Phases=1,Linecode=CABBTG01_4_1,Length=0.017000000,Units=km
new line.RML2554504 bus1=BBT1434770.3.0,bus2=RML1052554504.3.0,Phases=1,Linecode=CABBTG01_4_1,Length=0.017000000,Units=km
new line.RML2554511 bus1=BBT1434770.2.0,bus2=RML1052554511.2.0,Phases=1,Linecode=CABBTG01_4_1,Length=0.017000000,Units=km
new line.RML2554518 bus1=BBT1434770.2.0,bus2=RML1052554518.2.0,Phases=1,Linecode=CABBTG02_4_1,Length=0.017000000,Units=km
new line.RML2554525 bus1=BBT1434770.1.0,bus2=RML1052554525.1.0,Phases=1,Linecode=CABBTG01_4_1,Length=0.017000000,Units=km
new line.RML2554532 bus1=BBT1434777.2.0,bus2=RML1052554532.2.0,Phases=1,Linecode=CABBTG01_4_1,Length=0.017000000,Units=km
new line.RML2554539 bus1=BBT1434777.3.0,bus2=RML1052554539.3.0,Phases=1,Linecode=CABBTG01_4_1,Length=0.017000000,Units=km
new line.RML2554546 bus1=BBT1434784.2.0,bus2=RML1052554546.2.0,Phases=1,Linecode=CABBTG01_4_1,Length=0.017000000,Units=km
new line.RML2554553 bus1=BBT1434784.1.2.0,bus2=RML1052554553.1.2.0,Phases=2,Linecode=CABBTG05_4_2,Length=0.017000000,Units=km
new line.RML2554560 bus1=BBT1434784.3.0,bus2=RML1052554560.3.0,Phases=1,Linecode=CABBTG01_4_1,Length=0.017000000,Units=km
new line.RML2559894 bus1=BBT1438592.1.0,bus2=RML1052559894.1.0,Phases=1,Linecode=CABBTG01_4_1,Length=0.017000000,Units=km
new line.RML2559901 bus1=BBT1438592.2.3.0,bus2=RML1052559901.2.3.0,Phases=2,Linecode=CABBTG05_4_2,Length=0.017000000,Units=km
new line.RML2559908 bus1=BBT1438592.1.2.0,bus2=RML1052559908.1.2.0,Phases=2,Linecode=CABBTG05_4_2,Length=0.017000000,Units=km
new line.RML2559915 bus1=BBT1438592.2.3.0,bus2=RML1052559915.2.3.0,Phases=2,Linecode=CABBTG05_4_2,Length=0.017000000,Units=km
new line.RML2559922 bus1=BBT1438599.1.0,bus2=RML1052559922.1.0,Phases=1,Linecode=CABBTG01_4_1,Length=0.017000000,Units=km
new line.RML2559929 bus1=BBT1438599.2.0,bus2=RML1052559929.2.0,Phases=1,Linecode=CABBTG01_4_1,Length=0.017000000,Units=km
new line.RML2559936 bus1=BBT1438599.1.3.0,bus2=RML1052559936.1.3.0,Phases=2,Linecode=CABBTG05_4_2,Length=0.017000000,Units=km
new line.RML2559943 bus1=BBT1438599.3.0,bus2=RML1052559943.3.0,Phases=1,Linecode=CABBTG01_4_1,Length=0.017000000,Units=km
new line.RML2559950 bus1=BBT1438599.1.3.0,bus2=RML1052559950.1.3.0,Phases=2,Linecode=CABBTG05_4_2,Length=0.017000000,Units=km
new line.RML2559957 bus1=BBT1438599.1.0,bus2=RML1052559957.1.0,Phases=1,Linecode=CABBTG01_4_1,Length=0.017000000,Units=km
new line.RML2559964 bus1=BBT1438599.1.2.0,bus2=RML1052559964.1.2.0,Phases=2,Linecode=CABBTG05_4_2,Length=0.017000000,Units=km
new line.RML2559971 bus1=BBT1438599.1.2.0,bus2=RML1052559971.1.2.0,Phases=2,Linecode=CABBTG05_4_2,Length=0.017000000,Units=km
new line.RML2559978 bus1=BBT1438606.1.2.0,bus2=RML1052559978.1.2.0,Phases=2,Linecode=CABBTG05_4_2,Length=0.017000000,Units=km
new line.RML2559985 bus1=BBT1438592.1.2.3.0,bus2=RML1052559985.1.2.3.0,Phases=3,Linecode=CABBTG06_4_3,Length=0.017000000,Units=km
new line.RML2559992 bus1=BBT1438606.1.2.0,bus2=RML1052559992.1.2.0,Phases=2,Linecode=CABBTG05_4_2,Length=0.017000000,Units=km
new line.RML2559999 bus1=BBT1438606.3.0,bus2=RML1052559999.3.0,Phases=1,Linecode=CABBTG01_4_1,Length=0.017000000,Units=km
new line.RML2560006 bus1=BBT1438606.1.3.0,bus2=RML1052560006.1.3.0,Phases=2,Linecode=CABBTG05_4_2,Length=0.017000000,Units=km
new line.RML2560013 bus1=BBT1438606.2.0,bus2=RML1052560013.2.0,Phases=1,Linecode=CABBTG01_4_1,Length=0.017000000,Units=km
new line.RML2560020 bus1=BBT1438606.1.3.0,bus2=RML1052560020.1.3.0,Phases=2,Linecode=CABBTG05_4_2,Length=0.017000000,Units=km
new line.RML2560027 bus1=BBT1438606.1.0,bus2=RML1052560027.1.0,Phases=1,Linecode=CABBTG01_4_1,Length=0.017000000,Units=km
new line.RML2560034 bus1=BBT1438613.1.0,bus2=RML1052560034.1.0,Phases=1,Linecode=CABBTG01_4_1,Length=0.017000000,Units=km
new line.RML2560041 bus1=BBT1438613.1.3.0,bus2=RML1052560041.1.3.0,Phases=2,Linecode=CABBTG05_4_2,Length=0.017000000,Units=km
new line.RML2560048 bus1=BBT1438613.1.3.0,bus2=RML1052560048.1.3.0,Phases=2,Linecode=CABBTG05_4_2,Length=0.017000000,Units=km
new line.RML2560055 bus1=BBT1438613.2.3.0,bus2=RML1052560055.2.3.0,Phases=2,Linecode=CABBTG05_4_2,Length=0.017000000,Units=km
new line.RML2560062 bus1=BBT1438613.2.3.0,bus2=RML1052560062.2.3.0,Phases=2,Linecode=CABBTG04_4_2,Length=0.017000000,Units=km
new line.RML2560069 bus1=BBT1438613.2.3.0,bus2=RML1052560069.2.3.0,Phases=2,Linecode=CABBTG05_4_2,Length=0.017000000,Units=km
new line.RML10123485 bus1=BBT149112093.1.2.0,bus2=RML1060123485.1.2.0,Phases=2,Linecode=CABBTG05_4_2,Length=0.020000000,Units=km
new line.RML10125241 bus1=BBT112305223.2.0,bus2=RML1060125241.2.0,Phases=1,Linecode=CABBTG02_4_1,Length=0.030000000,Units=km
new line.RML10125733 bus1=BBT1443884.1.2.3.0,bus2=RML1060125733.1.2.3.0,Phases=3,Linecode=CABBTG06_4_3,Length=0.028000000,Units=km
new line.RML10167553 bus1=BBT5017188.1.2.3.0,bus2=RML1060167553.1.2.3.0,Phases=3,Linecode=CABBTG06_4_3,Length=0.017000000,Units=km
new line.RML10170947 bus1=BBT1431788.1.2.3.0,bus2=RML1060170947.1.2.3.0,Phases=3,Linecode=CABBTG09_4_3,Length=0.017000000,Units=km
new line.RML10206287 bus1=BBT1459984.1.2.0,bus2=RML1060206287.1.2.0,Phases=2,Linecode=CABBTG05_4_2,Length=0.017000000,Units=km
new line.RML10345397 bus1=BBT1415324.1.2.0,bus2=RML1060345397.1.2.0,Phases=2,Linecode=CABBTG05_4_2,Length=0.017000000,Units=km
new line.RML10348238 bus1=BBT12180401.1.2.0,bus2=RML1060348238.1.2.0,Phases=2,Linecode=CABBTG05_4_2,Length=0.017000000,Units=km
new line.RML10433185 bus1=BBT1434728.3.0,bus2=RML1060433185.3.0,Phases=1,Linecode=CABBTG02_4_1,Length=0.017000000,Units=km
new line.RML10434304 bus1=BBT1450170.1.3.0,bus2=RML1060434304.1.3.0,Phases=2,Linecode=CABBTG05_4_2,Length=0.017000000,Units=km
new line.RML10435805 bus1=BBT4244829.1.2.0,bus2=RML1060435805.1.2.0,Phases=2,Linecode=CABBTG05_4_2,Length=0.017000000,Units=km
new line.RML10487336 bus1=BBT2986075.1.2.0,bus2=RML1060487336.1.2.0,Phases=2,Linecode=CABBT801_4_2,Length=0.024000000,Units=km
new line.RML10490342 bus1=BBT64551188.1.2.0,bus2=RML1060490342.1.2.0,Phases=2,Linecode=CABBTG05_4_2,Length=0.021000000,Units=km
new line.RML10558814 bus1=BBT4244815.1.2.0,bus2=RML1060558814.1.2.0,Phases=2,Linecode=CABBTG05_4_2,Length=0.009000000,Units=km
new line.RML10697327 bus1=BBT4244829.1.2.0,bus2=RML1060697327.1.2.0,Phases=2,Linecode=CABBTG05_4_2,Length=0.017000000,Units=km
new line.RML10805404 bus1=BBT1417235.1.2.0,bus2=RML1060805404.1.2.0,Phases=2,Linecode=CABBTG05_4_2,Length=0.017000000,Units=km
new line.RML10805781 bus1=BBT4146955.1.0,bus2=RML1060805781.1.0,Phases=1,Linecode=CABBTG02_4_1,Length=0.017000000,Units=km
new line.RML10810128 bus1=BBT1415513.2.0,bus2=RML1060810128.2.0,Phases=1,Linecode=CABBT802_4_1,Length=0.008000000,Units=km
new line.RML10864401 bus1=BBT163361535.1.0,bus2=RML1060864401.1.0,Phases=1,Linecode=CABBTG02_4_1,Length=0.017000000,Units=km
new line.RML10914764 bus1=BBT153979725.1.2.0,bus2=RML1060914764.1.2.0,Phases=2,Linecode=CABBTG06_4_3,Length=0.017000000,Units=km
new line.RML10916598 bus1=BBT166628802.1.2.3.0,bus2=RML1060916598.1.2.3.0,Phases=3,Linecode=CABBTG09_4_3,Length=0.017000000,Units=km
new line.RML10996814 bus1=BBT171255083.1.2.0,bus2=RML1060996814.1.2.0,Phases=2,Linecode=CABBTG05_4_2,Length=0.017000000,Units=km
new line.RML10996829 bus1=BBT156067103.1.2.0,bus2=RML1060996829.1.2.0,Phases=2,Linecode=CABBTG05_4_2,Length=0.087,Units=km
new line.RML10997215 bus1=BBT4156776.1.2.0,bus2=RML1060997215.1.2.0,Phases=2,Linecode=CABBTG05_4_2,Length=0.009000000,Units=km
new line.RML2564759 bus1=BBT1443429.1.3.0,bus2=RML1052564759.1.3.0,Phases=2,Linecode=CABBTG05_4_2,Length=0.017000000,Units=km
new line.RML2564773 bus1=BBT4782674.1.2.3.0,bus2=RML1052564773.1.2.3.0,Phases=3,Linecode=CABBTG08_4_3,Length=0.017000000,Units=km
new line.RML2564843 bus1=BBT1443702.1.2.3.0,bus2=RML1052564843.1.2.3.0,Phases=3,Linecode=CABBTG06_4_3,Length=0.017000000,Units=km
new line.RML2564850 bus1=BBT1443702.1.2.0,bus2=RML1052564850.1.2.0,Phases=2,Linecode=CABBTG05_4_2,Length=0.017000000,Units=km
new line.RML2564857 bus1=BBT1443723.1.2.3.0,bus2=RML1052564857.1.2.3.0,Phases=3,Linecode=CABBTG06_4_3,Length=0.017000000,Units=km
new line.RML2564990 bus1=BBT1443863.1.2.3.0,bus2=RML1052564990.1.2.3.0,Phases=3,Linecode=CABBTG07_4_3,Length=0.017000000,Units=km
new line.RML2565242 bus1=BBT1443821.1.2.3.0,bus2=RML1052565242.1.2.3.0,Phases=3,Linecode=CABBTG07_4_3,Length=0.017000000,Units=km
new line.RML2566712 bus1=BBT1445641.1.2.3.0,bus2=RML1052566712.1.2.3.0,Phases=3,Linecode=CABBTG06_4_3,Length=0.017000000,Units=km
new line.RML2566719 bus1=BBT1445662.1.2.3.0,bus2=RML1052566719.1.2.3.0,Phases=3,Linecode=CABBTG07_4_3,Length=0.017000000,Units=km
new line.RML2566775 bus1=BBT1445795.2.0,bus2=RML1052566775.2.0,Phases=1,Linecode=CABBTG01_4_1,Length=0.017000000,Units=km
new line.RML2566782 bus1=BBT1445795.1.0,bus2=RML1052566782.1.0,Phases=1,Linecode=CABBTG01_4_1,Length=0.017000000,Units=km
new line.RML2566789 bus1=BBT1445795.2.0,bus2=RML1052566789.2.0,Phases=1,Linecode=CABBTG01_4_1,Length=0.017000000,Units=km
new line.RML2566796 bus1=BBT1445795.1.0,bus2=RML1052566796.1.0,Phases=1,Linecode=CABBTG01_4_1,Length=0.017000000,Units=km
new line.RML2566803 bus1=BBT1445795.1.0,bus2=RML1052566803.1.0,Phases=1,Linecode=CABBTG02_4_1,Length=0.017000000,Units=km
new line.RML2566810 bus1=BBT1445802.1.2.0,bus2=RML1052566810.1.2.0,Phases=2,Linecode=CABBTG13_4_2,Length=0.017000000,Units=km
new line.RML2566817 bus1=BBT1445802.1.0,bus2=RML1052566817.1.0,Phases=1,Linecode=CABBTG01_4_1,Length=0.017000000,Units=km
new line.RML2566824 bus1=BBT1445809.1.0,bus2=RML1052566824.1.0,Phases=1,Linecode=CABBTG01_4_1,Length=0.017000000,Units=km
new line.RML2566831 bus1=BBT1445809.1.0,bus2=RML1052566831.1.0,Phases=1,Linecode=CABBTG01_4_1,Length=0.017000000,Units=km
new line.RML2566838 bus1=BBT1445809.1.2.0,bus2=RML1052566838.1.2.0,Phases=2,Linecode=CABBTG04_4_2,Length=0.017000000,Units=km
new line.RML2566845 bus1=BBT1445809.1.0,bus2=RML1052566845.1.0,Phases=1,Linecode=CABBTG01_4_1,Length=0.017000000,Units=km
new line.RML2566852 bus1=BBT1445809.2.0,bus2=RML1052566852.2.0,Phases=1,Linecode=CABBTG01_4_1,Length=0.017000000,Units=km
new line.RML2566859 bus1=BBT1445809.1.0,bus2=RML1052566859.1.0,Phases=1,Linecode=CABBTG01_4_1,Length=0.017000000,Units=km
new line.RML2566866 bus1=BBT1445809.1.0,bus2=RML1052566866.1.0,Phases=1,Linecode=CABBTG01_4_1,Length=0.017000000,Units=km
new line.RML2566873 bus1=BBT1445823.1.2.0,bus2=RML1052566873.1.2.0,Phases=2,Linecode=CABBTG04_4_2,Length=0.017000000,Units=km
new line.RML2566880 bus1=BBT1445823.2.0,bus2=RML1052566880.2.0,Phases=1,Linecode=CABBTG01_4_1,Length=0.017000000,Units=km
new line.RML2566887 bus1=BBT1445823.1.2.0,bus2=RML1052566887.1.2.0,Phases=2,Linecode=CABBTG04_4_2,Length=0.017000000,Units=km
new line.RML2566894 bus1=BBT1445837.2.0,bus2=RML1052566894.2.0,Phases=1,Linecode=CABBTG01_4_1,Length=0.017000000,Units=km
new line.RML2566901 bus1=BBT1445837.2.0,bus2=RML1052566901.2.0,Phases=1,Linecode=CABBTG01_4_1,Length=0.017000000,Units=km
new line.RML2566908 bus1=BBT1445837.1.0,bus2=RML1052566908.1.0,Phases=1,Linecode=CABBTG01_4_1,Length=0.017000000,Units=km
new line.RML2566915 bus1=BBT1445837.2.0,bus2=RML1052566915.2.0,Phases=1,Linecode=CABBTG01_4_1,Length=0.017000000,Units=km
new line.RML2566922 bus1=BBT1445844.1.2.0,bus2=RML1052566922.1.2.0,Phases=2,Linecode=CABBTG05_4_2,Length=0.017000000,Units=km
new line.RML2566929 bus1=BBT1445844.1.0,bus2=RML1052566929.1.0,Phases=1,Linecode=CABBTG01_4_1,Length=0.017000000,Units=km
new line.RML2566936 bus1=BBT1445851.1.0,bus2=RML1052566936.1.0,Phases=1,Linecode=CABBTG01_4_1,Length=0.017000000,Units=km
new line.RML2566943 bus1=BBT1445851.2.0,bus2=RML1052566943.2.0,Phases=1,Linecode=CABBTG01_4_1,Length=0.017000000,Units=km
new line.RML2566950 bus1=BBT1445851.1.0,bus2=RML1052566950.1.0,Phases=1,Linecode=CABBTG01_4_1,Length=0.017000000,Units=km
new line.RML2566957 bus1=BBT1445858.2.0,bus2=RML1052566957.2.0,Phases=1,Linecode=CABBTG01_4_1,Length=0.017000000,Units=km
new line.RML2566964 bus1=BBT1445858.1.0,bus2=RML1052566964.1.0,Phases=1,Linecode=CABBTG01_4_1,Length=0.017000000,Units=km
new line.RML2566971 bus1=BBT1445858.1.2.0,bus2=RML1052566971.1.2.0,Phases=2,Linecode=CABBTG05_4_2,Length=0.017000000,Units=km
new line.RML2566978 bus1=BBT1445858.1.2.0,bus2=RML1052566978.1.2.0,Phases=2,Linecode=CABBTG05_4_2,Length=0.017000000,Units=km
new line.RML2566985 bus1=BBT1445858.1.0,bus2=RML1052566985.1.0,Phases=1,Linecode=CABBTG01_4_1,Length=0.017000000,Units=km
new line.RML2566992 bus1=BBT1445858.2.0,bus2=RML1052566992.2.0,Phases=1,Linecode=CABBTG01_4_1,Length=0.017000000,Units=km
new line.RML2566999 bus1=BBT1445858.1.0,bus2=RML1052566999.1.0,Phases=1,Linecode=CABBTG01_4_1,Length=0.017000000,Units=km
new line.RML2567006 bus1=BBT1445858.2.0,bus2=RML1052567006.2.0,Phases=1,Linecode=CABBTG01_4_1,Length=0.017000000,Units=km