new line.10130 bus1=BBT3740.1.2.3.0,bus2=BBT3733.1.2.3.0,Phases=3,Linecode=BT108_BT107_7_3_1,Length=0.029661000,Units=km
new line.10137 bus1=BBT3740.1.2.3.0,bus2=BBT3747.1.2.3.0,Phases=3,Linecode=BT107_BT106_7_3_1,Length=0.006996000,Units=km
new line.10165 bus1=BBT3747.1.2.3.0,bus2=BBT3761.1.2.3.0,Phases=3,Linecode=BT107_BT106_7_3_1,Length=0.029812000,Units=km
new line.11262770 bus1=BBT2960302.1.2.3.0,bus2=BBT7856.1.2.3.0,Phases=3,Linecode=BT108_BT107_7_3_1,Length=0.016268000,Units=km
new line.11262777 bus1=BBT2960302.1.2.3.0,bus2=BBT2960309.1.2.3.0,Phases=3,Linecode=BT803_BT803_4_3_4,Length=0.029049000,Units=km
new line.11262847 bus1=BBT2960351.1.2.0,bus2=BBT5671472.1.2.0,Phases=2,Linecode=BT803_BT803_4_2_4,Length=0.034689000,Units=km
new line.11600 bus1=BBT4279.1.2.3.0,bus2=BBT4272.1.2.3.0,Phases=3,Linecode=BT803_BT803_4_3_4,Length=0.011654000,Units=km
new line.11607 bus1=BBT4258.1.2.3.0,bus2=BBT4279.1.2.3.0,Phases=3,Linecode=BT513_BT513_7_3_1,Length=0.000500000,Units=km
new line.11614 bus1=BBT4279.1.2.3.0,bus2=BBT4293.1.2.3.0,Phases=3,Linecode=BT803_BT803_4_3_4,Length=0.032428000,Units=km
new line.11616585 bus1=BBT3056398.1.2.0,bus2=BBT3056405.1.2.0,Phases=2,Linecode=BT518_BT518_7_2_1,Length=0.000500000,Units=km
new line.11616613 bus1=BBT3056356.1.2.3.0,bus2=BBT3056377.1.2.3.0,Phases=3,Linecode=BT803_BT803_4_3_4,Length=0.038985000,Units=km
new line.11616676 bus1=BBT3056349.1.2.3.0,bus2=BBT3056356.1.2.3.0,Phases=3,Linecode=BT803_BT803_4_3_4,Length=0.027998000,Units=km
new line.11642 bus1=BBT4286.1.2.3.0,bus2=BBT4265.1.2.3.0,Phases=3,Linecode=BT809_BT809_4_3_4,Length=0.035317000,Units=km
new line.11649 bus1=BBT4286.1.2.3.0,bus2=BBT4335.1.2.3.0,Phases=3,Linecode=BT810_BT810_4_3_4,Length=0.035975000,Units=km
new line.12069 bus1=BBT4419.1.2.3.0,bus2=BBT4391.1.2.3.0,Phases=3,Linecode=BT108_BT107_7_3_1,Length=0.030459000,Units=km
new line.12076 bus1=BBT4419.1.2.3.0,bus2=BBT4405.1.2.3.0,Phases=3,Linecode=BT107_BT106_7_3_1,Length=0.015801000,Units=km
new line.12104 bus1=BBT4433.1.3.0,bus2=BBT4412.1.3.0,Phases=2,Linecode=BT519_BT519_5_2_1,Length=0.006321000,Units=km
new line.12447 bus1=BBT4531.1.2.3.0,bus2=BBT4489.1.2.3.0,Phases=3,Linecode=BT106_BT106_7_3_1,Length=0.010623000,Units=km
new line.12475 bus1=BBT4545.1.2.3.0,bus2=BBT3588594.1.2.3.0,Phases=3,Linecode=BT810_BT810_4_3_4,Length=0.023006000,Units=km
new line.12496 bus1=BBT4559.1.2.3.0,bus2=BBT4552.1.2.3.0,Phases=3,Linecode=BT108_BT107_7_3_1,Length=0.017018000,Units=km
new line.12496471 bus1=BBT3337427.1.2.3.0,bus2=BBT3337490.1.2.3.0,Phases=3,Linecode=BT803_BT803_4_3_4,Length=0.040022000,Units=km
new line.12496492 bus1=BBT3337434.1.2.3.0,bus2=BBT3337441.1.2.3.0,Phases=3,Linecode=BT803_BT803_4_3_4,Length=0.044071000,Units=km
new line.12496499 bus1=BBT3337434.1.2.3.0,bus2=BBT3337448.1.2.3.0,Phases=3,Linecode=BT803_BT803_4_3_4,Length=0.041081000,Units=km
new line.12496520 bus1=BBT3337448.1.2.3.0,bus2=BBT3337455.1.2.3.0,Phases=3,Linecode=BT803_BT803_4_3_4,Length=0.038973000,Units=km
new line.12496541 bus1=BBT3337455.1.2.3.0,bus2=BBT3337462.1.2.3.0,Phases=3,Linecode=BT803_BT803_4_3_4,Length=0.038973000,Units=km
new line.12496562 bus1=BBT3337462.1.2.3.0,bus2=BBT3337469.1.2.3.0,Phases=3,Linecode=BT803_BT803_4_3_4,Length=0.045013000,Units=km
new line.12496583 bus1=BBT3337469.1.2.3.0,bus2=BBT3337476.1.2.3.0,Phases=3,Linecode=BT803_BT803_4_3_4,Length=0.040983000,Units=km
new line.12496604 bus1=BBT3337476.1.2.3.0,bus2=BBT3337483.1.2.3.0,Phases=3,Linecode=BT803_BT803_4_3_4,Length=0.039972000,Units=km
new line.12496821 bus1=BBT3337609.1.2.3.0,bus2=BBT3337616.1.2.3.0,Phases=3,Linecode=BT803_BT803_4_3_4,Length=0.039984000,Units=km
new line.12496842 bus1=BBT3337602.1.2.3.0,bus2=BBT3337609.1.2.3.0,Phases=3,Linecode=BT803_BT803_4_3_4,Length=0.040022000,Units=km
new line.12496863 bus1=BBT3337595.1.2.3.0,bus2=BBT3337602.1.2.3.0,Phases=3,Linecode=BT803_BT803_4_3_4,Length=0.039984000,Units=km
new line.12496884 bus1=BBT3337588.1.2.3.0,bus2=BBT3337595.1.2.3.0,Phases=3,Linecode=BT805_BT805_4_3_4,Length=0.040983000,Units=km
new line.12496905 bus1=BBT3337581.1.2.3.0,bus2=BBT3337588.1.2.3.0,Phases=3,Linecode=BT805_BT805_4_3_4,Length=0.035033000,Units=km
new line.12496996 bus1=BBT3337574.1.2.3.0,bus2=BBT3337581.1.2.3.0,Phases=3,Linecode=BT805_BT805_4_3_4,Length=0.037617000,Units=km
new line.12497003 bus1=BBT3337567.1.2.3.0,bus2=BBT3337574.1.2.3.0,Phases=3,Linecode=BT518_BT518_7_3_1,Length=0.000500000,Units=km
new line.12497010 bus1=BBT3337574.1.2.3.0,bus2=BBT3337679.1.2.3.0,Phases=3,Linecode=BT805_BT805_4_3_4,Length=0.038883000,Units=km
new line.12497017 bus1=BBT3337574.1.2.3.0,bus2=BBT3337770.1.2.3.0,Phases=3,Linecode=BT513_BT513_5_3_1,Length=0.012361000,Units=km
new line.12497171 bus1=BBT3337679.1.2.3.0,bus2=BBT3337686.1.2.3.0,Phases=3,Linecode=BT803_BT803_4_3_4,Length=0.039633000,Units=km
new line.12497192 bus1=BBT3337686.1.2.3.0,bus2=BBT3337707.1.2.3.0,Phases=3,Linecode=BT803_BT803_4_3_4,Length=0.039177000,Units=km
new line.12497213 bus1=BBT3337707.1.2.3.0,bus2=BBT3337714.1.2.3.0,Phases=3,Linecode=BT803_BT803_4_3_4,Length=0.039972000,Units=km
new line.12497227 bus1=BBT3337714.1.2.3.0,bus2=BBT3337756.1.2.3.0,Phases=3,Linecode=BT803_BT803_4_3_4,Length=0.040776000,Units=km
new line.12497248 bus1=BBT3337756.1.2.3.0,bus2=BBT3337763.1.2.3.0,Phases=3,Linecode=BT803_BT803_4_3_4,Length=0.041564000,Units=km
new line.12497311 bus1=BBT3337819.1.2.3.0,bus2=BBT3337826.1.2.3.0,Phases=3,Linecode=BT803_BT803_4_3_4,Length=0.040171000,Units=km
new line.12497325 bus1=BBT3337812.1.2.3.0,bus2=BBT3337819.1.2.3.0,Phases=3,Linecode=BT803_BT803_4_3_4,Length=0.040022000,Units=km
new line.12497339 bus1=BBT3337805.1.2.3.0,bus2=BBT3337812.1.2.3.0,Phases=3,Linecode=BT803_BT803_4_3_4,Length=0.039985000,Units=km
new line.12497360 bus1=BBT3337798.1.2.3.0,bus2=BBT3337805.1.2.3.0,Phases=3,Linecode=BT803_BT803_4_3_4,Length=0.041971000,Units=km
new line.12497381 bus1=BBT3337777.1.2.3.0,bus2=BBT3337798.1.2.3.0,Phases=3,Linecode=BT803_BT803_4_3_4,Length=0.039431000,Units=km
new line.12497402 bus1=BBT3337770.1.2.3.0,bus2=BBT3337777.1.2.3.0,Phases=3,Linecode=BT803_BT803_4_3_4,Length=0.035146000,Units=km
new line.12497409 bus1=BBT3337770.1.2.3.0,bus2=BBT3337854.1.2.3.0,Phases=3,Linecode=BT803_BT803_4_3_4,Length=0.039784000,Units=km
new line.12497430 bus1=BBT3337854.1.2.3.0,bus2=BBT3337875.1.2.3.0,Phases=3,Linecode=BT803_BT803_4_3_4,Length=0.040788000,Units=km
new line.12497451 bus1=BBT3337875.1.2.3.0,bus2=BBT3337882.1.2.3.0,Phases=3,Linecode=BT803_BT803_4_3_4,Length=0.039177000,Units=km
new line.12497472 bus1=BBT3337882.1.2.3.0,bus2=BBT3337889.1.2.3.0,Phases=3,Linecode=BT803_BT803_4_3_4,Length=0.039177000,Units=km
new line.12497493 bus1=BBT3337889.1.2.3.0,bus2=BBT3337896.1.2.3.0,Phases=3,Linecode=BT803_BT803_4_3_4,Length=0.043236000,Units=km
new line.12497514 bus1=BBT3337896.1.2.3.0,bus2=BBT3337903.1.2.3.0,Phases=3,Linecode=BT803_BT803_4_3_4,Length=0.030865000,Units=km
new line.12497549 bus1=BBT3337952.1.2.3.0,bus2=BBT3337959.1.2.3.0,Phases=3,Linecode=BT803_BT803_4_3_4,Length=0.038985000,Units=km
new line.12497556 bus1=BBT3338015.1.2.3.0,bus2=BBT3338022.1.2.3.0,Phases=3,Linecode=BT803_BT803_4_3_4,Length=0.026458000,Units=km
new line.12497577 bus1=BBT3338008.1.2.3.0,bus2=BBT3338015.1.2.3.0,Phases=3,Linecode=BT803_BT803_4_3_4,Length=0.024335000,Units=km
new line.12497591 bus1=BBT3338001.1.2.3.0,bus2=BBT3338008.1.2.3.0,Phases=3,Linecode=BT803_BT803_4_3_4,Length=0.029812000,Units=km
new line.12497619 bus1=BBT3337945.1.2.3.0,bus2=BBT3337952.1.2.3.0,Phases=3,Linecode=BT803_BT803_4_3_4,Length=0.043386000,Units=km
new line.12497633 bus1=BBT3337938.1.2.3.0,bus2=BBT3337945.1.2.3.0,Phases=3,Linecode=BT803_BT803_4_3_4,Length=0.036334000,Units=km
new line.12497668 bus1=BBT3337931.1.2.3.0,bus2=BBT3337938.1.2.3.0,Phases=3,Linecode=BT803_BT803_4_3_4,Length=0.036689000,Units=km
new line.12497689 bus1=BBT3337994.1.2.3.0,bus2=BBT3338001.1.2.3.0,Phases=3,Linecode=BT803_BT803_4_3_4,Length=0.029812000,Units=km
new line.12497710 bus1=BBT3337987.1.2.3.0,bus2=BBT3337994.1.2.3.0,Phases=3,Linecode=BT803_BT803_4_3_4,Length=0.031123000,Units=km
new line.12497724 bus1=BBT3337924.1.2.3.0,bus2=BBT3337931.1.2.3.0,Phases=3,Linecode=BT803_BT803_4_3_4,Length=0.036030000,Units=km
new line.12497745 bus1=BBT3337973.1.2.3.0,bus2=BBT3337980.1.2.3.0,Phases=3,Linecode=BT803_BT803_4_3_4,Length=0.025300000,Units=km
new line.12497759 bus1=BBT3337980.1.2.3.0,bus2=BBT3337987.1.2.3.0,Phases=3,Linecode=BT803_BT803_4_3_4,Length=0.036649000,Units=km
new line.12497773 bus1=BBT3337917.1.2.3.0,bus2=BBT3337924.1.2.3.0,Phases=3,Linecode=BT805_BT805_4_3_4,Length=0.034904000,Units=km
new line.12497780 bus1=BBT3337910.1.2.3.0,bus2=BBT3337917.1.2.3.0,Phases=3,Linecode=BT509_BT509_7_3_1,Length=0.000500000,Units=km
new line.12497787 bus1=BBT3337917.1.2.3.0,bus2=BBT3337966.1.2.3.0,Phases=3,Linecode=BT805_BT805_4_3_4,Length=0.017018000,Units=km
new line.12497794 bus1=BBT3337917.1.2.3.0,bus2=BBT3338029.1.2.3.0,Phases=3,Linecode=BT805_BT805_4_3_4,Length=0.027000000,Units=km
new line.12497815 bus1=BBT3337966.1.2.3.0,bus2=BBT3337973.1.2.3.0,Phases=3,Linecode=BT803_BT803_4_3_4,Length=0.032227000,Units=km
new line.12497822 bus1=BBT3337966.1.2.3.0,bus2=BBT3338043.1.2.3.0,Phases=3,Linecode=BT803_BT803_4_3_4,Length=0.039984000,Units=km
new line.12497843 bus1=BBT3338029.1.2.3.0,bus2=BBT3338036.1.2.3.0,Phases=3,Linecode=BT805_BT805_4_3_4,Length=0.025982000,Units=km
new line.12497857 bus1=BBT3338036.1.2.3.0,bus2=BBT3338057.1.2.3.0,Phases=3,Linecode=BT803_BT803_4_3_4,Length=0.035444000,Units=km
new line.12497864 bus1=BBT3338036.1.2.0,bus2=BBT7043717.1.2.0,Phases=2,Linecode=BT808_BT808_4_2_3,Length=0.009842000,Units=km
new line.12497878 bus1=BBT3338043.1.2.3.0,bus2=BBT3338050.1.2.3.0,Phases=3,Linecode=BT803_BT803_4_3_4,Length=0.040233000,Units=km
new line.12497892 bus1=BBT3338050.1.2.3.0,bus2=BBT3338064.1.2.3.0,Phases=3,Linecode=BT803_BT803_4_3_4,Length=0.032227000,Units=km
new line.12497913 bus1=BBT3338057.1.2.3.0,bus2=BBT3338085.1.2.3.0,Phases=3,Linecode=BT803_BT803_4_3_4,Length=0.032427000,Units=km
new line.12497948 bus1=BBT3338064.1.2.3.0,bus2=BBT3338099.1.2.3.0,Phases=3,Linecode=BT803_BT803_4_3_4,Length=0.038392000,Units=km
new line.12497962 bus1=BBT3338085.1.2.3.0,bus2=BBT3338092.1.2.3.0,Phases=3,Linecode=BT803_BT803_4_3_4,Length=0.024742000,Units=km
new line.12497976 bus1=BBT3338092.1.2.3.0,bus2=BBT21653.1.2.3.0,Phases=3,Linecode=BT108_BT108_7_3_1,Length=0.037095000,Units=km
new line.12497990 bus1=BBT3338099.1.2.3.0,bus2=BBT3338106.1.2.3.0,Phases=3,Linecode=BT803_BT803_4_3_4,Length=0.039419000,Units=km
new line.12497997 bus1=BBT3338106.1.2.3.0,bus2=BBT3338183.1.2.3.0,Phases=3,Linecode=BT803_BT803_4_3_4,Length=0.040419000,Units=km
new line.12498130 bus1=BBT3338148.1.2.3.0,bus2=BBT3338155.1.2.3.0,Phases=3,Linecode=BT803_BT803_4_3_4,Length=0.025281000,Units=km
new line.12498137 bus1=BBT3338148.1.2.3.0,bus2=BBT3338211.1.2.3.0,Phases=3,Linecode=BT803_BT803_4_3_4,Length=0.026231000,Units=km
new line.12498158 bus1=BBT3338204.1.2.3.0,bus2=BBT3338225.1.2.3.0,Phases=3,Linecode=BT803_BT803_4_3_4,Length=0.032118000,Units=km
new line.12498179 bus1=BBT3338211.1.2.3.0,bus2=BBT3338218.1.2.3.0,Phases=3,Linecode=BT803_BT803_4_3_4,Length=0.028212000,Units=km
new line.12498200 bus1=BBT3338218.1.2.3.0,bus2=BBT3338246.1.2.3.0,Phases=3,Linecode=BT803_BT803_4_3_4,Length=0.025003000,Units=km
new line.12498221 bus1=BBT3338225.1.2.3.0,bus2=BBT3338232.1.2.3.0,Phases=3,Linecode=BT803_BT803_4_3_4,Length=0.020601000,Units=km
new line.12498242 bus1=BBT3338232.1.2.3.0,bus2=BBT3338274.1.2.3.0,Phases=3,Linecode=BT803_BT803_4_3_4,Length=0.020601000,Units=km
new line.12498249 bus1=BBT3338232.1.2.3.0,bus2=BBT4749607.1.2.3.0,Phases=3,Linecode=BT803_BT803_4_3_4,Length=0.031379000,Units=km
new line.12498270 bus1=BBT3338246.1.2.3.0,bus2=BBT3338253.1.2.3.0,Phases=3,Linecode=BT803_BT803_4_3_4,Length=0.030994000,Units=km
new line.12498291 bus1=BBT3338253.1.2.3.0,bus2=BBT3338260.1.2.3.0,Phases=3,Linecode=BT803_BT803_4_3_4,Length=0.030978000,Units=km
new line.12498312 bus1=BBT3338260.1.2.3.0,bus2=BBT3338267.1.2.3.0,Phases=3,Linecode=BT803_BT803_4_3_4,Length=0.032040000,Units=km
new line.12498333 bus1=BBT3338267.1.2.3.0,bus2=BBT3587047.1.2.3.0,Phases=3,Linecode=BT803_BT803_4_3_4,Length=0.026981000,Units=km
new line.12498354 bus1=BBT3338274.1.2.3.0,bus2=BBT3338281.1.2.3.0,Phases=3,Linecode=BT803_BT803_4_3_4,Length=0.018345000,Units=km
new line.12498368 bus1=BBT3338281.1.2.3.0,bus2=BBT385856.1.2.3.0,Phases=3,Linecode=BT803_BT803_4_3_4,Length=0.017452000,Units=km
new line.12498375 bus1=BBT3338316.1.2.3.0,bus2=BBT3338323.1.2.3.0,Phases=3,Linecode=BT803_BT803_4_3_4,Length=0.032535000,Units=km
new line.12498396 bus1=BBT3338309.1.2.3.0,bus2=BBT3338316.1.2.3.0,Phases=3,Linecode=BT803_BT803_4_3_4,Length=0.031379000,Units=km
new line.12498417 bus1=BBT3338302.1.2.3.0,bus2=BBT3338309.1.2.3.0,Phases=3,Linecode=BT803_BT803_4_3_4,Length=0.021009000,Units=km
new line.12498438 bus1=BBT3338295.1.2.3.0,bus2=BBT3338302.1.2.3.0,Phases=3,Linecode=BT803_BT803_4_3_4,Length=0.024580000,Units=km
new line.12986 bus1=BBT4727.1.2.0,bus2=BBT4720.1.2.0,Phases=2,Linecode=BT802_BT802_4_2_3,Length=0.025925000,Units=km
new line.13007 bus1=BBT4720.1.2.0,bus2=BBT165876230.1.2.0,Phases=2,Linecode=BT807_BT807_4_2_3,Length=0.029391000,Units=km
new line.13028 bus1=BBT4741.1.2.0,bus2=BBT4727.1.2.0,Phases=2,Linecode=BT802_BT802_4_2_3,Length=0.030393000,Units=km
new line.13035 bus1=BBT4713.1.2.0,bus2=BBT4741.1.2.0,Phases=2,Linecode=BT518_BT518_7_2_1,Length=0.000500000,Units=km
new line.13042 bus1=BBT4741.1.2.0,bus2=BBT4748.1.2.0,Phases=2,Linecode=BT802_BT802_4_2_3,Length=0.029678000,Units=km
new line.13588 bus1=BBT4937.1.2.3.0,bus2=BBT4930.1.2.3.0,Phases=3,Linecode=BT108_BT107_7_3_1,Length=0.028265000,Units=km
new line.14470 bus1=BBT5217.1.2.0,bus2=BBT5224.1.2.0,Phases=2,Linecode=BT106_BT106_7_2_1,Length=0.025063000,Units=km
new line.14484 bus1=BBT5224.1.2.0,bus2=BBT5252.1.2.0,Phases=2,Linecode=BT106_BT106_7_2_1,Length=0.020795000,Units=km
new line.14510518 bus1=BBT4210817.1.2.0,bus2=BBT5671479.1.2.0,Phases=2,Linecode=BT810_BT810_4_2_4,Length=0.026852000,Units=km
new line.14533 bus1=BBT5238.1.2.0,bus2=BBT5168.1.2.0,Phases=2,Linecode=BT801_BT801_4_2_3,Length=0.011697000,Units=km
new line.14540 bus1=BBT5238.1.2.0,bus2=BBT5245.1.2.0,Phases=2,Linecode=BT801_BT801_4_2_3,Length=0.026288000,Units=km
new line.14945925 bus1=BBT7190297.1.2.0,bus2=BBT7190304.1.2.0,Phases=2,Linecode=BT808_BT808_4_2_3,Length=0.038248000,Units=km
new line.14945939 bus1=BBT7190199.1.2.0,bus2=BBT7190206.1.2.0,Phases=2,Linecode=BT808_BT808_4_2_3,Length=0.045189000,Units=km
new line.14945946 bus1=BBT7190206.1.2.0,bus2=BBT7190213.1.2.0,Phases=2,Linecode=BT808_BT808_4_2_3,Length=0.030458000,Units=km
new line.14946037 bus1=BBT7190213.1.2.0,bus2=BBT7190220.1.2.0,Phases=2,Linecode=BT808_BT808_4_2_3,Length=0.042911000,Units=km
new line.15464 bus1=BBT5539.1.2.3.0,bus2=BBT5469.1.2.3.0,Phases=3,Linecode=BT809_BT809_4_3_4,Length=0.026889000,Units=km
new line.15478 bus1=BBT5560.1.2.3.0,bus2=BBT5553.1.2.3.0,Phases=3,Linecode=BT803_BT803_4_3_4,Length=0.009481000,Units=km
new line.10249 bus1=BBT3768.1.2.3.0,bus2=BBT3775.1.2.3.0,Phases=3,Linecode=BT108_BT107_7_3_1,Length=0.017193000,Units=km
new line.10263 bus1=BBT4552.1.2.3.0,bus2=BBT4545.1.2.3.0,Phases=3,Linecode=BT810_BT810_4_3_4,Length=0.023415000,Units=km
new line.11782 bus1=BBT4307.1.2.3.0,bus2=BBT4321.1.2.3.0,Phases=3,Linecode=BT803_BT803_4_3_4,Length=0.031363000,Units=km
new line.11810 bus1=BBT4321.1.2.3.0,bus2=BBT4314.1.2.3.0,Phases=3,Linecode=BT803_BT803_4_3_4,Length=0.031379000,Units=km
new line.11817 bus1=BBT4321.1.2.3.0,bus2=BBT4328.1.2.3.0,Phases=3,Linecode=BT803_BT803_4_3_4,Length=0.011173000,Units=km
new line.12167 bus1=BBT4447.1.3.0,bus2=BBT4461.1.3.0,Phases=2,Linecode=BT519_BT519_5_2_1,Length=0.010289000,Units=km
new line.12202 bus1=BBT4461.1.3.0,bus2=BBT4433.1.3.0,Phases=2,Linecode=BT519_BT519_5_2_1,Length=0.018427000,Units=km
new line.12209 bus1=BBT4461.1.3.0,bus2=BBT4468.1.3.0,Phases=2,Linecode=BT519_BT519_5_2_1,Length=0.005096000,Units=km
new line.12216 bus1=BBT4461.1.3.0,bus2=BBT4475.1.3.0,Phases=2,Linecode=BT519_BT519_5_2_1,Length=0.005096000,Units=km
new line.12643 bus1=BBT4608.1.2.3.0,bus2=BBT4615.1.2.3.0,Phases=3,Linecode=BT809_BT809_4_3_4,Length=0.021572000,Units=km
new line.12664 bus1=BBT4615.1.2.3.0,bus2=BBT4622.1.2.3.0,Phases=3,Linecode=BT809_BT809_4_3_4,Length=0.027874000,Units=km
new line.12695894 bus1=BBT3411067.1.2.3.0,bus2=BBT57360102.1.2.3.0,Phases=3,Linecode=BT803_BT803_4_3_4,Length=0.018776000,Units=km
new line.12696349 bus1=BBT3411165.1.2.3.0,bus2=BBT3411207.1.2.3.0,Phases=3,Linecode=BT108_BT107_7_3_1,Length=0.045013000,Units=km
new line.12696377 bus1=BBT3411158.1.2.3.0,bus2=BBT3411165.1.2.3.0,Phases=3,Linecode=BT108_BT107_7_3_1,Length=0.032734000,Units=km
new line.12696384 bus1=BBT3401498.1.2.3.0,bus2=BBT3411158.1.2.3.0,Phases=3,Linecode=BT518_BT518_7_3_1,Length=0.000500000,Units=km
new line.12696391 bus1=BBT3411158.1.2.3.0,bus2=BBT3411151.1.2.3.0,Phases=3,Linecode=BT108_BT107_7_3_1,Length=0.032427000,Units=km
new line.12696412 bus1=BBT3411151.1.2.3.0,bus2=BBT26147.1.2.3.0,Phases=3,Linecode=BT108_BT107_7_3_1,Length=0.040022000,Units=km
new line.13181680 bus1=BBT3595314.1.2.0,bus2=BBT3595321.1.2.0,Phases=2,Linecode=BT807_BT807_4_2_3,Length=0.037082000,Units=km
new line.13185124 bus1=BBT3595811.1.2.3.0,bus2=BBT3600452.1.2.3.0,Phases=3,Linecode=BT813_BT813_4_3_4,Length=0.028159000,Units=km
new line.13190479 bus1=BBT3597344.1.2.3.0,bus2=BBT3334.1.2.3.0,Phases=3,Linecode=BT108_BT107_7_3_1,Length=0.026059000,Units=km
new line.13190486 bus1=BBT3597344.1.2.3.0,bus2=BBT3348.1.2.3.0,Phases=3,Linecode=BT108_BT108_7_3_1,Length=0.004997000,Units=km
new line.13190493 bus1=BBT3597344.1.2.3.0,bus2=BBT3369.1.2.3.0,Phases=3,Linecode=BT108_BT107_7_3_1,Length=0.021199000,Units=km
new line.13201742 bus1=BBT3600774.1.2.0,bus2=BBT5812.1.2.0,Phases=2,Linecode=BT108_BT108_7_2_1,Length=0.021010000,Units=km
new line.13202106 bus1=BBT3600942.1.2.0,bus2=BBT5798.1.2.0,Phases=2,Linecode=BT108_BT107_7_2_1,Length=0.014856000,Units=km
new line.13203 bus1=BBT394200.1.2.3.0,bus2=BBT394207.1.2.3.0,Phases=3,Linecode=BT111_BT108_7_3_1,Length=0.034386000,Units=km
new line.13214447 bus1=BBT3605485.1.2.3.0,bus2=BBT3641157.1.2.3.0,Phases=3,Linecode=BT812_BT812_4_3_4,Length=0.091001000,Units=km
new line.13214454 bus1=BBT3605478.1.2.3.0,bus2=BBT3605485.1.2.3.0,Phases=3,Linecode=BT514_BT514_7_3_1,Length=0.000500000,Units=km
new line.13214972 bus1=BBT3605758.1.2.3.0,bus2=BBT8899.1.2.3.0,Phases=3,Linecode=BT108_BT107_7_3_1,Length=0.018372000,Units=km
new line.13238 bus1=BBT4811.1.2.3.0,bus2=BBT4804.1.2.3.0,Phases=3,Linecode=BT809_BT809_4_3_4,Length=0.026059000,Units=km
new line.13595 bus1=BBT4923.1.2.3.0,bus2=BBT4937.1.2.3.0,Phases=3,Linecode=BT513_BT513_7_3_1,Length=0.000500000,Units=km
new line.13602 bus1=BBT4937.1.2.3.0,bus2=BBT154340911.1.2.3.0,Phases=3,Linecode=BT108_BT107_7_3_1,Length=0.019092000,Units=km
new line.14645 bus1=BBT5273.1.2.0,bus2=BBT5266.1.2.0,Phases=2,Linecode=BT108_BT108_7_2_1,Length=0.033264000,Units=km
new line.14680 bus1=BBT5280.1.2.0,bus2=BBT5273.1.2.0,Phases=2,Linecode=BT108_BT108_7_2_1,Length=0.033947000,Units=km
new line.14687 bus1=BBT5259.1.2.0,bus2=BBT5280.1.2.0,Phases=2,Linecode=BT518_BT518_7_2_1,Length=0.000500000,Units=km
new line.15151942 bus1=BBT5039295.1.2.3.0,bus2=BBT5039302.1.2.3.0,Phases=3,Linecode=BT810_BT810_4_3_4,Length=0.055116000,Units=km
new line.15151949 bus1=BBT5039295.1.3.0,bus2=BBT5739694.1.3.0,Phases=2,Linecode=BT503_BT503_5_2_1,Length=0.014550000,Units=km
new line.15151991 bus1=BBT5039302.1.2.3.0,bus2=BBT7192474.1.2.3.0,Phases=3,Linecode=BT810_BT810_4_3_4,Length=0.020235000,Units=km
new line.15624575 bus1=BBT5641274.1.2.3.0,bus2=BBT5641281.1.2.3.0,Phases=3,Linecode=BT810_BT810_4_3_4,Length=0.047009000,Units=km
new line.15624603 bus1=BBT5641295.1.2.3.0,bus2=BBT5641302.1.2.3.0,Phases=3,Linecode=BT810_BT810_4_3_4,Length=0.036988000,Units=km
new line.15624624 bus1=BBT5641302.1.2.3.0,bus2=BBT5641309.1.2.3.0,Phases=3,Linecode=BT810_BT810_4_3_4,Length=0.036988000,Units=km
new line.15624652 bus1=BBT5641309.1.2.3.0,bus2=BBT5641316.1.2.3.0,Phases=3,Linecode=BT810_BT810_4_3_4,Length=0.035989000,Units=km
new line.15624659 bus1=BBT5641316.1.2.3.0,bus2=BBT5641323.1.2.3.0,Phases=3,Linecode=BT810_BT810_4_3_4,Length=0.032992000,Units=km
new line.15624666 bus1=BBT5641323.1.2.3.0,bus2=BBT5641330.1.2.3.0,Phases=3,Linecode=BT810_BT810_4_3_4,Length=0.029996000,Units=km
new line.15624673 bus1=BBT5641330.1.2.3.0,bus2=BBT5641337.1.2.3.0,Phases=3,Linecode=BT810_BT810_4_3_4,Length=0.043155000,Units=km
new line.15624680 bus1=BBT5641337.1.2.3.0,bus2=BBT5641344.1.2.3.0,Phases=3,Linecode=BT810_BT810_4_3_4,Length=0.034689000,Units=km
new line.15624687 bus1=BBT5641344.1.2.3.0,bus2=BBT5641351.1.2.3.0,Phases=3,Linecode=BT810_BT810_4_3_4,Length=0.025943000,Units=km
new line.15624694 bus1=BBT5641351.1.2.3.0,bus2=BBT5641358.1.2.3.0,Phases=3,Linecode=BT810_BT810_4_3_4,Length=0.028616000,Units=km
new line.15624722 bus1=BBT5641393.1.2.3.0,bus2=BBT5641400.1.2.3.0,Phases=3,Linecode=BT810_BT810_4_3_4,Length=0.026814000,Units=km
new line.15624729 bus1=BBT5641393.1.2.3.0,bus2=BBT5641470.1.2.3.0,Phases=3,Linecode=BT810_BT810_4_3_4,Length=0.027998000,Units=km
new line.15624736 bus1=BBT5641400.1.2.3.0,bus2=BBT5641407.1.2.3.0,Phases=3,Linecode=BT810_BT810_4_3_4,Length=0.029134000,Units=km
new line.15624757 bus1=BBT5641407.1.2.3.0,bus2=BBT5641414.1.2.3.0,Phases=3,Linecode=BT810_BT810_4_3_4,Length=0.037310000,Units=km
new line.15624771 bus1=BBT5641414.1.2.3.0,bus2=BBT5641421.1.2.3.0,Phases=3,Linecode=BT810_BT810_4_3_4,Length=0.040171000,Units=km
new line.15624785 bus1=BBT5641421.1.2.3.0,bus2=BBT5641435.1.2.3.0,Phases=3,Linecode=BT810_BT810_4_3_4,Length=0.028997000,Units=km
new line.15624792 bus1=BBT5641435.1.2.3.0,bus2=BBT5641442.1.2.3.0,Phases=3,Linecode=BT810_BT810_4_3_4,Length=0.041982000,Units=km
new line.15624799 bus1=BBT5641442.1.2.3.0,bus2=BBT5641449.1.2.3.0,Phases=3,Linecode=BT810_BT810_4_3_4,Length=0.037028000,Units=km
new line.15624806 bus1=BBT5641470.1.2.3.0,bus2=BBT5641477.1.2.3.0,Phases=3,Linecode=BT810_BT810_4_3_4,Length=0.029134000,Units=km
new line.15624813 bus1=BBT5641477.1.2.3.0,bus2=BBT5641484.1.2.3.0,Phases=3,Linecode=BT810_BT810_4_3_4,Length=0.034631000,Units=km
new line.15624820 bus1=BBT5641484.1.2.3.0,bus2=BBT5641491.1.2.3.0,Phases=3,Linecode=BT810_BT810_4_3_4,Length=0.026907000,Units=km
new line.15624827 bus1=BBT5641491.1.2.3.0,bus2=BBT5641498.1.2.3.0,Phases=3,Linecode=BT810_BT810_4_3_4,Length=0.026907000,Units=km
new line.15624834 bus1=BBT5641498.1.2.3.0,bus2=BBT5641505.1.2.3.0,Phases=3,Linecode=BT810_BT810_4_3_4,Length=0.024170000,Units=km
new line.10618231 bus1=BBT2806085.1.2.0,bus2=BBT3595314.1.2.0,Phases=2,Linecode=BT807_BT807_4_2_3,Length=0.029135000,Units=km
new line.10998 bus1=BBT4055.1.2.3.0,bus2=BBT4048.1.2.3.0,Phases=3,Linecode=BT803_BT803_4_3_4,Length=0.022457000,Units=km
new line.11019 bus1=BBT4062.1.2.3.0,bus2=BBT4055.1.2.3.0,Phases=3,Linecode=BT803_BT803_4_3_4,Length=0.022346000,Units=km
new line.11026 bus1=BBT4062.1.2.3.0,bus2=BBT4069.1.2.3.0,Phases=3,Linecode=BT803_BT803_4_3_4,Length=0.036595000,Units=km
new line.11478139 bus1=BBT3016960.1.2.3.0,bus2=BBT5707.1.2.3.0,Phases=3,Linecode=BT803_BT803_4_3_4,Length=0.025789000,Units=km
new line.11478146 bus1=BBT3016960.1.2.3.0,bus2=BBT5700.1.2.3.0,Phases=3,Linecode=BT108_BT107_7_3_1,Length=0.029979000,Units=km
new line.11478153 bus1=BBT3016960.1.2.3.0,bus2=BBT3016967.1.2.3.0,Phases=3,Linecode=BT108_BT107_7_3_1,Length=0.004997000,Units=km
new line.11852 bus1=BBT4335.1.2.0,bus2=BBT4342.1.2.0,Phases=2,Linecode=BT807_BT807_4_2_3,Length=0.022984000,Units=km
new line.12279 bus1=BBT4482.1.2.3.0,bus2=BBT4419.1.2.3.0,Phases=3,Linecode=BT108_BT107_7_3_1,Length=0.036771000,Units=km
new line.12284175 bus1=BBT3257403.1.2.3.0,bus2=BBT11216.1.2.3.0,Phases=3,Linecode=BT518_BT518_5_3_1,Length=0.049058000,Units=km
new line.12286 bus1=BBT4349.1.2.3.0,bus2=BBT4482.1.2.3.0,Phases=3,Linecode=BT513_BT513_7_3_1,Length=0.000500000,Units=km
new line.12293 bus1=BBT4482.1.2.3.0,bus2=BBT4524.1.2.3.0,Phases=3,Linecode=BT106_BT106_7_3_1,Length=0.028265000,Units=km
new line.12328 bus1=BBT4496.1.2.3.0,bus2=BBT4510.1.2.3.0,Phases=3,Linecode=BT106_BT106_7_3_1,Length=0.031806000,Units=km
new line.12790 bus1=BBT4664.1.2.3.0,bus2=BBT4671.1.2.3.0,Phases=3,Linecode=BT111_BT108_7_3_1,Length=0.028159000,Units=km
new line.12804 bus1=BBT4671.1.2.3.0,bus2=BBT4678.1.2.3.0,Phases=3,Linecode=BT111_BT108_7_3_1,Length=0.015546000,Units=km
new line.12825 bus1=BBT4678.1.2.3.0,bus2=BBT4685.1.2.3.0,Phases=3,Linecode=BT111_BT108_7_3_1,Length=0.024396000,Units=km
new line.13315 bus1=BBT4825.1.2.3.0,bus2=BBT4818.1.2.3.0,Phases=3,Linecode=BT809_BT809_4_3_4,Length=0.030508000,Units=km
new line.13318593 bus1=BBT3651209.1.2.3.0,bus2=BBT20379.1.2.3.0,Phases=3,Linecode=BT803_BT803_4_3_4,Length=0.019222000,Units=km
new line.13318600 bus1=BBT3651209.1.2.3.0,bus2=BBT3651223.1.2.3.0,Phases=3,Linecode=BT803_BT803_4_3_4,Length=0.014026000,Units=km
new line.13318628 bus1=BBT3651223.1.2.3.0,bus2=BBT3651230.1.2.3.0,Phases=3,Linecode=BT803_BT803_4_3_4,Length=0.032227000,Units=km
new line.13700 bus1=BBT4958.1.2.3.0,bus2=BBT4965.1.2.3.0,Phases=3,Linecode=BT108_BT107_7_3_1,Length=0.033354000,Units=km
new line.13735 bus1=BBT6547.1.2.3.0,bus2=BBT6540.1.2.3.0,Phases=3,Linecode=BT108_BT108_7_3_1,Length=0.029812000,Units=km
new line.13742 bus1=BBT6547.1.2.3.0,bus2=BBT6561.1.2.3.0,Phases=3,Linecode=BT108_BT108_7_3_1,Length=0.031283000,Units=km
new line.13812 bus1=BBT5007.1.2.3.0,bus2=BBT5000.1.2.3.0,Phases=3,Linecode=BT108_BT107_7_3_1,Length=0.028616000,Units=km
new line.13819 bus1=BBT5007.1.2.3.0,bus2=BBT5014.1.2.3.0,Phases=3,Linecode=BT108_BT108_7_3_1,Length=0.027999000,Units=km
new line.13847 bus1=BBT5014.1.2.3.0,bus2=BBT5021.1.2.3.0,Phases=3,Linecode=BT809_BT809_4_3_4,Length=0.014308000,Units=km
new line.14309 bus1=BBT5182.1.2.0,bus2=BBT5175.1.2.0,Phases=2,Linecode=BT801_BT801_4_2_3,Length=0.035331000,Units=km
new line.14330 bus1=BBT5189.1.2.0,bus2=BBT5182.1.2.0,Phases=2,Linecode=BT108_BT107_7_2_1,Length=0.028141000,Units=km
new line.14358 bus1=BBT5196.1.2.0,bus2=BBT5189.1.2.0,Phases=2,Linecode=BT805_BT805_4_2_4,Length=0.040333000,Units=km
new line.14365 bus1=BBT5154.1.2.0,bus2=BBT5196.1.2.0,Phases=2,Linecode=BT513_BT513_7_2_1,Length=0.000500000,Units=km
new line.14372 bus1=BBT5196.1.2.0,bus2=BBT72569919.1.2.0,Phases=2,Linecode=BT805_BT805_4_2_4,Length=0.018427000,Units=km
new line.14822956 bus1=BBT4579696.1.2.0,bus2=BBT4579948.1.2.0,Phases=2,Linecode=BT503_BT503_5_2_1,Length=0.029712000,Units=km
new line.14822963 bus1=BBT4579696.1.2.0,bus2=BBT4579703.1.2.0,Phases=2,Linecode=BT503_BT503_5_2_1,Length=0.035090000,Units=km
new line.14822970 bus1=BBT4579948.1.2.0,bus2=BBT4579955.1.2.0,Phases=2,Linecode=BT503_BT503_5_2_1,Length=0.027000000,Units=km
new line.14822991 bus1=BBT4579703.1.2.0,bus2=BBT4579710.1.2.0,Phases=2,Linecode=BT503_BT503_5_2_1,Length=0.035486000,Units=km
new line.14823033 bus1=BBT4579710.1.2.0,bus2=BBT4579920.1.2.0,Phases=2,Linecode=BT503_BT503_5_2_1,Length=0.037082000,Units=km
new line.14827 bus1=BBT5329.1.2.0,bus2=BBT24277136.1.2.0,Phases=2,Linecode=BT803_BT803_4_2_4,Length=0.017877000,Units=km
new line.14839826 bus1=BBT4607703.1.2.0,bus2=BBT2960351.1.2.0,Phases=2,Linecode=BT803_BT803_4_2_4,Length=0.030393000,Units=km
new line.14848 bus1=BBT5308.1.2.0,bus2=BBT5336.1.2.0,Phases=2,Linecode=BT513_BT513_7_2_1,Length=0.000500000,Units=km
new line.14855 bus1=BBT5336.1.2.0,bus2=BBT5343.1.2.0,Phases=2,Linecode=BT108_BT107_7_2_1,Length=0.037458000,Units=km
new line.14862 bus1=BBT5336.1.2.0,bus2=BBT24277101.1.2.0,Phases=2,Linecode=BT108_BT107_7_2_1,Length=0.024191000,Units=km
new line.15317 bus1=BBT5462.1.2.3.0,bus2=BBT5497.1.2.3.0,Phases=3,Linecode=BT513_BT513_7_3_1,Length=0.000500000,Units=km
new line.15324 bus1=BBT5497.1.2.3.0,bus2=BBT5504.1.2.3.0,Phases=3,Linecode=BT108_BT107_7_3_1,Length=0.042030000,Units=km
new line.15345 bus1=BBT5504.1.2.3.0,bus2=BBT5511.1.2.3.0,Phases=3,Linecode=BT108_BT107_7_3_1,Length=0.032258000,Units=km
new line.15373 bus1=BBT5511.1.2.3.0,bus2=BBT5518.1.2.3.0,Phases=3,Linecode=BT108_BT107_7_3_1,Length=0.022810000,Units=km
new line.15871367 bus1=BBT6553073.1.2.3.0,bus2=BBT6553080.1.2.3.0,Phases=3,Linecode=BT803_BT803_4_3_4,Length=0.039533000,Units=km
new line.15879270 bus1=BBT6572526.1.2.0,bus2=BBT2893.1.2.0,Phases=2,Linecode=BT801_BT801_4_2_3,Length=0.015801000,Units=km
new line.16220 bus1=BBT5791.1.2.0,bus2=BBT5819.1.2.0,Phases=2,Linecode=BT106_BT106_7_2_1,Length=0.031363000,Units=km
new line.16241 bus1=BBT5798.1.2.0,bus2=BBT5777.1.2.0,Phases=2,Linecode=BT108_BT107_7_2_1,Length=0.039024000,Units=km
new line.16255 bus1=BBT5763.1.2.0,bus2=BBT5805.1.2.0,Phases=2,Linecode=BT513_BT513_7_2_1,Length=0.000500000,Units=km
new line.16262 bus1=BBT5805.1.2.0,bus2=BBT5826.1.2.0,Phases=2,Linecode=BT108_BT107_7_2_1,Length=0.031220000,Units=km
new line.16269 bus1=BBT5805.1.2.0,bus2=BBT3600942.1.2.0,Phases=2,Linecode=BT108_BT107_7_2_1,Length=0.019786000,Units=km
new line.16871 bus1=BBT6022.1.2.3.0,bus2=BBT6029.1.2.3.0,Phases=3,Linecode=BT803_BT803_4_3_4,Length=0.022189000,Units=km
new line.16878 bus1=BBT6022.1.2.3.0,bus2=BBT6036.1.2.3.0,Phases=3,Linecode=BT108_BT107_7_3_1,Length=0.036031000,Units=km
new line.16883343 bus1=BBT28667.1.2.3.0,bus2=BBT38995833.1.2.3.0,Phases=3,Linecode=BT810_BT810_4_3_4,Length=0.014203000,Units=km
new line.16883357 bus1=BBT38995833.1.2.3.0,bus2=BBT38996309.1.2.3.0,Phases=3,Linecode=BT810_BT810_4_3_4,Length=0.024025000,Units=km
new line.16883399 bus1=BBT38996309.1.2.3.0,bus2=BBT38996393.1.2.3.0,Phases=3,Linecode=BT810_BT810_4_3_4,Length=0.018961000,Units=km
new line.16883406 bus1=BBT38996393.1.2.3.0,bus2=BBT38996442.1.2.3.0,Phases=3,Linecode=BT810_BT810_4_3_4,Length=0.042030000,Units=km
new line.16906 bus1=BBT6029.1.2.3.0,bus2=BBT2960449.1.2.3.0,Phases=3,Linecode=BT803_BT803_4_3_4,Length=0.027000000,Units=km
new line.17361 bus1=BBT7548.1.2.3.0,bus2=BBT7527.1.2.3.0,Phases=3,Linecode=BT805_BT803_4_3_4,Length=0.036975000,Units=km