new load.3000623269M1 bus1=RML1050015815.3.0,Phases=1,kv=0.127,kW=0.75284,pf=0.92,Vminpu=0.92,Vmaxpu=1.5,model=1,daily=RES2_10,status=variable
new load.3000623273M1 bus1=RML1050015731.1.2.3.0,Phases=3,kv=0.22,kW=0.10982,pf=0.92,Vminpu=0.92,Vmaxpu=1.5,model=1,daily=RES3_11,status=variable
new load.3000623274M1 bus1=RML1050015717.3.0,Phases=1,kv=0.127,kW=0.87942,pf=0.92,Vminpu=0.92,Vmaxpu=1.5,model=1,daily=RES2_10,status=variable
new load.3000623275M1 bus1=RML1050015724.1.0,Phases=1,kv=0.127,kW=0.08034,pf=0.92,Vminpu=0.92,Vmaxpu=1.5,model=1,daily=RES1_11,status=variable
new load.3000623276M1 bus1=RML1050015710.1.0,Phases=1,kv=0.127,kW=0.5423,pf=0.92,Vminpu=0.92,Vmaxpu=1.5,model=1,daily=RES1_11,status=variable
new load.3000623277M1 bus1=RML1050015703.3.0,Phases=1,kv=0.127,kW=0.48634,pf=0.92,Vminpu=0.92,Vmaxpu=1.5,model=1,daily=RES2_10,status=variable
new load.3000623278M1 bus1=RML1050015682.3.0,Phases=1,kv=0.127,kW=0.57242,pf=0.92,Vminpu=0.92,Vmaxpu=1.5,model=1,daily=RES1_11,status=variable
new load.3000623281M1 bus1=RML1050015619.2.0,Phases=1,kv=0.127,kW=0.84612,pf=0.92,Vminpu=0.92,Vmaxpu=1.5,model=1,daily=RES2_10,status=variable
new load.3000623282M1 bus1=RML1050015633.3.0,Phases=1,kv=0.127,kW=1.15322,pf=0.92,Vminpu=0.92,Vmaxpu=1.5,model=1,daily=RES3_11,status=variable
new load.3000623283M1 bus1=RML1050015612.1.2.3.0,Phases=3,kv=0.22,kW=0.8661,pf=0.92,Vminpu=0.92,Vmaxpu=1.5,model=1,daily=RES2_10,status=variable
new load.3000623284M1 bus1=RML1054977065.1.2.3.0,Phases=3,kv=0.22,kW=0.9589,pf=0.92,Vminpu=0.92,Vmaxpu=1.5,model=1,daily=RES3_11,status=variable
new load.3000623285M1 bus1=RML1050015577.1.2.3.0,Phases=3,kv=0.22,kW=0.92392,pf=0.92,Vminpu=0.92,Vmaxpu=1.5,model=1,daily=RES1_11,status=variable
new load.3000623286M1 bus1=RML1050015556.1.0,Phases=1,kv=0.127,kW=0.7795,pf=0.92,Vminpu=0.92,Vmaxpu=1.5,model=1,daily=RES2_10,status=variable
new load.3000623288M1 bus1=RML1050015542.3.0,Phases=1,kv=0.127,kW=1.19256,pf=0.92,Vminpu=0.92,Vmaxpu=1.5,model=1,daily=RES2_10,status=variable
new load.3000623289M1 bus1=RML1050015549.3.0,Phases=1,kv=0.127,kW=0.85278,pf=0.92,Vminpu=0.92,Vmaxpu=1.5,model=1,daily=RES2_10,status=variable
new load.3000623291M1 bus1=RML1050015458.3.0,Phases=1,kv=0.127,kW=1.26584,pf=0.92,Vminpu=0.92,Vmaxpu=1.5,model=1,daily=RES2_10,status=variable
new load.3000623292M1 bus1=RML1050015444.3.0,Phases=1,kv=0.127,kW=0.69294,pf=0.92,Vminpu=0.92,Vmaxpu=1.5,model=1,daily=RES1_11,status=variable
new load.3000623293M1 bus1=RML1050015437.2.0,Phases=1,kv=0.127,kW=0.57242,pf=0.92,Vminpu=0.92,Vmaxpu=1.5,model=1,daily=RES1_11,status=variable
new load.3000623295M1 bus1=RML1050015395.1.2.0,Phases=2,kv=0.22,kW=0.71954,pf=0.92,Vminpu=0.92,Vmaxpu=1.5,model=1,daily=RES2_10,status=variable
new load.3000623296M1 bus1=RML1050015409.1.0,Phases=1,kv=0.127,kW=0.68622,pf=0.92,Vminpu=0.92,Vmaxpu=1.5,model=1,daily=RES2_10,status=variable
new load.3000623297M1 bus1=RML1050015416.2.0,Phases=1,kv=0.127,kW=0.5423,pf=0.92,Vminpu=0.92,Vmaxpu=1.5,model=1,daily=RES1_11,status=variable
new load.3000623298M1 bus1=RML1050015402.3.0,Phases=1,kv=0.127,kW=0.01004,pf=0.92,Vminpu=0.92,Vmaxpu=1.5,model=1,daily=RES1_11,status=variable
new load.3000623299M1 bus1=RML1050015430.3.0,Phases=1,kv=0.127,kW=0.79948,pf=0.92,Vminpu=0.92,Vmaxpu=1.5,model=1,daily=RES2_10,status=variable
new load.3000623301M1 bus1=RML1050015472.1.0,Phases=1,kv=0.127,kW=0.5423,pf=0.92,Vminpu=0.92,Vmaxpu=1.5,model=1,daily=RES1_11,status=variable
new load.3000623302M1 bus1=RML1050015479.2.0,Phases=1,kv=0.127,kW=0.7062,pf=0.92,Vminpu=0.92,Vmaxpu=1.5,model=1,daily=RES2_10,status=variable
new load.3000623303M1 bus1=RML1050015493.3.0,Phases=1,kv=0.127,kW=0.46636,pf=0.92,Vminpu=0.92,Vmaxpu=1.5,model=1,daily=RES2_10,status=variable
new load.3000623305M1 bus1=RML1050015507.1.0,Phases=1,kv=0.127,kW=0.49302,pf=0.92,Vminpu=0.92,Vmaxpu=1.5,model=1,daily=RES2_10,status=variable
new load.3000623306M1 bus1=RML1050015514.1.0,Phases=1,kv=0.127,kW=0.90608,pf=0.92,Vminpu=0.92,Vmaxpu=1.5,model=1,daily=RES2_10,status=variable
new load.3000623307M1 bus1=RML1050015521.1.0,Phases=1,kv=0.127,kW=1.24614,pf=0.92,Vminpu=0.92,Vmaxpu=1.5,model=1,daily=RES3_11,status=variable
new load.3000623308M1 bus1=RML1050015465.1.2.3.0,Phases=3,kv=0.22,kW=0.43306,pf=0.92,Vminpu=0.92,Vmaxpu=1.5,model=1,daily=RES2_10,status=variable
new load.3000623310M1 bus1=RML1050015535.1.2.3.0,Phases=3,kv=0.22,kW=0.03012,pf=0.92,Vminpu=0.92,Vmaxpu=1.5,model=1,daily=RES1_11,status=variable
new load.3000623312M1 bus1=RML1050015570.1.0,Phases=1,kv=0.127,kW=0.2844,pf=0.92,Vminpu=0.92,Vmaxpu=1.5,model=1,daily=RES4_12,status=variable
new load.3000623313M1 bus1=RML1050015584.1.2.0,Phases=2,kv=0.22,kW=0.36154,pf=0.92,Vminpu=0.92,Vmaxpu=1.5,model=1,daily=RES1_11,status=variable
new load.3000623314M1 bus1=RML1050015626.2.3.0,Phases=2,kv=0.22,kW=0.95938,pf=0.92,Vminpu=0.92,Vmaxpu=1.5,model=1,daily=RES2_10,status=variable
new load.3000623315M1 bus1=RML1050015591.1.3.0,Phases=2,kv=0.22,kW=0.6801,pf=0.92,Vminpu=0.92,Vmaxpu=1.5,model=1,daily=RES3_11,status=variable
new load.3000623317M1 bus1=RML1050015605.1.2.3.0,Phases=3,kv=0.22,kW=1.07264,pf=0.92,Vminpu=0.92,Vmaxpu=1.5,model=1,daily=RES2_10,status=variable
new load.3000623318M1 bus1=RML1050015640.1.0,Phases=1,kv=0.127,kW=0.77726,pf=0.92,Vminpu=0.92,Vmaxpu=1.5,model=1,daily=RES3_11,status=variable
new load.3000623319M1 bus1=RML1050015647.2.0,Phases=1,kv=0.127,kW=0.79948,pf=0.92,Vminpu=0.92,Vmaxpu=1.5,model=1,daily=RES2_10,status=variable
new load.3000623321M1 bus1=RML1050015675.1.2.0,Phases=2,kv=0.22,kW=0.90608,pf=0.92,Vminpu=0.92,Vmaxpu=1.5,model=1,daily=RES2_10,status=variable
new load.3000623322M1 bus1=RML1050015696.1.0,Phases=1,kv=0.127,kW=0.41174,pf=0.92,Vminpu=0.92,Vmaxpu=1.5,model=1,daily=RES1_11,status=variable
new load.3000623329M1 bus1=RML1050015759.3.0,Phases=1,kv=0.127,kW=1.19122,pf=0.92,Vminpu=0.92,Vmaxpu=1.5,model=1,daily=RES3_11,status=variable
new load.3000623330M1 bus1=RML1050015745.2.0,Phases=1,kv=0.127,kW=0.57962,pf=0.92,Vminpu=0.92,Vmaxpu=1.5,model=1,daily=RES2_10,status=variable
new load.3000623331M1 bus1=RML1050015822.2.0,Phases=1,kv=0.127,kW=0.2611,pf=0.92,Vminpu=0.92,Vmaxpu=1.5,model=1,daily=RES1_11,status=variable
new load.3000623332M1 bus1=RML1050015808.2.0,Phases=1,kv=0.127,kW=0.6126,pf=0.92,Vminpu=0.92,Vmaxpu=1.5,model=1,daily=RES1_11,status=variable
new load.3000807810M1 bus1=RML1050175849.1.2.3.0,Phases=3,kv=0.22,kW=1.4156,pf=0.92,Vminpu=0.92,Vmaxpu=1.5,model=1,daily=RES4_17,status=variable
new load.3000807811M1 bus1=RML1050639207.1.0,Phases=1,kv=0.127,kW=0.7872,pf=0.92,Vminpu=0.92,Vmaxpu=1.5,model=1,daily=RES1_16,status=variable
new load.3000807812M1 bus1=RML1050639214.2.3.0,Phases=2,kv=0.22,kW=0.5488,pf=0.92,Vminpu=0.92,Vmaxpu=1.5,model=1,daily=RES2_17,status=variable
new load.3000807807M1 bus1=RML1050175877.1.2.3.0,Phases=3,kv=0.22,kW=0.2729,pf=0.92,Vminpu=0.92,Vmaxpu=1.5,model=1,daily=RES1_16,status=variable
new load.3000442371M1 bus1=RML1050017236.2.0,Phases=1,kv=0.12,kW=0.57548,pf=0.92,Vminpu=0.92,Vmaxpu=1.5,model=1,daily=RES2_6,status=variable
new load.3000442372M1 bus1=RML1050017166.2.0,Phases=1,kv=0.12,kW=0.56922,pf=0.92,Vminpu=0.92,Vmaxpu=1.5,model=1,daily=RES2_6,status=variable
new load.3000442373M1 bus1=RML1050017187.1.0,Phases=1,kv=0.12,kW=0.91326,pf=0.92,Vminpu=0.92,Vmaxpu=1.5,model=1,daily=RES2_6,status=variable
new load.3000442374M1 bus1=RML1050017194.2.0,Phases=1,kv=0.12,kW=0.59334,pf=0.92,Vminpu=0.92,Vmaxpu=1.5,model=1,daily=RES1_6,status=variable
new load.3000442375M1 bus1=RML1050017201.2.0,Phases=1,kv=0.12,kW=0.6568,pf=0.92,Vminpu=0.92,Vmaxpu=1.5,model=1,daily=RES2_6,status=variable
new load.3000442376M1 bus1=RML1050017159.1.0,Phases=1,kv=0.12,kW=0.23734,pf=0.92,Vminpu=0.92,Vmaxpu=1.5,model=1,daily=RES1_6,status=variable
new load.3000442378M1 bus1=RML1050017124.2.0,Phases=1,kv=0.12,kW=0.75688,pf=0.92,Vminpu=0.92,Vmaxpu=1.5,model=1,daily=RES2_6,status=variable
new load.3000442380M1 bus1=RML1050017089.1.0,Phases=1,kv=0.12,kW=0.84254,pf=0.92,Vminpu=0.92,Vmaxpu=1.5,model=1,daily=RES1_6,status=variable
new load.3000442382M1 bus1=RML1050017054.1.0,Phases=1,kv=0.12,kW=0.46914,pf=0.92,Vminpu=0.92,Vmaxpu=1.5,model=1,daily=RES2_6,status=variable
new load.3000442384M1 bus1=RML1050017033.2.0,Phases=1,kv=0.12,kW=0.01186,pf=0.92,Vminpu=0.92,Vmaxpu=1.5,model=1,daily=RES1_6,status=variable
new load.3000442385M1 bus1=RML1050017019.2.0,Phases=1,kv=0.12,kW=0.61926,pf=0.92,Vminpu=0.92,Vmaxpu=1.5,model=1,daily=RES2_6,status=variable
new load.3000442386M1 bus1=RML1050016984.2.0,Phases=1,kv=0.12,kW=0.72388,pf=0.92,Vminpu=0.92,Vmaxpu=1.5,model=1,daily=RES1_6,status=variable
new load.3000442387M1 bus1=RML1060723731.1.0,Phases=1,kv=0.12,kW=1.32542,pf=0.92,Vminpu=0.92,Vmaxpu=1.5,model=1,daily=RES3_7,status=variable
new load.3000442388M1 bus1=RML1050016956.1.0,Phases=1,kv=0.12,kW=0.74436,pf=0.92,Vminpu=0.92,Vmaxpu=1.5,model=1,daily=RES2_6,status=variable
new load.3000442390M1 bus1=RML1050016942.2.0,Phases=1,kv=0.12,kW=0.3916,pf=0.92,Vminpu=0.92,Vmaxpu=1.5,model=1,daily=RES1_6,status=variable
new load.3000442391M1 bus1=RML1050017012.2.0,Phases=1,kv=0.12,kW=0.86322,pf=0.92,Vminpu=0.92,Vmaxpu=1.5,model=1,daily=RES2_6,status=variable
new load.3000442392M1 bus1=RML1050017026.1.0,Phases=1,kv=0.12,kW=0.55046,pf=0.92,Vminpu=0.92,Vmaxpu=1.5,model=1,daily=RES2_6,status=variable
new load.3000442393M1 bus1=RML1050017040.1.0,Phases=1,kv=0.12,kW=0.9508,pf=0.92,Vminpu=0.92,Vmaxpu=1.5,model=1,daily=RES2_6,status=variable
new load.3000442394M1 bus1=RML1050017047.2.0,Phases=1,kv=0.12,kW=0.71934,pf=0.92,Vminpu=0.92,Vmaxpu=1.5,model=1,daily=RES2_6,status=variable
new load.3000442397M1 bus1=RML1050017103.2.0,Phases=1,kv=0.12,kW=0.86628,pf=0.92,Vminpu=0.92,Vmaxpu=1.5,model=1,daily=RES1_6,status=variable
new load.3000442398M1 bus1=RML1050017082.1.2.0,Phases=2,kv=0.24,kW=1.0321,pf=0.92,Vminpu=0.92,Vmaxpu=1.5,model=1,daily=RES2_6,status=variable
new load.3000442400M1 bus1=RML1050017138.1.0,Phases=1,kv=0.12,kW=0.10008,pf=0.92,Vminpu=0.92,Vmaxpu=1.5,model=1,daily=RES2_6,status=variable
new load.3000442402M1 bus1=RML1050017229.2.0,Phases=1,kv=0.12,kW=1.24478,pf=0.92,Vminpu=0.92,Vmaxpu=1.5,model=1,daily=RES2_6,status=variable
new load.3000442403M1 bus1=RML1050017250.1.0,Phases=1,kv=0.12,kW=0.68808,pf=0.92,Vminpu=0.92,Vmaxpu=1.5,model=1,daily=RES2_6,status=variable
new load.3000442405M1 bus1=RML1050017271.2.0,Phases=1,kv=0.12,kW=1.18224,pf=0.92,Vminpu=0.92,Vmaxpu=1.5,model=1,daily=RES2_6,status=variable
new load.3000442406M1 bus1=RML1050017264.1.0,Phases=1,kv=0.12,kW=0.58174,pf=0.92,Vminpu=0.92,Vmaxpu=1.5,model=1,daily=RES2_6,status=variable
new load.3000442408M1 bus1=RML1050017292.2.0,Phases=1,kv=0.12,kW=0.3065,pf=0.92,Vminpu=0.92,Vmaxpu=1.5,model=1,daily=RES2_6,status=variable
new load.3000442076M1 bus1=RML1050017481.1.0,Phases=1,kv=0.12,kW=1.71606,pf=0.92,Vminpu=0.92,Vmaxpu=1.5,model=1,daily=RES3_7,status=variable
new load.3000442077M1 bus1=RML1050017474.2.0,Phases=1,kv=0.12,kW=0.73812,pf=0.92,Vminpu=0.92,Vmaxpu=1.5,model=1,daily=RES2_6,status=variable
new load.3000442078M1 bus1=RML1050017467.1.0,Phases=1,kv=0.12,kW=0.49416,pf=0.92,Vminpu=0.92,Vmaxpu=1.5,model=1,daily=RES2_6,status=variable
new load.3000442080M1 bus1=RML1050017502.1.2.0,Phases=2,kv=0.24,kW=0.61708,pf=0.92,Vminpu=0.92,Vmaxpu=1.5,model=1,daily=RES1_6,status=variable
new load.3000623420M1 bus1=RML1050018223.1.2.3.0,Phases=3,kv=0.22,kW=0.58248,pf=0.92,Vminpu=0.92,Vmaxpu=1.5,model=1,daily=RES1_11,status=variable
new load.3000623421M1 bus1=RML1050018209.1.2.0,Phases=2,kv=0.22,kW=0.8235,pf=0.92,Vminpu=0.92,Vmaxpu=1.5,model=1,daily=RES1_11,status=variable
new load.3000623422M1 bus1=RML1050018202.1.0,Phases=1,kv=0.127,kW=0.5663,pf=0.92,Vminpu=0.92,Vmaxpu=1.5,model=1,daily=RES2_10,status=variable
new load.3000623423M1 bus1=RML1050018181.1.0,Phases=1,kv=0.127,kW=0.5996,pf=0.92,Vminpu=0.92,Vmaxpu=1.5,model=1,daily=RES2_10,status=variable
new load.3000623424M1 bus1=RML1050018230.2.0,Phases=1,kv=0.127,kW=0.72656,pf=0.92,Vminpu=0.92,Vmaxpu=1.5,model=1,daily=RES3_11,status=variable
new load.3000623425M1 bus1=RML1050018237.1.0,Phases=1,kv=0.127,kW=0.66624,pf=0.92,Vminpu=0.92,Vmaxpu=1.5,model=1,daily=RES2_10,status=variable
new load.3000623426M1 bus1=RML1054937732.3.0,Phases=1,kv=0.127,kW=0.36642,pf=0.92,Vminpu=0.92,Vmaxpu=1.5,model=1,daily=RES2_10,status=variable
new load.3000623429M1 bus1=RML1050018314.3.0,Phases=1,kv=0.127,kW=0.39308,pf=0.92,Vminpu=0.92,Vmaxpu=1.5,model=1,daily=RES2_10,status=variable
new load.3000623477M1 bus1=RML1050018188.3.0,Phases=1,kv=0.127,kW=0.57242,pf=0.92,Vminpu=0.92,Vmaxpu=1.5,model=1,daily=RES1_11,status=variable
new load.3000623478M1 bus1=RML1050018195.1.0,Phases=1,kv=0.127,kW=0.43184,pf=0.92,Vminpu=0.92,Vmaxpu=1.5,model=1,daily=RES1_11,status=variable
new load.3000623480M1 bus1=RML1050018167.1.2.3.0,Phases=3,kv=0.22,kW=0.6829,pf=0.92,Vminpu=0.92,Vmaxpu=1.5,model=1,daily=RES1_11,status=variable
new load.3000623556M1 bus1=RML1050018258.2.0,Phases=1,kv=0.127,kW=0.99934,pf=0.92,Vminpu=0.92,Vmaxpu=1.5,model=1,daily=RES2_10,status=variable
new load.3000623557M1 bus1=RML1050018258.2.0,Phases=1,kv=0.127,kW=0.64624,pf=0.92,Vminpu=0.92,Vmaxpu=1.5,model=1,daily=RES2_10,status=variable
new load.3000623558M1 bus1=RML1050018251.1.0,Phases=1,kv=0.127,kW=0.7532,pf=0.92,Vminpu=0.92,Vmaxpu=1.5,model=1,daily=RES1_11,status=variable
new load.3000623559M1 bus1=RML1050018272.1.2.0,Phases=2,kv=0.22,kW=1.09928,pf=0.92,Vminpu=0.92,Vmaxpu=1.5,model=1,daily=RES2_10,status=variable
new load.3000623560M1 bus1=RML1054937746.1.2.3.0,Phases=3,kv=0.22,kW=0.01004,pf=0.92,Vminpu=0.92,Vmaxpu=1.5,model=1,daily=RES1_11,status=variable
new load.3000623561M1 bus1=RML1054937746.1.2.3.0,Phases=3,kv=0.22,kW=0.3314,pf=0.92,Vminpu=0.92,Vmaxpu=1.5,model=1,daily=RES1_11,status=variable
new load.3000623562M1 bus1=RML1050018286.2.3.0,Phases=2,kv=0.22,kW=0.08034,pf=0.92,Vminpu=0.92,Vmaxpu=1.5,model=1,daily=RES1_11,status=variable
new load.3000623563M1 bus1=RML1050018293.2.3.0,Phases=2,kv=0.22,kW=0.49208,pf=0.92,Vminpu=0.92,Vmaxpu=1.5,model=1,daily=RES1_11,status=variable
new load.3000623266M1 bus1=RML1050018139.1.2.0,Phases=2,kv=0.22,kW=0.44638,pf=0.92,Vminpu=0.92,Vmaxpu=1.5,model=1,daily=RES2_10,status=variable
new load.3000623570M1 bus1=RML1050018797.2.0,Phases=1,kv=0.127,kW=0.28302,pf=0.92,Vminpu=0.92,Vmaxpu=1.5,model=1,daily=RES3_11,status=variable
new load.3000623571M1 bus1=RML1050018783.1.0,Phases=1,kv=0.127,kW=0.63364,pf=0.92,Vminpu=0.92,Vmaxpu=1.5,model=1,daily=RES3_11,status=variable
new load.3000623572M1 bus1=RML1050018790.3.0,Phases=1,kv=0.127,kW=0.8938,pf=0.92,Vminpu=0.92,Vmaxpu=1.5,model=1,daily=RES1_11,status=variable
new load.3000623574M1 bus1=RML1050018769.2.3.0,Phases=2,kv=0.22,kW=0.7139,pf=0.92,Vminpu=0.92,Vmaxpu=1.5,model=1,daily=RES3_11,status=variable
new load.3000623575M1 bus1=RML1050018748.1.0,Phases=1,kv=0.127,kW=0.47312,pf=0.92,Vminpu=0.92,Vmaxpu=1.5,model=1,daily=RES3_11,status=variable
new load.3000623482M1 bus1=RML1050018734.1.0,Phases=1,kv=0.127,kW=0.71286,pf=0.92,Vminpu=0.92,Vmaxpu=1.5,model=1,daily=RES2_10,status=variable
new load.3000623483M1 bus1=RML1050018741.2.3.0,Phases=2,kv=0.22,kW=0.58628,pf=0.92,Vminpu=0.92,Vmaxpu=1.5,model=1,daily=RES2_10,status=variable
new load.3000623484M1 bus1=RML1050018755.1.2.3.0,Phases=3,kv=0.22,kW=0.08034,pf=0.92,Vminpu=0.92,Vmaxpu=1.5,model=1,daily=RES1_11,status=variable
new load.3000623485M1 bus1=RML1050018755.1.2.3.0,Phases=3,kv=0.22,kW=0.85278,pf=0.92,Vminpu=0.92,Vmaxpu=1.5,model=1,daily=RES2_10,status=variable
new load.3000623486M1 bus1=RML1050018776.1.2.3.0,Phases=3,kv=0.22,kW=0.75284,pf=0.92,Vminpu=0.92,Vmaxpu=1.5,model=1,daily=RES2_10,status=variable
new load.3000623487M1 bus1=RML1050018776.1.2.3.0,Phases=3,kv=0.22,kW=0.71286,pf=0.92,Vminpu=0.92,Vmaxpu=1.5,model=1,daily=RES2_10,status=variable
new load.3000623488M1 bus1=RML1050018776.1.2.3.0,Phases=3,kv=0.22,kW=0.46636,pf=0.92,Vminpu=0.92,Vmaxpu=1.5,model=1,daily=RES2_10,status=variable
new load.3000623489M1 bus1=RML1054937788.1.2.3.0,Phases=3,kv=0.22,kW=0.5423,pf=0.92,Vminpu=0.92,Vmaxpu=1.5,model=1,daily=RES1_11,status=variable
new load.3000623492M1 bus1=RML1054937788.1.2.3.0,Phases=3,kv=0.22,kW=0.68994,pf=0.92,Vminpu=0.92,Vmaxpu=1.5,model=1,daily=RES6_11,status=variable
new load.3000623493M1 bus1=RML1050018804.3.0,Phases=1,kv=0.127,kW=0.77328,pf=0.92,Vminpu=0.92,Vmaxpu=1.5,model=1,daily=RES1_11,status=variable
new load.3000623494M1 bus1=RML1050018811.1.0,Phases=1,kv=0.127,kW=1.26584,pf=0.92,Vminpu=0.92,Vmaxpu=1.5,model=1,daily=RES2_10,status=variable
new load.3000442035M1 bus1=RML1050019035.2.0,Phases=1,kv=0.12,kW=0.1126,pf=0.92,Vminpu=0.92,Vmaxpu=1.5,model=1,daily=RES2_6,status=variable
new load.3000442036M1 bus1=RML1050018895.1.0,Phases=1,kv=0.12,kW=0.53794,pf=0.92,Vminpu=0.92,Vmaxpu=1.5,model=1,daily=RES2_6,status=variable
new load.3000442037M1 bus1=RML1050018839.1.2.0,Phases=2,kv=0.24,kW=0.6005,pf=0.92,Vminpu=0.92,Vmaxpu=1.5,model=1,daily=RES2_6,status=variable
new load.3000442038M1 bus1=RML1050018846.1.0,Phases=1,kv=0.12,kW=1.03836,pf=0.92,Vminpu=0.92,Vmaxpu=1.5,model=1,daily=RES2_6,status=variable
new load.3000442039M1 bus1=RML1050018867.1.2.0,Phases=2,kv=0.24,kW=0.65268,pf=0.92,Vminpu=0.92,Vmaxpu=1.5,model=1,daily=RES1_6,status=variable
new load.3000442042M1 bus1=RML1050019042.1.2.0,Phases=2,kv=0.24,kW=0.56922,pf=0.92,Vminpu=0.92,Vmaxpu=1.5,model=1,daily=RES2_6,status=variable
new load.3000442043M1 bus1=RML1050019049.2.0,Phases=1,kv=0.12,kW=0.51292,pf=0.92,Vminpu=0.92,Vmaxpu=1.5,model=1,daily=RES2_6,status=variable
new load.3000442045M1 bus1=RML1050018944.1.0,Phases=1,kv=0.12,kW=0.613,pf=0.92,Vminpu=0.92,Vmaxpu=1.5,model=1,daily=RES2_6,status=variable
new load.3000442046M1 bus1=RML1050018937.2.0,Phases=1,kv=0.12,kW=0.45662,pf=0.92,Vminpu=0.92,Vmaxpu=1.5,model=1,daily=RES2_6,status=variable
new load.3000442049M1 bus1=RML1050018874.2.0,Phases=1,kv=0.12,kW=0.02374,pf=0.92,Vminpu=0.92,Vmaxpu=1.5,model=1,daily=RES1_6,status=variable
new load.3000442052M1 bus1=RML1050018951.2.0,Phases=1,kv=0.12,kW=1.50434,pf=0.92,Vminpu=0.92,Vmaxpu=1.5,model=1,daily=RES4_9,status=variable
new load.3000442053M1 bus1=RML1050018986.2.0,Phases=1,kv=0.12,kW=0.40346,pf=0.92,Vminpu=0.92,Vmaxpu=1.5,model=1,daily=RES1_6,status=variable
new load.3000442054M1 bus1=RML1050018993.2.0,Phases=1,kv=0.12,kW=0.86628,pf=0.92,Vminpu=0.92,Vmaxpu=1.5,model=1,daily=RES1_6,status=variable
new load.3000442055M1 bus1=RML1050019000.2.0,Phases=1,kv=0.12,kW=0.69432,pf=0.92,Vminpu=0.92,Vmaxpu=1.5,model=1,daily=RES2_6,status=variable
new load.3000442056M1 bus1=RML1050019014.1.0,Phases=1,kv=0.12,kW=0.20174,pf=0.92,Vminpu=0.92,Vmaxpu=1.5,model=1,daily=RES1_6,status=variable
new load.3000442057M1 bus1=RML1050019056.1.2.0,Phases=2,kv=0.24,kW=1.72304,pf=0.92,Vminpu=0.92,Vmaxpu=1.5,model=1,daily=RES3_7,status=variable
new load.3000442059M1 bus1=RML1050019119.1.0,Phases=1,kv=0.12,kW=1.05712,pf=0.92,Vminpu=0.92,Vmaxpu=1.5,model=1,daily=RES2_6,status=variable
new load.3000442060M1 bus1=RML1050019140.1.2.0,Phases=2,kv=0.24,kW=0.8092,pf=0.92,Vminpu=0.92,Vmaxpu=1.5,model=1,daily=RES3_7,status=variable
new load.3000442061M1 bus1=RML1050019231.1.0,Phases=1,kv=0.12,kW=0.76314,pf=0.92,Vminpu=0.92,Vmaxpu=1.5,model=1,daily=RES2_6,status=variable
new load.3000442063M1 bus1=RML1050019189.2.0,Phases=1,kv=0.12,kW=0.8382,pf=0.92,Vminpu=0.92,Vmaxpu=1.5,model=1,daily=RES2_6,status=variable
new load.3000442064M1 bus1=RML1050019175.1.2.0,Phases=2,kv=0.24,kW=1.28356,pf=0.92,Vminpu=0.92,Vmaxpu=1.5,model=1,daily=RES3_7,status=variable
new load.3000442139M1 bus1=RML1050019182.1.0,Phases=1,kv=0.12,kW=0.50042,pf=0.92,Vminpu=0.92,Vmaxpu=1.5,model=1,daily=RES2_6,status=variable
new load.3000442140M1 bus1=RML1050019196.1.2.0,Phases=2,kv=0.24,kW=0.59424,pf=0.92,Vminpu=0.92,Vmaxpu=1.5,model=1,daily=RES2_6,status=variable
new load.3000442142M1 bus1=RML1050019245.1.0,Phases=1,kv=0.12,kW=0.76314,pf=0.92,Vminpu=0.92,Vmaxpu=1.5,model=1,daily=RES2_6,status=variable
new load.3000442143M1 bus1=RML1050019252.1.0,Phases=1,kv=0.12,kW=0.63804,pf=0.92,Vminpu=0.92,Vmaxpu=1.5,model=1,daily=RES2_6,status=variable
new load.3000442149M1 bus1=RML1050019112.1.0,Phases=1,kv=0.12,kW=0.6052,pf=0.92,Vminpu=0.92,Vmaxpu=1.5,model=1,daily=RES1_6,status=variable
new load.3000442150M1 bus1=RML1050019105.2.0,Phases=1,kv=0.12,kW=0.8507,pf=0.92,Vminpu=0.92,Vmaxpu=1.5,model=1,daily=RES2_6,status=variable
new load.3000442152M1 bus1=RML1050019273.1.2.0,Phases=2,kv=0.24,kW=1.18848,pf=0.92,Vminpu=0.92,Vmaxpu=1.5,model=1,daily=RES2_6,status=variable
new load.3000442159M1 bus1=RML1050018972.2.0,Phases=1,kv=0.12,kW=0.67556,pf=0.92,Vminpu=0.92,Vmaxpu=1.5,model=1,daily=RES2_6,status=variable
new load.3000442065M1 bus1=RML1050019532.2.0,Phases=1,kv=0.12,kW=0.75948,pf=0.92,Vminpu=0.92,Vmaxpu=1.5,model=1,daily=RES1_6,status=variable
new load.3000442066M1 bus1=RML1050019525.1.2.0,Phases=2,kv=0.24,kW=0.9612,pf=0.92,Vminpu=0.92,Vmaxpu=1.5,model=1,daily=RES1_6,status=variable
new load.3000442067M1 bus1=RML1050019504.1.2.0,Phases=2,kv=0.24,kW=0.41534,pf=0.92,Vminpu=0.92,Vmaxpu=1.5,model=1,daily=RES1_6,status=variable
new load.3000442068M1 bus1=RML1050019490.2.0,Phases=1,kv=0.12,kW=0.58798,pf=0.92,Vminpu=0.92,Vmaxpu=1.5,model=1,daily=RES2_6,status=variable
new load.3000442069M1 bus1=RML1050019455.2.0,Phases=1,kv=0.12,kW=0.66306,pf=0.92,Vminpu=0.92,Vmaxpu=1.5,model=1,daily=RES2_6,status=variable
new load.3000442116M1 bus1=RML1050019336.2.0,Phases=1,kv=0.12,kW=1.32948,pf=0.92,Vminpu=0.92,Vmaxpu=1.5,model=1,daily=RES5_9,status=variable
new load.3000442117M1 bus1=RML1050019420.1.2.0,Phases=2,kv=0.24,kW=0.53794,pf=0.92,Vminpu=0.92,Vmaxpu=1.5,model=1,daily=RES2_6,status=variable
new load.3000442118M1 bus1=RML1050019469.1.2.0,Phases=2,kv=0.24,kW=0.88824,pf=0.92,Vminpu=0.92,Vmaxpu=1.5,model=1,daily=RES2_6,status=variable
new load.3000442119M1 bus1=RML1050019483.2.0,Phases=1,kv=0.12,kW=0.62552,pf=0.92,Vminpu=0.92,Vmaxpu=1.5,model=1,daily=RES2_6,status=variable
new load.3000442081M1 bus1=RML1050019385.1.0,Phases=1,kv=0.12,kW=0.41284,pf=0.92,Vminpu=0.92,Vmaxpu=1.5,model=1,daily=RES2_6,status=variable
new load.3000442083M1 bus1=RML1050019448.1.2.0,Phases=2,kv=0.24,kW=0.86628,pf=0.92,Vminpu=0.92,Vmaxpu=1.5,model=1,daily=RES1_6,status=variable
new load.3000442084M1 bus1=RML1050019441.2.0,Phases=1,kv=0.12,kW=0.9968,pf=0.92,Vminpu=0.92,Vmaxpu=1.5,model=1,daily=RES1_6,status=variable
new load.3000442085M1 bus1=RML1050019371.1.0,Phases=1,kv=0.12,kW=0.42536,pf=0.92,Vminpu=0.92,Vmaxpu=1.5,model=1,daily=RES2_6,status=variable
new load.3000442086M1 bus1=RML1050019378.2.0,Phases=1,kv=0.12,kW=0.62894,pf=0.92,Vminpu=0.92,Vmaxpu=1.5,model=1,daily=RES1_6,status=variable
new load.3000442087M1 bus1=RML1050019315.2.0,Phases=1,kv=0.12,kW=0.70014,pf=0.92,Vminpu=0.92,Vmaxpu=1.5,model=1,daily=RES1_6,status=variable
new load.3000442088M1 bus1=RML1050019322.1.0,Phases=1,kv=0.12,kW=1.04428,pf=0.92,Vminpu=0.92,Vmaxpu=1.5,model=1,daily=RES1_6,status=variable
new load.3000442089M1 bus1=RML1050019329.2.0,Phases=1,kv=0.12,kW=0.8382,pf=0.92,Vminpu=0.92,Vmaxpu=1.5,model=1,daily=RES2_6,status=variable
new load.3000442090M1 bus1=RML1050019343.2.0,Phases=1,kv=0.12,kW=0.59424,pf=0.92,Vminpu=0.92,Vmaxpu=1.5,model=1,daily=RES2_6,status=variable
new load.3000442091M1 bus1=RML1060511266.2.0,Phases=1,kv=0.12,kW=0.34182,pf=0.92,Vminpu=0.92,Vmaxpu=1.5,model=1,daily=RES3_7,status=variable
new load.3000623577M1 bus1=RML1050019917.3.0,Phases=1,kv=0.127,kW=0.18164,pf=0.92,Vminpu=0.92,Vmaxpu=1.5,model=1,daily=RES3_11,status=variable
new load.3000623722M1 bus1=RML1050019903.1.0,Phases=1,kv=0.127,kW=0.472,pf=0.92,Vminpu=0.92,Vmaxpu=1.5,model=1,daily=RES1_11,status=variable
new load.3000623723M1 bus1=RML1050019875.1.0,Phases=1,kv=0.127,kW=1.08596,pf=0.92,Vminpu=0.92,Vmaxpu=1.5,model=1,daily=RES2_10,status=variable
new load.3000623727M1 bus1=RML1050019854.1.2.0,Phases=2,kv=0.22,kW=0.60628,pf=0.92,Vminpu=0.92,Vmaxpu=1.5,model=1,daily=RES2_10,status=variable
new load.3000623728M1 bus1=RML1050019791.3.0,Phases=1,kv=0.127,kW=0.30836,pf=0.92,Vminpu=0.92,Vmaxpu=1.5,model=1,daily=RES3_11,status=variable
new load.3000623729M1 bus1=RML1050019602.1.0,Phases=1,kv=0.127,kW=0.35552,pf=0.92,Vminpu=0.92,Vmaxpu=1.5,model=1,daily=COM1_17,status=variable
new load.3000623730M1 bus1=RML1050019595.1.0,Phases=1,kv=0.127,kW=1.15258,pf=0.92,Vminpu=0.92,Vmaxpu=1.5,model=1,daily=RES2_10,status=variable
new load.3000623816M1 bus1=RML1050019735.1.0,Phases=1,kv=0.127,kW=0.85362,pf=0.92,Vminpu=0.92,Vmaxpu=1.5,model=1,daily=RES1_11,status=variable
new load.3000623817M1 bus1=RML1050019742.2.0,Phases=1,kv=0.127,kW=0.71954,pf=0.92,Vminpu=0.92,Vmaxpu=1.5,model=1,daily=RES2_10,status=variable
new load.3000623820M1 bus1=RML1050019784.2.0,Phases=1,kv=0.127,kW=0.85944,pf=0.92,Vminpu=0.92,Vmaxpu=1.5,model=1,daily=RES2_10,status=variable
new load.3000623821M1 bus1=RML1050019763.2.0,Phases=1,kv=0.127,kW=0.60628,pf=0.92,Vminpu=0.92,Vmaxpu=1.5,model=1,daily=RES2_10,status=variable
new load.3000623822M1 bus1=RML1050019777.1.0,Phases=1,kv=0.127,kW=0.8328,pf=0.92,Vminpu=0.92,Vmaxpu=1.5,model=1,daily=RES2_10,status=variable
new load.3000623824M1 bus1=RML1050019770.3.0,Phases=1,kv=0.127,kW=0.69288,pf=0.92,Vminpu=0.92,Vmaxpu=1.5,model=1,daily=RES2_10,status=variable
new load.3000623825M1 bus1=RML1050019756.1.0,Phases=1,kv=0.127,kW=0.57242,pf=0.92,Vminpu=0.92,Vmaxpu=1.5,model=1,daily=RES1_11,status=variable
new load.3000623826M1 bus1=RML1050019798.3.0,Phases=1,kv=0.127,kW=0.73952,pf=0.92,Vminpu=0.92,Vmaxpu=1.5,model=1,daily=RES2_10,status=variable
new load.3000623827M1 bus1=RML1050019812.1.0,Phases=1,kv=0.127,kW=0.52222,pf=0.92,Vminpu=0.92,Vmaxpu=1.5,model=1,daily=RES1_11,status=variable
new load.3000623828M1 bus1=RML1050019812.1.0,Phases=1,kv=0.127,kW=0.56238,pf=0.92,Vminpu=0.92,Vmaxpu=1.5,model=1,daily=RES1_11,status=variable
new load.3000623872M1 bus1=RML1050019819.2.0,Phases=1,kv=0.127,kW=0.1066,pf=0.92,Vminpu=0.92,Vmaxpu=1.5,model=1,daily=RES2_10,status=variable
new load.3000623873M1 bus1=RML1050019840.1.0,Phases=1,kv=0.127,kW=0.50214,pf=0.92,Vminpu=0.92,Vmaxpu=1.5,model=1,daily=RES1_11,status=variable
new load.3000623875M1 bus1=RML1050019833.1.2.3.0,Phases=3,kv=0.22,kW=0.68854,pf=0.92,Vminpu=0.92,Vmaxpu=1.5,model=1,daily=RES3_11,status=variable
new load.3000623876M1 bus1=RML1050019833.1.2.3.0,Phases=3,kv=0.22,kW=0.57296,pf=0.92,Vminpu=0.92,Vmaxpu=1.5,model=1,daily=RES2_10,status=variable
new load.3000623877M1 bus1=RML1050019826.1.2.3.0,Phases=3,kv=0.22,kW=1.10594,pf=0.92,Vminpu=0.92,Vmaxpu=1.5,model=1,daily=RES2_10,status=variable
new load.3000623878M1 bus1=RML1050019826.1.2.3.0,Phases=3,kv=0.22,kW=1.01268,pf=0.92,Vminpu=0.92,Vmaxpu=1.5,model=1,daily=RES2_10,status=variable
new load.3000623879M1 bus1=RML1050019749.2.3.0,Phases=2,kv=0.22,kW=0.50634,pf=0.92,Vminpu=0.92,Vmaxpu=1.5,model=1,daily=RES2_10,status=variable
new load.3000623411M1 bus1=RML1050020351.1.0,Phases=1,kv=0.12,kW=0.73312,pf=0.92,Vminpu=0.92,Vmaxpu=1.5,model=1,daily=RES1_11,status=variable
new load.3000623412M1 bus1=RML1050020190.2.0,Phases=1,kv=0.12,kW=0.71286,pf=0.92,Vminpu=0.92,Vmaxpu=1.5,model=1,daily=RES2_10,status=variable
new load.3000623413M1 bus1=RML1050020134.2.0,Phases=1,kv=0.12,kW=0.78332,pf=0.92,Vminpu=0.92,Vmaxpu=1.5,model=1,daily=RES1_11,status=variable
new load.3000623415M1 bus1=RML1050020162.2.0,Phases=1,kv=0.12,kW=0.9194,pf=0.92,Vminpu=0.92,Vmaxpu=1.5,model=1,daily=RES2_10,status=variable
new load.3000623416M1 bus1=RML1050020008.1.2.0,Phases=2,kv=0.24,kW=0.32646,pf=0.92,Vminpu=0.92,Vmaxpu=1.5,model=1,daily=RES2_10,status=variable
new load.3000623417M1 bus1=RML1050020015.2.0,Phases=1,kv=0.12,kW=0.94622,pf=0.92,Vminpu=0.92,Vmaxpu=1.5,model=1,daily=RES3_11,status=variable
new load.3000623418M1 bus1=RML1050020022.1.0,Phases=1,kv=0.12,kW=1.1326,pf=0.92,Vminpu=0.92,Vmaxpu=1.5,model=1,daily=RES2_10,status=variable
new load.3000623336M1 bus1=RML1050020001.2.0,Phases=1,kv=0.12,kW=0.62626,pf=0.92,Vminpu=0.92,Vmaxpu=1.5,model=1,daily=RES2_10,status=variable
new load.3000623337M1 bus1=RML1050020155.1.2.0,Phases=2,kv=0.24,kW=1.10594,pf=0.92,Vminpu=0.92,Vmaxpu=1.5,model=1,daily=RES2_10,status=variable
new load.3000623338M1 bus1=RML1050020155.1.2.0,Phases=2,kv=0.24,kW=0.60628,pf=0.92,Vminpu=0.92,Vmaxpu=1.5,model=1,daily=RES2_10,status=variable
new load.3000623339M1 bus1=RML1050020141.1.0,Phases=1,kv=0.12,kW=0.93272,pf=0.92,Vminpu=0.92,Vmaxpu=1.5,model=1,daily=RES2_10,status=variable
new load.3000623342M1 bus1=RML1050019945.1.0,Phases=1,kv=0.12,kW=1.06598,pf=0.92,Vminpu=0.92,Vmaxpu=1.5,model=1,daily=RES2_10,status=variable
new load.3000623343M1 bus1=RML1050019966.1.0,Phases=1,kv=0.12,kW=0.22094,pf=0.92,Vminpu=0.92,Vmaxpu=1.5,model=1,daily=RES1_11,status=variable
new load.3000623347M1 bus1=RML1050020169.1.0,Phases=1,kv=0.12,kW=0.87942,pf=0.92,Vminpu=0.92,Vmaxpu=1.5,model=1,daily=RES2_10,status=variable
new load.3000623349M1 bus1=RML1050020120.2.0,Phases=1,kv=0.12,kW=0.98602,pf=0.92,Vminpu=0.92,Vmaxpu=1.5,model=1,daily=RES2_10,status=variable
new load.3000623350M1 bus1=RML1050020183.1.0,Phases=1,kv=0.12,kW=0.23098,pf=0.92,Vminpu=0.92,Vmaxpu=1.5,model=1,daily=RES1_11,status=variable
new load.3000623351M1 bus1=RML1050020197.2.0,Phases=1,kv=0.12,kW=0.62626,pf=0.92,Vminpu=0.92,Vmaxpu=1.5,model=1,daily=RES2_10,status=variable
new load.3000623352M1 bus1=RML1050020092.1.0,Phases=1,kv=0.12,kW=1.05932,pf=0.92,Vminpu=0.92,Vmaxpu=1.5,model=1,daily=RES2_10,status=variable
new load.3000623353M1 bus1=RML1050020043.1.2.0,Phases=2,kv=0.24,kW=0.77328,pf=0.92,Vminpu=0.92,Vmaxpu=1.5,model=1,daily=RES1_11,status=variable
new load.3000623354M1 bus1=RML1050020071.1.0,Phases=1,kv=0.12,kW=0.18654,pf=0.92,Vminpu=0.92,Vmaxpu=1.5,model=1,daily=RES2_10,status=variable
new load.3000623355M1 bus1=RML1050020078.1.0,Phases=1,kv=0.12,kW=0.01004,pf=0.92,Vminpu=0.92,Vmaxpu=1.5,model=1,daily=RES1_11,status=variable
new load.3000623357M1 bus1=RML1050020204.1.2.0,Phases=2,kv=0.24,kW=0.60628,pf=0.92,Vminpu=0.92,Vmaxpu=1.5,model=1,daily=RES2_10,status=variable
new load.3000623358M1 bus1=RML1050020225.1.2.0,Phases=2,kv=0.24,kW=0.61294,pf=0.92,Vminpu=0.92,Vmaxpu=1.5,model=1,daily=RES2_10,status=variable