new line.TR10078139 bus1=BMT6129503B.3,bus2=BMT8465B.3,Phases=1,Linecode=CAB102_3_1,Length=0.030655000,Units=km
new line.TR1009 bus1=BMT169323419.1,bus2=BMT933B.1,Phases=1,Linecode=CAB103_3_1,Length=0.028052000,Units=km
new line.TR1016 bus1=BMT169323419.1,bus2=BMT1150B.1,Phases=1,Linecode=CAB103_3_1,Length=0.033354000,Units=km
new line.TR10193 bus1=BMT170963368.1.2.3,bus2=BMT170963370.1.2.3,Phases=3,Linecode=CAB103_3_3,Length=0.008538000,Units=km
new line.TR10209753 bus1=BMT6375924B.1.2.3,bus2=BMT161060117.1.2.3,Phases=3,Linecode=CAB107_3_3,Length=0.018372000,Units=km
new line.TR10214 bus1=BMT6575B.1.2.3,bus2=BMT170963368.1.2.3,Phases=3,Linecode=CAB103_3_3,Length=0.024983000,Units=km
new line.TR10228 bus1=BMT6582B.1.2.3,bus2=BMT170426853.1.2.3,Phases=3,Linecode=CAB103_3_3,Length=0.030866000,Units=km
new line.TR10249 bus1=BMT6589B.1.2.3,bus2=BMT6582B.1.2.3,Phases=3,Linecode=CAB103_3_3,Length=0.030063000,Units=km
new line.TR10270 bus1=BMT170426852.1.2.3,bus2=BMT6589B.1.2.3,Phases=3,Linecode=CAB103_3_3,Length=0.032040000,Units=km
new line.TR10291 bus1=BMT6603B.1.2.3,bus2=BMT170426852.1.2.3,Phases=3,Linecode=CAB103_3_3,Length=0.034990000,Units=km
new line.TR10319 bus1=BMT155973505.1.2.3,bus2=BMT6603B.1.2.3,Phases=3,Linecode=CAB103_3_3,Length=0.031299000,Units=km
new line.TR10326 bus1=BMT172457122.1.2.3,bus2=BMT7170B.1.2.3,Phases=3,Linecode=CAB103_3_3,Length=0.022810000,Units=km
new line.TR10347 bus1=BMT6624B.1.2.3,bus2=BMT170426851.1.2.3,Phases=3,Linecode=CAB103_3_3,Length=0.012361000,Units=km
new line.TR10368 bus1=BMT170426850.1.2.3,bus2=BMT6624B.1.2.3,Phases=3,Linecode=CAB103_3_3,Length=0.015287000,Units=km
new line.TR10395134 bus1=BMT20400B.1.2.3,bus2=BMT1988828B.1.2.3,Phases=3,Linecode=CAB103_3_3,Length=0.097132000,Units=km
new line.TR10461256 bus1=BMT54427B.1.2.3,bus2=BMT172246677.1.2.3,Phases=3,Linecode=CAB103_3_3,Length=0.037617000,Units=km
new line.TR10599 bus1=BMT6827B.1.2.3,bus2=BMT172457133.1.2.3,Phases=3,Linecode=CAB103_3_3,Length=0.036375000,Units=km
new line.TR10613 bus1=BMT6834B.1.2.3,bus2=BMT6827B.1.2.3,Phases=3,Linecode=CAB103_3_3,Length=0.033947000,Units=km
new line.TR10627 bus1=BMT6841B.1.2.3,bus2=BMT6834B.1.2.3,Phases=3,Linecode=CAB103_3_3,Length=0.023415000,Units=km
new line.TR10641 bus1=BMT6848B.1.2.3,bus2=BMT6841B.1.2.3,Phases=3,Linecode=CAB103_3_3,Length=0.020795000,Units=km
new line.TR10655 bus1=BMT6855B.1.2.3,bus2=BMT6848B.1.2.3,Phases=3,Linecode=CAB103_3_3,Length=0.027276000,Units=km
new line.TR10676 bus1=BMT6862B.1.2.3,bus2=BMT155973401.1.2.3,Phases=3,Linecode=CAB106_3_3,Length=0.012641000,Units=km
new line.TR10718 bus1=BMT167274381.1.2.3,bus2=BMT6862B.1.2.3,Phases=3,Linecode=CAB106_3_3,Length=0.026231000,Units=km
new line.TR10725 bus1=BMT167274381.1.2.3,bus2=BMT6890B.1.2.3,Phases=3,Linecode=CAB106_3_3,Length=0.024983000,Units=km
new line.TR10774 bus1=BMT6918B.1.2.3,bus2=BMT6890B.1.2.3,Phases=3,Linecode=CAB106_3_3,Length=0.027184000,Units=km
new line.TR1079 bus1=BMT989B.1.2.3,bus2=BMT155973490.1.2.3,Phases=3,Linecode=CAB103_3_3,Length=0.034342000,Units=km
new line.TR10802485 bus1=BMT779B.1,bus2=BMT7059817B.1,Phases=1,Linecode=CAB102_3_1,Length=0.009994000,Units=km
new line.TR10802492 bus1=BMT7059817B.1,bus2=BMT772B.1,Phases=1,Linecode=CAB102_3_1,Length=0.018589000,Units=km
new line.TR10808057 bus1=BMT2298B.1.2.3,bus2=BMT7064304B.1.2.3,Phases=3,Linecode=CAB103_3_3,Length=0.010623000,Units=km
new line.TR10808064 bus1=BMT7064304B.1.2.3,bus2=BMT2284B.1.2.3,Phases=3,Linecode=CAB103_3_3,Length=0.004997000,Units=km
new line.TR10830 bus1=BMT170963367.1.2.3,bus2=BMT6575B.1.2.3,Phases=3,Linecode=CAB103_3_3,Length=0.034502000,Units=km
new line.TR10837 bus1=BMT170963367.1.2.3,bus2=BMT6946B.1.2.3,Phases=3,Linecode=CAB103_3_3,Length=0.043052000,Units=km
new line.TR10858 bus1=BMT6946B.1.2.3,bus2=BMT170963369.1.2.3,Phases=3,Linecode=CAB103_3_3,Length=0.028441000,Units=km
new line.TR10933511 bus1=BMT155973714.1.2.3,bus2=BMT7174106B.1.2.3,Phases=3,Linecode=CAB103_3_3,Length=0.017680000,Units=km
new line.TR10933518 bus1=BMT7174106B.1.2.3,bus2=BMT155973715.1.2.3,Phases=3,Linecode=CAB103_3_3,Length=0.025003000,Units=km
new line.TR10956 bus1=BMT7009B.1.2.3,bus2=BMT172457124.1.2.3,Phases=3,Linecode=CAB102_3_3,Length=0.030979000,Units=km
new line.TR10963 bus1=BMT7016B.1.2.3,bus2=BMT7009B.1.2.3,Phases=3,Linecode=CAB102_3_3,Length=0.031123000,Units=km
new line.TR10977 bus1=BMT172457123.1.2.3,bus2=BMT7016B.1.2.3,Phases=3,Linecode=CAB102_3_3,Length=0.031759000,Units=km
new line.TR10984 bus1=BMT172457123.1.2.3,bus2=BMT172457125.1.2.3,Phases=3,Linecode=CAB103_3_3,Length=0.034976000,Units=km
new line.TR1100 bus1=BMT996B.1.2.3,bus2=BMT989B.1.2.3,Phases=3,Linecode=CAB103_3_3,Length=0.034458000,Units=km
new line.TR11091277 bus1=BMT8381B.1,bus2=BMT7311411B.1,Phases=1,Linecode=CAB102_3_1,Length=0.011394000,Units=km
new line.TR11091284 bus1=BMT7311411B.1,bus2=BMT8388B.1,Phases=1,Linecode=CAB102_3_1,Length=0.012798000,Units=km
new line.TR11091536 bus1=BMT3901B.1,bus2=BMT7311614B.1,Phases=1,Linecode=CAB102_3_1,Length=0.008480000,Units=km
new line.TR11091543 bus1=BMT7311614B.1,bus2=BMT156364226.1,Phases=1,Linecode=CAB102_3_1,Length=0.018427000,Units=km
new line.TR11146500 bus1=BMT157359868.1.2.3,bus2=BMT7369035B.1.2.3,Phases=3,Linecode=CAB108_3_3,Length=0.010993000,Units=km
new line.TR11146507 bus1=BMT7369035B.1.2.3,bus2=BMT157359869.1.2.3,Phases=3,Linecode=CAB108_3_3,Length=0.010043000,Units=km
new line.TR11178623 bus1=BMT172246680.1.2.3,bus2=BMT9648B.1.2.3,Phases=3,Linecode=CABA06_3_3,Length=0.030573000,Units=km
new line.TR11178651 bus1=BMT9648B.1.2.3,bus2=BMT9655B.1.2.3,Phases=3,Linecode=CABA06_3_3,Length=0.039292000,Units=km
new line.TR1121 bus1=BMT1003B.1.2.3,bus2=BMT996B.1.2.3,Phases=3,Linecode=CAB103_3_3,Length=0.038053000,Units=km
new line.TR11215 bus1=BMT7170B.1.2.3,bus2=BMT172457123.1.2.3,Phases=3,Linecode=CAB103_3_3,Length=0.014990000,Units=km
new line.TR11229 bus1=BMT172457125.1.2.3,bus2=BMT172457126.1.2.3,Phases=3,Linecode=CAB102_3_3,Length=0.030393000,Units=km
new line.TR11236 bus1=BMT172457126.1,bus2=BMT7198B.1,Phases=1,Linecode=CAB102_3_1,Length=0.034342000,Units=km
new line.TR11257 bus1=BMT7198B.1,bus2=BMT7205B.1,Phases=1,Linecode=CAB102_3_1,Length=0.024314000,Units=km
new line.TR11278 bus1=BMT7205B.1,bus2=BMT7212B.1,Phases=1,Linecode=CAB102_3_1,Length=0.015287000,Units=km
new line.TR11284106 bus1=BMT155973444.1,bus2=BMT7495707B.1,Phases=1,Linecode=CAB103_3_1,Length=0.023754000,Units=km
new line.TR11284113 bus1=BMT7495707B.1,bus2=BMT277223B.1,Phases=1,Linecode=CAB103_3_1,Length=0.008939000,Units=km
new line.TR11299 bus1=BMT7212B.1,bus2=BMT7219B.1,Phases=1,Linecode=CAB102_3_1,Length=0.030063000,Units=km
new line.TR11320 bus1=BMT7219B.1,bus2=BMT8367B.1,Phases=1,Linecode=CAB102_3_1,Length=0.031931000,Units=km
new line.TR11465084 bus1=BMT7667179B.1.2.3,bus2=BMT7667186B.1.2.3,Phases=3,Linecode=CABA06_3_3,Length=0.029135000,Units=km
new line.TR11465091 bus1=BMT7667186B.1.2.3,bus2=BMT7667193B.1.2.3,Phases=3,Linecode=CABA06_3_3,Length=0.030046000,Units=km
new line.TR11465098 bus1=BMT7667193B.1.2.3,bus2=BMT7667200B.1.2.3,Phases=3,Linecode=CABA06_3_3,Length=0.031868000,Units=km
new line.TR11465105 bus1=BMT7667200B.1.2.3,bus2=BMT7667214B.1.2.3,Phases=3,Linecode=CABA06_3_3,Length=0.023006000,Units=km
new line.TR11465147 bus1=BMT7667214B.1.2.3,bus2=BMT7667228B.1.2.3,Phases=3,Linecode=CABA06_3_3,Length=0.019222000,Units=km
new line.TR11465280 bus1=BMT7667228B.1.2.3,bus2=BMT10537B.1.2.3,Phases=3,Linecode=CABA06_3_3,Length=0.019300000,Units=km
new line.TR11465294 bus1=BMT155973719.1.2.3,bus2=BMT155973541.1.2.3,Phases=3,Linecode=CABA06_3_3,Length=0.031123000,Units=km
new line.TR11465483 bus1=BMT162779129.1.2.3,bus2=BMT10537B.1.2.3,Phases=3,Linecode=CABA06_3_3,Length=0.016542000,Units=km
new line.TR11468213 bus1=BMT162779126.1.2.3,bus2=BMT255201B.1.2.3,Phases=3,Linecode=CABA06_3_3,Length=0.033977000,Units=km
new line.TR11468220 bus1=BMT255201B.1.2.3,bus2=BMT255215B.1.2.3,Phases=3,Linecode=CABA06_3_3,Length=0.029996000,Units=km
new line.TR11468227 bus1=BMT255215B.1.2.3,bus2=BMT7667179B.1.2.3,Phases=3,Linecode=CABA06_3_3,Length=0.073120000,Units=km
new line.TR11474233 bus1=BMT199586B.1.2.3,bus2=BMT7679870B.1.2.3,Phases=3,Linecode=CABA06_3_3,Length=0.019403000,Units=km
new line.TR11474240 bus1=BMT7679870B.1.2.3,bus2=BMT199593B.1.2.3,Phases=3,Linecode=CABA06_3_3,Length=0.014026000,Units=km
new line.TR11474247 bus1=BMT199593B.1.2.3,bus2=BMT159905346.1.2.3,Phases=3,Linecode=CABA06_3_3,Length=0.036988000,Units=km
new line.TR11475087 bus1=BMT7681144B.1.2.3,bus2=BMT255173B.1.2.3,Phases=3,Linecode=CAB103_3_3,Length=0.024499000,Units=km
new line.TR11496402 bus1=BMT172031687.1.2.3,bus2=BMT7705448B.1.2.3,Phases=3,Linecode=CABA06_3_3,Length=0.033503000,Units=km
new line.TR11496416 bus1=BMT7705448B.1.2.3,bus2=BMT7705455B.1.2.3,Phases=3,Linecode=CABA06_3_3,Length=0.018961000,Units=km
new line.TR11496423 bus1=BMT7705455B.1.2.3,bus2=BMT7705462B.1.2.3,Phases=3,Linecode=CABA06_3_3,Length=0.051887000,Units=km
new line.TR11496430 bus1=BMT7705462B.1.2.3,bus2=BMT7705469B.1.2.3,Phases=3,Linecode=CABA06_3_3,Length=0.050571000,Units=km
new line.TR11496437 bus1=BMT7705469B.1.2.3,bus2=BMT7705483B.1.2.3,Phases=3,Linecode=CABA06_3_3,Length=0.037418000,Units=km
new line.TR11496521 bus1=BMT7705483B.1.2.3,bus2=BMT7705511B.1.2.3,Phases=3,Linecode=CABA06_3_3,Length=0.031043000,Units=km
new line.TR11496528 bus1=BMT7705511B.1.2.3,bus2=BMT7705553B.1.2.3,Phases=3,Linecode=CABA06_3_3,Length=0.021010000,Units=km
new line.TR11496535 bus1=BMT7705553B.1.2.3,bus2=BMT7705560B.1.2.3,Phases=3,Linecode=CABA06_3_3,Length=0.024397000,Units=km
new line.TR11496542 bus1=BMT7705560B.1.2.3,bus2=BMT172031688.1.2.3,Phases=3,Linecode=CABA06_3_3,Length=0.025478000,Units=km
new line.TR11496549 bus1=BMT172031688.1.2.3,bus2=BMT7705581B.1.2.3,Phases=3,Linecode=CABA06_3_3,Length=0.037617000,Units=km
new line.TR11496612 bus1=BMT7705581B.1.2.3,bus2=BMT172031689.1.2.3,Phases=3,Linecode=CABA06_3_3,Length=0.044657000,Units=km
new line.TR11497445 bus1=BMT172031688.1.2.3,bus2=BMT7706729B.1.2.3,Phases=3,Linecode=CABA06_3_3,Length=0.026001000,Units=km
new line.TR11497459 bus1=BMT7706729B.1.2.3,bus2=BMT7706771B.1.2.3,Phases=3,Linecode=CABA06_3_3,Length=0.038973000,Units=km
new line.TR11497466 bus1=BMT7706771B.1.2.3,bus2=BMT7706792B.1.2.3,Phases=3,Linecode=CABA06_3_3,Length=0.040284000,Units=km
new line.TR11497473 bus1=BMT7706792B.1.2.3,bus2=BMT7706799B.1.2.3,Phases=3,Linecode=CABA06_3_3,Length=0.036031000,Units=km
new line.TR11497480 bus1=BMT7706799B.1.2.3,bus2=BMT7706806B.1.2.3,Phases=3,Linecode=CABA06_3_3,Length=0.033592000,Units=km
new line.TR11497487 bus1=BMT7706806B.1.2.3,bus2=BMT172031690.1.2.3,Phases=3,Linecode=CABA06_3_3,Length=0.041008000,Units=km
new line.TR11497494 bus1=BMT172031690.1.2.3,bus2=BMT7706848B.1.2.3,Phases=3,Linecode=CABA06_3_3,Length=0.030393000,Units=km
new line.TR11497529 bus1=BMT7706848B.1.2.3,bus2=BMT172031691.1.2.3,Phases=3,Linecode=CABA06_3_3,Length=0.025063000,Units=km
new line.TR11498334 bus1=BMT172031690.1.2.3,bus2=BMT7707660B.1.2.3,Phases=3,Linecode=CABA06_3_3,Length=0.025222000,Units=km
new line.TR11498341 bus1=BMT7707660B.1.2.3,bus2=BMT7707646B.1.2.3,Phases=3,Linecode=CABA06_3_3,Length=0.033918000,Units=km
new line.TR11498348 bus1=BMT7707646B.1.2.3,bus2=BMT172031692.1.2.3,Phases=3,Linecode=CABA06_3_3,Length=0.024397000,Units=km
new line.TR11498355 bus1=BMT172031692.1.2.3,bus2=BMT7707541B.1.2.3,Phases=3,Linecode=CABA06_3_3,Length=0.040432000,Units=km
new line.TR11498397 bus1=BMT7707541B.1.2.3,bus2=BMT172031693.1.2.3,Phases=3,Linecode=CABA06_3_3,Length=0.037776000,Units=km
new line.TR11498929 bus1=BMT7708136B.1.2.3,bus2=BMT7708150B.1.2.3,Phases=3,Linecode=CABA06_3_3,Length=0.045146000,Units=km
new line.TR11498936 bus1=BMT7708150B.1.2.3,bus2=BMT7708157B.1.2.3,Phases=3,Linecode=CABA06_3_3,Length=0.026001000,Units=km
new line.TR11498943 bus1=BMT7708157B.1.2.3,bus2=BMT7708178B.1.2.3,Phases=3,Linecode=CABA06_3_3,Length=0.027148000,Units=km
new line.TR11498978 bus1=BMT7708178B.1.2.3,bus2=BMT7708206B.1.2.3,Phases=3,Linecode=CABA06_3_3,Length=0.023179000,Units=km
new line.TR11498992 bus1=BMT7708206B.1.2.3,bus2=BMT7708213B.1.2.3,Phases=3,Linecode=CABA06_3_3,Length=0.028159000,Units=km
new line.TR11499048 bus1=BMT7708213B.1.2.3,bus2=BMT7708360B.1.2.3,Phases=3,Linecode=CABA06_3_3,Length=0.032118000,Units=km
new line.TR11499055 bus1=BMT7708360B.1.2.3,bus2=BMT7708367B.1.2.3,Phases=3,Linecode=CABA06_3_3,Length=0.038092000,Units=km
new line.TR11499062 bus1=BMT7708367B.1.2.3,bus2=BMT172031694.1.2.3,Phases=3,Linecode=CABA06_3_3,Length=0.034516000,Units=km
new line.TR11527846 bus1=BMT162779124.1.2.3,bus2=BMT162779125.1.2.3,Phases=3,Linecode=CAB103_3_3,Length=0.020794000,Units=km
new line.TR11527853 bus1=BMT162779125.1.2.3,bus2=BMT162779126.1.2.3,Phases=3,Linecode=CABA06_3_3,Length=0.022188000,Units=km
new line.TR11544 bus1=BMT7345B.1.2.3,bus2=BMT155973502.1.2.3,Phases=3,Linecode=CAB103_3_3,Length=0.021572000,Units=km
new line.TR1156 bus1=BMT1031B.1,bus2=BMT155973479.1,Phases=1,Linecode=CAB102_3_1,Length=0.023838000,Units=km
new line.TR11565 bus1=BMT7352B.1.2.3,bus2=BMT7345B.1.2.3,Phases=3,Linecode=CAB103_3_3,Length=0.019403000,Units=km
new line.TR11579 bus1=BMT7359B.1.2.3,bus2=BMT7352B.1.2.3,Phases=3,Linecode=CAB103_3_3,Length=0.029946000,Units=km
new line.TR11593 bus1=BMT165219217.1.2.3,bus2=BMT7359B.1.2.3,Phases=3,Linecode=CAB103_3_3,Length=0.024580000,Units=km
new line.TR11607 bus1=BMT7373B.1.2.3,bus2=BMT165219217.1.2.3,Phases=3,Linecode=CAB103_3_3,Length=0.027276000,Units=km
new line.TR11621 bus1=BMT7380B.1.2.3,bus2=BMT7373B.1.2.3,Phases=3,Linecode=CAB103_3_3,Length=0.015642000,Units=km
new line.TR11625734 bus1=BMT172031692.1.2.3,bus2=BMT7825715B.1.2.3,Phases=3,Linecode=CABA06_3_3,Length=0.021526000,Units=km
new line.TR11625741 bus1=BMT7708136B.1.2.3,bus2=BMT7825715B.1.2.3,Phases=3,Linecode=CABA06_3_3,Length=0.019300000,Units=km
new line.TR11635 bus1=BMT7387B.1.2.3,bus2=BMT7380B.1.2.3,Phases=3,Linecode=CAB103_3_3,Length=0.025924000,Units=km
new line.TR11656 bus1=BMT7394B.1.2.3,bus2=BMT7387B.1.2.3,Phases=3,Linecode=CAB103_3_3,Length=0.021456000,Units=km
new line.TR11670 bus1=BMT7401B.1.2.3,bus2=BMT7394B.1.2.3,Phases=3,Linecode=CAB103_3_3,Length=0.018776000,Units=km
new line.TR11684 bus1=BMT165219216.1.2.3,bus2=BMT7401B.1.2.3,Phases=3,Linecode=CAB103_3_3,Length=0.032734000,Units=km
new line.TR11713528 bus1=BMT155973511.1.2.3,bus2=BMT155973512.1.2.3,Phases=3,Linecode=CAB103_3_3,Length=0.030589000,Units=km
new line.TR11713535 bus1=BMT155973513.1.2.3,bus2=BMT161363269.1.2.3,Phases=3,Linecode=CAB103_3_3,Length=0.026383000,Units=km
new line.TR11719 bus1=BMT7457B.1,bus2=BMT161905212.1,Phases=1,Linecode=CAB103_3_1,Length=0.023393000,Units=km
new line.TR11759672 bus1=BMT23193B.1.2.3,bus2=BMT7932941B.1.2.3,Phases=3,Linecode=CAB103_3_3,Length=0.032535000,Units=km
new line.TR11759679 bus1=BMT155972444.1.2.3,bus2=BMT7932941B.1.2.3,Phases=3,Linecode=CAB103_3_3,Length=0.023521000,Units=km
new line.TR1177 bus1=BMT1045B.1,bus2=BMT1031B.1,Phases=1,Linecode=CAB102_3_1,Length=0.042031000,Units=km
new line.TR11775 bus1=BMT7478B.1,bus2=BMT7457B.1,Phases=1,Linecode=CAB103_3_1,Length=0.034415000,Units=km
new line.TR11796 bus1=BMT7492B.1,bus2=BMT7478B.1,Phases=1,Linecode=CAB103_3_1,Length=0.033083000,Units=km
new line.TR11852 bus1=BMT165653296.1.2.3,bus2=BMT165653297.1.2.3,Phases=3,Linecode=CAB103_3_3,Length=0.013030000,Units=km
new line.TR11887 bus1=BMT7583B.1.2.3,bus2=BMT172457129.1.2.3,Phases=3,Linecode=CABA06_3_3,Length=0.023521000,Units=km
new line.TR11894 bus1=BMT172457129.1.2.3,bus2=BMT172457130.1.2.3,Phases=3,Linecode=CAB103_3_3,Length=0.024499000,Units=km
new line.TR11901 bus1=BMT7604B.1.2.3,bus2=BMT172457131.1.2.3,Phases=3,Linecode=CAB103_3_3,Length=0.017251000,Units=km
new line.TR11915 bus1=BMT172457131.1.2.3,bus2=BMT7618B.1.2.3,Phases=3,Linecode=CAB103_3_3,Length=0.017251000,Units=km
new line.TR11922 bus1=BMT7618B.1.2.3,bus2=BMT7625B.1.2.3,Phases=3,Linecode=CAB103_3_3,Length=0.020382000,Units=km
new line.TR11929 bus1=BMT7625B.1.2.3,bus2=BMT6855B.1.2.3,Phases=3,Linecode=CAB103_3_3,Length=0.029526000,Units=km
new line.TR11936 bus1=BMT155973626.1.2.3,bus2=BMT172457132.1.2.3,Phases=3,Linecode=CAB103_3_3,Length=0.033279000,Units=km
new line.TR11943 bus1=BMT169918159.3,bus2=BMT7772B.3,Phases=1,Linecode=CAB102_3_1,Length=0.029049000,Units=km
new line.TR11974313 bus1=BMT172246677.1.2.3,bus2=BMT54462B.1.2.3,Phases=3,Linecode=CABA06_3_3,Length=0.039190000,Units=km
new line.TR11974369 bus1=BMT54462B.1.2.3,bus2=BMT9564B.1.2.3,Phases=3,Linecode=CABA06_3_3,Length=0.033592000,Units=km
new line.TR11974397 bus1=BMT9564B.1.2.3,bus2=BMT9571B.1.2.3,Phases=3,Linecode=CABA06_3_3,Length=0.029812000,Units=km
new line.TR11974411 bus1=BMT9571B.1.2.3,bus2=BMT6344410B.1.2.3,Phases=3,Linecode=CABA06_3_3,Length=0.014550000,Units=km
new line.TR11974418 bus1=BMT6344410B.1.2.3,bus2=BMT9578B.1.2.3,Phases=3,Linecode=CABA06_3_3,Length=0.021009000,Units=km
new line.TR11974425 bus1=BMT9578B.1.2.3,bus2=BMT172246678.1.2.3,Phases=3,Linecode=CABA06_3_3,Length=0.034211000,Units=km
new line.TR11975111 bus1=BMT9655B.1.2.3,bus2=BMT172246682.1.2.3,Phases=3,Linecode=CABA06_3_3,Length=0.028052000,Units=km
new line.TR12027198 bus1=BMT157359869.1.2.3,bus2=BMT8155240B.1.2.3,Phases=3,Linecode=CABA08_3_3,Length=0.037670000,Units=km
new line.TR12027254 bus1=BMT8155289B.1.2.3,bus2=BMT137818739.1.2.3,Phases=3,Linecode=CABA08_3_3,Length=0.024983000,Units=km
new line.TR12034 bus1=BMT7716B.1.2.3,bus2=BMT6918B.1.2.3,Phases=3,Linecode=CAB106_3_3,Length=0.029946000,Units=km
new line.TR12048 bus1=BMT7723B.1.2.3,bus2=BMT7716B.1.2.3,Phases=3,Linecode=CAB106_3_3,Length=0.027766000,Units=km
new line.TR12061211 bus1=BMT1010B.1.2.3,bus2=BMT8184339B.1.2.3,Phases=3,Linecode=CAB103_3_3,Length=0.018016000,Units=km
new line.TR12061218 bus1=BMT1003B.1.2.3,bus2=BMT8184339B.1.2.3,Phases=3,Linecode=CAB103_3_3,Length=0.019222000,Units=km
new line.TR12062 bus1=BMT167274380.1.2.3,bus2=BMT7723B.1.2.3,Phases=3,Linecode=CAB106_3_3,Length=0.029135000,Units=km
new line.TR12076 bus1=BMT167274379.1.2.3,bus2=BMT167274380.1.2.3,Phases=3,Linecode=CAB106_3_3,Length=0.025536000,Units=km
new line.TR12083 bus1=BMT167274377.1.2.3,bus2=BMT167274378.1.2.3,Phases=3,Linecode=CAB106_3_3,Length=0.013991000,Units=km
new line.TR12090 bus1=BMT155973397.1.2.3,bus2=BMT167274377.1.2.3,Phases=3,Linecode=CAB106_3_3,Length=0.010993000,Units=km
new line.TR12097 bus1=BMT165225354.1.2.3,bus2=BMT7884B.1.2.3,Phases=3,Linecode=CAB103_3_3,Length=0.026665000,Units=km
new line.TR12104 bus1=BMT172457132.1,bus2=BMT7779B.1,Phases=1,Linecode=CAB102_3_1,Length=0.017792000,Units=km
new line.TR12106942 bus1=BMT137818739.1.2.3,bus2=BMT20862B.1.2.3,Phases=3,Linecode=CABA08_3_3,Length=0.040983000,Units=km
new line.TR12111 bus1=BMT7772B.3,bus2=BMT7828B.3,Phases=1,Linecode=CAB102_3_1,Length=0.029049000,Units=km
new line.TR1212 bus1=BMT1059B.1,bus2=BMT1045B.1,Phases=1,Linecode=CAB102_3_1,Length=0.025003000,Units=km
new line.TR12121168 bus1=BMT170613433.1.2.3,bus2=BMT8713888B.1.2.3,Phases=3,Linecode=CABA08_3_3,Length=0.009842000,Units=km
new line.TR12121169 bus1=BMT8713888B.1.2.3,bus2=BMT170613434.1.2.3,Phases=3,Linecode=CABA08_3_3,Length=0.016632000,Units=km
new line.TR12121171 bus1=BMT170613434.1.2.3,bus2=BMT8713938B.1.2.3,Phases=3,Linecode=CABA08_3_3,Length=0.028633000,Units=km
new line.TR12121172 bus1=BMT8713938B.1.2.3,bus2=BMT170613435.1.2.3,Phases=3,Linecode=CABA08_3_3,Length=0.038561000,Units=km
new line.TR12121173 bus1=BMT170613434.1.2.3,bus2=BMT8713916B.1.2.3,Phases=3,Linecode=CABA08_3_3,Length=0.031363000,Units=km
new line.TR12121174 bus1=BMT8713916B.1.2.3,bus2=BMT8713918B.1.2.3,Phases=3,Linecode=CABA08_3_3,Length=0.028633000,Units=km
new line.TR12121175 bus1=BMT8713918B.1.2.3,bus2=BMT8713920B.1.2.3,Phases=3,Linecode=CABA08_3_3,Length=0.031743000,Units=km
new line.TR12121176 bus1=BMT8713920B.1.2.3,bus2=BMT170613436.1.2.3,Phases=3,Linecode=CABA08_3_3,Length=0.028633000,Units=km
new line.TR12121177 bus1=BMT170613436.1.2.3,bus2=BMT170613437.1.2.3,Phases=3,Linecode=CABA08_3_3,Length=0.032734000,Units=km
new line.TR12121178 bus1=BMT170613436.1.2.3,bus2=BMT8713924B.1.2.3,Phases=3,Linecode=CABA08_3_3,Length=0.032226000,Units=km
new line.TR12121179 bus1=BMT8713924B.1.2.3,bus2=BMT8713929B.1.2.3,Phases=3,Linecode=CABA08_3_3,Length=0.032226000,Units=km
new line.TR12121180 bus1=BMT8713929B.1.2.3,bus2=BMT8713933B.1.2.3,Phases=3,Linecode=CABA08_3_3,Length=0.036988000,Units=km
new line.TR12121184 bus1=BMT8713933B.1.2.3,bus2=BMT8714010B.1.2.3,Phases=3,Linecode=CABA08_3_3,Length=0.027055000,Units=km
new line.TR12121185 bus1=BMT8714010B.1.2.3,bus2=BMT8714033B.1.2.3,Phases=3,Linecode=CABA08_3_3,Length=0.025062000,Units=km
new line.TR12121186 bus1=BMT8714033B.1.2.3,bus2=BMT8714034B.1.2.3,Phases=3,Linecode=CABA08_3_3,Length=0.013333000,Units=km
new line.TR12121188 bus1=BMT170613438.1.2.3,bus2=BMT170613439.1.2.3,Phases=3,Linecode=CABA08_3_3,Length=0.016632000,Units=km
new line.TR12121192 bus1=BMT170613439.1.2.3,bus2=BMT8714050B.1.2.3,Phases=3,Linecode=CABA08_3_3,Length=0.020210000,Units=km
new line.TR12121193 bus1=BMT8714050B.1.2.3,bus2=BMT8714055B.1.2.3,Phases=3,Linecode=CABA08_3_3,Length=0.030129000,Units=km
new line.TR12121194 bus1=BMT8714055B.1.2.3,bus2=BMT8714057B.1.2.3,Phases=3,Linecode=CABA08_3_3,Length=0.039177000,Units=km
new line.TR12121195 bus1=BMT8714057B.1.2.3,bus2=BMT8714059B.1.2.3,Phases=3,Linecode=CABA08_3_3,Length=0.040171000,Units=km
new line.TR12121196 bus1=BMT8714059B.1.2.3,bus2=BMT170613440.1.2.3,Phases=3,Linecode=CABA08_3_3,Length=0.039177000,Units=km
new line.TR12121197 bus1=BMT170613439.1.2.3,bus2=BMT8714060B.1.2.3,Phases=3,Linecode=CABA08_3_3,Length=0.021386000,Units=km
new line.TR12121199 bus1=BMT8714060B.1.2.3,bus2=BMT8714062B.1.2.3,Phases=3,Linecode=CABA08_3_3,Length=0.043074000,Units=km
new line.TR12121200 bus1=BMT8714062B.1.2.3,bus2=BMT170613441.1.2.3,Phases=3,Linecode=CABA08_3_3,Length=0.028052000,Units=km
new line.TR12125 bus1=BMT7779B.1,bus2=BMT7786B.1,Phases=1,Linecode=CAB102_3_1,Length=0.020602000,Units=km
new line.TR12130667 bus1=BMT161240468.1.2.3,bus2=BMT5538654B.1.2.3,Phases=3,Linecode=CABA06_3_3,Length=0.032366000,Units=km
new line.TR12130669 bus1=BMT161240465.1.2.3,bus2=BMT8724383B.1.2.3,Phases=3,Linecode=CABA06_3_3,Length=0.026230000,Units=km
new line.TR12130670 bus1=BMT8724383B.1.2.3,bus2=BMT5538591B.1.2.3,Phases=3,Linecode=CABA06_3_3,Length=0.022788000,Units=km
new line.TR12130671 bus1=BMT5538591B.1.2.3,bus2=BMT5538598B.1.2.3,Phases=3,Linecode=CABA06_3_3,Length=0.035146000,Units=km
new line.TR12130672 bus1=BMT5538598B.1.2.3,bus2=BMT161240466.1.2.3,Phases=3,Linecode=CABA06_3_3,Length=0.022788000,Units=km
new line.TR12130673 bus1=BMT161240466.1.2.3,bus2=BMT5538612B.1.2.3,Phases=3,Linecode=CABA06_3_3,Length=0.038806000,Units=km
new line.TR12130674 bus1=BMT5538612B.1.2.3,bus2=BMT5538619B.1.2.3,Phases=3,Linecode=CABA06_3_3,Length=0.023329000,Units=km
new line.TR12130675 bus1=BMT5538619B.1.2.3,bus2=BMT161240467.1.2.3,Phases=3,Linecode=CABA06_3_3,Length=0.036113000,Units=km
new line.TR12130679 bus1=BMT161240467.1.2.3,bus2=BMT5538654B.1.2.3,Phases=3,Linecode=CABA06_3_3,Length=0.062773000,Units=km
new line.TR12130683 bus1=BMT161240467.1.2.3,bus2=BMT161240469.1.2.3,Phases=3,Linecode=CABA06_3_3,Length=0.033814000,Units=km
new line.TR12130686 bus1=BMT161240466.1.2.3,bus2=BMT155972455.1.2.3,Phases=3,Linecode=CABA06_3_3,Length=0.022188000,Units=km
new line.TR12135103 bus1=BMT165219216.1.2.3,bus2=BMT155973501.1.2.3,Phases=3,Linecode=CAB202_3_3,Length=0.007995000,Units=km
new line.TR12135105 bus1=BMT165653295.1.2.3,bus2=BMT165653296.1.2.3,Phases=3,Linecode=CAB202_3_3,Length=0.024004000,Units=km
new line.TR12135115 bus1=BMT165653297.1.2.3,bus2=BMT7569B.1.2.3,Phases=3,Linecode=CABA06_3_3,Length=0.033577000,Units=km
new line.TR12135116 bus1=BMT7569B.1.2.3,bus2=BMT7576B.1.2.3,Phases=3,Linecode=CABA06_3_3,Length=0.017018000,Units=km
new line.TR12135117 bus1=BMT7576B.1.2.3,bus2=BMT165653298.1.2.3,Phases=3,Linecode=CABA06_3_3,Length=0.025982000,Units=km
new line.TR12146 bus1=BMT7786B.1,bus2=BMT7807B.1,Phases=1,Linecode=CAB102_3_1,Length=0.022345000,Units=km
new line.TR12174 bus1=BMT7793B.3,bus2=BMT6129503B.3,Phases=1,Linecode=CAB102_3_1,Length=0.027838000,Units=km
new line.TR12179450 bus1=BMT8155289B.1.2.3,bus2=BMT8155240B.1.2.3,Phases=3,Linecode=CABA08_3_3,Length=0.049006000,Units=km
new line.TR12202 bus1=BMT7800B.3,bus2=BMT7793B.3,Phases=1,Linecode=CAB102_3_1,Length=0.020382000,Units=km
new line.TR12216099 bus1=BMT155973485.1.2.3,bus2=BMT2340B.1.2.3,Phases=3,Linecode=CABA06_3_3,Length=0.015989000,Units=km
new line.TR12216101 bus1=BMT2340B.1.2.3,bus2=BMT155973488.1.2.3,Phases=3,Linecode=CABA06_3_3,Length=0.013991000,Units=km
new line.TR12230 bus1=BMT7807B.1,bus2=BMT7842B.1,Phases=1,Linecode=CAB102_3_1,Length=0.022457000,Units=km
new line.TR12244 bus1=BMT7814B.3,bus2=BMT7800B.3,Phases=1,Linecode=CAB102_3_1,Length=0.031123000,Units=km
new line.TR12247203 bus1=BMT2284B.1.2.3,bus2=BMT171762955.1.2.3,Phases=3,Linecode=CAB103_3_3,Length=0.011394000,Units=km
new line.TR12247204 bus1=BMT2277B.1.2.3,bus2=BMT171762955.1.2.3,Phases=3,Linecode=CAB103_3_3,Length=0.011394000,Units=km
new line.TR12249181 bus1=BMT159905343.1.2.3,bus2=BMT8850653B.1.2.3,Phases=3,Linecode=CABA06_3_3,Length=0.010810000,Units=km
new line.TR12249182 bus1=BMT199586B.1.2.3,bus2=BMT8850653B.1.2.3,Phases=3,Linecode=CABA06_3_3,Length=0.029509000,Units=km
new line.TR12258 bus1=BMT7821B.3,bus2=BMT7814B.3,Phases=1,Linecode=CAB102_3_1,Length=0.027000000,Units=km
new line.TR12265 bus1=BMT7828B.3,bus2=BMT7821B.3,Phases=1,Linecode=CAB102_3_1,Length=0.013144000,Units=km
new line.TR12279 bus1=BMT7842B.1,bus2=BMT155973628.1,Phases=1,Linecode=CAB102_3_1,Length=0.034152000,Units=km
new line.TR12286 bus1=BMT165219215.1.2.3,bus2=BMT165219216.1.2.3,Phases=3,Linecode=CAB103_3_3,Length=0.015221000,Units=km
new line.TR12286164 bus1=BMT3691B.1.2.3,bus2=BMT155973413.1.2.3,Phases=3,Linecode=CAB103_3_3,Length=0.015546000,Units=km
new line.TR12286165 bus1=BMT155973413.1.2.3,bus2=BMT172561301.1.2.3,Phases=3,Linecode=CAB103_3_3,Length=0.019092000,Units=km
new line.TR12286541 bus1=BMT155973467.1.2.3,bus2=BMT155973468.1.2.3,Phases=3,Linecode=CAB901_4_3,Length=0.016268000,Units=km
new line.TR12300 bus1=BMT7856B.1.2.3,bus2=BMT155973497.1.2.3,Phases=3,Linecode=CAB103_3_3,Length=0.013333000,Units=km
new line.TR12312435 bus1=BMT171762959.1.2.3,bus2=BMT8914683B.1.2.3,Phases=3,Linecode=CABA06_3_3,Length=0.026231000,Units=km
new line.TR12314 bus1=BMT165225355.1.2.3,bus2=BMT7856B.1.2.3,Phases=3,Linecode=CAB103_3_3,Length=0.034632000,Units=km
new line.TR12316448 bus1=BMT155973454.1.2.3,bus2=BMT8914683B.1.2.3,Phases=3,Linecode=CABA06_3_3,Length=0.043295000,Units=km
new line.TR12321 bus1=BMT7870B.1.2.3,bus2=BMT165225355.1.2.3,Phases=3,Linecode=CAB103_3_3,Length=0.022612000,Units=km
new line.TR1233 bus1=BMT155973478.1,bus2=BMT1059B.1,Phases=1,Linecode=CAB102_3_1,Length=0.009214000,Units=km
new line.TR12342 bus1=BMT7877B.1.2.3,bus2=BMT7870B.1.2.3,Phases=3,Linecode=CAB103_3_3,Length=0.016752000,Units=km
new line.TR12346398 bus1=BMT156474288.1.2.3,bus2=BMT155973327.1.2.3,Phases=3,Linecode=CABA08_3_3,Length=0.020866000,Units=km
new line.TR12349 bus1=BMT7884B.1.2.3,bus2=BMT7877B.1.2.3,Phases=3,Linecode=CAB103_3_3,Length=0.027495000,Units=km
new line.TR12410092 bus1=BMT162779127.1.2.3,bus2=BMT158576874.1.2.3,Phases=3,Linecode=CAB103_3_3,Length=0.011394000,Units=km
new line.TR12410093 bus1=BMT158576875.1.2.3,bus2=BMT7681144B.1.2.3,Phases=3,Linecode=CAB103_3_3,Length=0.011394000,Units=km
new line.TR12423788 bus1=BMT170934941.1.2.3,bus2=BMT159076409.1.2.3,Phases=3,Linecode=CAB103_3_3,Length=0.014550000,Units=km
new line.TR12423797 bus1=BMT160284292.1.2.3,bus2=BMT160284293.1.2.3,Phases=3,Linecode=CAB905_4_3,Length=0.009842000,Units=km
new line.TR12447684 bus1=BMT11846B.1.2.3,bus2=BMT165400374.1.2.3,Phases=3,Linecode=CABA08_3_3,Length=0.019986000,Units=km
new line.TR12447685 bus1=BMT165400374.1.2.3,bus2=BMT165400375.1.2.3,Phases=3,Linecode=CABA08_3_3,Length=0.012991000,Units=km
new line.TR12450628 bus1=BMT24299B.1,bus2=BMT160109800.1,Phases=1,Linecode=CAB102_3_1,Length=0.019092000,Units=km
new line.TR12450629 bus1=BMT160109719.1.2.3,bus2=BMT24306B.1.2.3,Phases=3,Linecode=CABA06_3_3,Length=0.016390000,Units=km
new line.TR12450631 bus1=BMT172353089.1.2.3,bus2=BMT9058618B.1.2.3,Phases=3,Linecode=CABA06_3_3,Length=0.039532000,Units=km
new line.TR12450632 bus1=BMT9058618B.1.2.3,bus2=BMT160109719.1.2.3,Phases=3,Linecode=CABA06_3_3,Length=0.042514000,Units=km
new line.TR1247 bus1=BMT155973473.1,bus2=BMT155973477.1,Phases=1,Linecode=CAB102_3_1,Length=0.019710000,Units=km
new line.TR12476421 bus1=BMT155973521.1.2.3,bus2=BMT161363275.1.2.3,Phases=3,Linecode=CAB104_3_3,Length=0.002827000,Units=km
new line.TR12491179 bus1=BMT155973391.1.2.3,bus2=BMT172014023.1.2.3,Phases=3,Linecode=CAB106_3_3,Length=0.002235000,Units=km
new line.TR12573594 bus1=BMT165448740.1.2.3,bus2=BMT165448742.1.2.3,Phases=3,Linecode=CABA06_3_3,Length=0.018372000,Units=km
new line.TR12618164 bus1=BMT3639890B.1.2.3,bus2=BMT167001697.1.2.3,Phases=3,Linecode=CAB202_3_3,Length=0.027000000,Units=km
new line.TR12618165 bus1=BMT167001697.1.2.3,bus2=BMT1988800B.1.2.3,Phases=3,Linecode=CAB202_3_3,Length=0.030978000,Units=km
new line.TR12618166 bus1=BMT167001697.1.2.3,bus2=BMT9227411B.1.2.3,Phases=3,Linecode=CAB103_3_3,Length=0.054551000,Units=km
new line.TR12618167 bus1=BMT9227411B.1.2.3,bus2=BMT9227412B.1.2.3,Phases=3,Linecode=CAB103_3_3,Length=0.062470000,Units=km
new line.TR12618173 bus1=BMT9227412B.1.2.3,bus2=BMT9227413B.1.2.3,Phases=3,Linecode=CAB103_3_3,Length=0.061088000,Units=km
new line.TR12618174 bus1=BMT9227413B.1.2.3,bus2=BMT167001699.1.2.3,Phases=3,Linecode=CAB103_3_3,Length=0.059799000,Units=km
new line.TR12706744 bus1=BMT169918161.3,bus2=BMT8493B.3,Phases=1,Linecode=CAB103_3_1,Length=0.034182000,Units=km
new line.TR12706745 bus1=BMT8493B.3,bus2=BMT8500B.3,Phases=1,Linecode=CAB103_3_1,Length=0.031759000,Units=km
new line.TR12706746 bus1=BMT8500B.3,bus2=BMT169918162.3,Phases=1,Linecode=CAB103_3_1,Length=0.034761000,Units=km