new load.3009012584M1 bus1=BMT155972450.1.2.3.0,Phases=3,kv=13.8,kW=3.1923,pf=0.92,Vminpu=0.93,Vmaxpu=1.5,model=8,zipv=[0.5,0,0.5,1,0,0,0],daily=A4-1,status=variable
new load.3009012974M1 bus1=BMT155973746.1.2.3.0,Phases=3,kv=13.8,kW=22.34606,pf=0.92,Vminpu=0.93,Vmaxpu=1.5,model=8,zipv=[0.5,0,0.5,1,0,0,0],daily=A4-1,status=variable
new load.3009012975M1 bus1=BMT158051497.1.2.3.0,Phases=3,kv=13.8,kW=98.57726,pf=0.92,Vminpu=0.93,Vmaxpu=1.5,model=8,zipv=[0.5,0,0.5,1,0,0,0],daily=A4-3,status=variable
new load.3009015710M1 bus1=BMT155973744.1.2.3.0,Phases=3,kv=13.8,kW=94.23274,pf=0.92,Vminpu=0.93,Vmaxpu=1.5,model=8,zipv=[0.5,0,0.5,1,0,0,0],daily=A4-2,status=variable
new load.3009018130M1 bus1=BMT155973697.1.2.3.0,Phases=3,kv=13.8,kW=111.16158,pf=0.92,Vminpu=0.93,Vmaxpu=1.5,model=8,zipv=[0.5,0,0.5,1,0,0,0],daily=A4-3,status=variable
new load.3009018263M1 bus1=BMT155972502.1.2.3.0,Phases=3,kv=13.8,kW=49.0822,pf=0.92,Vminpu=0.93,Vmaxpu=1.5,model=8,zipv=[0.5,0,0.5,1,0,0,0],daily=A4-4,status=variable
new load.3009020680M1 bus1=BMT170921423.1.2.3.0,Phases=3,kv=13.8,kW=13.46182,pf=0.92,Vminpu=0.93,Vmaxpu=1.5,model=8,zipv=[0.5,0,0.5,1,0,0,0],daily=A4-2,status=variable
new load.3009021331M1 bus1=BMT159475689.1.2.3.0,Phases=3,kv=13.8,kW=6.7309,pf=0.92,Vminpu=0.93,Vmaxpu=1.5,model=8,zipv=[0.5,0,0.5,1,0,0,0],daily=A4-2,status=variable
new load.3010087017M1 bus1=BMT155973717.1.2.3.0,Phases=3,kv=13.8,kW=85.25818,pf=0.92,Vminpu=0.93,Vmaxpu=1.5,model=8,zipv=[0.5,0,0.5,1,0,0,0],daily=A4-2,status=variable
new load.3010212623M1 bus1=BMT155973557.1.2.3.0,Phases=3,kv=13.8,kW=42.6291,pf=0.92,Vminpu=0.93,Vmaxpu=1.5,model=8,zipv=[0.5,0,0.5,1,0,0,0],daily=A4-2,status=variable
new load.3012414867M1 bus1=BMT155973468.1.2.3.0,Phases=3,kv=13.8,kW=136.57658,pf=0.92,Vminpu=0.93,Vmaxpu=1.5,model=8,zipv=[0.5,0,0.5,1,0,0,0],daily=A4-4,status=variable
new load.3013172911M1 bus1=BMT170934941.1.2.3.0,Phases=3,kv=13.8,kW=76.28364,pf=0.92,Vminpu=0.93,Vmaxpu=1.5,model=8,zipv=[0.5,0,0.5,1,0,0,0],daily=A4-2,status=variable
