new line.RML10066848 bus1=BBT7190304.1.0,bus2=RML1060066848.1.0,Phases=1,Linecode=CABBTG01_4_1,Length=0.017000000,Units=km
new line.RML10068 bus1=BBT2984.1.2.0,bus2=RML1050010068.1.2.0,Phases=2,Linecode=CABBTG05_4_2,Length=0.017000000,Units=km
new line.RML10069769 bus1=BBT12511.1.2.3.0,bus2=RML1060069769.1.2.3.0,Phases=3,Linecode=CABBTG11_4_3,Length=0.029000000,Units=km
new line.RML10071722 bus1=BBT38996442.1.0,bus2=RML1060071722.1.0,Phases=1,Linecode=CABBTG02_4_1,Length=0.017000000,Units=km
new line.RML10071807 bus1=BBT7190136.1.2.0,bus2=RML1060071807.1.2.0,Phases=2,Linecode=CABBTG05_4_2,Length=0.017000000,Units=km
new line.RML10072111 bus1=BBT1955.2.0,bus2=RML1060072111.2.0,Phases=1,Linecode=CABBTG01_4_1,Length=0.017000000,Units=km
new line.RML10072153 bus1=BBT389846.1.0,bus2=RML1060072153.1.0,Phases=1,Linecode=CABBTG02_4_1,Length=0.017000000,Units=km
new line.RML10072294 bus1=BBT13743.1.2.0,bus2=RML1060072294.1.2.0,Phases=2,Linecode=CABBTG13_4_2,Length=0.017000000,Units=km
new line.RML10072405 bus1=BBT97498634.1.0,bus2=RML1060072405.1.0,Phases=1,Linecode=CABBTG02_4_1,Length=0.017000000,Units=km
new line.RML10072710 bus1=BBT3338316.1.2.3.0,bus2=RML1060072710.1.2.3.0,Phases=3,Linecode=CABBTG06_4_3,Length=0.017000000,Units=km
new line.RML10072819 bus1=BBT4825.1.0,bus2=RML1060072819.1.0,Phases=1,Linecode=CABBTG02_4_1,Length=0.017000000,Units=km
new line.RML10131 bus1=BBT3005.1.2.3.0,bus2=RML1050010131.1.2.3.0,Phases=3,Linecode=CABBTG07_4_3,Length=0.017000000,Units=km
new line.RML10131822 bus1=BBT13771.1.2.3.0,bus2=RML1060131822.1.2.3.0,Phases=3,Linecode=CABBTG07_4_3,Length=0.017000000,Units=km
new line.RML10133051 bus1=BBT70842.1.2.0,bus2=RML1060133051.1.2.0,Phases=2,Linecode=CABBTG05_4_2,Length=0.017000000,Units=km
new line.RML10136166 bus1=BBT10551.1.2.0,bus2=RML1060136166.1.2.0,Phases=2,Linecode=CABBTG05_4_2,Length=0.017000000,Units=km
new line.RML10138 bus1=BBT3019.1.0,bus2=RML1050010138.1.0,Phases=1,Linecode=CABBTG01_4_1,Length=0.017000000,Units=km
new line.RML10208 bus1=BBT3026.2.0,bus2=RML1050010208.2.0,Phases=1,Linecode=CABBTG02_4_1,Length=0.017000000,Units=km
new line.RML10208873 bus1=BBT97469199.2.0,bus2=RML1060208873.2.0,Phases=1,Linecode=CABBTG02_4_1,Length=0.017000000,Units=km
new line.RML10208882 bus1=BBT97469192.1.2.3.0,bus2=RML1060208882.1.2.3.0,Phases=3,Linecode=CABBTG06_4_3,Length=0.017000000,Units=km
new line.RML10278 bus1=BBT3047.2.3.0,bus2=RML1050010278.2.3.0,Phases=2,Linecode=CABBTG05_4_2,Length=0.017000000,Units=km
new line.RML10279472 bus1=BBT97498634.1.2.3.0,bus2=RML1060279472.1.2.3.0,Phases=3,Linecode=CABBTG06_4_3,Length=0.017000000,Units=km
new line.RML10281416 bus1=BBT12931.1.2.0,bus2=RML1060281416.1.2.0,Phases=2,Linecode=CABBTG05_4_2,Length=0.017000000,Units=km
new line.RML10281420 bus1=BBT392772.1.2.3.0,bus2=RML1060281420.1.2.3.0,Phases=3,Linecode=CABBTG06_4_3,Length=0.017000000,Units=km
new line.RML10281622 bus1=BBT9375.1.2.0,bus2=RML1060281622.1.2.0,Phases=2,Linecode=CABBTG05_4_2,Length=0.017000000,Units=km
new line.RML10282101 bus1=BBT70282.1.0,bus2=RML1060282101.1.0,Phases=1,Linecode=CABBTG02_4_1,Length=0.017000000,Units=km
new line.RML10282688 bus1=BBT2788.1.0,bus2=RML1060282688.1.0,Phases=1,Linecode=CABBTG02_4_1,Length=0.017000000,Units=km
new line.RML10349166 bus1=BBT9564.1.2.0,bus2=RML1060349166.1.2.0,Phases=2,Linecode=CABBTG05_4_2,Length=0.017000000,Units=km
new line.RML10349170 bus1=BBT11048.1.2.0,bus2=RML1060349170.1.2.0,Phases=2,Linecode=CABBTG05_4_2,Length=0.017000000,Units=km
new line.RML10351103 bus1=BBT390105.1.2.0,bus2=RML1060351103.1.2.0,Phases=2,Linecode=CABBTG05_4_2,Length=0.017000000,Units=km
new line.RML10352225 bus1=BBT2953050.2.0,bus2=RML1060352225.2.0,Phases=1,Linecode=CABBTG02_4_1,Length=0.017000000,Units=km
new line.RML10352429 bus1=BBT7190171.1.0,bus2=RML1060352429.1.0,Phases=1,Linecode=CABBTG02_4_1,Length=0.017000000,Units=km
new line.RML10353295 bus1=BBT15381.1.2.0,bus2=RML1060353295.1.2.0,Phases=2,Linecode=CABBT801_4_2,Length=0.017000000,Units=km
new line.RML10355 bus1=BBT3082.1.0,bus2=RML1050010355.1.0,Phases=1,Linecode=CABBTG01_4_1,Length=0.017000000,Units=km
new line.RML10410022 bus1=BBT97469059.1.2.3.0,bus2=RML1060410022.1.2.3.0,Phases=3,Linecode=CABBTG06_4_3,Length=0.017000000,Units=km
new line.RML10410973 bus1=BBT389846.2.0,bus2=RML1060410973.2.0,Phases=1,Linecode=CABBTG02_4_1,Length=0.017000000,Units=km
new line.RML10411 bus1=BBT3096.2.3.0,bus2=RML1050010411.2.3.0,Phases=2,Linecode=CABBTG04_4_2,Length=0.017000000,Units=km
new line.RML10412350 bus1=BBT7989.1.2.0,bus2=RML1060412350.1.2.0,Phases=2,Linecode=CABBTG05_4_2,Length=0.017000000,Units=km
new line.RML10487567 bus1=BBT110213140.2.3.0,bus2=RML1060487567.2.3.0,Phases=2,Linecode=CABBTG05_4_2,Length=0.015000000,Units=km
new line.RML10487600 bus1=BBT97431938.1.2.0,bus2=RML1060487600.1.2.0,Phases=2,Linecode=CABBTG05_4_2,Length=0.011000000,Units=km
new line.RML10488 bus1=BBT3110.1.2.3.0,bus2=RML1050010488.1.2.3.0,Phases=3,Linecode=CABBTG06_4_3,Length=0.017000000,Units=km
new line.RML10488530 bus1=BBT28681.2.0,bus2=RML1060488530.2.0,Phases=1,Linecode=CABBTG02_4_1,Length=0.017000000,Units=km
new line.RML10488532 bus1=BBT28681.1.0,bus2=RML1060488532.1.0,Phases=1,Linecode=CABBTG02_4_1,Length=0.017000000,Units=km
new line.RML10489935 bus1=BBT30116.1.0,bus2=RML1060489935.1.0,Phases=1,Linecode=CABBT802_4_1,Length=0.020000000,Units=km
new line.RML10490552 bus1=BBT148546180.1.0,bus2=RML1060490552.1.0,Phases=1,Linecode=CABBT802_4_1,Length=0.011000000,Units=km
new line.RML10492142 bus1=BBT390126.2.0,bus2=RML1060492142.2.0,Phases=1,Linecode=CABBT802_4_1,Length=0.006000000,Units=km
new line.RML10492811 bus1=BBT148545607.2.0,bus2=RML1060492811.2.0,Phases=1,Linecode=CABBTG02_4_1,Length=0.010000000,Units=km
new line.RML10492851 bus1=BBT30116.2.0,bus2=RML1060492851.2.0,Phases=1,Linecode=CABBTG02_4_1,Length=0.020000000,Units=km
new line.RML10495 bus1=BBT3110.1.2.3.0,bus2=RML1050010495.1.2.3.0,Phases=3,Linecode=CABBTG06_4_3,Length=0.017000000,Units=km
new line.RML10556759 bus1=BBT148544711.2.0,bus2=RML1060556759.2.0,Phases=1,Linecode=CABBT802_4_1,Length=0.008000000,Units=km
new line.RML10558 bus1=BBT3152.1.0,bus2=RML1050010558.1.0,Phases=1,Linecode=CABBTG02_4_1,Length=0.017000000,Units=km
new line.RML10561999 bus1=BBT353600.3.0,bus2=RML1060561999.3.0,Phases=1,Linecode=CABBTG02_4_1,Length=0.017000000,Units=km
new line.RML10562005 bus1=BBT353481.1.0,bus2=RML1060562005.1.0,Phases=1,Linecode=CABBTG02_4_1,Length=0.017000000,Units=km
new line.RML10565 bus1=BBT3159.2.0,bus2=RML1050010565.2.0,Phases=1,Linecode=CABBTG01_4_1,Length=0.017000000,Units=km
new line.RML10592394 bus1=BBT148547359.1.0,bus2=RML1060592394.1.0,Phases=1,Linecode=CABBTG02_4_1,Length=0.017000000,Units=km
new line.RML10592399 bus1=BBT148547359.1.0,bus2=RML1060592399.1.0,Phases=1,Linecode=CABBTG02_4_1,Length=0.017000000,Units=km
new line.RML10593 bus1=BBT3180.1.0,bus2=RML1050010593.1.0,Phases=1,Linecode=CABBTG01_4_1,Length=0.017000000,Units=km
new line.RML10593609 bus1=BBT97431931.2.0,bus2=RML1060593609.2.0,Phases=1,Linecode=CABBTG02_4_1,Length=0.010000000,Units=km
new line.RML10593613 bus1=BBT353600.1.0,bus2=RML1060593613.1.0,Phases=1,Linecode=CABBTG02_4_1,Length=0.016000000,Units=km
new line.RML10598243 bus1=BBT148545538.2.3.0,bus2=RML1060598243.2.3.0,Phases=2,Linecode=CABBT811_4_2,Length=0.010000000,Units=km
new line.RML10051756 bus1=BBT8654.2.0,bus2=RML1060051756.2.0,Phases=1,Linecode=CABBTG02_4_1,Length=0.017000000,Units=km
new line.RML10054 bus1=BBT2991.1.3.0,bus2=RML1050010054.1.3.0,Phases=2,Linecode=CABBTG05_4_2,Length=0.017000000,Units=km
new line.RML10107166 bus1=BBT389916.3.0,bus2=RML1060107166.3.0,Phases=1,Linecode=CABBTG02_4_1,Length=0.017000000,Units=km
new line.RML10107181 bus1=BBT1717.1.2.0,bus2=RML1060107181.1.2.0,Phases=2,Linecode=CABBTG05_4_2,Length=0.017000000,Units=km
new line.RML10107186 bus1=BBT4783.2.0,bus2=RML1060107186.2.0,Phases=1,Linecode=CABBTG02_4_1,Length=0.017000000,Units=km
new line.RML10107384 bus1=BBT4566.1.2.3.0,bus2=RML1060107384.1.2.3.0,Phases=3,Linecode=CABBTG06_4_3,Length=0.017000000,Units=km
new line.RML10108003 bus1=BBT97431952.1.0,bus2=RML1060108003.1.0,Phases=1,Linecode=CABBTG02_4_1,Length=0.017000000,Units=km
new line.RML10108943 bus1=BBT15605.1.3.0,bus2=RML1060108943.1.3.0,Phases=2,Linecode=CABBTG05_4_2,Length=0.017000000,Units=km
new line.RML10110 bus1=BBT3005.2.0,bus2=RML1050010110.2.0,Phases=1,Linecode=CABBTG01_4_1,Length=0.017000000,Units=km
new line.RML10159 bus1=BBT3012.1.0,bus2=RML1050010159.1.0,Phases=1,Linecode=CABBTG01_4_1,Length=0.017000000,Units=km
new line.RML10162276 bus1=BBT10824.1.2.0,bus2=RML1060162276.1.2.0,Phases=2,Linecode=CABBTG05_4_2,Length=0.017000000,Units=km
new line.RML10162280 bus1=BBT8920.1.2.0,bus2=RML1060162280.1.2.0,Phases=2,Linecode=CABBTG05_4_2,Length=0.017000000,Units=km
new line.RML10229 bus1=BBT3033.2.3.0,bus2=RML1050010229.2.3.0,Phases=2,Linecode=CABBTG05_4_2,Length=0.017000000,Units=km
new line.RML10233988 bus1=BBT2844.2.0,bus2=RML1060233988.2.0,Phases=1,Linecode=CABBTG02_4_1,Length=0.017000000,Units=km
new line.RML10234872 bus1=BBT54803191.2.3.0,bus2=RML1060234872.2.3.0,Phases=2,Linecode=CABBTG05_4_2,Length=0.017000000,Units=km
new line.RML10234876 bus1=BBT301632.1.0,bus2=RML1060234876.1.0,Phases=1,Linecode=CABBTG02_4_1,Length=0.017000000,Units=km
new line.RML10234909 bus1=BBT353579.1.0,bus2=RML1060234909.1.0,Phases=1,Linecode=CABBTG02_4_1,Length=0.017000000,Units=km
new line.RML10235036 bus1=BBT389769.1.3.0,bus2=RML1060235036.1.3.0,Phases=2,Linecode=CABBTG05_4_2,Length=0.017000000,Units=km
new line.RML10235243 bus1=BBT96298428.1.2.0,bus2=RML1060235243.1.2.0,Phases=2,Linecode=CABBTG05_4_2,Length=0.017000000,Units=km
new line.RML10235511 bus1=BBT390014.1.2.3.0,bus2=RML1060235511.1.2.3.0,Phases=3,Linecode=CABBTG06_4_3,Length=0.017000000,Units=km
new line.RML10235522 bus1=BBT390028.1.0,bus2=RML1060235522.1.0,Phases=1,Linecode=CABBTG02_4_1,Length=0.017000000,Units=km
new line.RML10235543 bus1=BBT229700.1.2.0,bus2=RML1060235543.1.2.0,Phases=2,Linecode=CABBTG05_4_2,Length=0.017000000,Units=km
new line.RML10235598 bus1=BBT12182.1.2.0,bus2=RML1060235598.1.2.0,Phases=2,Linecode=CABBTG05_4_2,Length=0.017000000,Units=km
new line.RML10301557 bus1=BBT77394.3.0,bus2=RML1060301557.3.0,Phases=1,Linecode=CABBTG02_4_1,Length=0.017000000,Units=km
new line.RML10306 bus1=BBT3068.1.0,bus2=RML1050010306.1.0,Phases=1,Linecode=CABBTG01_4_1,Length=0.017000000,Units=km
new line.RML10306924 bus1=BBT9494.2.0,bus2=RML1060306924.2.0,Phases=1,Linecode=CABBTG02_4_1,Length=0.017000000,Units=km
new line.RML10359332 bus1=BBT97503296.1.0,bus2=RML1060359332.1.0,Phases=1,Linecode=CABBTG02_4_1,Length=0.017000000,Units=km
new line.RML10360196 bus1=BBT97497129.2.0,bus2=RML1060360196.2.0,Phases=1,Linecode=CABBTG02_4_1,Length=0.017000000,Units=km
new line.RML10360419 bus1=BBT97503198.1.0,bus2=RML1060360419.1.0,Phases=1,Linecode=CABBTG02_4_1,Length=0.017000000,Units=km
new line.RML10362 bus1=BBT3082.1.0,bus2=RML1050010362.1.0,Phases=1,Linecode=CABBTG01_4_1,Length=0.017000000,Units=km
new line.RML10363280 bus1=BBT38996393.1.0,bus2=RML1060363280.1.0,Phases=1,Linecode=CABBTG02_4_1,Length=0.017000000,Units=km
new line.RML10364176 bus1=BBT406121.1.2.0,bus2=RML1060364176.1.2.0,Phases=2,Linecode=CABBTG05_4_2,Length=0.017000000,Units=km
new line.RML10415125 bus1=BBT3338260.1.2.0,bus2=RML1060415125.1.2.0,Phases=2,Linecode=CABBTG05_4_2,Length=0.017000000,Units=km
new line.RML10416401 bus1=BBT1829.2.0,bus2=RML1060416401.2.0,Phases=1,Linecode=CABBTG02_4_1,Length=0.017000000,Units=km
new line.RML10418 bus1=BBT3096.1.2.3.0,bus2=RML1050010418.1.2.3.0,Phases=3,Linecode=CABBTG11_4_3,Length=0.017000000,Units=km
new line.RML10421657 bus1=BBT10299.1.0,bus2=RML1060421657.1.0,Phases=1,Linecode=CABBTG02_4_1,Length=0.017000000,Units=km
new line.RML10472439 bus1=BBT2375.1.2.0,bus2=RML1060472439.1.2.0,Phases=2,Linecode=CABBTG05_4_2,Length=0.010000000,Units=km
new line.RML10474929 bus1=BBT9424.1.2.0,bus2=RML1060474929.1.2.0,Phases=2,Linecode=CABBTG05_4_2,Length=0.011000000,Units=km
new line.RML10475106 bus1=BBT133211087.1.2.0,bus2=RML1060475106.1.2.0,Phases=2,Linecode=CABBTG05_4_2,Length=0.010000000,Units=km
new line.RML10477722 bus1=BBT6553080.1.0,bus2=RML1060477722.1.0,Phases=1,Linecode=CABBTG02_4_1,Length=0.007000000,Units=km
new line.RML10477770 bus1=BBT24425.1.0,bus2=RML1060477770.1.0,Phases=1,Linecode=CABBTG02_4_1,Length=0.017000000,Units=km
new line.RML10523 bus1=BBT3131.1.0,bus2=RML1050010523.1.0,Phases=1,Linecode=CABBTG01_4_1,Length=0.017000000,Units=km
new line.RML10524022 bus1=BBT3292.2.0,bus2=RML1060524022.2.0,Phases=1,Linecode=CABBT802_4_1,Length=0.010000000,Units=km
new line.RML10524063 bus1=BBT150683388.1.2.0,bus2=RML1060524063.1.2.0,Phases=2,Linecode=CABBTG05_4_2,Length=0.017000000,Units=km
new line.RML10524813 bus1=BBT97431938.1.0,bus2=RML1060524813.1.0,Phases=1,Linecode=CABBTG02_4_1,Length=0.017000000,Units=km
new line.RML10528194 bus1=BBT3649.1.0,bus2=RML1060528194.1.0,Phases=1,Linecode=CABBTG02_4_1,Length=0.015000000,Units=km
new line.RML10528270 bus1=BBT97496051.1.0,bus2=RML1060528270.1.0,Phases=1,Linecode=CABBTG02_4_1,Length=0.006000000,Units=km
new line.RML10528288 bus1=BBT8654.2.0,bus2=RML1060528288.2.0,Phases=1,Linecode=CABBTG02_4_1,Length=0.020000000,Units=km
new line.RML10528548 bus1=BBT390112.1.0,bus2=RML1060528548.1.0,Phases=1,Linecode=CABBTG02_4_1,Length=0.017000000,Units=km
new line.RML10530 bus1=BBT3131.2.0,bus2=RML1050010530.2.0,Phases=1,Linecode=CABBTG01_4_1,Length=0.017000000,Units=km
new line.RML10585100 bus1=BBT353530.1.2.0,bus2=RML1060585100.1.2.0,Phases=2,Linecode=CABBTG05_4_2,Length=0.025000000,Units=km
new line.RML10586 bus1=BBT3166.1.0,bus2=RML1050010586.1.0,Phases=1,Linecode=CABBTG01_4_1,Length=0.017000000,Units=km
new line.RML10587060 bus1=BBT97497129.2.0,bus2=RML1060587060.2.0,Phases=1,Linecode=CABBTG02_4_1,Length=0.010000000,Units=km
new line.RML10587061 bus1=BBT148545737.1.2.0,bus2=RML1060587061.1.2.0,Phases=2,Linecode=CABBTG05_4_2,Length=0.020000000,Units=km
new line.RML10589428 bus1=BBT59500877.1.0,bus2=RML1060589428.1.0,Phases=1,Linecode=CABBT802_4_1,Length=0.015000000,Units=km
new line.RML10675746 bus1=BBT389993.1.2.0,bus2=RML1060675746.1.2.0,Phases=2,Linecode=CABBTG05_4_2,Length=0.013000000,Units=km
new line.RML10676031 bus1=BBT389741.1.0,bus2=RML1060676031.1.0,Phases=1,Linecode=CABBTG02_4_1,Length=0.012000000,Units=km
new line.RML10676431 bus1=BBT5672368.2.0,bus2=RML1060676431.2.0,Phases=1,Linecode=CABBTG02_4_1,Length=0.010000000,Units=km
new line.RML10677 bus1=BBT3201.2.3.0,bus2=RML1050010677.2.3.0,Phases=2,Linecode=CABBTG05_4_2,Length=0.017000000,Units=km
new line.RML10089 bus1=BBT3005.1.3.0,bus2=RML1050010089.1.3.0,Phases=2,Linecode=CABBTG04_4_2,Length=0.017000000,Units=km
new line.RML10141857 bus1=BBT24397.1.2.3.0,bus2=RML1060141857.1.2.3.0,Phases=3,Linecode=CABBTG06_4_3,Length=0.017000000,Units=km
new line.RML10143300 bus1=BBT18111.1.2.0,bus2=RML1060143300.1.2.0,Phases=2,Linecode=CABBT811_4_2,Length=0.017000000,Units=km
new line.RML10143901 bus1=BBT97504346.1.2.0,bus2=RML1060143901.1.2.0,Phases=2,Linecode=CABBT811_4_2,Length=0.017000000,Units=km
new line.RML10143951 bus1=BBT298034.1.2.0,bus2=RML1060143951.1.2.0,Phases=2,Linecode=CABBT811_4_2,Length=0.017000000,Units=km
new line.RML10144034 bus1=BBT8885.1.3.0,bus2=RML1060144034.1.3.0,Phases=2,Linecode=CABBT811_4_2,Length=0.017000000,Units=km
new line.RML10144393 bus1=BBT70807.1.2.0,bus2=RML1060144393.1.2.0,Phases=2,Linecode=CABBTG05_4_2,Length=0.017000000,Units=km
new line.RML10144447 bus1=BBT7190206.1.2.0,bus2=RML1060144447.1.2.0,Phases=2,Linecode=CABBTG04_4_2,Length=0.017000000,Units=km
new line.RML10145 bus1=BBT3012.1.0,bus2=RML1050010145.1.0,Phases=1,Linecode=CABBTG01_4_1,Length=0.017000000,Units=km
new line.RML10145000 bus1=BBT27029.1.2.0,bus2=RML1060145000.1.2.0,Phases=2,Linecode=CABBTG05_4_2,Length=0.017000000,Units=km
new line.RML10145091 bus1=BBT9872.3.0,bus2=RML1060145091.3.0,Phases=1,Linecode=CABBTG02_4_1,Length=0.017000000,Units=km
new line.RML10145129 bus1=BBT338494.1.2.0,bus2=RML1060145129.1.2.0,Phases=2,Linecode=CABBTG05_4_2,Length=0.017000000,Units=km
new line.RML10145708 bus1=BBT6197.1.2.0,bus2=RML1060145708.1.2.0,Phases=2,Linecode=CABBTG05_4_2,Length=0.017000000,Units=km
new line.RML10145748 bus1=BBT2151.1.2.0,bus2=RML1060145748.1.2.0,Phases=2,Linecode=CABBTG05_4_2,Length=0.06,Units=km
new line.RML10145776 bus1=BBT8906.1.0,bus2=RML1060145776.1.0,Phases=1,Linecode=CABBTG02_4_1,Length=0.017000000,Units=km
new line.RML10146170 bus1=BBT5714.2.0,bus2=RML1060146170.2.0,Phases=1,Linecode=CABBTG01_4_1,Length=0.017000000,Units=km
new line.RML10201 bus1=BBT3026.1.3.0,bus2=RML1050010201.1.3.0,Phases=2,Linecode=CABBTG05_4_2,Length=0.017000000,Units=km
new line.RML10202878 bus1=BBT97469199.2.0,bus2=RML1060202878.2.0,Phases=1,Linecode=CABBTG02_4_1,Length=0.017000000,Units=km
new line.RML10202891 bus1=BBT5994.1.0,bus2=RML1060202891.1.0,Phases=1,Linecode=CABBTG02_4_1,Length=0.017000000,Units=km
new line.RML10202973 bus1=BBT389825.1.2.0,bus2=RML1060202973.1.2.0,Phases=2,Linecode=CABBTG05_4_2,Length=0.017000000,Units=km
new line.RML10203007 bus1=BBT4237935.2.0,bus2=RML1060203007.2.0,Phases=1,Linecode=CABBTG02_4_1,Length=0.017000000,Units=km
new line.RML10235880 bus1=BBT148544980.1.2.3.0,bus2=RML1060235880.1.2.3.0,Phases=3,Linecode=CABBTG06_4_3,Length=0.017000000,Units=km
new line.RML10236 bus1=BBT3033.2.3.0,bus2=RML1050010236.2.3.0,Phases=2,Linecode=CABBTG05_4_2,Length=0.017000000,Units=km
new line.RML10236930 bus1=BBT97380432.1.2.0,bus2=RML1060236930.1.2.0,Phases=2,Linecode=CABBTG05_4_2,Length=0.017000000,Units=km
new line.RML10238430 bus1=BBT148545538.1.0,bus2=RML1060238430.1.0,Phases=1,Linecode=CABBTG02_4_1,Length=0.017000000,Units=km
new line.RML10243 bus1=BBT3033.1.0,bus2=RML1050010243.1.0,Phases=1,Linecode=CABBTG01_4_1,Length=0.017000000,Units=km
new line.RML10311805 bus1=BBT97469059.1.0,bus2=RML1060311805.1.0,Phases=1,Linecode=CABBTG02_4_1,Length=0.017000000,Units=km
new line.RML10312114 bus1=BBT353425.1.2.3.0,bus2=RML1060312114.1.2.3.0,Phases=3,Linecode=CABBTG06_4_3,Length=0.017000000,Units=km
new line.RML10312404 bus1=BBT355196.2.0,bus2=RML1060312404.2.0,Phases=1,Linecode=CABBTG02_4_1,Length=0.017000000,Units=km
new line.RML10313 bus1=BBT22105680.1.2.3.0,bus2=RML1050010313.1.2.3.0,Phases=3,Linecode=CABBTG06_4_3,Length=0.017000000,Units=km
new line.RML10342460 bus1=BBT97430083.1.0,bus2=RML1060342460.1.0,Phases=1,Linecode=CABBTG02_4_1,Length=0.017000000,Units=km
new line.RML10344424 bus1=BBT389986.1.0,bus2=RML1060344424.1.0,Phases=1,Linecode=CABBTG02_4_1,Length=0.017000000,Units=km
new line.RML10344457 bus1=BBT7190262.1.2.0,bus2=RML1060344457.1.2.0,Phases=2,Linecode=CABBTG05_4_2,Length=0.017000000,Units=km
new line.RML10344771 bus1=BBT394228.1.2.0,bus2=RML1060344771.1.2.0,Phases=2,Linecode=CABBTG05_4_2,Length=0.017000000,Units=km
new line.RML10344846 bus1=BBT97431938.1.2.0,bus2=RML1060344846.1.2.0,Phases=2,Linecode=CABBTG05_4_2,Length=0.017000000,Units=km
new line.RML10348 bus1=BBT3082.1.0,bus2=RML1050010348.1.0,Phases=1,Linecode=CABBTG02_4_1,Length=0.017000000,Units=km
new line.RML10348626 bus1=BBT353495.2.0,bus2=RML1060348626.2.0,Phases=1,Linecode=CABBTG02_4_1,Length=0.017000000,Units=km
new line.RML10425 bus1=BBT3103.3.0,bus2=RML1050010425.3.0,Phases=1,Linecode=CABBTG01_4_1,Length=0.017000000,Units=km
new line.RML10426718 bus1=BBT394172.1.2.0,bus2=RML1060426718.1.2.0,Phases=2,Linecode=CABBTG05_4_2,Length=0.017000000,Units=km
new line.RML10426998 bus1=BBT1829.3.0,bus2=RML1060426998.3.0,Phases=1,Linecode=CABBTG02_4_1,Length=0.017000000,Units=km
new line.RML10481 bus1=BBT3110.1.2.3.0,bus2=RML1050010481.1.2.3.0,Phases=3,Linecode=CABBTG11_4_3,Length=0.017000000,Units=km
new line.RML10482746 bus1=BBT389699.1.0,bus2=RML1060482746.1.0,Phases=1,Linecode=CABBTG02_4_1,Length=0.030000000,Units=km
new line.RML10484627 bus1=BBT11895.1.2.0,bus2=RML1060484627.1.2.0,Phases=2,Linecode=CABBTG05_4_2,Length=0.017000000,Units=km
new line.RML10532302 bus1=BBT97491179.1.2.3.0,bus2=RML1060532302.1.2.3.0,Phases=3,Linecode=CABBTG06_4_3,Length=0.030000000,Units=km
new line.RML10532417 bus1=BBT7190269.1.0,bus2=RML1060532417.1.0,Phases=1,Linecode=CABBTG02_4_1,Length=0.017000000,Units=km
new line.RML10532549 bus1=BBT353544.3.0,bus2=RML1060532549.3.0,Phases=1,Linecode=CABBTG02_4_1,Length=0.017000000,Units=km
new line.RML10534277 bus1=BBT148547359.2.0,bus2=RML1060534277.2.0,Phases=1,Linecode=CABBTG02_4_1,Length=0.030000000,Units=km
new line.RML10534474 bus1=BBT6967.1.0,bus2=RML1060534474.1.0,Phases=1,Linecode=CABBTG02_4_1,Length=0.017000000,Units=km
new line.RML10537 bus1=BBT3138.1.0,bus2=RML1050010537.1.0,Phases=1,Linecode=CABBTG01_4_1,Length=0.017000000,Units=km
new line.RML10537325 bus1=BBT21674.1.2.0,bus2=RML1060537325.1.2.0,Phases=2,Linecode=CABBTG05_4_2,Length=0.008000000,Units=km
new line.RML10537510 bus1=BBT97469192.2.0,bus2=RML1060537510.2.0,Phases=1,Linecode=CABBTG02_4_1,Length=0.012000000,Units=km
new line.RML10612187 bus1=BBT6862.2.0,bus2=RML1060612187.2.0,Phases=1,Linecode=CABBTG02_4_1,Length=0.008000000,Units=km
new line.RML10612190 bus1=BBT1962.2.0,bus2=RML1060612190.2.0,Phases=1,Linecode=CABBTG02_4_1,Length=0.010000000,Units=km
new line.RML10614 bus1=BBT3180.1.0,bus2=RML1050010614.1.0,Phases=1,Linecode=CABBTG01_4_1,Length=0.017000000,Units=km
new line.RML10614162 bus1=BBT15976.1.3.0,bus2=RML1060614162.1.3.0,Phases=2,Linecode=CABBTG05_4_2,Length=0.017000000,Units=km
new line.RML10701877 bus1=BBT18048.1.2.0,bus2=RML1060701877.1.2.0,Phases=2,Linecode=CABBTG05_4_2,Length=0.017000000,Units=km
new line.RML10701878 bus1=BBT18048.1.2.0,bus2=RML1060701878.1.2.0,Phases=2,Linecode=CABBTG05_4_2,Length=0.017000000,Units=km
new line.RML10701882 bus1=BBT148545622.1.0,bus2=RML1060701882.1.0,Phases=1,Linecode=CABBTG02_4_1,Length=0.017000000,Units=km
new line.RML10005 bus1=BBT2984.1.0,bus2=RML1050010005.1.0,Phases=1,Linecode=CABBTG01_4_1,Length=0.017000000,Units=km
new line.RML10012 bus1=BBT2984.2.0,bus2=RML1050010012.2.0,Phases=1,Linecode=CABBTG01_4_1,Length=0.017000000,Units=km
new line.RML10019 bus1=BBT2984.3.0,bus2=RML1050010019.3.0,Phases=1,Linecode=CABBTG01_4_1,Length=0.017000000,Units=km
new line.RML10022965 bus1=BBT353467.1.2.3.0,bus2=RML1060022965.1.2.3.0,Phases=3,Linecode=CABBTG06_4_3,Length=0.017000000,Units=km
new line.RML10023238 bus1=BBT392709.1.2.3.0,bus2=RML1060023238.1.2.3.0,Phases=3,Linecode=CABBTG06_4_3,Length=0.017000000,Units=km
new line.RML10023252 bus1=BBT11685.1.0,bus2=RML1060023252.1.0,Phases=1,Linecode=CABBTG01_4_1,Length=0.017000000,Units=km
new line.RML10025695 bus1=BBT2853706.1.2.3.0,bus2=RML1060025695.1.2.3.0,Phases=3,Linecode=CABBTG07_4_3,Length=0.017000000,Units=km
new line.RML10026 bus1=BBT2984.1.0,bus2=RML1050010026.1.0,Phases=1,Linecode=CABBTG01_4_1,Length=0.017000000,Units=km
new line.RML10032207 bus1=BBT389916.1.0,bus2=RML1060032207.1.0,Phases=1,Linecode=CABBTG01_4_1,Length=0.017000000,Units=km
new line.RML10032633 bus1=BBT353586.1.2.3.0,bus2=RML1060032633.1.2.3.0,Phases=3,Linecode=CABBTG10_4_3,Length=0.017000000,Units=km
new line.RML10033 bus1=BBT2984.3.0,bus2=RML1050010033.3.0,Phases=1,Linecode=CABBTG01_4_1,Length=0.017000000,Units=km
new line.RML10115125 bus1=BBT301786.1.2.0,bus2=RML1060115125.1.2.0,Phases=2,Linecode=CABBTG05_4_2,Length=0.017000000,Units=km
new line.RML10115573 bus1=BBT97430083.1.2.0,bus2=RML1060115573.1.2.0,Phases=2,Linecode=CABBTG05_4_2,Length=0.017000000,Units=km
new line.RML10116393 bus1=BBT97430083.1.2.0,bus2=RML1060116393.1.2.0,Phases=2,Linecode=CABBTG05_4_2,Length=0.017000000,Units=km
new line.RML10117 bus1=BBT3005.1.2.3.0,bus2=RML1050010117.1.2.3.0,Phases=3,Linecode=CABBTG11_4_3,Length=0.017000000,Units=km
new line.RML10117462 bus1=BBT3474.1.0,bus2=RML1060117462.1.0,Phases=1,Linecode=CABBTG02_4_1,Length=0.017000000,Units=km
new line.RML10117703 bus1=BBT13281.1.2.3.0,bus2=RML1060117703.1.2.3.0,Phases=3,Linecode=CABBTG07_4_3,Length=0.017000000,Units=km
new line.RML10119584 bus1=BBT97503289.1.2.0,bus2=RML1060119584.1.2.0,Phases=2,Linecode=CABBTG05_4_2,Length=0.017000000,Units=km
new line.RML10119987 bus1=BBT3337588.1.2.0,bus2=RML1060119987.1.2.0,Phases=2,Linecode=CABBTG05_4_2,Length=0.017000000,Units=km
new line.RML10173 bus1=BBT3012.2.0,bus2=RML1050010173.2.0,Phases=1,Linecode=CABBTG02_4_1,Length=0.017000000,Units=km
new line.RML10222 bus1=BBT3033.3.0,bus2=RML1050010222.3.0,Phases=1,Linecode=CABBTG01_4_1,Length=0.017000000,Units=km
new line.RML10285 bus1=BBT4405.1.2.3.0,bus2=RML1050010285.1.2.3.0,Phases=3,Linecode=CABBTG07_4_3,Length=0.017000000,Units=km
new line.RML10286140 bus1=BBT3606962.2.0,bus2=RML1060286140.2.0,Phases=1,Linecode=CABBTG02_4_1,Length=0.017000000,Units=km
new line.RML10286916 bus1=BBT97469199.1.0,bus2=RML1060286916.1.0,Phases=1,Linecode=CABBTG02_4_1,Length=0.017000000,Units=km
new line.RML10287282 bus1=BBT390126.1.0,bus2=RML1060287282.1.0,Phases=1,Linecode=CABBTG01_4_1,Length=0.017000000,Units=km
new line.RML10288793 bus1=BBT7190143.1.2.0,bus2=RML1060288793.1.2.0,Phases=2,Linecode=CABBTG05_4_2,Length=0.017000000,Units=km
new line.RML10292 bus1=BBT3061.2.0,bus2=RML1050010292.2.0,Phases=1,Linecode=CABBTG01_4_1,Length=0.017000000,Units=km
new line.RML10374560 bus1=BBT3410976.1.0,bus2=RML1060374560.1.0,Phases=1,Linecode=CABBTG02_4_1,Length=0.017000000,Units=km
new line.RML10374601 bus1=BBT97380453.1.0,bus2=RML1060374601.1.0,Phases=1,Linecode=CABBTG02_4_1,Length=0.017000000,Units=km
new line.RML10376 bus1=BBT3089.3.0,bus2=RML1050010376.3.0,Phases=1,Linecode=CABBTG01_4_1,Length=0.017000000,Units=km
new line.RML10378606 bus1=BBT17684.1.2.0,bus2=RML1060378606.1.2.0,Phases=2,Linecode=CABBT801_4_2,Length=0.017000000,Units=km
new line.RML10378611 bus1=BBT3338197.1.2.3.0,bus2=RML1060378611.1.2.3.0,Phases=3,Linecode=CABBTG06_4_3,Length=0.048,Units=km
new line.RML10378766 bus1=BBT148544755.2.0,bus2=RML1060378766.2.0,Phases=1,Linecode=CABBTG02_4_1,Length=0.017000000,Units=km
new line.RML10379485 bus1=BBT3337588.2.0,bus2=RML1060379485.2.0,Phases=1,Linecode=CABBTG02_4_1,Length=0.017000000,Units=km
new line.RML10439 bus1=BBT3103.1.3.0,bus2=RML1050010439.1.3.0,Phases=2,Linecode=CABBTG04_4_2,Length=0.017000000,Units=km
new line.RML10442941 bus1=BBT10306.1.2.0,bus2=RML1060442941.1.2.0,Phases=2,Linecode=CABBTG05_4_2,Length=0.017000000,Units=km
new line.RML10444738 bus1=BBT97431938.2.0,bus2=RML1060444738.2.0,Phases=1,Linecode=CABBTG02_4_1,Length=0.017000000,Units=km
new line.RML10446 bus1=BBT3103.2.0,bus2=RML1050010446.2.0,Phases=1,Linecode=CABBTG01_4_1,Length=0.017000000,Units=km
new line.RML10508690 bus1=BBT148546180.1.2.0,bus2=RML1060508690.1.2.0,Phases=2,Linecode=CABBTG05_4_2,Length=0.015000000,Units=km
new line.RML10508695 bus1=BBT148547499.1.2.0,bus2=RML1060508695.1.2.0,Phases=2,Linecode=CABBTG05_4_2,Length=0.020000000,Units=km
new line.RML10508757 bus1=BBT97431931.2.0,bus2=RML1060508757.2.0,Phases=1,Linecode=CABBTG02_4_1,Length=0.008000000,Units=km
new line.RML10508839 bus1=BBT15948.1.2.0,bus2=RML1060508839.1.2.0,Phases=2,Linecode=CABBTG05_4_2,Length=0.006000000,Units=km
new line.RML10508904 bus1=BBT12931.1.2.0,bus2=RML1060508904.1.2.0,Phases=2,Linecode=CABBTG05_4_2,Length=0.017000000,Units=km
new line.RML10508936 bus1=BBT7190143.1.2.0,bus2=RML1060508936.1.2.0,Phases=2,Linecode=CABBTG05_4_2,Length=0.015000000,Units=km
new line.RML10509 bus1=BBT3117.2.0,bus2=RML1050010509.2.0,Phases=1,Linecode=CABBTG01_4_1,Length=0.017000000,Units=km
new line.RML10509990 bus1=BBT3338211.1.2.3.0,bus2=RML1060509990.1.2.3.0,Phases=3,Linecode=CABBTG06_4_3,Length=0.017000000,Units=km
new line.RML10511266 bus1=BBT5875.2.0,bus2=RML1060511266.2.0,Phases=1,Linecode=CABBTG02_4_1,Length=0.017000000,Units=km
new line.RML10565747 bus1=BBT7877.3.0,bus2=RML1060565747.3.0,Phases=1,Linecode=CABBT802_4_1,Length=0.013000000,Units=km
new line.RML10566090 bus1=BBT298013.3.0,bus2=RML1060566090.3.0,Phases=1,Linecode=CABBTG02_4_1,Length=0.017000000,Units=km
new line.RML10569840 bus1=BBT1857.1.0,bus2=RML1060569840.1.0,Phases=1,Linecode=CABBTG02_4_1,Length=0.008000000,Units=km
new line.RML10569843 bus1=BBT353600.2.0,bus2=RML1060569843.2.0,Phases=1,Linecode=CABBTG02_4_1,Length=0.020000000,Units=km
new line.RML10569845 bus1=BBT392625.1.0,bus2=RML1060569845.1.0,Phases=1,Linecode=CABBTG02_4_1,Length=0.017000000,Units=km
new line.RML10572 bus1=BBT3159.1.0,bus2=RML1050010572.1.0,Phases=1,Linecode=CABBTG01_4_1,Length=0.017000000,Units=km
new line.RML10573334 bus1=BBT3337973.1.0,bus2=RML1060573334.1.0,Phases=1,Linecode=CABBTG02_4_1,Length=0.017000000,Units=km
new line.RML10642 bus1=BBT3138.1.0,bus2=RML1050010642.1.0,Phases=1,Linecode=CABBTG01_4_1,Length=0.017000000,Units=km
new line.RML10642952 bus1=BBT97430083.1.0,bus2=RML1060642952.1.0,Phases=1,Linecode=CABBTG02_4_1,Length=0.017000000,Units=km
new line.RML10642957 bus1=BBT5672368.2.0,bus2=RML1060642957.2.0,Phases=1,Linecode=CABBTG02_4_1,Length=0.017000000,Units=km
new line.RML10646025 bus1=BBT97503198.3.0,bus2=RML1060646025.3.0,Phases=1,Linecode=CABBTG02_4_1,Length=0.013000000,Units=km
new line.RML10647570 bus1=BBT25195.1.0,bus2=RML1060647570.1.0,Phases=1,Linecode=CABBTG02_4_1,Length=0.017000000,Units=km
new line.RML10035207 bus1=BBT97430083.1.0,bus2=RML1060035207.1.0,Phases=1,Linecode=CABBTG01_4_1,Length=0.017000000,Units=km
new line.RML10035296 bus1=BBT297957.1.0,bus2=RML1060035296.1.0,Phases=1,Linecode=CABBTG01_4_1,Length=0.017000000,Units=km
new line.RML10036414 bus1=BBT353544.1.2.0,bus2=RML1060036414.1.2.0,Phases=2,Linecode=CABBTG05_4_2,Length=0.017000000,Units=km
new line.RML10036417 bus1=BBT390070.1.0,bus2=RML1060036417.1.0,Phases=1,Linecode=CABBTG02_4_1,Length=0.017000000,Units=km
new line.RML10037348 bus1=BBT389832.1.0,bus2=RML1060037348.1.0,Phases=1,Linecode=CABBTG01_4_1,Length=0.017000000,Units=km
new line.RML10037387 bus1=BBT14002.1.2.0,bus2=RML1060037387.1.2.0,Phases=2,Linecode=CABBTG04_4_2,Length=0.017000000,Units=km
new line.RML10039781 bus1=BBT70254.1.2.0,bus2=RML1060039781.1.2.0,Phases=2,Linecode=CABBTG05_4_2,Length=0.017000000,Units=km
new line.RML10039948 bus1=BBT297880.1.0,bus2=RML1060039948.1.0,Phases=1,Linecode=CABBTG02_4_1,Length=0.017000000,Units=km