new line.RML10060037 bus1=BBT148738048.1.0,bus2=RML1060060037.1.0,Phases=1,Linecode=CABBTG02_4_1,Length=0.025000000,Units=km
new line.RML10060041 bus1=BBT147916584.1.0,bus2=RML1060060041.1.0,Phases=1,Linecode=CABBTG02_4_1,Length=0.017000000,Units=km
new line.RML10063375 bus1=BBT470225.1.2.0,bus2=RML1060063375.1.2.0,Phases=2,Linecode=CABBTG05_4_2,Length=0.017000000,Units=km
new line.RML10063376 bus1=BBT2806251.1.2.0,bus2=RML1060063376.1.2.0,Phases=2,Linecode=CABBTG05_4_2,Length=0.017000000,Units=km
new line.RML10063377 bus1=BBT3532179.2.0,bus2=RML1060063377.2.0,Phases=1,Linecode=CABBTG01_4_1,Length=0.017000000,Units=km
new line.RML10063378 bus1=BBT479696.1.2.0,bus2=RML1060063378.1.2.0,Phases=2,Linecode=CABBTG05_4_2,Length=0.017000000,Units=km
new line.RML10063381 bus1=BBT3861991.1.2.0,bus2=RML1060063381.1.2.0,Phases=2,Linecode=CABBTG05_4_2,Length=0.017000000,Units=km
new line.RML10063382 bus1=BBT3546732.1.2.0,bus2=RML1060063382.1.2.0,Phases=2,Linecode=CABBTG05_4_2,Length=0.017000000,Units=km
new line.RML10063386 bus1=BBT4258331.1.0,bus2=RML1060063386.1.0,Phases=1,Linecode=CABBTG01_4_1,Length=0.017000000,Units=km
new line.RML10063387 bus1=BBT2725093.1.0,bus2=RML1060063387.1.0,Phases=1,Linecode=CABBTG01_4_1,Length=0.017000000,Units=km
new line.RML10063390 bus1=BBT4268502.1.2.0,bus2=RML1060063390.1.2.0,Phases=2,Linecode=CABBTG05_4_2,Length=0.017000000,Units=km
new line.RML10063392 bus1=BBT4709971.2.0,bus2=RML1060063392.2.0,Phases=1,Linecode=CABBTG01_4_1,Length=0.017000000,Units=km
new line.RML10063396 bus1=BBT477470.1.2.0,bus2=RML1060063396.1.2.0,Phases=2,Linecode=CABBTG05_4_2,Length=0.017000000,Units=km
new line.RML10063398 bus1=BBT477470.1.2.0,bus2=RML1060063398.1.2.0,Phases=2,Linecode=CABBTG05_4_2,Length=0.017000000,Units=km
new line.RML10063400 bus1=BBT149999528.1.2.0,bus2=RML1060063400.1.2.0,Phases=2,Linecode=CABBTG05_4_2,Length=0.017000000,Units=km
new line.RML10063401 bus1=BBT5284076.1.2.0,bus2=RML1060063401.1.2.0,Phases=2,Linecode=CABBTG05_4_2,Length=0.017000000,Units=km
new line.RML10063403 bus1=BBT2751497.1.2.0,bus2=RML1060063403.1.2.0,Phases=2,Linecode=CABBTG05_4_2,Length=0.017000000,Units=km
new line.RML10063405 bus1=BBT477470.1.2.0,bus2=RML1060063405.1.2.0,Phases=2,Linecode=CABBTG05_4_2,Length=0.017000000,Units=km
new line.RML10063407 bus1=BBT11135124.1.2.0,bus2=RML1060063407.1.2.0,Phases=2,Linecode=CABBTG05_4_2,Length=0.017000000,Units=km
new line.RML10063408 bus1=BBT431396.1.2.0,bus2=RML1060063408.1.2.0,Phases=2,Linecode=CABBTG05_4_2,Length=0.017000000,Units=km
new line.RML10063409 bus1=BBT4789456.1.0,bus2=RML1060063409.1.0,Phases=1,Linecode=CABBTG02_4_1,Length=0.017000000,Units=km
new line.RML10063410 bus1=BBT431326.2.0,bus2=RML1060063410.2.0,Phases=1,Linecode=CABBTG01_4_1,Length=0.017000000,Units=km
new line.RML10063411 bus1=BBT2619743.1.0,bus2=RML1060063411.1.0,Phases=1,Linecode=CABBTG01_4_1,Length=0.017000000,Units=km
new line.RML10063413 bus1=BBT2701412.2.0,bus2=RML1060063413.2.0,Phases=1,Linecode=CABBTG02_4_1,Length=0.017000000,Units=km
new line.RML10063415 bus1=BBT430521.1.2.0,bus2=RML1060063415.1.2.0,Phases=2,Linecode=CABBTG05_4_2,Length=0.017000000,Units=km
new line.RML10063416 bus1=BBT4411043.2.0,bus2=RML1060063416.2.0,Phases=1,Linecode=CABBTG02_4_1,Length=0.017000000,Units=km
new line.RML10063420 bus1=BBT429002.1.3.0,bus2=RML1060063420.1.3.0,Phases=2,Linecode=CABBTG05_4_2,Length=0.017000000,Units=km
new line.RML10063424 bus1=BBT2743307.2.0,bus2=RML1060063424.2.0,Phases=1,Linecode=CABBTG02_4_1,Length=0.017000000,Units=km
new line.RML10063427 bus1=BBT3101616.2.0,bus2=RML1060063427.2.0,Phases=1,Linecode=CABBTG02_4_1,Length=0.017000000,Units=km
new line.RML10063430 bus1=BBT137807961.1.2.0,bus2=RML1060063430.1.2.0,Phases=2,Linecode=CABBTG05_4_2,Length=0.017000000,Units=km
new line.RML10063442 bus1=BBT138016680.1.0,bus2=RML1060063442.1.0,Phases=1,Linecode=CABBTG02_4_1,Length=0.017000000,Units=km
new line.RML10063443 bus1=BBT12118407.1.0,bus2=RML1060063443.1.0,Phases=1,Linecode=CABBTG02_4_1,Length=0.017000000,Units=km
new line.RML10063445 bus1=BBT129634425.1.2.0,bus2=RML1060063445.1.2.0,Phases=2,Linecode=CABBTG05_4_2,Length=0.017000000,Units=km
new line.RML10063457 bus1=BBT430962.1.2.3.0,bus2=RML1060063457.1.2.3.0,Phases=3,Linecode=CABBTG06_4_3,Length=0.017000000,Units=km
new line.RML10063465 bus1=BBT3023755.1.3.0,bus2=RML1060063465.1.3.0,Phases=2,Linecode=CABBTG05_4_2,Length=0.017000000,Units=km
new line.RML10063468 bus1=BBT140920861.1.2.0,bus2=RML1060063468.1.2.0,Phases=2,Linecode=CABBTG05_4_2,Length=0.017000000,Units=km
new line.RML10063469 bus1=BBT138354206.1.2.0,bus2=RML1060063469.1.2.0,Phases=2,Linecode=CABBTG05_4_2,Length=0.017000000,Units=km
new line.RML10063473 bus1=BBT138028706.2.0,bus2=RML1060063473.2.0,Phases=1,Linecode=CABBTG02_4_1,Length=0.017000000,Units=km
new line.RML10063480 bus1=BBT138354199.1.2.0,bus2=RML1060063480.1.2.0,Phases=2,Linecode=CABBTG05_4_2,Length=0.017000000,Units=km
new line.RML10063485 bus1=BBT138028713.1.0,bus2=RML1060063485.1.0,Phases=1,Linecode=CABBTG02_4_1,Length=0.017000000,Units=km
new line.RML10063492 bus1=BBT430822.1.2.3.0,bus2=RML1060063492.1.2.3.0,Phases=3,Linecode=CABBTG06_4_3,Length=0.017000000,Units=km
new line.RML10063506 bus1=BBT430829.1.2.3.0,bus2=RML1060063506.1.2.3.0,Phases=3,Linecode=CABBTG06_4_3,Length=0.017000000,Units=km
new line.RML10063509 bus1=BBT2812376.2.3.0,bus2=RML1060063509.2.3.0,Phases=2,Linecode=CABBTG05_4_2,Length=0.017000000,Units=km
new line.RML10063577 bus1=BBT3485580.2.0,bus2=RML1060063577.2.0,Phases=1,Linecode=CABBTG02_4_1,Length=0.017000000,Units=km
new line.RML10063578 bus1=BBT460236.1.2.0,bus2=RML1060063578.1.2.0,Phases=2,Linecode=CABBTG05_4_2,Length=0.017000000,Units=km
new line.RML10063584 bus1=BBT424956.1.2.3.0,bus2=RML1060063584.1.2.3.0,Phases=3,Linecode=CABBTG06_4_3,Length=0.017000000,Units=km
new line.RML10063587 bus1=BBT4086383.1.0,bus2=RML1060063587.1.0,Phases=1,Linecode=CABBTG01_4_1,Length=0.017000000,Units=km
new line.RML10063597 bus1=BBT2949282.2.0,bus2=RML1060063597.2.0,Phases=1,Linecode=CABBTG01_4_1,Length=0.017000000,Units=km
new line.RML10063600 bus1=BBT489230.2.0,bus2=RML1060063600.2.0,Phases=1,Linecode=CABBTG02_4_1,Length=0.017000000,Units=km
new line.RML10063601 bus1=BBT424956.1.2.3.0,bus2=RML1060063601.1.2.3.0,Phases=3,Linecode=CABBTG06_4_3,Length=0.017000000,Units=km
new line.RML10063603 bus1=BBT423367.1.0,bus2=RML1060063603.1.0,Phases=1,Linecode=CABBTG02_4_1,Length=0.017000000,Units=km
new line.RML10063608 bus1=BBT424942.2.0,bus2=RML1060063608.2.0,Phases=1,Linecode=CABBTG02_4_1,Length=0.017000000,Units=km
new line.RML10063613 bus1=BBT5309507.1.2.0,bus2=RML1060063613.1.2.0,Phases=2,Linecode=CABBTG05_4_2,Length=0.017000000,Units=km
new line.RML10063615 bus1=BBT7915194.1.0,bus2=RML1060063615.1.0,Phases=1,Linecode=CABBTG02_4_1,Length=0.017000000,Units=km
new line.RML10063620 bus1=BBT2863952.3.0,bus2=RML1060063620.3.0,Phases=1,Linecode=CABBTG02_4_1,Length=0.017000000,Units=km
new line.RML10063651 bus1=BBT3557764.2.0,bus2=RML1060063651.2.0,Phases=1,Linecode=CABBTG02_4_1,Length=0.017000000,Units=km
new line.RML10063655 bus1=BBT8713915.1.2.0,bus2=RML1060063655.1.2.0,Phases=2,Linecode=CABBTG05_4_2,Length=0.017000000,Units=km
new line.RML10053206 bus1=BBT485100.1.0,bus2=RML1060053206.1.0,Phases=1,Linecode=CABBTG02_4_1,Length=0.017000000,Units=km
new line.RML10053207 bus1=BBT115564978.1.2.0,bus2=RML1060053207.1.2.0,Phases=2,Linecode=CABBTG05_4_2,Length=0.017000000,Units=km
new line.RML10053212 bus1=BBT444038.1.2.0,bus2=RML1060053212.1.2.0,Phases=2,Linecode=CABBTG05_4_2,Length=0.017000000,Units=km
new line.RML10053214 bus1=BBT443744.2.3.0,bus2=RML1060053214.2.3.0,Phases=2,Linecode=CABBTG05_4_2,Length=0.017000000,Units=km
new line.RML10053219 bus1=BBT445417.2.3.0,bus2=RML1060053219.2.3.0,Phases=2,Linecode=CABBTG05_4_2,Length=0.017000000,Units=km
new line.RML10053220 bus1=BBT8648626.1.2.3.0,bus2=RML1060053220.1.2.3.0,Phases=3,Linecode=CABBTG06_4_3,Length=0.017000000,Units=km
new line.RML10053221 bus1=BBT446432.2.0,bus2=RML1060053221.2.0,Phases=1,Linecode=CABBTG02_4_1,Length=0.017000000,Units=km
new line.RML10053223 bus1=BBT9158506.1.2.0,bus2=RML1060053223.1.2.0,Phases=2,Linecode=CABBTG05_4_2,Length=0.017000000,Units=km
new line.RML10053226 bus1=BBT3201618.3.0,bus2=RML1060053226.3.0,Phases=1,Linecode=CABBTG02_4_1,Length=0.017000000,Units=km
new line.RML10053229 bus1=BBT446040.1.2.0,bus2=RML1060053229.1.2.0,Phases=2,Linecode=CABBTG05_4_2,Length=0.017000000,Units=km
new line.RML10053231 bus1=BBT444836.3.0,bus2=RML1060053231.3.0,Phases=1,Linecode=CABBTG02_4_1,Length=0.017000000,Units=km
new line.RML10053232 bus1=BBT445144.1.3.0,bus2=RML1060053232.1.3.0,Phases=2,Linecode=CABBTG05_4_2,Length=0.017000000,Units=km
new line.RML10053234 bus1=BBT443324.1.2.0,bus2=RML1060053234.1.2.0,Phases=2,Linecode=CABBTG05_4_2,Length=0.017000000,Units=km
new line.RML10053503 bus1=BBT456225.1.0,bus2=RML1060053503.1.0,Phases=1,Linecode=CABBTG02_4_1,Length=0.029000000,Units=km
new line.RML10053519 bus1=BBT439796.1.0,bus2=RML1060053519.1.0,Phases=1,Linecode=CABBTG01_4_1,Length=0.017000000,Units=km
new line.RML10053794 bus1=BBT396053.1.0,bus2=RML1060053794.1.0,Phases=1,Linecode=CABBTG02_4_1,Length=0.017000000,Units=km
new line.RML10053882 bus1=BBT3088897.1.0,bus2=RML1060053882.1.0,Phases=1,Linecode=CABBTG02_4_1,Length=0.017000000,Units=km
new line.RML10053966 bus1=BBT417837.1.0,bus2=RML1060053966.1.0,Phases=1,Linecode=CABBTG02_4_1,Length=0.017000000,Units=km
new line.RML10053972 bus1=BBT437416.2.0,bus2=RML1060053972.2.0,Phases=1,Linecode=CABBTG02_4_1,Length=0.017000000,Units=km
new line.RML10053992 bus1=BBT446278.1.2.0,bus2=RML1060053992.1.2.0,Phases=2,Linecode=CABBTG05_4_2,Length=0.017000000,Units=km
new line.RML10053994 bus1=BBT4435109.3.0,bus2=RML1060053994.3.0,Phases=1,Linecode=CABBTG02_4_1,Length=0.017000000,Units=km
new line.RML10054018 bus1=BBT440300.1.2.0,bus2=RML1060054018.1.2.0,Phases=2,Linecode=CABBTG04_4_2,Length=0.017000000,Units=km
new line.RML10054024 bus1=BBT4053952.1.0,bus2=RML1060054024.1.0,Phases=1,Linecode=CABBTG02_4_1,Length=0.017000000,Units=km
new line.RML10054109 bus1=BBT4177320.1.0,bus2=RML1060054109.1.0,Phases=1,Linecode=CABBTG02_4_1,Length=0.017000000,Units=km
new line.RML10054110 bus1=BBT2636053.3.0,bus2=RML1060054110.3.0,Phases=1,Linecode=CABBTG02_4_1,Length=0.017000000,Units=km
new line.RML10054111 bus1=BBT394758.3.0,bus2=RML1060054111.3.0,Phases=1,Linecode=CABBTG02_4_1,Length=0.017000000,Units=km
new line.RML10054112 bus1=BBT453831.1.0,bus2=RML1060054112.1.0,Phases=1,Linecode=CABBTG02_4_1,Length=0.017000000,Units=km
new line.RML10054154 bus1=BBT2982931.2.0,bus2=RML1060054154.2.0,Phases=1,Linecode=CABBTG02_4_1,Length=0.017000000,Units=km
new line.RML10054416 bus1=BBT432544.1.2.0,bus2=RML1060054416.1.2.0,Phases=2,Linecode=CABBTG05_4_2,Length=0.017000000,Units=km
new line.RML10054436 bus1=BBT439754.1.2.0,bus2=RML1060054436.1.2.0,Phases=2,Linecode=CABBTG05_4_2,Length=0.017000000,Units=km
new line.RML10054492 bus1=BBT484974.1.0,bus2=RML1060054492.1.0,Phases=1,Linecode=CABBTG02_4_1,Length=0.017000000,Units=km
new line.RML10054500 bus1=BBT3346595.2.0,bus2=RML1060054500.2.0,Phases=1,Linecode=CABBTG02_4_1,Length=0.017000000,Units=km
new line.RML10054504 bus1=BBT457016.2.3.0,bus2=RML1060054504.2.3.0,Phases=2,Linecode=CABBTG05_4_2,Length=0.017000000,Units=km
new line.RML10054509 bus1=BBT4329542.1.0,bus2=RML1060054509.1.0,Phases=1,Linecode=CABBTG02_4_1,Length=0.017000000,Units=km
new line.RML10054800 bus1=BBT6584074.2.0,bus2=RML1060054800.2.0,Phases=1,Linecode=CABBTG02_4_1,Length=0.017000000,Units=km
new line.RML10054847 bus1=BBT396739.1.2.0,bus2=RML1060054847.1.2.0,Phases=2,Linecode=CABBTG05_4_2,Length=0.017000000,Units=km
new line.RML10055109 bus1=BBT435575.1.0,bus2=RML1060055109.1.0,Phases=1,Linecode=CABBTG02_4_1,Length=0.017000000,Units=km
new line.RML10055114 bus1=BBT3532200.2.0,bus2=RML1060055114.2.0,Phases=1,Linecode=CABBTG02_4_1,Length=0.017000000,Units=km
new line.RML10055120 bus1=BBT2681791.1.2.0,bus2=RML1060055120.1.2.0,Phases=2,Linecode=CABBTG05_4_2,Length=0.017000000,Units=km
new line.RML10055122 bus1=BBT2732191.1.3.0,bus2=RML1060055122.1.3.0,Phases=2,Linecode=CABBTG05_4_2,Length=0.017000000,Units=km
new line.RML10055139 bus1=BBT2863924.3.0,bus2=RML1060055139.3.0,Phases=1,Linecode=CABBTG01_4_1,Length=0.017000000,Units=km
new line.RML10056424 bus1=BBT4188625.1.0,bus2=RML1060056424.1.0,Phases=1,Linecode=CABBTG02_4_1,Length=0.017000000,Units=km
new line.RML10056428 bus1=BBT4049241.1.0,bus2=RML1060056428.1.0,Phases=1,Linecode=CABBTG02_4_1,Length=0.017000000,Units=km
new line.RML10056429 bus1=BBT397544.1.2.0,bus2=RML1060056429.1.2.0,Phases=2,Linecode=CABBTG05_4_2,Length=0.017000000,Units=km
new line.RML10056431 bus1=BBT4208260.1.0,bus2=RML1060056431.1.0,Phases=1,Linecode=CABBTG02_4_1,Length=0.017000000,Units=km
new line.RML10056433 bus1=BBT2877672.2.0,bus2=RML1060056433.2.0,Phases=1,Linecode=CABBTG02_4_1,Length=0.017000000,Units=km
new line.RML10056453 bus1=BBT5183773.1.2.0,bus2=RML1060056453.1.2.0,Phases=2,Linecode=CABBTG05_4_2,Length=0.017000000,Units=km
new line.RML10056454 bus1=BBT4208260.2.0,bus2=RML1060056454.2.0,Phases=1,Linecode=CABBTG02_4_1,Length=0.017000000,Units=km
new line.RML10056455 bus1=BBT396494.3.0,bus2=RML1060056455.3.0,Phases=1,Linecode=CABBTG01_4_1,Length=0.017000000,Units=km
new line.RML10056456 bus1=BBT394457.1.2.3.0,bus2=RML1060056456.1.2.3.0,Phases=3,Linecode=CABBTG07_4_3,Length=0.017000000,Units=km
new line.RML10056457 bus1=BBT5292273.1.2.0,bus2=RML1060056457.1.2.0,Phases=2,Linecode=CABBTG05_4_2,Length=0.017000000,Units=km
new line.RML10056461 bus1=BBT7237615.2.0,bus2=RML1060056461.2.0,Phases=1,Linecode=CABBTG02_4_1,Length=0.017000000,Units=km
new line.RML10056463 bus1=BBT101013490.1.0,bus2=RML1060056463.1.0,Phases=1,Linecode=CABBTG02_4_1,Length=0.017000000,Units=km
new line.RML10056464 bus1=BBT4484613.1.2.0,bus2=RML1060056464.1.2.0,Phases=2,Linecode=CABBTG05_4_2,Length=0.017000000,Units=km
new line.RML10056465 bus1=BBT457261.3.0,bus2=RML1060056465.3.0,Phases=1,Linecode=CABBTG02_4_1,Length=0.017000000,Units=km
new line.RML10056466 bus1=BBT393876.1.2.3.0,bus2=RML1060056466.1.2.3.0,Phases=3,Linecode=CABBTG06_4_3,Length=0.017000000,Units=km
new line.RML10056467 bus1=BBT3452666.2.0,bus2=RML1060056467.2.0,Phases=1,Linecode=CABBTG01_4_1,Length=0.017000000,Units=km
new line.RML10056469 bus1=BBT456827.1.2.0,bus2=RML1060056469.1.2.0,Phases=2,Linecode=CABBTG05_4_2,Length=0.017000000,Units=km
new line.RML10034264 bus1=BBT2666678.1.2.0,bus2=RML1060034264.1.2.0,Phases=2,Linecode=CABBTG05_4_2,Length=0.017000000,Units=km
new line.RML10034769 bus1=BBT149999528.1.0,bus2=RML1060034769.1.0,Phases=1,Linecode=CABBTG02_4_1,Length=0.017000000,Units=km
new line.RML10034855 bus1=BBT145475152.1.0,bus2=RML1060034855.1.0,Phases=1,Linecode=CABBTG02_4_1,Length=0.017000000,Units=km
new line.RML10034858 bus1=BBT2947364.1.2.0,bus2=RML1060034858.1.2.0,Phases=2,Linecode=CABBTG05_4_2,Length=0.017000000,Units=km
new line.RML10034866 bus1=BBT141337249.2.0,bus2=RML1060034866.2.0,Phases=1,Linecode=CABBTG02_4_1,Length=0.017000000,Units=km
new line.RML10034912 bus1=BBT101822669.1.0,bus2=RML1060034912.1.0,Phases=1,Linecode=CABBTG02_4_1,Length=0.017000000,Units=km
new line.RML10034917 bus1=BBT393974.2.0,bus2=RML1060034917.2.0,Phases=1,Linecode=CABBTG02_4_1,Length=0.017000000,Units=km
new line.RML10035149 bus1=BBT445403.1.2.3.0,bus2=RML1060035149.1.2.3.0,Phases=3,Linecode=CABBTG06_4_3,Length=0.017000000,Units=km
new line.RML10035150 bus1=BBT429996.1.0,bus2=RML1060035150.1.0,Phases=1,Linecode=CABBTG02_4_1,Length=0.017000000,Units=km
new line.RML10035152 bus1=BBT2701734.2.0,bus2=RML1060035152.2.0,Phases=1,Linecode=CABBTG02_4_1,Length=0.017000000,Units=km
new line.RML10035154 bus1=BBT3648071.1.2.0,bus2=RML1060035154.1.2.0,Phases=2,Linecode=CABBTG05_4_2,Length=0.017000000,Units=km
new line.RML10035191 bus1=BBT4253480.2.0,bus2=RML1060035191.2.0,Phases=1,Linecode=CABBTG02_4_1,Length=0.017000000,Units=km
new line.RML10035193 bus1=BBT426517.2.0,bus2=RML1060035193.2.0,Phases=1,Linecode=CABBTG01_4_1,Length=0.017000000,Units=km
new line.RML10035197 bus1=BBT2863924.2.3.0,bus2=RML1060035197.2.3.0,Phases=2,Linecode=CABBTG05_4_2,Length=0.017000000,Units=km
new line.RML10035201 bus1=BBT3023741.1.2.0,bus2=RML1060035201.1.2.0,Phases=2,Linecode=CABBTG05_4_2,Length=0.017000000,Units=km
new line.RML10036202 bus1=BBT459578.1.2.0,bus2=RML1060036202.1.2.0,Phases=2,Linecode=CABBTG05_4_2,Length=0.017000000,Units=km
new line.RML10036279 bus1=BBT2700131.1.2.0,bus2=RML1060036279.1.2.0,Phases=2,Linecode=CABBTG05_4_2,Length=0.017000000,Units=km
new line.RML10036292 bus1=BBT485002.1.0,bus2=RML1060036292.1.0,Phases=1,Linecode=CABBTG02_4_1,Length=0.017000000,Units=km
new line.RML10036404 bus1=BBT146006333.1.2.0,bus2=RML1060036404.1.2.0,Phases=2,Linecode=CABBTG05_4_2,Length=0.017000000,Units=km
new line.RML10036583 bus1=BBT140281523.2.0,bus2=RML1060036583.2.0,Phases=1,Linecode=CABBTG02_4_1,Length=0.017000000,Units=km
new line.RML10036587 bus1=BBT415590.2.0,bus2=RML1060036587.2.0,Phases=1,Linecode=CABBTG02_4_1,Length=0.017000000,Units=km
new line.RML10036594 bus1=BBT3051426.3.0,bus2=RML1060036594.3.0,Phases=1,Linecode=CABBTG01_4_1,Length=0.017000000,Units=km
new line.RML10036602 bus1=BBT439530.1.3.0,bus2=RML1060036602.1.3.0,Phases=2,Linecode=CABBTG04_4_2,Length=0.017000000,Units=km
new line.RML10036614 bus1=BBT5151188.1.0,bus2=RML1060036614.1.0,Phases=1,Linecode=CABBTG02_4_1,Length=0.017000000,Units=km
new line.RML10036638 bus1=BBT145230516.1.2.0,bus2=RML1060036638.1.2.0,Phases=2,Linecode=CABBTG05_4_2,Length=0.017000000,Units=km
new line.RML10036643 bus1=BBT2942086.2.0,bus2=RML1060036643.2.0,Phases=1,Linecode=CABBTG01_4_1,Length=0.017000000,Units=km
new line.RML10036663 bus1=BBT146607087.1.2.0,bus2=RML1060036663.1.2.0,Phases=2,Linecode=CABBTG05_4_2,Length=0.017000000,Units=km
new line.RML10036675 bus1=BBT493381.1.0,bus2=RML1060036675.1.0,Phases=1,Linecode=CABBTG02_4_1,Length=0.017000000,Units=km
new line.RML10036831 bus1=BBT3146101.1.2.0,bus2=RML1060036831.1.2.0,Phases=2,Linecode=CABBTG05_4_2,Length=0.017000000,Units=km
new line.RML10036908 bus1=BBT115547940.2.0,bus2=RML1060036908.2.0,Phases=1,Linecode=CABBTG02_4_1,Length=0.017000000,Units=km
new line.RML10036919 bus1=BBT397166.1.2.0,bus2=RML1060036919.1.2.0,Phases=2,Linecode=CABBTG05_4_2,Length=0.017000000,Units=km
new line.RML10036932 bus1=BBT424487.2.3.0,bus2=RML1060036932.2.3.0,Phases=2,Linecode=CABBTG05_4_2,Length=0.017000000,Units=km
new line.RML10036974 bus1=BBT448651.3.0,bus2=RML1060036974.3.0,Phases=1,Linecode=CABBTG02_4_1,Length=0.017000000,Units=km
new line.RML10037083 bus1=BBT452025.1.0,bus2=RML1060037083.1.0,Phases=1,Linecode=CABBTG01_4_1,Length=0.017000000,Units=km
new line.RML10037488 bus1=BBT396641.2.0,bus2=RML1060037488.2.0,Phases=1,Linecode=CABBTG02_4_1,Length=0.017000000,Units=km
new line.RML10037647 bus1=BBT4113802.2.0,bus2=RML1060037647.2.0,Phases=1,Linecode=CABBTG02_4_1,Length=0.017000000,Units=km
new line.RML10037652 bus1=BBT6273155.1.2.0,bus2=RML1060037652.1.2.0,Phases=2,Linecode=CABBTG05_4_2,Length=0.017000000,Units=km
new line.RML10037711 bus1=BBT10274516.2.0,bus2=RML1060037711.2.0,Phases=1,Linecode=CABBTG02_4_1,Length=0.017000000,Units=km
new line.RML10038005 bus1=BBT5323563.1.2.0,bus2=RML1060038005.1.2.0,Phases=2,Linecode=CABBTG05_4_2,Length=0.017000000,Units=km
new line.RML10039766 bus1=BBT147713010.1.2.0,bus2=RML1060039766.1.2.0,Phases=2,Linecode=CABBTG05_4_2,Length=0.017000000,Units=km
new line.RML10039815 bus1=BBT439474.2.3.0,bus2=RML1060039815.2.3.0,Phases=2,Linecode=CABBTG04_4_2,Length=0.017000000,Units=km
new line.RML10041392 bus1=BBT7944566.2.0,bus2=RML1060041392.2.0,Phases=1,Linecode=CABBTG02_4_1,Length=0.017000000,Units=km
new line.RML10041456 bus1=BBT134034051.1.0,bus2=RML1060041456.1.0,Phases=1,Linecode=CABBTG02_4_1,Length=0.017000000,Units=km
new line.RML10099645 bus1=BBT454825.2.0,bus2=RML1060099645.2.0,Phases=1,Linecode=CABBTG02_4_1,Length=0.017000000,Units=km
new line.RML10099647 bus1=BBT394856.2.0,bus2=RML1060099647.2.0,Phases=1,Linecode=CABBTG02_4_1,Length=0.017000000,Units=km
new line.RML10099649 bus1=BBT3454486.2.0,bus2=RML1060099649.2.0,Phases=1,Linecode=CABBTG02_4_1,Length=0.017000000,Units=km
new line.RML10099653 bus1=BBT115900439.1.0,bus2=RML1060099653.1.0,Phases=1,Linecode=CABBTG02_4_1,Length=0.017000000,Units=km
new line.RML10099665 bus1=BBT452431.1.2.0,bus2=RML1060099665.1.2.0,Phases=2,Linecode=CABBTG05_4_2,Length=0.017000000,Units=km
new line.RML10099676 bus1=BBT393680.3.0,bus2=RML1060099676.3.0,Phases=1,Linecode=CABBTG02_4_1,Length=0.017000000,Units=km
new line.RML10100180 bus1=BBT454755.3.0,bus2=RML1060100180.3.0,Phases=1,Linecode=CABBTG02_4_1,Length=0.017000000,Units=km
new line.RML10100381 bus1=BBT446054.1.0,bus2=RML1060100381.1.0,Phases=1,Linecode=CABBTG02_4_1,Length=0.017000000,Units=km
new line.RML10100382 bus1=BBT444815.1.0,bus2=RML1060100382.1.0,Phases=1,Linecode=CABBTG02_4_1,Length=0.017000000,Units=km
new line.RML10100387 bus1=BBT444682.1.0,bus2=RML1060100387.1.0,Phases=1,Linecode=CABBTG02_4_1,Length=0.017000000,Units=km
new line.RML10100390 bus1=BBT445060.2.0,bus2=RML1060100390.2.0,Phases=1,Linecode=CABBTG02_4_1,Length=0.017000000,Units=km
new line.RML10100472 bus1=BBT2688819.1.2.0,bus2=RML1060100472.1.2.0,Phases=2,Linecode=CABBTG05_4_2,Length=0.017000000,Units=km
new line.RML10101201 bus1=BBT445312.1.0,bus2=RML1060101201.1.0,Phases=1,Linecode=CABBTG02_4_1,Length=0.017000000,Units=km
new line.RML10101242 bus1=BBT394275.1.2.0,bus2=RML1060101242.1.2.0,Phases=2,Linecode=CABBTG05_4_2,Length=0.017000000,Units=km
new line.RML10063661 bus1=BBT2949282.2.0,bus2=RML1060063661.2.0,Phases=1,Linecode=CABBTG02_4_1,Length=0.017000000,Units=km
new line.RML10063666 bus1=BBT426286.2.0,bus2=RML1060063666.2.0,Phases=1,Linecode=CABBTG02_4_1,Length=0.017000000,Units=km
new line.RML10063678 bus1=BBT470393.1.2.0,bus2=RML1060063678.1.2.0,Phases=2,Linecode=CABBTG05_4_2,Length=0.017000000,Units=km
new line.RML10063681 bus1=BBT2593941.3.0,bus2=RML1060063681.3.0,Phases=1,Linecode=CABBTG02_4_1,Length=0.017000000,Units=km
new line.RML10063689 bus1=BBT426643.1.2.0,bus2=RML1060063689.1.2.0,Phases=2,Linecode=CABBTG05_4_2,Length=0.017000000,Units=km
new line.RML10063691 bus1=BBT425677.1.2.3.0,bus2=RML1060063691.1.2.3.0,Phases=3,Linecode=CABBTG06_4_3,Length=0.017000000,Units=km
new line.RML10063716 bus1=BBT2695392.1.0,bus2=RML1060063716.1.0,Phases=1,Linecode=CABBTG02_4_1,Length=0.017000000,Units=km
new line.RML10063720 bus1=BBT423969.3.0,bus2=RML1060063720.3.0,Phases=1,Linecode=CABBTG02_4_1,Length=0.017000000,Units=km
new line.RML10063724 bus1=BBT426650.1.2.0,bus2=RML1060063724.1.2.0,Phases=2,Linecode=CABBTG05_4_2,Length=0.017000000,Units=km
new line.RML10063733 bus1=BBT141671289.1.2.0,bus2=RML1060063733.1.2.0,Phases=2,Linecode=CABBTG05_4_2,Length=0.017000000,Units=km
new line.RML10063734 bus1=BBT424669.1.2.3.0,bus2=RML1060063734.1.2.3.0,Phases=3,Linecode=CABBTG06_4_3,Length=0.017000000,Units=km
new line.RML10063739 bus1=BBT424781.1.2.3.0,bus2=RML1060063739.1.2.3.0,Phases=3,Linecode=CABBTG06_4_3,Length=0.017000000,Units=km
new line.RML10063763 bus1=BBT2918888.3.0,bus2=RML1060063763.3.0,Phases=1,Linecode=CABBTG02_4_1,Length=0.017000000,Units=km
new line.RML10063783 bus1=BBT425936.1.2.3.0,bus2=RML1060063783.1.2.3.0,Phases=3,Linecode=CABBTG06_4_3,Length=0.017000000,Units=km
new line.RML10063799 bus1=BBT426622.2.0,bus2=RML1060063799.2.0,Phases=1,Linecode=CABBTG02_4_1,Length=0.017000000,Units=km
new line.RML10063805 bus1=BBT2695490.3.0,bus2=RML1060063805.3.0,Phases=1,Linecode=CABBTG02_4_1,Length=0.017000000,Units=km
new line.RML10063808 bus1=BBT2863959.2.3.0,bus2=RML1060063808.2.3.0,Phases=2,Linecode=CABBTG05_4_2,Length=0.017000000,Units=km
new line.RML10063811 bus1=BBT426314.1.2.0,bus2=RML1060063811.1.2.0,Phases=2,Linecode=CABBTG05_4_2,Length=0.017000000,Units=km
new line.RML10063850 bus1=BBT426328.2.3.0,bus2=RML1060063850.2.3.0,Phases=2,Linecode=CABBTG05_4_2,Length=0.017000000,Units=km
new line.RML10063851 bus1=BBT470337.1.0,bus2=RML1060063851.1.0,Phases=1,Linecode=CABBTG02_4_1,Length=0.017000000,Units=km
new line.RML10090299 bus1=BBT127141039.1.0,bus2=RML1060090299.1.0,Phases=1,Linecode=CABBTG02_4_1,Length=0.017000000,Units=km
new line.RML10090755 bus1=BBT442386.1.2.0,bus2=RML1060090755.1.2.0,Phases=2,Linecode=CABBTG05_4_2,Length=0.017000000,Units=km
new line.RML10090791 bus1=BBT2659867.1.0,bus2=RML1060090791.1.0,Phases=1,Linecode=CABBTG02_4_1,Length=0.017000000,Units=km
new line.RML10090855 bus1=BBT4298854.1.0,bus2=RML1060090855.1.0,Phases=1,Linecode=CABBTG02_4_1,Length=0.017000000,Units=km
new line.RML10090868 bus1=BBT483742.1.0,bus2=RML1060090868.1.0,Phases=1,Linecode=CABBTG02_4_1,Length=0.017000000,Units=km
new line.RML10090992 bus1=BBT2944039.1.0,bus2=RML1060090992.1.0,Phases=1,Linecode=CABBTG02_4_1,Length=0.017000000,Units=km
new line.RML10090998 bus1=BBT88144214.1.0,bus2=RML1060090998.1.0,Phases=1,Linecode=CABBTG02_4_1,Length=0.017000000,Units=km
new line.RML10091045 bus1=BBT3202430.1.0,bus2=RML1060091045.1.0,Phases=1,Linecode=CABBTG02_4_1,Length=0.017000000,Units=km
new line.RML10091758 bus1=BBT5309465.1.0,bus2=RML1060091758.1.0,Phases=1,Linecode=CABBTG02_4_1,Length=0.017000000,Units=km
new line.RML10091764 bus1=BBT5293120.1.0,bus2=RML1060091764.1.0,Phases=1,Linecode=CABBTG02_4_1,Length=0.017000000,Units=km
new line.RML10091785 bus1=BBT2658215.1.0,bus2=RML1060091785.1.0,Phases=1,Linecode=CABBTG02_4_1,Length=0.017000000,Units=km
new line.RML10091788 bus1=BBT2658215.1.0,bus2=RML1060091788.1.0,Phases=1,Linecode=CABBTG02_4_1,Length=0.017000000,Units=km
new line.RML10091838 bus1=BBT5292000.1.0,bus2=RML1060091838.1.0,Phases=1,Linecode=CABBTG02_4_1,Length=0.017000000,Units=km
new line.RML10091917 bus1=BBT5219781.1.0,bus2=RML1060091917.1.0,Phases=1,Linecode=CABBTG02_4_1,Length=0.017000000,Units=km
new line.RML10091921 bus1=BBT5226718.1.0,bus2=RML1060091921.1.0,Phases=1,Linecode=CABBTG02_4_1,Length=0.017000000,Units=km
new line.RML10091965 bus1=BBT99600043.1.0,bus2=RML1060091965.1.0,Phases=1,Linecode=CABBTG02_4_1,Length=0.017000000,Units=km
new line.RML10091970 bus1=BBT5238212.1.0,bus2=RML1060091970.1.0,Phases=1,Linecode=CABBTG02_4_1,Length=0.017000000,Units=km
new line.RML10092128 bus1=BBT6267772.1.0,bus2=RML1060092128.1.0,Phases=1,Linecode=CABBTG02_4_1,Length=0.017000000,Units=km
new line.RML10092140 bus1=BBT57989922.1.0,bus2=RML1060092140.1.0,Phases=1,Linecode=CABBTG02_4_1,Length=0.017000000,Units=km
new line.RML10092142 bus1=BBT6424600.1.0,bus2=RML1060092142.1.0,Phases=1,Linecode=CABBTG02_4_1,Length=0.017000000,Units=km
new line.RML10092148 bus1=BBT5226340.1.0,bus2=RML1060092148.1.0,Phases=1,Linecode=CABBTG02_4_1,Length=0.017000000,Units=km
new line.RML10092160 bus1=BBT6036863.1.0,bus2=RML1060092160.1.0,Phases=1,Linecode=CABBTG02_4_1,Length=0.017000000,Units=km
new line.RML10092196 bus1=BBT128495273.1.2.3.0,bus2=RML1060092196.1.2.3.0,Phases=3,Linecode=CABBTG06_4_3,Length=0.017000000,Units=km
new line.RML10092199 bus1=BBT427980.1.0,bus2=RML1060092199.1.0,Phases=1,Linecode=CABBTG02_4_1,Length=0.017000000,Units=km
new line.RML10092286 bus1=BBT9288146.1.0,bus2=RML1060092286.1.0,Phases=1,Linecode=CABBTG02_4_1,Length=0.017000000,Units=km
new line.RML10092362 bus1=BBT3331643.2.0,bus2=RML1060092362.2.0,Phases=1,Linecode=CABBTG02_4_1,Length=0.017000000,Units=km
new line.RML10093068 bus1=BBT3344173.1.2.0,bus2=RML1060093068.1.2.0,Phases=2,Linecode=CABBTG05_4_2,Length=0.017000000,Units=km
new line.RML10093084 bus1=BBT115900460.3.0,bus2=RML1060093084.3.0,Phases=1,Linecode=CABBTG02_4_1,Length=0.017000000,Units=km
new line.RML10093282 bus1=BBT3189431.1.0,bus2=RML1060093282.1.0,Phases=1,Linecode=CABBTG02_4_1,Length=0.017000000,Units=km
new line.RML10093331 bus1=BBT4130980.1.0,bus2=RML1060093331.1.0,Phases=1,Linecode=CABBTG02_4_1,Length=0.017000000,Units=km
new line.RML10093406 bus1=BBT4131057.1.0,bus2=RML1060093406.1.0,Phases=1,Linecode=CABBTG02_4_1,Length=0.017000000,Units=km
new line.RML10093422 bus1=BBT100812611.1.0,bus2=RML1060093422.1.0,Phases=1,Linecode=CABBTG02_4_1,Length=0.017000000,Units=km
new line.RML10093430 bus1=BBT99808300.1.0,bus2=RML1060093430.1.0,Phases=1,Linecode=CABBTG02_4_1,Length=0.017000000,Units=km
new line.RML10093439 bus1=BBT101676929.1.0,bus2=RML1060093439.1.0,Phases=1,Linecode=CABBTG02_4_1,Length=0.017000000,Units=km
new line.RML10093447 bus1=BBT434574.1.0,bus2=RML1060093447.1.0,Phases=1,Linecode=CABBTG02_4_1,Length=0.017000000,Units=km
new line.RML10093493 bus1=BBT2944123.1.0,bus2=RML1060093493.1.0,Phases=1,Linecode=CABBTG02_4_1,Length=0.017000000,Units=km
new line.RML10093549 bus1=BBT441490.1.2.3.0,bus2=RML1060093549.1.2.3.0,Phases=3,Linecode=CABBTG06_4_3,Length=0.017000000,Units=km
new line.RML10093561 bus1=BBT441777.2.0,bus2=RML1060093561.2.0,Phases=1,Linecode=CABBTG02_4_1,Length=0.017000000,Units=km
new line.RML10071946 bus1=BBT425747.1.2.3.0,bus2=RML1060071946.1.2.3.0,Phases=3,Linecode=CABBTG06_4_3,Length=0.017000000,Units=km
new line.RML10071949 bus1=BBT424690.1.2.0,bus2=RML1060071949.1.2.0,Phases=2,Linecode=CABBTG05_4_2,Length=0.017000000,Units=km
new line.RML10071952 bus1=BBT440069.1.2.3.0,bus2=RML1060071952.1.2.3.0,Phases=3,Linecode=CABBTG06_4_3,Length=0.017000000,Units=km
new line.RML10072692 bus1=BBT2976421.1.2.0,bus2=RML1060072692.1.2.0,Phases=2,Linecode=CABBTG05_4_2,Length=0.017000000,Units=km
new line.RML10072695 bus1=BBT433594.1.2.0,bus2=RML1060072695.1.2.0,Phases=2,Linecode=CABBTG05_4_2,Length=0.017000000,Units=km
new line.RML10072702 bus1=BBT433377.1.2.3.0,bus2=RML1060072702.1.2.3.0,Phases=3,Linecode=CABBTG06_4_3,Length=0.017000000,Units=km
new line.RML10072703 bus1=BBT433377.1.2.3.0,bus2=RML1060072703.1.2.3.0,Phases=3,Linecode=CABBTG06_4_3,Length=0.017000000,Units=km
new line.RML10072725 bus1=BBT432334.1.2.0,bus2=RML1060072725.1.2.0,Phases=2,Linecode=CABBTG04_4_2,Length=0.017000000,Units=km
new line.RML10072727 bus1=BBT3147585.1.2.0,bus2=RML1060072727.1.2.0,Phases=2,Linecode=CABBTG04_4_2,Length=0.017000000,Units=km
new line.RML10072729 bus1=BBT438382.1.2.0,bus2=RML1060072729.1.2.0,Phases=2,Linecode=CABBTG04_4_2,Length=0.017000000,Units=km