new load.3002375968M1 bus1=RML1053618489.1.2.0,Phases=2,kv=0.24,kW=1.56404,pf=0.92,Vminpu=0.92,Vmaxpu=1.5,model=1,daily=RUR2_3,status=variable
new load.3000570455M1 bus1=RML1053943499.1.2.0,Phases=2,kv=0.24,kW=0.85418,pf=0.92,Vminpu=0.92,Vmaxpu=1.5,model=1,daily=RUR3_11,status=variable
new load.3013052652M1 bus1=RML1060587868.1.2.0,Phases=2,kv=0.24,kW=0.49036,pf=0.92,Vminpu=0.92,Vmaxpu=1.5,model=1,daily=RUR1_11,status=variable
new load.3000570392M1 bus1=RML1050661647.1.2.0,Phases=2,kv=0.24,kW=0.80192,pf=0.92,Vminpu=0.92,Vmaxpu=1.5,model=1,daily=RUR1_14,status=variable
new load.3003617686M1 bus1=RML1053822756.1.2.0,Phases=2,kv=0.24,kW=0.52084,pf=0.92,Vminpu=0.92,Vmaxpu=1.5,model=1,daily=RES5_7,status=variable
new load.3003617687M1 bus1=RML1050669095.1.2.0,Phases=2,kv=0.24,kW=0.94272,pf=0.92,Vminpu=0.92,Vmaxpu=1.5,model=1,daily=RES1_3,status=variable
new load.3006096744M1 bus1=RML1053641638.1.2.0,Phases=2,kv=0.24,kW=0.55122,pf=0.92,Vminpu=0.92,Vmaxpu=1.5,model=1,daily=RES2_14,status=variable
new load.3011428232M1 bus1=RML1056251445.1.0,Phases=1,kv=0.12,kW=1.35418,pf=0.92,Vminpu=0.92,Vmaxpu=1.5,model=1,daily=RES2_3,status=variable
new load.3000570365M1 bus1=RML1053925719.1.2.0,Phases=2,kv=0.24,kW=9.35916,pf=0.92,Vminpu=0.92,Vmaxpu=1.5,model=1,daily=RUR4_10,status=variable
new load.3000934644M1 bus1=RML1053735676.1.2.0,Phases=2,kv=0.24,kW=0.31394,pf=0.92,Vminpu=0.92,Vmaxpu=1.5,model=1,daily=RES4_19,status=variable
new load.3000934645M1 bus1=RML1053735683.1.2.0,Phases=2,kv=0.24,kW=0.1741,pf=0.92,Vminpu=0.92,Vmaxpu=1.5,model=1,daily=RES2_22,status=variable
new load.3000934647M1 bus1=RML1053735697.1.2.0,Phases=2,kv=0.24,kW=0.05098,pf=0.92,Vminpu=0.92,Vmaxpu=1.5,model=1,daily=RES1_18,status=variable
new load.3000934648M1 bus1=RML1053735704.1.2.0,Phases=2,kv=0.24,kW=0.3378,pf=0.92,Vminpu=0.92,Vmaxpu=1.5,model=1,daily=RES3_18,status=variable
new load.3000934649M1 bus1=RML1053735711.1.2.0,Phases=2,kv=0.24,kW=0.64212,pf=0.92,Vminpu=0.92,Vmaxpu=1.5,model=1,daily=RES3_18,status=variable
new load.3005752041M1 bus1=RML1053735718.1.2.0,Phases=2,kv=0.24,kW=0.02726,pf=0.92,Vminpu=0.92,Vmaxpu=1.5,model=1,daily=RES1_4,status=variable
new load.3013142024M1 bus1=RML1060704415.1.2.0,Phases=2,kv=0.24,kW=2.11148,pf=0.92,Vminpu=0.92,Vmaxpu=1.5,model=1,daily=RUR2_10,status=variable
new load.3013822789M1 bus1=RML1060958532.1.0,Phases=1,kv=0.12,kW=0.09296,pf=0.92,Vminpu=0.92,Vmaxpu=1.5,model=1,daily=RES1_18,status=variable
new load.3004269808M1 bus1=RML1053846822.1.2.0,Phases=2,kv=0.24,kW=0.2481,pf=0.92,Vminpu=0.92,Vmaxpu=1.5,model=1,daily=RES2_23,status=variable
new load.3004623532M1 bus1=RML1053859779.1.2.0,Phases=2,kv=0.24,kW=0.18656,pf=0.92,Vminpu=0.92,Vmaxpu=1.5,model=1,daily=RES1_2,status=variable
new load.3002375981M1 bus1=RML1050649026.1.2.0,Phases=2,kv=0.24,kW=1.634,pf=0.92,Vminpu=0.92,Vmaxpu=1.5,model=1,daily=RUR2_3,status=variable
new load.3000040831M1 bus1=RML1050657853.1.0,Phases=1,kv=0.127,kW=0.80944,pf=0.92,Vminpu=0.92,Vmaxpu=1.5,model=1,daily=RES1_1,status=variable
new load.3000040832M1 bus1=RML1050657818.1.0,Phases=1,kv=0.127,kW=0.58016,pf=0.92,Vminpu=0.92,Vmaxpu=1.5,model=1,daily=RES2_1,status=variable
new load.3000040833M1 bus1=RML1050657825.2.0,Phases=1,kv=0.127,kW=0.82704,pf=0.92,Vminpu=0.92,Vmaxpu=1.5,model=1,daily=RES2_1,status=variable
new load.3000040834M1 bus1=RML1050657832.1.0,Phases=1,kv=0.127,kW=0.31536,pf=0.92,Vminpu=0.92,Vmaxpu=1.5,model=1,daily=RES1_1,status=variable
new load.3005470452M1 bus1=RML1050657867.1.2.0,Phases=2,kv=0.22,kW=0.12178,pf=0.92,Vminpu=0.92,Vmaxpu=1.5,model=1,daily=COM1_2,status=variable
new load.IP113498M1 bus1=BBT434203.1.2.0,Phases=2,kv=0.22,kW=0.1317,pf=0.92,Vminpu=0.92,Vmaxpu=1.5,model=2,daily=IP,status=variable,NumCust=0
new load.IP1322832M1 bus1=BBT434182.1.2.0,Phases=2,kv=0.22,kW=0.1317,pf=0.92,Vminpu=0.92,Vmaxpu=1.5,model=2,daily=IP,status=variable,NumCust=0
new load.IP1322853M1 bus1=BBT434196.1.2.0,Phases=2,kv=0.22,kW=0.1317,pf=0.92,Vminpu=0.92,Vmaxpu=1.5,model=2,daily=IP,status=variable,NumCust=0
new load.IP113456M1 bus1=BBT434133.1.2.0,Phases=2,kv=0.22,kW=0.1317,pf=0.92,Vminpu=0.92,Vmaxpu=1.5,model=2,daily=IP,status=variable,NumCust=0
new load.IP113463M1 bus1=BBT434147.1.2.0,Phases=2,kv=0.22,kW=0.1317,pf=0.92,Vminpu=0.92,Vmaxpu=1.5,model=2,daily=IP,status=variable,NumCust=0
new load.IP113470M1 bus1=BBT434154.1.2.0,Phases=2,kv=0.22,kW=0.1317,pf=0.92,Vminpu=0.92,Vmaxpu=1.5,model=2,daily=IP,status=variable,NumCust=0
new load.IP113477M1 bus1=BBT434168.1.2.0,Phases=2,kv=0.22,kW=0.1317,pf=0.92,Vminpu=0.92,Vmaxpu=1.5,model=2,daily=IP,status=variable,NumCust=0
new load.IP113484M1 bus1=BBT434175.1.2.0,Phases=2,kv=0.22,kW=0.1317,pf=0.92,Vminpu=0.92,Vmaxpu=1.5,model=2,daily=IP,status=variable,NumCust=0
new load.IP113491M1 bus1=BBT434189.1.2.0,Phases=2,kv=0.22,kW=0.1317,pf=0.92,Vminpu=0.92,Vmaxpu=1.5,model=2,daily=IP,status=variable,NumCust=0
new load.3007314062M1 bus1=RML1054506257.1.2.3.0,Phases=3,kv=0.22,kW=4.3654,pf=0.92,Vminpu=0.92,Vmaxpu=1.5,model=1,daily=COM3_13,status=variable
new load.IP1554973M1 bus1=BBT3656002.1.2.0,Phases=2,kv=0.22,kW=0.08064,pf=0.92,Vminpu=0.92,Vmaxpu=1.5,model=2,daily=IP,status=variable,NumCust=0
new load.IP1700531M1 bus1=BBT6718012.1.2.0,Phases=2,kv=0.22,kW=0.1129,pf=0.92,Vminpu=0.92,Vmaxpu=1.5,model=2,daily=IP,status=variable,NumCust=0
new load.IP1099014M1 bus1=BBT434140.1.2.0,Phases=2,kv=0.22,kW=0.1317,pf=0.92,Vminpu=0.92,Vmaxpu=1.5,model=2,daily=IP,status=variable,NumCust=0
new load.IP1099028M1 bus1=BBT434161.1.2.0,Phases=2,kv=0.22,kW=0.1317,pf=0.92,Vminpu=0.92,Vmaxpu=1.5,model=2,daily=IP,status=variable,NumCust=0
new load.3005943707M1 bus1=RML1050657846.1.0,Phases=1,kv=0.127,kW=0.3248,pf=0.92,Vminpu=0.92,Vmaxpu=1.5,model=1,daily=RES1_9,status=variable
new load.3005091968M1 bus1=RML1050657839.3.0,Phases=1,kv=0.127,kW=0.44252,pf=0.92,Vminpu=0.92,Vmaxpu=1.5,model=1,daily=RES1_14,status=variable
new load.3006293857M1 bus1=RML1053966368.1.2.3.0,Phases=3,kv=0.22,kW=2.50278,pf=0.92,Vminpu=0.92,Vmaxpu=1.5,model=1,daily=COM1_21,status=variable
new load.3006855715M1 bus1=RML1054387334.3.0,Phases=1,kv=0.127,kW=0.712,pf=0.92,Vminpu=0.92,Vmaxpu=1.5,model=1,daily=RES1_6,status=variable
new load.3007538548M1 bus1=RML1054741961.2.0,Phases=1,kv=0.127,kW=0.80806,pf=0.92,Vminpu=0.92,Vmaxpu=1.5,model=1,daily=RES2_21,status=variable
new load.3007645731M1 bus1=RML1054735094.1.2.0,Phases=2,kv=0.22,kW=0.05786,pf=0.92,Vminpu=0.92,Vmaxpu=1.5,model=1,daily=RES1_23,status=variable
new load.3003782401M1 bus1=RML1053618671.1.2.0,Phases=2,kv=0.24,kW=0.55846,pf=0.92,Vminpu=0.92,Vmaxpu=1.5,model=1,daily=RUR1_11,status=variable
new load.3011218532M1 bus1=RML1055968344.1.2.0,Phases=2,kv=0.24,kW=0.2369,pf=0.92,Vminpu=0.92,Vmaxpu=1.5,model=1,daily=RUR1_2,status=variable
new load.3002375979M1 bus1=RML1053618664.1.2.0,Phases=2,kv=0.24,kW=0.60962,pf=0.92,Vminpu=0.92,Vmaxpu=1.5,model=1,daily=RUR2_3,status=variable
new load.3004396136M1 bus1=RML1053618426.1.2.0,Phases=2,kv=0.24,kW=0.35618,pf=0.92,Vminpu=0.92,Vmaxpu=1.5,model=1,daily=RUR2_1,status=variable
new load.3011275778M1 bus1=RML1055837500.1.2.0,Phases=2,kv=0.24,kW=0.95764,pf=0.92,Vminpu=0.92,Vmaxpu=1.5,model=1,daily=RUR2_4,status=variable
new load.3000040441M1 bus1=RML1050657678.1.0,Phases=1,kv=0.127,kW=0.431,pf=0.92,Vminpu=0.92,Vmaxpu=1.5,model=1,daily=RES1_1,status=variable
new load.3000040442M1 bus1=RML1050657762.1.0,Phases=1,kv=0.127,kW=0.75298,pf=0.92,Vminpu=0.92,Vmaxpu=1.5,model=1,daily=RES2_1,status=variable
new load.3000040443M1 bus1=RML1050657706.1.0,Phases=1,kv=0.127,kW=0.7036,pf=0.92,Vminpu=0.92,Vmaxpu=1.5,model=1,daily=RES2_1,status=variable
new load.3000040444M1 bus1=RML1050657713.1.0,Phases=1,kv=0.127,kW=0.81996,pf=0.92,Vminpu=0.92,Vmaxpu=1.5,model=1,daily=RES1_1,status=variable
new load.3000040445M1 bus1=RML1050657720.3.0,Phases=1,kv=0.127,kW=0.35742,pf=0.92,Vminpu=0.92,Vmaxpu=1.5,model=1,daily=RES1_1,status=variable
new load.3000040446M1 bus1=RML1050657699.1.0,Phases=1,kv=0.127,kW=0.74636,pf=0.92,Vminpu=0.92,Vmaxpu=1.5,model=1,daily=RES1_1,status=variable
new load.IP113442M1 bus1=BBT434105.1.2.0,Phases=2,kv=0.22,kW=0.1317,pf=0.92,Vminpu=0.92,Vmaxpu=1.5,model=2,daily=IP,status=variable,NumCust=0
new load.IP113449M1 bus1=BBT434112.1.2.0,Phases=2,kv=0.22,kW=0.1317,pf=0.92,Vminpu=0.92,Vmaxpu=1.5,model=2,daily=IP,status=variable,NumCust=0
new load.IP113400M1 bus1=BBT434063.1.2.0,Phases=2,kv=0.22,kW=0.1317,pf=0.92,Vminpu=0.92,Vmaxpu=1.5,model=2,daily=IP,status=variable,NumCust=0
new load.IP113407M1 bus1=BBT434070.2.3.0,Phases=2,kv=0.22,kW=0.1317,pf=0.92,Vminpu=0.92,Vmaxpu=1.5,model=2,daily=IP,status=variable,NumCust=0
new load.IP113414M1 bus1=BBT434077.2.3.0,Phases=2,kv=0.22,kW=0.1317,pf=0.92,Vminpu=0.92,Vmaxpu=1.5,model=2,daily=IP,status=variable,NumCust=0
new load.IP113421M1 bus1=BBT434084.1.3.0,Phases=2,kv=0.22,kW=0.1317,pf=0.92,Vminpu=0.92,Vmaxpu=1.5,model=2,daily=IP,status=variable,NumCust=0
new load.IP113428M1 bus1=BBT434091.1.2.0,Phases=2,kv=0.22,kW=0.1317,pf=0.92,Vminpu=0.92,Vmaxpu=1.5,model=2,daily=IP,status=variable,NumCust=0
new load.IP113435M1 bus1=BBT434098.2.3.0,Phases=2,kv=0.22,kW=0.1317,pf=0.92,Vminpu=0.92,Vmaxpu=1.5,model=2,daily=IP,status=variable,NumCust=0
new load.IP113358M1 bus1=BBT434021.1.2.0,Phases=2,kv=0.22,kW=0.2688,pf=0.92,Vminpu=0.92,Vmaxpu=1.5,model=2,daily=IP,status=variable,NumCust=0
new load.IP113365M1 bus1=BBT434028.1.3.0,Phases=2,kv=0.22,kW=0.2688,pf=0.92,Vminpu=0.92,Vmaxpu=1.5,model=2,daily=IP,status=variable,NumCust=0
new load.IP113372M1 bus1=BBT434035.2.3.0,Phases=2,kv=0.22,kW=0.2688,pf=0.92,Vminpu=0.92,Vmaxpu=1.5,model=2,daily=IP,status=variable,NumCust=0
new load.IP113379M1 bus1=BBT434042.2.3.0,Phases=2,kv=0.22,kW=0.2688,pf=0.92,Vminpu=0.92,Vmaxpu=1.5,model=2,daily=IP,status=variable,NumCust=0
new load.IP113386M1 bus1=BBT434049.2.3.0,Phases=2,kv=0.22,kW=0.2688,pf=0.92,Vminpu=0.92,Vmaxpu=1.5,model=2,daily=IP,status=variable,NumCust=0
new load.IP113393M1 bus1=BBT434056.2.3.0,Phases=2,kv=0.22,kW=0.1317,pf=0.92,Vminpu=0.92,Vmaxpu=1.5,model=2,daily=IP,status=variable,NumCust=0
new load.3011814056M1 bus1=RML1055814302.1.2.0,Phases=2,kv=0.22,kW=0.2802,pf=0.92,Vminpu=0.92,Vmaxpu=1.5,model=1,daily=COM1_11,status=variable
new load.3011814057M1 bus1=RML1055814302.1.2.0,Phases=2,kv=0.22,kW=0.14638,pf=0.92,Vminpu=0.92,Vmaxpu=1.5,model=1,daily=COM1_11,status=variable
new load.3012534462M1 bus1=RML1060540239.2.0,Phases=1,kv=0.127,kW=0.25546,pf=0.92,Vminpu=0.92,Vmaxpu=1.5,model=1,daily=RES2_27,status=variable
new load.3002376019M1 bus1=RML1050649005.1.2.0,Phases=2,kv=0.24,kW=1.13356,pf=0.92,Vminpu=0.92,Vmaxpu=1.5,model=1,daily=RUR4_1,status=variable
new load.3004244279M1 bus1=RML1053617999.1.2.0,Phases=2,kv=0.24,kW=0.23562,pf=0.92,Vminpu=0.92,Vmaxpu=1.5,model=1,daily=RUR1_21,status=variable
new load.3003351006M1 bus1=RML1050658077.1.2.0,Phases=2,kv=0.24,kW=0.30486,pf=0.92,Vminpu=0.92,Vmaxpu=1.5,model=1,daily=RES1_1,status=variable
new load.3007453917M1 bus1=RML1054686017.1.2.0,Phases=2,kv=0.24,kW=0.91924,pf=0.92,Vminpu=0.92,Vmaxpu=1.5,model=1,daily=RES3_15,status=variable
new load.3003350991M1 bus1=RML1050658126.1.2.0,Phases=2,kv=0.24,kW=0.01052,pf=0.92,Vminpu=0.92,Vmaxpu=1.5,model=1,daily=RES1_1,status=variable
new load.3003350994M1 bus1=RML1050658133.1.2.0,Phases=2,kv=0.24,kW=0.5281,pf=0.92,Vminpu=0.92,Vmaxpu=1.5,model=1,daily=RUR3_1,status=variable
new load.3000040862M1 bus1=RML1053715586.1.2.0,Phases=2,kv=0.24,kW=0.58016,pf=0.92,Vminpu=0.92,Vmaxpu=1.5,model=1,daily=RES2_1,status=variable
new load.3000040857M1 bus1=RML1053715558.1.2.0,Phases=2,kv=0.24,kW=0.12724,pf=0.92,Vminpu=0.92,Vmaxpu=1.5,model=1,daily=RUR1_1,status=variable
new load.3000040858M1 bus1=RML1053715565.1.2.0,Phases=2,kv=0.24,kW=0.86406,pf=0.92,Vminpu=0.92,Vmaxpu=1.5,model=1,daily=RES2_1,status=variable
new load.3000040859M1 bus1=RML1053715572.1.2.0,Phases=2,kv=0.24,kW=0.4382,pf=0.92,Vminpu=0.92,Vmaxpu=1.5,model=1,daily=RES2_1,status=variable
new load.3000570489M1 bus1=RML1053941602.1.2.0,Phases=2,kv=0.24,kW=0.38872,pf=0.92,Vminpu=0.92,Vmaxpu=1.5,model=1,daily=RUR2_14,status=variable
new load.3011503690M1 bus1=RML1056264605.1.2.3.0,Phases=3,kv=0.22,kW=1.26804,pf=0.92,Vminpu=0.92,Vmaxpu=1.5,model=1,daily=IND3_8,status=variable
new load.3000934634M1 bus1=RML1053735620.1.2.0,Phases=2,kv=0.24,kW=0.2628,pf=0.92,Vminpu=0.92,Vmaxpu=1.5,model=1,daily=RES2_22,status=variable
new load.3000934636M1 bus1=RML1053735634.1.2.0,Phases=2,kv=0.24,kW=0.22116,pf=0.92,Vminpu=0.92,Vmaxpu=1.5,model=1,daily=RES5_17,status=variable
new load.3000934639M1 bus1=RML1053944780.1.2.0,Phases=2,kv=0.24,kW=0.28908,pf=0.92,Vminpu=0.92,Vmaxpu=1.5,model=1,daily=RES2_22,status=variable
new load.3003914673M1 bus1=RML1053831912.1.2.0,Phases=2,kv=0.24,kW=0.23164,pf=0.92,Vminpu=0.92,Vmaxpu=1.5,model=1,daily=RUR1_12,status=variable
new load.IP1516781M1 bus1=BBT2830835.1.2.0,Phases=2,kv=0.24,kW=0.08602,pf=0.92,Vminpu=0.92,Vmaxpu=1.5,model=2,daily=IP,status=variable,NumCust=0
new load.IP1516788M1 bus1=BBT438970.1.2.0,Phases=2,kv=0.24,kW=0.08602,pf=0.92,Vminpu=0.92,Vmaxpu=1.5,model=2,daily=IP,status=variable,NumCust=0
new load.IP1516795M1 bus1=BBT2830877.1.2.0,Phases=2,kv=0.24,kW=0.08602,pf=0.92,Vminpu=0.92,Vmaxpu=1.5,model=2,daily=IP,status=variable,NumCust=0
new load.3003923954M1 bus1=RML1053618328.1.2.0,Phases=2,kv=0.24,kW=0.7758,pf=0.92,Vminpu=0.92,Vmaxpu=1.5,model=1,daily=RUR2_12,status=variable
new load.3003782400M1 bus1=RML1050648984.1.2.0,Phases=2,kv=0.24,kW=0.3269,pf=0.92,Vminpu=0.92,Vmaxpu=1.5,model=1,daily=RUR1_11,status=variable
new load.3002375997M1 bus1=RML1050648998.1.2.0,Phases=2,kv=0.24,kW=1.50408,pf=0.92,Vminpu=0.92,Vmaxpu=1.5,model=1,daily=RUR2_3,status=variable
new load.3012722365M1 bus1=RML1060466368.1.2.0,Phases=2,kv=0.24,kW=1.05588,pf=0.92,Vminpu=0.92,Vmaxpu=1.5,model=1,daily=RES3_3,status=variable
new load.3000040554M1 bus1=RML1050657132.1.0,Phases=1,kv=0.127,kW=0.57818,pf=0.92,Vminpu=0.92,Vmaxpu=1.5,model=1,daily=RES1_1,status=variable
new load.3000040556M1 bus1=RML1050657146.1.0,Phases=1,kv=0.127,kW=0.6097,pf=0.92,Vminpu=0.92,Vmaxpu=1.5,model=1,daily=RES1_1,status=variable
new load.3000040561M1 bus1=RML1050657062.1.2.0,Phases=2,kv=0.22,kW=0.38896,pf=0.92,Vminpu=0.92,Vmaxpu=1.5,model=1,daily=RES1_1,status=variable
new load.3000040562M1 bus1=RML1050656985.1.3.0,Phases=2,kv=0.22,kW=0.22076,pf=0.92,Vminpu=0.92,Vmaxpu=1.5,model=1,daily=RES1_1,status=variable
new load.3000040563M1 bus1=RML1050656971.1.3.0,Phases=2,kv=0.22,kW=0.21834,pf=0.92,Vminpu=0.92,Vmaxpu=1.5,model=1,daily=COM1_3,status=variable
new load.IP113134M1 bus1=BBT433741.1.2.0,Phases=2,kv=0.22,kW=0.1317,pf=0.92,Vminpu=0.92,Vmaxpu=1.5,model=2,daily=IP,status=variable,NumCust=0
new load.IP113092M1 bus1=BBT433699.2.3.0,Phases=2,kv=0.22,kW=0.2688,pf=0.92,Vminpu=0.92,Vmaxpu=1.5,model=2,daily=IP,status=variable,NumCust=0
new load.IP113099M1 bus1=BBT433706.2.3.0,Phases=2,kv=0.22,kW=0.2688,pf=0.92,Vminpu=0.92,Vmaxpu=1.5,model=2,daily=IP,status=variable,NumCust=0
new load.IP113106M1 bus1=BBT433713.1.2.0,Phases=2,kv=0.22,kW=0.2688,pf=0.92,Vminpu=0.92,Vmaxpu=1.5,model=2,daily=IP,status=variable,NumCust=0
new load.IP113113M1 bus1=BBT433720.2.3.0,Phases=2,kv=0.22,kW=0.2688,pf=0.92,Vminpu=0.92,Vmaxpu=1.5,model=2,daily=IP,status=variable,NumCust=0
new load.IP113120M1 bus1=BBT433727.2.3.0,Phases=2,kv=0.22,kW=0.2688,pf=0.92,Vminpu=0.92,Vmaxpu=1.5,model=2,daily=IP,status=variable,NumCust=0
new load.IP113127M1 bus1=BBT433734.1.2.0,Phases=2,kv=0.22,kW=0.1317,pf=0.92,Vminpu=0.92,Vmaxpu=1.5,model=2,daily=IP,status=variable,NumCust=0
new load.IP113050M1 bus1=BBT433657.1.3.0,Phases=2,kv=0.22,kW=0.2688,pf=0.92,Vminpu=0.92,Vmaxpu=1.5,model=2,daily=IP,status=variable,NumCust=0
new load.IP113057M1 bus1=BBT433664.2.3.0,Phases=2,kv=0.22,kW=0.2688,pf=0.92,Vminpu=0.92,Vmaxpu=1.5,model=2,daily=IP,status=variable,NumCust=0
new load.IP113064M1 bus1=BBT433671.1.3.0,Phases=2,kv=0.22,kW=0.2688,pf=0.92,Vminpu=0.92,Vmaxpu=1.5,model=2,daily=IP,status=variable,NumCust=0
new load.IP113071M1 bus1=BBT433678.1.2.0,Phases=2,kv=0.22,kW=0.2688,pf=0.92,Vminpu=0.92,Vmaxpu=1.5,model=2,daily=IP,status=variable,NumCust=0
new load.IP113078M1 bus1=BBT433685.1.2.0,Phases=2,kv=0.22,kW=0.2688,pf=0.92,Vminpu=0.92,Vmaxpu=1.5,model=2,daily=IP,status=variable,NumCust=0
new load.IP113085M1 bus1=BBT433692.1.3.0,Phases=2,kv=0.22,kW=0.2688,pf=0.92,Vminpu=0.92,Vmaxpu=1.5,model=2,daily=IP,status=variable,NumCust=0
new load.IP113008M1 bus1=BBT433615.1.3.0,Phases=2,kv=0.22,kW=0.2688,pf=0.92,Vminpu=0.92,Vmaxpu=1.5,model=2,daily=IP,status=variable,NumCust=0
new load.IP113015M1 bus1=BBT433622.1.3.0,Phases=2,kv=0.22,kW=0.2688,pf=0.92,Vminpu=0.92,Vmaxpu=1.5,model=2,daily=IP,status=variable,NumCust=0
new load.IP113022M1 bus1=BBT433629.1.2.0,Phases=2,kv=0.22,kW=0.2688,pf=0.92,Vminpu=0.92,Vmaxpu=1.5,model=2,daily=IP,status=variable,NumCust=0
new load.IP113029M1 bus1=BBT433636.1.2.0,Phases=2,kv=0.22,kW=0.1317,pf=0.92,Vminpu=0.92,Vmaxpu=1.5,model=2,daily=IP,status=variable,NumCust=0
new load.IP113036M1 bus1=BBT433643.1.3.0,Phases=2,kv=0.22,kW=0.2688,pf=0.92,Vminpu=0.92,Vmaxpu=1.5,model=2,daily=IP,status=variable,NumCust=0
new load.3003391583M1 bus1=RML1053815364.1.2.0,Phases=2,kv=0.24,kW=0.55828,pf=0.92,Vminpu=0.92,Vmaxpu=1.5,model=1,daily=RES2_2,status=variable
new load.3006049204M1 bus1=RML1053846822.1.2.0,Phases=2,kv=0.24,kW=0.78124,pf=0.92,Vminpu=0.92,Vmaxpu=1.5,model=1,daily=RES3_12,status=variable
new load.3002194259M1 bus1=RML1053766560.1.2.0,Phases=2,kv=0.24,kW=0.19974,pf=0.92,Vminpu=0.92,Vmaxpu=1.5,model=1,daily=RES1_1,status=variable
new load.3002194270M1 bus1=RML1053766630.1.2.0,Phases=2,kv=0.24,kW=0.30242,pf=0.92,Vminpu=0.92,Vmaxpu=1.5,model=1,daily=RES2_1,status=variable
new load.3003564527M1 bus1=RML1050676585.1.2.0,Phases=2,kv=0.24,kW=0.19638,pf=0.92,Vminpu=0.92,Vmaxpu=1.5,model=1,daily=RES1_2,status=variable
new load.3004534587M1 bus1=RML1053856076.1.2.0,Phases=2,kv=0.24,kW=0.7014,pf=0.92,Vminpu=0.92,Vmaxpu=1.5,model=1,daily=RES3_3,status=variable
new load.3002555422M1 bus1=RML1054125786.1.2.0,Phases=2,kv=0.24,kW=0.01362,pf=0.92,Vminpu=0.92,Vmaxpu=1.5,model=1,daily=RES1_4,status=variable
new load.3002555423M1 bus1=RML1054125793.1.2.0,Phases=2,kv=0.24,kW=0.4906,pf=0.92,Vminpu=0.92,Vmaxpu=1.5,model=1,daily=RES1_4,status=variable
new load.3002555424M1 bus1=RML1054125800.1.2.0,Phases=2,kv=0.24,kW=1.04932,pf=0.92,Vminpu=0.92,Vmaxpu=1.5,model=1,daily=RES1_4,status=variable
new load.3002555425M1 bus1=RML1054125814.1.2.0,Phases=2,kv=0.24,kW=0.05452,pf=0.92,Vminpu=0.92,Vmaxpu=1.5,model=1,daily=RES1_4,status=variable
new load.3002555426M1 bus1=RML1054125821.1.2.0,Phases=2,kv=0.24,kW=0.62686,pf=0.92,Vminpu=0.92,Vmaxpu=1.5,model=1,daily=RES1_4,status=variable
new load.3002555427M1 bus1=RML1054125842.1.2.0,Phases=2,kv=0.24,kW=0.19078,pf=0.92,Vminpu=0.92,Vmaxpu=1.5,model=1,daily=RES1_4,status=variable
new load.IP1393588M1 bus1=BBT447692.1.2.0,Phases=2,kv=0.24,kW=0.08602,pf=0.92,Vminpu=0.92,Vmaxpu=1.5,model=2,daily=IP,status=variable,NumCust=0
new load.IP1393595M1 bus1=BBT2827314.1.2.0,Phases=2,kv=0.24,kW=0.08602,pf=0.92,Vminpu=0.92,Vmaxpu=1.5,model=2,daily=IP,status=variable,NumCust=0
new load.IP1393602M1 bus1=BBT2827328.1.2.0,Phases=2,kv=0.24,kW=0.08602,pf=0.92,Vminpu=0.92,Vmaxpu=1.5,model=2,daily=IP,status=variable,NumCust=0
new load.IP1393609M1 bus1=BBT2827335.1.2.0,Phases=2,kv=0.24,kW=0.08602,pf=0.92,Vminpu=0.92,Vmaxpu=1.5,model=2,daily=IP,status=variable,NumCust=0
new load.IP1393616M1 bus1=BBT2827349.1.2.0,Phases=2,kv=0.24,kW=0.08602,pf=0.92,Vminpu=0.92,Vmaxpu=1.5,model=2,daily=IP,status=variable,NumCust=0
new load.IP1393623M1 bus1=BBT2827356.1.2.0,Phases=2,kv=0.24,kW=0.08602,pf=0.92,Vminpu=0.92,Vmaxpu=1.5,model=2,daily=IP,status=variable,NumCust=0
new load.IP1393553M1 bus1=BBT2827293.1.2.0,Phases=2,kv=0.24,kW=0.08602,pf=0.92,Vminpu=0.92,Vmaxpu=1.5,model=2,daily=IP,status=variable,NumCust=0
new load.IP1393560M1 bus1=BBT2827286.1.2.0,Phases=2,kv=0.24,kW=0.08602,pf=0.92,Vminpu=0.92,Vmaxpu=1.5,model=2,daily=IP,status=variable,NumCust=0
new load.IP1393567M1 bus1=BBT2827279.1.2.0,Phases=2,kv=0.24,kW=0.08602,pf=0.92,Vminpu=0.92,Vmaxpu=1.5,model=2,daily=IP,status=variable,NumCust=0
new load.IP1393574M1 bus1=BBT2827272.1.2.0,Phases=2,kv=0.24,kW=0.08602,pf=0.92,Vminpu=0.92,Vmaxpu=1.5,model=2,daily=IP,status=variable,NumCust=0
new load.IP1393581M1 bus1=BBT2827265.1.2.0,Phases=2,kv=0.24,kW=0.08602,pf=0.92,Vminpu=0.92,Vmaxpu=1.5,model=2,daily=IP,status=variable,NumCust=0
new load.3011909884M1 bus1=RML1056813489.2.0,Phases=1,kv=0.12,kW=0.61294,pf=0.92,Vminpu=0.92,Vmaxpu=1.5,model=1,daily=RES2_10,status=variable
new load.3012136964M1 bus1=RML1060214634.1.2.0,Phases=2,kv=0.24,kW=0.3022,pf=0.92,Vminpu=0.92,Vmaxpu=1.5,model=1,daily=RES1_14,status=variable
new load.3004627654M1 bus1=RML1054125835.1.2.0,Phases=2,kv=0.24,kW=0.78554,pf=0.92,Vminpu=0.92,Vmaxpu=1.5,model=1,daily=RES1_2,status=variable
new load.3004841644M1 bus1=RML1054125828.1.2.0,Phases=2,kv=0.24,kW=0.13016,pf=0.92,Vminpu=0.92,Vmaxpu=1.5,model=1,daily=RES1_7,status=variable
new load.3003769673M1 bus1=RML1054125807.1.2.0,Phases=2,kv=0.24,kW=0.18222,pf=0.92,Vminpu=0.92,Vmaxpu=1.5,model=1,daily=RES1_7,status=variable
new load.3012561630M1 bus1=RML1060353903.3.0,Phases=1,kv=0.127,kW=0.83426,pf=0.92,Vminpu=0.92,Vmaxpu=1.5,model=1,daily=RES1_26,status=variable
new load.IP113351M1 bus1=BBT434014.1.2.0,Phases=2,kv=0.22,kW=0.2688,pf=0.92,Vminpu=0.92,Vmaxpu=1.5,model=2,daily=IP,status=variable,NumCust=0
new load.3013223086M1 bus1=RML1055009662.1.2.0,Phases=2,kv=0.22,kW=0.64624,pf=0.92,Vminpu=0.92,Vmaxpu=1.5,model=1,daily=RES2_10,status=variable
new load.3013227573M1 bus1=RML1050657804.2.0,Phases=1,kv=0.127,kW=0.16486,pf=0.92,Vminpu=0.92,Vmaxpu=1.5,model=1,daily=RES1_7,status=variable
new load.3012164805M1 bus1=RML1055814302.1.2.0,Phases=2,kv=0.22,kW=1.20164,pf=0.92,Vminpu=0.92,Vmaxpu=1.5,model=1,daily=RES5_15,status=variable
new load.3005975954M1 bus1=RML1050657776.1.2.0,Phases=2,kv=0.22,kW=0.8661,pf=0.92,Vminpu=0.92,Vmaxpu=1.5,model=1,daily=RES2_10,status=variable
new load.3007587239M1 bus1=RML1054678737.1.3.0,Phases=2,kv=0.22,kW=1.63842,pf=0.92,Vminpu=0.92,Vmaxpu=1.5,model=1,daily=COM1_22,status=variable
new load.3007279040M1 bus1=RML1054134354.1.2.3.0,Phases=3,kv=0.22,kW=0.44618,pf=0.92,Vminpu=0.92,Vmaxpu=1.5,model=1,daily=COM1_18,status=variable
new load.3010620896M1 bus1=RML1055009662.1.2.0,Phases=2,kv=0.22,kW=1.09532,pf=0.92,Vminpu=0.92,Vmaxpu=1.5,model=1,daily=RES2_11,status=variable
new load.3010990088M1 bus1=RML1050657440.1.2.3.0,Phases=3,kv=0.22,kW=1.14732,pf=0.92,Vminpu=0.92,Vmaxpu=1.5,model=1,daily=RES3_17,status=variable
new load.3004045404M1 bus1=RML1050657755.2.0,Phases=1,kv=0.127,kW=0.29192,pf=0.92,Vminpu=0.92,Vmaxpu=1.5,model=1,daily=RES2_15,status=variable
new load.3005349428M1 bus1=RML1050657734.3.0,Phases=1,kv=0.127,kW=0.34832,pf=0.92,Vminpu=0.92,Vmaxpu=1.5,model=1,daily=COM1_23,status=variable
new load.3007092076M1 bus1=RML1054418631.2.3.0,Phases=2,kv=0.22,kW=0.57266,pf=0.92,Vminpu=0.92,Vmaxpu=1.5,model=1,daily=COM1_13,status=variable
new load.3007112648M1 bus1=RML1054134354.1.2.3.0,Phases=3,kv=0.22,kW=1.32474,pf=0.92,Vminpu=0.92,Vmaxpu=1.5,model=1,daily=RES2_9,status=variable
new load.3006489679M1 bus1=RML1054134354.1.2.3.0,Phases=3,kv=0.22,kW=0.133,pf=0.92,Vminpu=0.92,Vmaxpu=1.5,model=1,daily=COM1_1,status=variable
new load.3000040494M1 bus1=RML1050657559.1.2.0,Phases=2,kv=0.22,kW=1.04306,pf=0.92,Vminpu=0.92,Vmaxpu=1.5,model=1,daily=RES2_1,status=variable
new load.3000040495M1 bus1=RML1050657440.1.2.3.0,Phases=3,kv=0.22,kW=1.13564,pf=0.92,Vminpu=0.92,Vmaxpu=1.5,model=1,daily=RES2_1,status=variable
new load.3003269758M1 bus1=RML1050657727.1.2.0,Phases=2,kv=0.22,kW=1.31198,pf=0.92,Vminpu=0.92,Vmaxpu=1.5,model=1,daily=COM1_23,status=variable
new load.3003666880M1 bus1=RML1050657580.2.0,Phases=1,kv=0.127,kW=0.93828,pf=0.92,Vminpu=0.92,Vmaxpu=1.5,model=1,daily=RES2_6,status=variable
new load.3003666881M1 bus1=RML1050657566.1.0,Phases=1,kv=0.127,kW=1.0196,pf=0.92,Vminpu=0.92,Vmaxpu=1.5,model=1,daily=RES2_6,status=variable
new load.3003688320M1 bus1=RML1050657636.2.3.0,Phases=2,kv=0.22,kW=0.7146,pf=0.92,Vminpu=0.92,Vmaxpu=1.5,model=1,daily=COM1_8,status=variable
new load.3000040938M1 bus1=RML1050658049.1.2.0,Phases=2,kv=0.24,kW=5.3044,pf=0.92,Vminpu=0.92,Vmaxpu=1.5,model=1,daily=RUR4_1,status=variable
new load.3000040907M1 bus1=RML1050658105.1.2.0,Phases=2,kv=0.24,kW=0.3009,pf=0.92,Vminpu=0.92,Vmaxpu=1.5,model=1,daily=RUR2_1,status=variable
new load.3000040918M1 bus1=RML1053618930.1.2.0,Phases=2,kv=0.24,kW=2.01706,pf=0.92,Vminpu=0.92,Vmaxpu=1.5,model=1,daily=RUR4_1,status=variable
new load.3000570364M1 bus1=RML1053728193.1.2.3.0,Phases=3,kv=0.22,kW=0.65976,pf=0.92,Vminpu=0.92,Vmaxpu=1.5,model=1,daily=RES1_9,status=variable
new load.3011287731M1 bus1=RML1055836352.1.2.0,Phases=2,kv=0.22,kW=0.59504,pf=0.92,Vminpu=0.92,Vmaxpu=1.5,model=1,daily=RUR3_1,status=variable
new load.3003793761M1 bus1=RML1053828090.1.2.0,Phases=2,kv=0.24,kW=1.15296,pf=0.92,Vminpu=0.92,Vmaxpu=1.5,model=1,daily=RUR3_8,status=variable
new load.3004296275M1 bus1=RML1050676312.1.2.0,Phases=2,kv=0.24,kW=1.74334,pf=0.92,Vminpu=0.92,Vmaxpu=1.5,model=1,daily=RUR3_23,status=variable
new load.3001651637M1 bus1=RML1053939775.1.2.0,Phases=2,kv=0.24,kW=2.49806,pf=0.92,Vminpu=0.92,Vmaxpu=1.5,model=1,daily=RUR3_8,status=variable
new load.3001651642M1 bus1=RML1050676410.1.2.0,Phases=2,kv=0.24,kW=1.61556,pf=0.92,Vminpu=0.92,Vmaxpu=1.5,model=1,daily=RUR3_8,status=variable
new load.3003107895M1 bus1=RML1053805522.1.2.0,Phases=2,kv=0.24,kW=0.31918,pf=0.92,Vminpu=0.92,Vmaxpu=1.5,model=1,daily=RUR1_20,status=variable
new load.3003600338M1 bus1=RML1050688569.1.0,Phases=1,kv=0.12,kW=0.5655,pf=0.92,Vminpu=0.92,Vmaxpu=1.5,model=1,daily=RES2_5,status=variable
new load.3003350304M1 bus1=RML1050688485.2.0,Phases=1,kv=0.12,kW=0.95048,pf=0.92,Vminpu=0.92,Vmaxpu=1.5,model=1,daily=RES2_1,status=variable
new load.3003947356M1 bus1=RML1050688625.2.0,Phases=1,kv=0.12,kW=1.27968,pf=0.92,Vminpu=0.92,Vmaxpu=1.5,model=1,daily=RES2_11,status=variable
new load.3003947357M1 bus1=RML1050688625.2.0,Phases=1,kv=0.12,kW=1.2363,pf=0.92,Vminpu=0.92,Vmaxpu=1.5,model=1,daily=RES2_11,status=variable
new load.3004504572M1 bus1=RML1050688576.1.2.0,Phases=2,kv=0.24,kW=0.73006,pf=0.92,Vminpu=0.92,Vmaxpu=1.5,model=1,daily=RES2_2,status=variable
new load.3004810100M1 bus1=RML1050688492.1.0,Phases=1,kv=0.12,kW=1.39518,pf=0.92,Vminpu=0.92,Vmaxpu=1.5,model=1,daily=RES3_7,status=variable
new load.IP121331M1 bus1=BBT454174.1.2.0,Phases=2,kv=0.24,kW=0.1317,pf=0.92,Vminpu=0.92,Vmaxpu=1.5,model=2,daily=IP,status=variable,NumCust=0
new load.IP121338M1 bus1=BBT454181.1.2.0,Phases=2,kv=0.24,kW=0.1317,pf=0.92,Vminpu=0.92,Vmaxpu=1.5,model=2,daily=IP,status=variable,NumCust=0
new load.IP121289M1 bus1=BBT454132.1.2.0,Phases=2,kv=0.24,kW=0.08602,pf=0.92,Vminpu=0.92,Vmaxpu=1.5,model=2,daily=IP,status=variable,NumCust=0
new load.IP121296M1 bus1=BBT454139.1.2.0,Phases=2,kv=0.24,kW=0.1317,pf=0.92,Vminpu=0.92,Vmaxpu=1.5,model=2,daily=IP,status=variable,NumCust=0
new load.IP121303M1 bus1=BBT454146.1.2.0,Phases=2,kv=0.24,kW=0.1317,pf=0.92,Vminpu=0.92,Vmaxpu=1.5,model=2,daily=IP,status=variable,NumCust=0
new load.IP121310M1 bus1=BBT454153.1.2.0,Phases=2,kv=0.24,kW=0.1317,pf=0.92,Vminpu=0.92,Vmaxpu=1.5,model=2,daily=IP,status=variable,NumCust=0
new load.IP121317M1 bus1=BBT454160.1.2.0,Phases=2,kv=0.24,kW=0.1317,pf=0.92,Vminpu=0.92,Vmaxpu=1.5,model=2,daily=IP,status=variable,NumCust=0
new load.IP121324M1 bus1=BBT454167.1.2.0,Phases=2,kv=0.24,kW=0.1317,pf=0.92,Vminpu=0.92,Vmaxpu=1.5,model=2,daily=IP,status=variable,NumCust=0
new load.IP1683766M1 bus1=BBT454111.1.2.0,Phases=2,kv=0.24,kW=0.08602,pf=0.92,Vminpu=0.92,Vmaxpu=1.5,model=2,daily=IP,status=variable,NumCust=0
new load.IP1516802M1 bus1=BBT2830884.1.2.0,Phases=2,kv=0.24,kW=0.08602,pf=0.92,Vminpu=0.92,Vmaxpu=1.5,model=2,daily=IP,status=variable,NumCust=0
new load.3006103147M1 bus1=RML1054086782.1.2.0,Phases=2,kv=0.24,kW=0.53254,pf=0.92,Vminpu=0.92,Vmaxpu=1.5,model=1,daily=RES2_14,status=variable
new load.3012376070M1 bus1=RML1060255004.1.2.0,Phases=2,kv=0.24,kW=0.31954,pf=0.92,Vminpu=0.92,Vmaxpu=1.5,model=1,daily=RES3_18,status=variable
new load.IP1516767M1 bus1=BBT2830856.1.2.0,Phases=2,kv=0.24,kW=0.08602,pf=0.92,Vminpu=0.92,Vmaxpu=1.5,model=2,daily=IP,status=variable,NumCust=0
new load.IP1516774M1 bus1=BBT2830828.1.2.0,Phases=2,kv=0.24,kW=0.08602,pf=0.92,Vminpu=0.92,Vmaxpu=1.5,model=2,daily=IP,status=variable,NumCust=0
new load.3004003070M1 bus1=RML1050662606.1.2.0,Phases=2,kv=0.24,kW=0.0844,pf=0.92,Vminpu=0.92,Vmaxpu=1.5,model=1,daily=RES1_13,status=variable
new load.3004970309M1 bus1=RML1053871098.1.2.0,Phases=2,kv=0.24,kW=4.91214,pf=0.92,Vminpu=0.92,Vmaxpu=1.5,model=1,daily=RUR4_10,status=variable
new load.3005287932M1 bus1=RML1050662620.1.0,Phases=1,kv=0.12,kW=0.73248,pf=0.92,Vminpu=0.92,Vmaxpu=1.5,model=1,daily=RES2_23,status=variable
new load.3002926619M1 bus1=RML1050676326.1.2.0,Phases=2,kv=0.24,kW=0.25536,pf=0.92,Vminpu=0.92,Vmaxpu=1.5,model=1,daily=RUR1_17,status=variable
new load.3001291488M1 bus1=RML1050676375.1.2.0,Phases=2,kv=0.24,kW=8.40168,pf=0.92,Vminpu=0.92,Vmaxpu=1.5,model=1,daily=RUR4_1,status=variable
new load.3001291313M1 bus1=RML1050659624.3.0,Phases=1,kv=0.127,kW=0.0982,pf=0.92,Vminpu=0.92,Vmaxpu=1.5,model=1,daily=RES1_2,status=variable
new load.3001291314M1 bus1=RML1050659610.2.0,Phases=1,kv=0.127,kW=0.4026,pf=0.92,Vminpu=0.92,Vmaxpu=1.5,model=1,daily=RES1_2,status=variable
new load.3001291315M1 bus1=RML1050659596.2.0,Phases=1,kv=0.127,kW=1.51862,pf=0.92,Vminpu=0.92,Vmaxpu=1.5,model=1,daily=RES2_4,status=variable
new load.3001291316M1 bus1=RML1050659589.1.0,Phases=1,kv=0.127,kW=1.07648,pf=0.92,Vminpu=0.92,Vmaxpu=1.5,model=1,daily=RES2_4,status=variable
new load.3001291317M1 bus1=RML1050659603.3.0,Phases=1,kv=0.127,kW=0.47096,pf=0.92,Vminpu=0.92,Vmaxpu=1.5,model=1,daily=RES2_4,status=variable
new load.3001291318M1 bus1=RML1050659617.2.0,Phases=1,kv=0.127,kW=1.21104,pf=0.92,Vminpu=0.92,Vmaxpu=1.5,model=1,daily=RES2_4,status=variable