new line.10001088 bus1=BBT145051785.1.2.0,bus2=BBT145051792.1.2.0,Phases=2,Linecode=BT518_BT518_7_2_1,Length=0.000501000,Units=km
new line.10001466 bus1=BBT145055383.1.2.0,bus2=BBT145055390.1.2.0,Phases=2,Linecode=BT518_BT518_7_2_1,Length=0.000501000,Units=km
new line.10006576 bus1=BBT2811403.1.2.0,bus2=BBT145230376.1.2.0,Phases=2,Linecode=BT803_BT803_4_2_4,Length=0.033073000,Units=km
new line.10006583 bus1=BBT145230376.1.2.0,bus2=BBT145230516.1.2.0,Phases=2,Linecode=BT803_BT803_4_2_4,Length=0.033028000,Units=km
new line.10006590 bus1=BBT145230516.1.2.0,bus2=BBT145230523.1.2.0,Phases=2,Linecode=BT803_BT803_4_2_4,Length=0.042016000,Units=km
new line.10006597 bus1=BBT145230523.1.2.0,bus2=BBT145230663.1.2.0,Phases=2,Linecode=BT803_BT803_4_2_4,Length=0.037671000,Units=km
new line.10008228 bus1=BBT145276436.1.2.0,bus2=BBT145276443.1.2.0,Phases=2,Linecode=BT513_BT513_7_2_1,Length=0.000501000,Units=km
new line.10013345 bus1=BBT145450736.1.2.0,bus2=BBT145450743.1.2.0,Phases=2,Linecode=BT518_BT518_7_2_1,Length=0.000501000,Units=km
new line.10014241 bus1=BBT143911121.1.2.0,bus2=BBT145475138.1.2.0,Phases=2,Linecode=BT803_BT803_4_2_4,Length=0.035126000,Units=km
new line.10014255 bus1=BBT145475138.1.2.0,bus2=BBT145475152.1.2.0,Phases=2,Linecode=BT803_BT803_4_2_4,Length=0.035126000,Units=km
new line.10015298 bus1=BBT145514695.1.2.0,bus2=BBT145514702.1.2.0,Phases=2,Linecode=BT513_BT513_7_2_1,Length=0.000501000,Units=km
new line.10015361 bus1=BBT145517831.1.2.0,bus2=BBT145517838.1.2.0,Phases=2,Linecode=BT513_BT513_7_2_1,Length=0.000501000,Units=km
new line.10020366 bus1=BBT145690423.1.2.0,bus2=BBT145690430.1.2.0,Phases=2,Linecode=BT518_BT518_7_2_1,Length=0.000501000,Units=km
new line.10020450 bus1=BBT145690430.1.2.0,bus2=BBT145691676.1.2.0,Phases=2,Linecode=BT808_BT808_4_2_3,Length=0.026029000,Units=km
new line.10020464 bus1=BBT145691676.1.2.0,bus2=BBT145691690.1.2.0,Phases=2,Linecode=BT808_BT808_4_2_3,Length=0.042560000,Units=km
new line.10020478 bus1=BBT145691690.1.2.0,bus2=BBT145691704.1.2.0,Phases=2,Linecode=BT808_BT808_4_2_3,Length=0.038290000,Units=km
new line.18734422 bus1=BBT149497527.1.2.0,bus2=BBT149497528.1.2.0,Phases=2,Linecode=BT518_BT518_7_2_1,Length=0.000501000,Units=km
new line.18736253 bus1=BBT478163.1.2.0,bus2=BBT149570312.1.2.0,Phases=2,Linecode=BT801_BT801_4_2_3,Length=0.030277000,Units=km
new line.18736445 bus1=BBT150633407.1.2.0,bus2=BBT150633408.1.2.0,Phases=2,Linecode=BT518_BT518_7_2_1,Length=0.000501000,Units=km
new line.18736528 bus1=BBT150654088.1.2.0,bus2=BBT150654089.1.2.0,Phases=2,Linecode=BT518_BT518_7_2_1,Length=0.000501000,Units=km
new line.18737769 bus1=BBT150301271.1.2.0,bus2=BBT150301272.1.2.0,Phases=2,Linecode=BT518_BT518_7_2_1,Length=0.000501000,Units=km
new line.18738741 bus1=BBT149650745.1.2.0,bus2=BBT3191377.1.2.0,Phases=2,Linecode=BT801_BT801_4_2_3,Length=0.014147000,Units=km
new line.18740458 bus1=BBT149698805.1.2.0,bus2=BBT448455.1.2.0,Phases=2,Linecode=BT518_BT518_7_2_1,Length=0.000501000,Units=km
new line.18740459 bus1=BBT448462.1.2.0,bus2=BBT149698839.1.2.0,Phases=2,Linecode=BT803_BT803_4_2_4,Length=0.026430000,Units=km
new line.18740494 bus1=BBT149702533.1.2.0,bus2=BBT149702534.1.2.0,Phases=2,Linecode=BT518_BT518_7_2_1,Length=0.000501000,Units=km
new line.18741178 bus1=BBT130458087.1.2.3.0,bus2=BBT149722590.1.2.3.0,Phases=3,Linecode=BT803_BT803_4_3_4,Length=0.028854000,Units=km
new line.18741179 bus1=BBT149722590.1.2.3.0,bus2=BBT149722591.1.2.3.0,Phases=3,Linecode=BT803_BT803_4_3_4,Length=0.032260000,Units=km
new line.18741180 bus1=BBT149722591.1.2.3.0,bus2=BBT149722617.1.2.3.0,Phases=3,Linecode=BT803_BT803_4_3_4,Length=0.030010000,Units=km
new line.18741573 bus1=BBT149734071.1.2.3.0,bus2=BBT431032.1.2.3.0,Phases=3,Linecode=BT521_BT521_7_3_1,Length=0.000501000,Units=km
new line.18741585 bus1=BBT149734240.1.2.0,bus2=BBT149734241.1.2.0,Phases=2,Linecode=BT518_BT518_7_2_1,Length=0.000501000,Units=km
new line.18742326 bus1=BBT149749668.1.2.3.0,bus2=BBT115900446.1.2.3.0,Phases=3,Linecode=BT518_BT518_7_3_1,Length=0.000501000,Units=km
new line.18742384 bus1=BBT149750316.1.2.3.0,bus2=BBT172510524.1.2.3.0,Phases=3,Linecode=BT803_BT803_4_3_4,Length=0.020622000,Units=km
new line.18742385 bus1=BBT149750336.1.2.3.0,bus2=BBT149750316.1.2.3.0,Phases=3,Linecode=BT803_BT803_4_3_4,Length=0.034246000,Units=km
new line.18742386 bus1=BBT149750345.1.2.3.0,bus2=BBT149750336.1.2.3.0,Phases=3,Linecode=BT803_BT803_4_3_4,Length=0.034026000,Units=km
new line.18744512 bus1=BBT149799222.1.2.3.0,bus2=BBT3029628.1.2.3.0,Phases=3,Linecode=BT108_BT108_7_3_1,Length=0.010004000,Units=km
new line.18744582 bus1=BBT2830940.1.2.0,bus2=BBT149800799.1.2.0,Phases=2,Linecode=BT808_BT808_4_2_3,Length=0.032215000,Units=km
new line.18744587 bus1=BBT149800799.1.2.0,bus2=BBT149800825.1.2.0,Phases=2,Linecode=BT808_BT808_4_2_3,Length=0.033119000,Units=km
new line.18745028 bus1=BBT149811298.1.2.0,bus2=BBT149811299.1.2.0,Phases=2,Linecode=BT518_BT518_7_2_1,Length=0.000501000,Units=km
new line.18746257 bus1=BBT149841488.1.2.0,bus2=BBT149841489.1.2.0,Phases=2,Linecode=BT518_BT518_7_2_1,Length=0.000501000,Units=km
new line.18815966 bus1=BBT151974813.1.2.3.0,bus2=BBT151974814.1.2.3.0,Phases=3,Linecode=BT518_BT518_7_3_1,Length=0.000501000,Units=km
new line.18815967 bus1=BBT151974814.1.2.3.0,bus2=BBT151974821.1.2.3.0,Phases=3,Linecode=BT803_BT803_4_3_4,Length=0.025641000,Units=km
new line.18815968 bus1=BBT151974821.1.2.3.0,bus2=BBT151974826.1.2.3.0,Phases=3,Linecode=BT803_BT803_4_3_4,Length=0.026935000,Units=km
new line.18815969 bus1=BBT151974826.1.2.3.0,bus2=BBT151974834.1.2.3.0,Phases=3,Linecode=BT803_BT803_4_3_4,Length=0.027028000,Units=km
new line.18815970 bus1=BBT151974834.1.2.3.0,bus2=BBT151974841.1.2.3.0,Phases=3,Linecode=BT803_BT803_4_3_4,Length=0.026917000,Units=km
new line.18815971 bus1=BBT151974841.1.2.3.0,bus2=BBT151974842.1.2.3.0,Phases=3,Linecode=BT803_BT803_4_3_4,Length=0.027669000,Units=km
new line.18815972 bus1=BBT151974842.1.2.3.0,bus2=BBT151974843.1.2.3.0,Phases=3,Linecode=BT803_BT803_4_3_4,Length=0.027669000,Units=km
new line.18815973 bus1=BBT151974814.1.2.3.0,bus2=BBT151974851.1.2.3.0,Phases=3,Linecode=BT803_BT803_4_3_4,Length=0.026935000,Units=km
new line.18815974 bus1=BBT151974851.1.2.3.0,bus2=BBT151974852.1.2.3.0,Phases=3,Linecode=BT803_BT803_4_3_4,Length=0.031396000,Units=km
new line.18815975 bus1=BBT151974852.1.2.3.0,bus2=BBT151974853.1.2.3.0,Phases=3,Linecode=BT803_BT803_4_3_4,Length=0.034027000,Units=km
new line.18815976 bus1=BBT151974851.1.2.3.0,bus2=BBT151974854.1.2.3.0,Phases=3,Linecode=BT803_BT803_4_3_4,Length=0.021548000,Units=km
new line.18815977 bus1=BBT151974854.1.2.3.0,bus2=BBT151974855.1.2.3.0,Phases=3,Linecode=BT803_BT803_4_3_4,Length=0.030474000,Units=km
new line.18815978 bus1=BBT151974855.1.2.3.0,bus2=BBT151974856.1.2.3.0,Phases=3,Linecode=BT803_BT803_4_3_4,Length=0.018392000,Units=km
new line.18815979 bus1=BBT151974855.1.2.3.0,bus2=BBT151974857.1.2.3.0,Phases=3,Linecode=BT803_BT803_4_3_4,Length=0.030474000,Units=km
new line.18815980 bus1=BBT151974857.1.2.3.0,bus2=BBT151974865.1.2.3.0,Phases=3,Linecode=BT803_BT803_4_3_4,Length=0.035860000,Units=km
new line.18815981 bus1=BBT151974855.1.2.3.0,bus2=BBT151974866.1.2.3.0,Phases=3,Linecode=BT803_BT803_4_3_4,Length=0.033627000,Units=km
new line.18711246 bus1=BBT148861776.1.2.0,bus2=BBT148861777.1.2.0,Phases=2,Linecode=BT518_BT518_7_2_1,Length=0.000501000,Units=km
new line.18714596 bus1=BBT150289120.1.2.0,bus2=BBT150289121.1.2.0,Phases=2,Linecode=BT518_BT518_7_2_1,Length=0.000501000,Units=km
new line.18715091 bus1=BBT150164694.1.2.0,bus2=BBT150164695.1.2.0,Phases=2,Linecode=BT513_BT513_7_2_1,Length=0.000501000,Units=km
new line.18715232 bus1=BBT148983200.1.2.0,bus2=BBT148983201.1.2.0,Phases=2,Linecode=BT518_BT518_7_2_1,Length=0.000501000,Units=km
new line.18715248 bus1=BBT148984438.1.2.0,bus2=BBT148984439.1.2.0,Phases=2,Linecode=BT518_BT518_7_2_1,Length=0.000501000,Units=km
new line.18718771 bus1=BBT431025.1.2.3.0,bus2=BBT150917776.1.2.3.0,Phases=3,Linecode=BT810_BT810_4_3_4,Length=0.016285000,Units=km
new line.18718896 bus1=BBT150003530.1.2.3.0,bus2=BBT150003531.1.2.3.0,Phases=3,Linecode=BT518_BT518_7_3_1,Length=0.000501000,Units=km
new line.18722045 bus1=BBT149180758.1.2.0,bus2=BBT149180759.1.2.0,Phases=2,Linecode=BT518_BT518_7_2_1,Length=0.000501000,Units=km
new line.18722046 bus1=BBT149180759.1.2.0,bus2=BBT149180774.1.2.0,Phases=2,Linecode=BT803_BT803_4_2_4,Length=0.039840000,Units=km
new line.18722047 bus1=BBT149180774.1.2.0,bus2=BBT149180775.1.2.0,Phases=2,Linecode=BT803_BT803_4_2_4,Length=0.039220000,Units=km
new line.18722048 bus1=BBT149180759.1.2.0,bus2=BBT149180789.1.2.0,Phases=2,Linecode=BT803_BT803_4_2_4,Length=0.028172000,Units=km
new line.18722064 bus1=BBT149180789.1.2.0,bus2=BBT149181544.1.2.0,Phases=2,Linecode=BT803_BT803_4_2_4,Length=0.030029000,Units=km
new line.18722075 bus1=BBT149181544.1.2.0,bus2=BBT149181617.1.2.0,Phases=2,Linecode=BT803_BT803_4_2_4,Length=0.036702000,Units=km
new line.18803699 bus1=BBT151602826.1.2.0,bus2=BBT151602827.1.2.0,Phases=2,Linecode=BT518_BT518_7_2_1,Length=0.000501000,Units=km
new line.18804876 bus1=BBT151634486.1.2.0,bus2=BBT151634487.1.2.0,Phases=2,Linecode=BT518_BT518_7_2_1,Length=0.000501000,Units=km
new line.18804939 bus1=BBT151635608.1.2.0,bus2=BBT151635609.1.2.0,Phases=2,Linecode=BT518_BT518_7_2_1,Length=0.000501000,Units=km
new line.18808682 bus1=BBT151728918.1.2.0,bus2=BBT151728919.1.2.0,Phases=2,Linecode=BT518_BT518_7_2_1,Length=0.000501000,Units=km
new line.18808683 bus1=BBT151728919.1.2.0,bus2=BBT151729081.1.2.0,Phases=2,Linecode=BT810_BT810_4_2_4,Length=0.036359000,Units=km
new line.18810028 bus1=BBT151771777.1.2.0,bus2=BBT151771778.1.2.0,Phases=2,Linecode=BT518_BT518_7_2_1,Length=0.000501000,Units=km
new line.18810279 bus1=BBT151778738.1.2.0,bus2=BBT151778739.1.2.0,Phases=2,Linecode=BT518_BT518_7_2_1,Length=0.000501000,Units=km
new line.18813431 bus1=BBT415646.1.2.0,bus2=BBT151882370.1.2.0,Phases=2,Linecode=BT807_BT807_4_2_3,Length=0.038962000,Units=km
new line.18813432 bus1=BBT151882370.1.2.0,bus2=BBT151882371.1.2.0,Phases=2,Linecode=BT807_BT807_4_2_3,Length=0.036248000,Units=km
new line.18813433 bus1=BBT151882371.1.2.0,bus2=BBT151882399.1.2.0,Phases=2,Linecode=BT807_BT807_4_2_3,Length=0.035859000,Units=km
new line.18813501 bus1=BBT423353.1.2.3.0,bus2=BBT151886334.1.2.3.0,Phases=3,Linecode=BT803_BT803_4_3_4,Length=0.025089000,Units=km
new line.18813502 bus1=BBT151886334.1.2.3.0,bus2=BBT151886345.1.2.3.0,Phases=3,Linecode=BT803_BT803_4_3_4,Length=0.021940000,Units=km
new line.18813511 bus1=BBT151886790.1.2.3.0,bus2=BBT151886791.1.2.3.0,Phases=3,Linecode=BT518_BT518_7_3_1,Length=0.000501000,Units=km
new line.18813512 bus1=BBT151886791.1.2.3.0,bus2=BBT151886809.1.2.3.0,Phases=3,Linecode=BT803_BT803_4_3_4,Length=0.044118000,Units=km
new line.18813513 bus1=BBT151886809.1.2.3.0,bus2=BBT151886810.1.2.3.0,Phases=3,Linecode=BT803_BT803_4_3_4,Length=0.046878000,Units=km
new line.18813514 bus1=BBT151886791.1.2.3.0,bus2=BBT151886811.1.2.3.0,Phases=3,Linecode=BT803_BT803_4_3_4,Length=0.046664000,Units=km
new line.18813515 bus1=BBT151886811.1.2.3.0,bus2=BBT151886827.1.2.3.0,Phases=3,Linecode=BT803_BT803_4_3_4,Length=0.044423000,Units=km
new line.18813516 bus1=BBT151886827.1.2.3.0,bus2=BBT151886837.1.2.3.0,Phases=3,Linecode=BT803_BT803_4_3_4,Length=0.029709000,Units=km
new line.18813517 bus1=BBT151886837.1.2.3.0,bus2=BBT151886838.1.2.3.0,Phases=3,Linecode=BT803_BT803_4_3_4,Length=0.033627000,Units=km
new line.18813651 bus1=BBT151893496.1.2.3.0,bus2=BBT151893497.1.2.3.0,Phases=3,Linecode=BT518_BT518_7_3_1,Length=0.000501000,Units=km
new line.18813661 bus1=BBT151893497.1.2.3.0,bus2=BBT151894118.1.2.3.0,Phases=3,Linecode=BT803_BT803_4_3_4,Length=0.034422000,Units=km
new line.18813662 bus1=BBT151893497.1.2.3.0,bus2=BBT151894185.1.2.3.0,Phases=3,Linecode=BT803_BT803_4_3_4,Length=0.040375000,Units=km
new line.18813663 bus1=BBT151894185.1.2.3.0,bus2=BBT151894261.1.2.3.0,Phases=3,Linecode=BT803_BT803_4_3_4,Length=0.041884000,Units=km
new line.18813664 bus1=BBT151894261.1.2.3.0,bus2=BBT151894265.1.2.3.0,Phases=3,Linecode=BT803_BT803_4_3_4,Length=0.041197000,Units=km
new line.18813675 bus1=BBT151894265.1.2.3.0,bus2=BBT151894526.1.2.3.0,Phases=3,Linecode=BT803_BT803_4_3_4,Length=0.035481000,Units=km
new line.18814431 bus1=BBT415695.1.2.0,bus2=BBT151921832.1.2.0,Phases=2,Linecode=BT803_BT803_4_2_4,Length=0.039460000,Units=km
new line.18814432 bus1=BBT151921832.1.2.0,bus2=BBT151921879.1.2.0,Phases=2,Linecode=BT803_BT803_4_2_4,Length=0.019730000,Units=km
new line.18814433 bus1=BBT415695.1.2.0,bus2=BBT151921880.1.2.0,Phases=2,Linecode=BT803_BT803_4_2_4,Length=0.036262000,Units=km
new line.18814435 bus1=BBT151921880.1.2.0,bus2=BBT151921920.1.2.0,Phases=2,Linecode=BT803_BT803_4_2_4,Length=0.034998000,Units=km
new line.18899495 bus1=BBT154497871.1.2.0,bus2=BBT154497872.1.2.0,Phases=2,Linecode=BT518_BT518_7_2_1,Length=0.000501000,Units=km
new line.18899917 bus1=BBT154516365.1.2.0,bus2=BBT154516366.1.2.0,Phases=2,Linecode=BT518_BT518_7_2_1,Length=0.000501000,Units=km
new line.18900114 bus1=BBT154525305.1.2.0,bus2=BBT154525306.1.2.0,Phases=2,Linecode=BT513_BT513_7_2_1,Length=0.000501000,Units=km
new line.18901423 bus1=BBT154566790.1.2.0,bus2=BBT154566791.1.2.0,Phases=2,Linecode=BT518_BT518_7_2_1,Length=0.000501000,Units=km
new line.18901911 bus1=BBT154578492.1.2.0,bus2=BBT154578493.1.2.0,Phases=2,Linecode=BT518_BT518_7_2_1,Length=0.000501000,Units=km
new line.18903011 bus1=BBT154616144.1.2.0,bus2=BBT154616145.1.2.0,Phases=2,Linecode=BT518_BT518_7_2_1,Length=0.000501000,Units=km
new line.18903178 bus1=BBT154625542.1.2.0,bus2=BBT154625543.1.2.0,Phases=2,Linecode=BT518_BT518_7_2_1,Length=0.000501000,Units=km
new line.18903527 bus1=BBT154632998.1.2.0,bus2=BBT154632999.1.2.0,Phases=2,Linecode=BT518_BT518_7_2_1,Length=0.000501000,Units=km
new line.18903730 bus1=BBT154637823.1.2.0,bus2=BBT154637824.1.2.0,Phases=2,Linecode=BT518_BT518_7_2_1,Length=0.000501000,Units=km
new line.18904420 bus1=BBT154658066.1.2.0,bus2=BBT154658067.1.2.0,Phases=2,Linecode=BT518_BT518_7_2_1,Length=0.000501000,Units=km
new line.18904610 bus1=BBT154662127.1.2.3.0,bus2=BBT395563.1.2.3.0,Phases=3,Linecode=BT518_BT518_7_3_1,Length=0.000501000,Units=km
new line.18905066 bus1=BBT154676889.1.2.0,bus2=BBT154676890.1.2.0,Phases=2,Linecode=BT518_BT518_7_2_1,Length=0.000501000,Units=km
new line.18905292 bus1=BBT154683300.1.2.0,bus2=BBT154683301.1.2.0,Phases=2,Linecode=BT518_BT518_7_2_1,Length=0.000501000,Units=km
new line.10034534 bus1=BBT145981133.1.2.0,bus2=BBT145981140.1.2.0,Phases=2,Linecode=BT518_BT518_7_2_1,Length=0.000501000,Units=km
new line.10034590 bus1=BBT145981140.1.2.0,bus2=BBT145981476.1.2.0,Phases=2,Linecode=BT808_BT808_4_2_3,Length=0.010821000,Units=km
new line.10035836 bus1=BBT146006326.1.2.0,bus2=BBT146006333.1.2.0,Phases=2,Linecode=BT513_BT513_7_2_1,Length=0.000501000,Units=km
new line.10037362 bus1=BBT146040605.1.2.0,bus2=BBT146040612.1.2.0,Phases=2,Linecode=BT518_BT518_7_2_1,Length=0.000501000,Units=km
new line.10054190 bus1=BBT148241996.1.2.0,bus2=BBT148241997.1.2.0,Phases=2,Linecode=BT518_BT518_7_2_1,Length=0.000501000,Units=km
new line.18684716 bus1=BBT149150966.1.2.0,bus2=BBT149150967.1.2.0,Phases=2,Linecode=BT518_BT518_7_2_1,Length=0.000501000,Units=km
new line.18850512 bus1=BBT153002511.1.2.0,bus2=BBT153002512.1.2.0,Phases=2,Linecode=BT513_BT513_7_2_1,Length=0.000501000,Units=km
new line.18854350 bus1=BBT153102648.1.2.0,bus2=BBT153102649.1.2.0,Phases=2,Linecode=BT518_BT518_7_2_1,Length=0.000501000,Units=km
new line.18855696 bus1=BBT153136315.1.2.0,bus2=BBT153136316.1.2.0,Phases=2,Linecode=BT518_BT518_7_2_1,Length=0.000501000,Units=km
new line.18855755 bus1=BBT153137287.1.2.0,bus2=BBT153137288.1.2.0,Phases=2,Linecode=BT518_BT518_7_2_1,Length=0.000501000,Units=km
new line.18856683 bus1=BBT153166021.1.2.0,bus2=BBT153166022.1.2.0,Phases=2,Linecode=BT518_BT518_7_2_1,Length=0.000501000,Units=km
new line.18857167 bus1=BBT153177489.1.2.0,bus2=BBT153177490.1.2.0,Phases=2,Linecode=BT518_BT518_7_2_1,Length=0.000501000,Units=km
new line.18857279 bus1=BBT153179912.1.2.0,bus2=BBT4747883.1.2.0,Phases=2,Linecode=BT518_BT518_7_2_1,Length=0.000501000,Units=km
new line.18857286 bus1=BBT4747897.1.2.0,bus2=BBT153180101.1.2.0,Phases=2,Linecode=BT807_BT807_4_2_3,Length=0.025089000,Units=km
new line.18857287 bus1=BBT153180101.1.2.0,bus2=BBT153180111.1.2.0,Phases=2,Linecode=BT807_BT807_4_2_3,Length=0.031903000,Units=km
new line.18857291 bus1=BBT153180208.1.2.0,bus2=BBT153180209.1.2.0,Phases=2,Linecode=BT518_BT518_7_2_1,Length=0.000501000,Units=km
new line.18857606 bus1=BBT153187569.1.2.0,bus2=BBT153187570.1.2.0,Phases=2,Linecode=BT518_BT518_7_2_1,Length=0.000501000,Units=km
new line.18858868 bus1=BBT100977650.1.2.0,bus2=BBT153229715.1.2.0,Phases=2,Linecode=BT808_BT808_4_2_3,Length=0.034247000,Units=km
new line.18858869 bus1=BBT153229715.1.2.0,bus2=BBT153229718.1.2.0,Phases=2,Linecode=BT808_BT808_4_2_3,Length=0.048525000,Units=km
new line.18860871 bus1=BBT153278335.1.2.0,bus2=BBT153278336.1.2.0,Phases=2,Linecode=BT518_BT518_7_2_1,Length=0.000501000,Units=km
new line.18949238 bus1=BBT156045474.1.2.3.0,bus2=BBT156045475.1.2.3.0,Phases=3,Linecode=BT518_BT518_7_3_1,Length=0.000501000,Units=km
new line.18951163 bus1=BBT165649843.1.2.0,bus2=BBT165649844.1.2.0,Phases=2,Linecode=BT513_BT513_7_2_1,Length=0.000501000,Units=km
new line.18951164 bus1=BBT165649844.1.2.0,bus2=BBT165649845.1.2.0,Phases=2,Linecode=BT807_BT807_4_2_3,Length=0.039013000,Units=km
new line.18951167 bus1=BBT165649845.1.2.0,bus2=BBT165649846.1.2.0,Phases=2,Linecode=BT807_BT807_4_2_3,Length=0.044422000,Units=km
new line.18951168 bus1=BBT165649846.1.2.0,bus2=BBT172992782.1.2.0,Phases=2,Linecode=BT807_BT807_4_2_3,Length=0.022143000,Units=km
new line.18951169 bus1=BBT165649844.1.2.0,bus2=BBT165649860.1.2.0,Phases=2,Linecode=BT807_BT807_4_2_3,Length=0.043026000,Units=km
new line.18951170 bus1=BBT165649860.1.2.0,bus2=BBT165649861.1.2.0,Phases=2,Linecode=BT807_BT807_4_2_3,Length=0.035522000,Units=km
new line.18951171 bus1=BBT165649861.1.2.0,bus2=BBT165649862.1.2.0,Phases=2,Linecode=BT807_BT807_4_2_3,Length=0.030816000,Units=km
new line.18951212 bus1=BBT115900425.1.2.3.0,bus2=BBT156086320.1.2.3.0,Phases=3,Linecode=BT803_BT803_4_3_4,Length=0.034681000,Units=km
new line.18951222 bus1=BBT156086430.1.2.0,bus2=BBT156086431.1.2.0,Phases=2,Linecode=BT505_BT505_7_2_1,Length=0.000501000,Units=km
new line.18951558 bus1=BBT156101080.1.2.0,bus2=BBT156101081.1.2.0,Phases=2,Linecode=BT518_BT518_7_2_1,Length=0.000501000,Units=km
new line.18951842 bus1=BBT3344173.1.2.3.0,bus2=BBT156113094.1.2.3.0,Phases=3,Linecode=BT803_BT803_4_3_4,Length=0.041450000,Units=km
new line.18951845 bus1=BBT156113265.1.2.0,bus2=BBT455826.1.2.0,Phases=2,Linecode=BT801_BT801_4_2_3,Length=0.024847000,Units=km
new line.18952984 bus1=BBT452025.1.2.3.0,bus2=BBT156141038.1.2.3.0,Phases=3,Linecode=BT803_BT803_4_3_4,Length=0.038025000,Units=km
new line.18952985 bus1=BBT156141038.1.2.3.0,bus2=BBT156141039.1.2.3.0,Phases=3,Linecode=BT803_BT803_4_3_4,Length=0.032212000,Units=km
new line.18953711 bus1=BBT156162564.1.2.0,bus2=BBT2825228.1.2.0,Phases=2,Linecode=BT106_BT106_7_2_1,Length=0.056741000,Units=km
new line.18954420 bus1=BBT2913162.1.2.0,bus2=BBT160365345.1.2.0,Phases=2,Linecode=BT807_BT807_4_2_3,Length=0.041016000,Units=km
new line.18954421 bus1=BBT160365345.1.2.0,bus2=BBT160365346.1.2.0,Phases=2,Linecode=BT807_BT807_4_2_3,Length=0.021009000,Units=km
new line.18954429 bus1=BBT160365442.1.2.0,bus2=BBT2913134.1.2.0,Phases=2,Linecode=BT513_BT513_7_2_1,Length=0.000501000,Units=km
new line.19019060 bus1=BBT393505.1.2.3.0,bus2=BBT157988868.1.2.3.0,Phases=3,Linecode=BT803_BT803_4_3_4,Length=0.034897000,Units=km
new line.19019061 bus1=BBT157988868.1.2.3.0,bus2=BBT157988889.1.2.3.0,Phases=3,Linecode=BT803_BT803_4_3_4,Length=0.028871000,Units=km
new line.19019062 bus1=BBT157988889.1.2.3.0,bus2=BBT157988890.1.2.3.0,Phases=3,Linecode=BT803_BT803_4_3_4,Length=0.038923000,Units=km
new line.19019152 bus1=BBT434301.1.2.3.0,bus2=BBT162401173.1.2.3.0,Phases=3,Linecode=BT803_BT803_4_3_4,Length=0.026010000,Units=km
new line.19019153 bus1=BBT162401173.1.2.3.0,bus2=BBT162401174.1.2.3.0,Phases=3,Linecode=BT803_BT803_4_3_4,Length=0.034452000,Units=km
new line.19019161 bus1=BBT162401173.1.2.3.0,bus2=BBT162401181.1.2.3.0,Phases=3,Linecode=BT803_BT803_4_3_4,Length=0.035369000,Units=km
new line.19019475 bus1=BBT158002894.1.2.3.0,bus2=BBT158002895.1.2.3.0,Phases=3,Linecode=BT518_BT518_7_3_1,Length=0.000501000,Units=km
new line.19019815 bus1=BBT158008811.1.2.0,bus2=BBT158008812.1.2.0,Phases=2,Linecode=BT517_BT517_7_2_1,Length=0.000501000,Units=km
new line.19020103 bus1=BBT453397.1.2.3.0,bus2=BBT167985899.1.2.3.0,Phases=3,Linecode=BT810_BT810_4_3_4,Length=0.031394000,Units=km
new line.19021515 bus1=BBT162401174.1.2.3.0,bus2=BBT162401215.1.2.3.0,Phases=3,Linecode=BT803_BT803_4_3_4,Length=0.015238000,Units=km
new line.19021516 bus1=BBT162401215.1.2.3.0,bus2=BBT162401216.1.2.3.0,Phases=3,Linecode=BT803_BT803_4_3_4,Length=0.028664000,Units=km
new line.19021518 bus1=BBT162401216.1.2.3.0,bus2=BBT162401217.1.2.3.0,Phases=3,Linecode=BT803_BT803_4_3_4,Length=0.037136000,Units=km
new line.19021551 bus1=BBT162401181.1.2.3.0,bus2=BBT162401227.1.2.3.0,Phases=3,Linecode=BT803_BT803_4_3_4,Length=0.015270000,Units=km
new line.19021552 bus1=BBT162401227.1.2.3.0,bus2=BBT162401228.1.2.3.0,Phases=3,Linecode=BT803_BT803_4_3_4,Length=0.029541000,Units=km
new line.19021559 bus1=BBT162401228.1.2.3.0,bus2=BBT162401229.1.2.3.0,Phases=3,Linecode=BT803_BT803_4_3_4,Length=0.035791000,Units=km
new line.19023154 bus1=BBT162401415.1.2.3.0,bus2=BBT434315.1.2.3.0,Phases=3,Linecode=BT518_BT518_7_3_1,Length=0.000501000,Units=km
new line.18687631 bus1=BBT149867020.1.2.0,bus2=BBT149867021.1.2.0,Phases=2,Linecode=BT518_BT518_7_2_1,Length=0.000501000,Units=km
new line.18688110 bus1=BBT149651082.1.2.0,bus2=BBT149651083.1.2.0,Phases=2,Linecode=BT518_BT518_7_2_1,Length=0.000501000,Units=km
new line.18693903 bus1=BBT115900453.1.2.3.0,bus2=BBT148379421.1.2.3.0,Phases=3,Linecode=BT803_BT803_4_3_4,Length=0.030897000,Units=km
new line.18693904 bus1=BBT148379421.1.2.3.0,bus2=BBT148379422.1.2.3.0,Phases=3,Linecode=BT803_BT803_4_3_4,Length=0.031775000,Units=km
new line.18694796 bus1=BBT492422.1.2.0,bus2=BBT148410983.1.2.0,Phases=2,Linecode=BT808_BT808_4_2_3,Length=0.030094000,Units=km
new line.18770956 bus1=BBT2602292.1.2.0,bus2=BBT150575421.1.2.0,Phases=2,Linecode=BT808_BT808_4_2_3,Length=0.039474000,Units=km
new line.18770957 bus1=BBT150575421.1.2.0,bus2=BBT150575422.1.2.0,Phases=2,Linecode=BT808_BT808_4_2_3,Length=0.045017000,Units=km
new line.18772852 bus1=BBT449813.1.2.3.0,bus2=BBT150644606.1.2.3.0,Phases=3,Linecode=BT803_BT803_4_3_4,Length=0.015626000,Units=km
new line.18885098 bus1=BBT153992866.1.2.3.0,bus2=BBT417501.1.2.3.0,Phases=3,Linecode=BT518_BT518_7_3_1,Length=0.000501000,Units=km
new line.18885257 bus1=BBT153998908.1.2.0,bus2=BBT153998909.1.2.0,Phases=2,Linecode=BT518_BT518_7_2_1,Length=0.000501000,Units=km
new line.18885480 bus1=BBT154008275.1.2.3.0,bus2=BBT3003560.1.2.3.0,Phases=3,Linecode=BT518_BT518_7_3_1,Length=0.000501000,Units=km
new line.18886665 bus1=BBT154046017.1.2.0,bus2=BBT154046018.1.2.0,Phases=2,Linecode=BT518_BT518_7_2_1,Length=0.000501000,Units=km
new line.18889515 bus1=BBT154126785.1.2.0,bus2=BBT154126786.1.2.0,Phases=2,Linecode=BT518_BT518_7_2_1,Length=0.000501000,Units=km
new line.18889734 bus1=BBT154133666.1.2.0,bus2=BBT154133667.1.2.0,Phases=2,Linecode=BT518_BT518_7_2_1,Length=0.000501000,Units=km
new line.18889978 bus1=BBT154140154.1.2.3.0,bus2=BBT470358.1.2.3.0,Phases=3,Linecode=BT803_BT803_4_3_4,Length=0.024092000,Units=km
new line.18890214 bus1=BBT154150527.1.2.0,bus2=BBT154150528.1.2.0,Phases=2,Linecode=BT518_BT518_7_2_1,Length=0.000501000,Units=km
new line.18890583 bus1=BBT443779.1.2.3.0,bus2=BBT154169110.1.2.3.0,Phases=3,Linecode=BT803_BT803_4_3_4,Length=0.032906000,Units=km
new line.18890716 bus1=BBT154175272.1.2.0,bus2=BBT154175273.1.2.0,Phases=2,Linecode=BT518_BT518_7_2_1,Length=0.000501000,Units=km
new line.18890717 bus1=BBT154175341.1.2.0,bus2=BBT154175342.1.2.0,Phases=2,Linecode=BT518_BT518_7_2_1,Length=0.000501000,Units=km
new line.18892506 bus1=BBT154233835.1.2.0,bus2=BBT154233836.1.2.0,Phases=2,Linecode=BT518_BT518_7_2_1,Length=0.000501000,Units=km
new line.18894074 bus1=BBT158550322.1.2.0,bus2=BBT158550323.1.2.0,Phases=2,Linecode=BT508_BT508_7_2_1,Length=0.000501000,Units=km
new line.18894269 bus1=BBT154314280.1.2.0,bus2=BBT154314281.1.2.0,Phases=2,Linecode=BT518_BT518_7_2_1,Length=0.000501000,Units=km
new line.18894293 bus1=BBT154316216.1.2.0,bus2=BBT448224.1.2.0,Phases=2,Linecode=BT513_BT513_7_2_1,Length=0.000501000,Units=km
new line.18896044 bus1=BBT154362633.1.2.0,bus2=BBT154362634.1.2.0,Phases=2,Linecode=BT518_BT518_7_2_1,Length=0.000501000,Units=km
new line.18896419 bus1=BBT154374361.1.2.0,bus2=BBT154374362.1.2.0,Phases=2,Linecode=BT513_BT513_7_2_1,Length=0.000501000,Units=km
new line.18896485 bus1=BBT154376458.1.2.0,bus2=BBT154376459.1.2.0,Phases=2,Linecode=BT518_BT518_7_2_1,Length=0.000501000,Units=km
new line.18896769 bus1=BBT154384492.1.2.0,bus2=BBT154384493.1.2.0,Phases=2,Linecode=BT518_BT518_7_2_1,Length=0.000501000,Units=km
new line.18896804 bus1=BBT154385635.1.2.0,bus2=BBT154385636.1.2.0,Phases=2,Linecode=BT518_BT518_7_2_1,Length=0.000501000,Units=km
new line.18896879 bus1=BBT154388281.1.2.0,bus2=BBT154388282.1.2.0,Phases=2,Linecode=BT518_BT518_7_2_1,Length=0.000501000,Units=km
new line.18971594 bus1=BBT3452666.1.2.3.0,bus2=BBT156668465.1.2.3.0,Phases=3,Linecode=BT803_BT803_4_3_4,Length=0.035367000,Units=km
new line.18971595 bus1=BBT156668465.1.2.3.0,bus2=BBT156668470.1.2.3.0,Phases=3,Linecode=BT803_BT803_4_3_4,Length=0.034667000,Units=km
new line.18973371 bus1=BBT167144335.1.2.3.0,bus2=BBT167144336.1.2.3.0,Phases=3,Linecode=BT518_BT518_7_3_1,Length=0.000501000,Units=km
new line.18973383 bus1=BBT167144336.1.2.3.0,bus2=BBT167144337.1.2.3.0,Phases=3,Linecode=BT803_BT803_4_3_4,Length=0.031791000,Units=km
new line.18973386 bus1=BBT167144337.1.2.3.0,bus2=BBT167144338.1.2.3.0,Phases=3,Linecode=BT803_BT803_4_3_4,Length=0.038846000,Units=km
new line.18973387 bus1=BBT167144338.1.2.3.0,bus2=BBT167144339.1.2.3.0,Phases=3,Linecode=BT803_BT803_4_3_4,Length=0.039573000,Units=km
new line.18973389 bus1=BBT167144337.1.2.3.0,bus2=BBT167144340.1.2.3.0,Phases=3,Linecode=BT803_BT803_4_3_4,Length=0.039637000,Units=km
new line.18973390 bus1=BBT167144340.1.2.3.0,bus2=BBT167144341.1.2.3.0,Phases=3,Linecode=BT803_BT803_4_3_4,Length=0.041245000,Units=km
new line.18974769 bus1=BBT156744399.1.2.0,bus2=BBT156744400.1.2.0,Phases=2,Linecode=BT518_BT518_7_2_1,Length=0.000501000,Units=km
new line.18975500 bus1=BBT425278.1.2.3.0,bus2=BBT156775628.1.2.3.0,Phases=3,Linecode=BT803_BT803_4_3_4,Length=0.034421000,Units=km
new line.18975503 bus1=BBT395969.1.2.3.0,bus2=BBT156775855.1.2.3.0,Phases=3,Linecode=BT803_BT803_4_3_4,Length=0.023778000,Units=km
new line.18975886 bus1=BBT156790190.1.2.0,bus2=BBT156790191.1.2.0,Phases=2,Linecode=BT518_BT518_7_2_1,Length=0.000501000,Units=km
new line.18981585 bus1=BBT156938735.1.2.0,bus2=BBT156938736.1.2.0,Phases=2,Linecode=BT518_BT518_7_2_1,Length=0.000501000,Units=km
new line.18981696 bus1=BBT156940278.1.2.0,bus2=BBT156940279.1.2.0,Phases=2,Linecode=BT513_BT513_7_2_1,Length=0.000501000,Units=km
new line.19033187 bus1=BBT4616437.1.2.0,bus2=BBT170012974.1.2.0,Phases=2,Linecode=BT807_BT807_4_2_3,Length=0.037711000,Units=km
new line.19035730 bus1=BBT155277762.1.2.3.0,bus2=BBT158435363.1.2.3.0,Phases=3,Linecode=BT810_BT810_4_3_4,Length=0.016130000,Units=km
new line.19036687 bus1=BBT453929.1.2.3.0,bus2=BBT162400285.1.2.3.0,Phases=3,Linecode=BT810_BT810_4_3_4,Length=0.008065000,Units=km
new line.19037178 bus1=BBT158479564.1.2.0,bus2=BBT158479565.1.2.0,Phases=2,Linecode=BT518_BT518_7_2_1,Length=0.000501000,Units=km
new line.19037567 bus1=BBT158499374.1.2.0,bus2=BBT158499375.1.2.0,Phases=2,Linecode=BT518_BT518_7_2_1,Length=0.000501000,Units=km
new line.19038996 bus1=BBT158548463.1.2.0,bus2=BBT158548464.1.2.0,Phases=2,Linecode=BT518_BT518_7_2_1,Length=0.000501000,Units=km
new line.19039072 bus1=BBT158550792.1.2.0,bus2=BBT158550793.1.2.0,Phases=2,Linecode=BT518_BT518_7_2_1,Length=0.000501000,Units=km
new line.19040058 bus1=BBT453936.1.2.3.0,bus2=BBT162400306.1.2.3.0,Phases=3,Linecode=BT810_BT810_4_3_4,Length=0.030423000,Units=km
new line.19040526 bus1=BBT158578934.1.2.0,bus2=BBT158578935.1.2.0,Phases=2,Linecode=BT518_BT518_7_2_1,Length=0.000501000,Units=km
new line.19040558 bus1=BBT158580490.1.2.0,bus2=BBT158580491.1.2.0,Phases=2,Linecode=BT518_BT518_7_2_1,Length=0.000501000,Units=km
new line.19040829 bus1=BBT158587032.1.2.0,bus2=BBT158587033.1.2.0,Phases=2,Linecode=BT518_BT518_7_2_1,Length=0.000501000,Units=km
new line.19041865 bus1=BBT168074745.1.2.0,bus2=BBT168074746.1.2.0,Phases=2,Linecode=BT518_BT518_7_2_1,Length=0.000501000,Units=km
new line.18815982 bus1=BBT151974866.1.2.3.0,bus2=BBT151974867.1.2.3.0,Phases=3,Linecode=BT803_BT803_4_3_4,Length=0.029557000,Units=km
new line.18815987 bus1=BBT6496665.1.2.0,bus2=BBT151975314.1.2.0,Phases=2,Linecode=BT807_BT807_4_2_3,Length=0.043432000,Units=km
new line.18820216 bus1=BBT152105220.1.2.0,bus2=BBT152105221.1.2.0,Phases=2,Linecode=BT518_BT518_7_2_1,Length=0.000501000,Units=km
new line.18822376 bus1=BBT152198591.1.2.0,bus2=BBT152198592.1.2.0,Phases=2,Linecode=BT518_BT518_7_2_1,Length=0.000501000,Units=km
new line.18822741 bus1=BBT152208035.1.2.0,bus2=BBT152208036.1.2.0,Phases=2,Linecode=BT518_BT518_7_2_1,Length=0.000501000,Units=km
new line.18822879 bus1=BBT152210359.1.2.0,bus2=BBT152210360.1.2.0,Phases=2,Linecode=BT518_BT518_7_2_1,Length=0.000501000,Units=km
new line.18824753 bus1=BBT152267301.1.2.0,bus2=BBT152267302.1.2.0,Phases=2,Linecode=BT518_BT518_7_2_1,Length=0.000501000,Units=km
new line.18825720 bus1=BBT152288439.1.2.3.0,bus2=BBT152288440.1.2.3.0,Phases=3,Linecode=BT514_BT514_7_3_1,Length=0.000501000,Units=km