new load.3009014910M1 bus1=BMT150312242.1.2.3.0,Phases=3,kv=13.8,kW=35.89818,pf=0.92,Vminpu=0.93,Vmaxpu=1.5,model=8,zipv=[0.5,0,0.5,1,0,0,0],daily=A4-2,status=variable
new load.3009014911M1 bus1=BMT122785296.1.2.3.0,Phases=3,kv=13.8,kW=12.76918,pf=0.92,Vminpu=0.93,Vmaxpu=1.5,model=8,zipv=[0.5,0,0.5,1,0,0,0],daily=A4-1,status=variable
new load.3009014924M1 bus1=BMT122798267.1.2.3.0,Phases=3,kv=13.8,kW=38.14182,pf=0.92,Vminpu=0.93,Vmaxpu=1.5,model=8,zipv=[0.5,0,0.5,1,0,0,0],daily=A4-2,status=variable
new load.3009017496M1 bus1=BMT157854279.1.2.3.0,Phases=3,kv=13.8,kW=116.3273,pf=0.92,Vminpu=0.93,Vmaxpu=1.5,model=8,zipv=[0.5,0,0.5,1,0,0,0],daily=A4-5,status=variable
new load.3011438517M1 bus1=BMT150312764.1.2.3.0,Phases=3,kv=13.8,kW=33.65454,pf=0.92,Vminpu=0.93,Vmaxpu=1.5,model=8,zipv=[0.5,0,0.5,1,0,0,0],daily=A4-2,status=variable
new load.3012400097M1 bus1=BMT171126856.1.2.3.0,Phases=3,kv=13.8,kW=6.38458,pf=0.92,Vminpu=0.93,Vmaxpu=1.5,model=8,zipv=[0.5,0,0.5,1,0,0,0],daily=A4-1,status=variable
new load.3012612616M1 bus1=BMT153784302.1.2.3.0,Phases=3,kv=13.8,kW=14.93806,pf=0.92,Vminpu=0.93,Vmaxpu=1.5,model=8,zipv=[0.5,0,0.5,1,0,0,0],daily=A4-4,status=variable
new load.3012906243M1 bus1=BMT167196493.1.2.3.0,Phases=3,kv=13.8,kW=2.09738,pf=0.92,Vminpu=0.93,Vmaxpu=1.5,model=8,zipv=[0.5,0,0.5,1,0,0,0],daily=A4-3,status=variable
new load.3013467783M1 bus1=BMT168298809.1.2.3.0,Phases=3,kv=13.8,kW=50.33732,pf=0.92,Vminpu=0.93,Vmaxpu=1.5,model=8,zipv=[0.5,0,0.5,1,0,0,0],daily=A4-3,status=variable
