new line.RML10036325 bus1=BBT3323814.3.0,bus2=RML1060036325.3.0,Phases=1,Linecode=CABBTG01_4_1,Length=0.017000000,Units=km
new line.RML10036425 bus1=BBT4474257.2.0,bus2=RML1060036425.2.0,Phases=1,Linecode=CABBTG01_4_1,Length=0.017000000,Units=km
new line.RML10036428 bus1=BBT440570.1.0,bus2=RML1060036428.1.0,Phases=1,Linecode=CABBTG01_4_1,Length=0.017000000,Units=km
new line.RML10036547 bus1=BBT241126.1.2.3.0,bus2=RML1060036547.1.2.3.0,Phases=3,Linecode=CABBTG06_4_3,Length=0.017000000,Units=km
new line.RML10037056 bus1=BBT245137.1.2.0,bus2=RML1060037056.1.2.0,Phases=2,Linecode=CABBTG04_4_2,Length=0.017000000,Units=km
new line.RML10038257 bus1=BBT4468440.2.0,bus2=RML1060038257.2.0,Phases=1,Linecode=CABBTG01_4_1,Length=0.017000000,Units=km
new line.RML10038270 bus1=BBT430875.1.2.0,bus2=RML1060038270.1.2.0,Phases=2,Linecode=CABBTG05_4_2,Length=0.017000000,Units=km
new line.RML10047896 bus1=BBT4468356.2.0,bus2=RML1060047896.2.0,Phases=1,Linecode=CABBTG01_4_1,Length=0.017000000,Units=km
new line.RML10048032 bus1=BBT3697509.2.0,bus2=RML1060048032.2.0,Phases=1,Linecode=CABBTG02_4_1,Length=0.018000000,Units=km
new line.RML10048053 bus1=BBT3697551.2.3.0,bus2=RML1060048053.2.3.0,Phases=2,Linecode=CABBTG05_4_2,Length=0.020000000,Units=km
new line.RML10048133 bus1=BBT3697432.3.0,bus2=RML1060048133.3.0,Phases=1,Linecode=CABBTG02_4_1,Length=0.020000000,Units=km
new line.RML10048409 bus1=BBT245130.1.2.0,bus2=RML1060048409.1.2.0,Phases=2,Linecode=CABBTG05_4_2,Length=0.024000000,Units=km
new line.RML10048420 bus1=BBT410603.1.0,bus2=RML1060048420.1.0,Phases=1,Linecode=CABBTG01_4_1,Length=0.014000000,Units=km
new line.RML10048613 bus1=BBT241924.1.2.0,bus2=RML1060048613.1.2.0,Phases=2,Linecode=CABBTG05_4_2,Length=0.018000000,Units=km
new line.RML10048662 bus1=BBT267082.1.2.0,bus2=RML1060048662.1.2.0,Phases=2,Linecode=CABBTG05_4_2,Length=0.019000000,Units=km
new line.RML10051382 bus1=BBT244185.1.2.3.0,bus2=RML1060051382.1.2.3.0,Phases=3,Linecode=CABBTG06_4_3,Length=0.017000000,Units=km
new line.RML10051384 bus1=BBT132871596.1.2.3.0,bus2=RML1060051384.1.2.3.0,Phases=3,Linecode=CABBTG06_4_3,Length=0.017000000,Units=km
new line.RML10065655 bus1=BBT4489769.2.0,bus2=RML1060065655.2.0,Phases=1,Linecode=CABBTG01_4_1,Length=0.015000000,Units=km
new line.RML10065670 bus1=BBT410505.1.0,bus2=RML1060065670.1.0,Phases=1,Linecode=CABBTG01_4_1,Length=0.023000000,Units=km
new line.RML10065800 bus1=BBT245095.1.2.3.0,bus2=RML1060065800.1.2.3.0,Phases=3,Linecode=CABBTG06_4_3,Length=0.012000000,Units=km
new line.RML10066032 bus1=BBT3697502.3.0,bus2=RML1060066032.3.0,Phases=1,Linecode=CABBTG01_4_1,Length=0.007000000,Units=km
new line.RML10066186 bus1=BBT440199.1.0,bus2=RML1060066186.1.0,Phases=1,Linecode=CABBTG03_4_1,Length=0.017000000,Units=km
new line.RML10067383 bus1=BBT148527166.1.0,bus2=RML1060067383.1.0,Phases=1,Linecode=CABBTG02_4_1,Length=0.017000000,Units=km
new line.RML10067387 bus1=BBT148525345.1.0,bus2=RML1060067387.1.0,Phases=1,Linecode=CABBTG02_4_1,Length=0.017000000,Units=km
new line.RML10067389 bus1=BBT148525345.2.3.0,bus2=RML1060067389.2.3.0,Phases=2,Linecode=CABBTG05_4_2,Length=0.017000000,Units=km
new line.RML10067392 bus1=BBT148525346.1.3.0,bus2=RML1060067392.1.3.0,Phases=2,Linecode=CABBTG05_4_2,Length=0.017000000,Units=km
new line.RML10067395 bus1=BBT148525346.2.3.0,bus2=RML1060067395.2.3.0,Phases=2,Linecode=CABBTG05_4_2,Length=0.017000000,Units=km
new line.RML10067397 bus1=BBT148525346.1.2.0,bus2=RML1060067397.1.2.0,Phases=2,Linecode=CABBTG05_4_2,Length=0.017000000,Units=km
new line.RML10067400 bus1=BBT148525359.1.3.0,bus2=RML1060067400.1.3.0,Phases=2,Linecode=CABBTG05_4_2,Length=0.017000000,Units=km
new line.RML10067402 bus1=BBT148525359.1.2.0,bus2=RML1060067402.1.2.0,Phases=2,Linecode=CABBTG05_4_2,Length=0.017000000,Units=km
new line.RML10067404 bus1=BBT148524893.2.3.0,bus2=RML1060067404.2.3.0,Phases=2,Linecode=CABBTG05_4_2,Length=0.017000000,Units=km
new line.RML10067405 bus1=BBT148524893.1.3.0,bus2=RML1060067405.1.3.0,Phases=2,Linecode=CABBTG05_4_2,Length=0.017000000,Units=km
new line.RML10067407 bus1=BBT148524892.1.2.0,bus2=RML1060067407.1.2.0,Phases=2,Linecode=CABBTG05_4_2,Length=0.017000000,Units=km
new line.RML10067410 bus1=BBT148524892.1.3.0,bus2=RML1060067410.1.3.0,Phases=2,Linecode=CABBTG05_4_2,Length=0.017000000,Units=km
new line.RML10067411 bus1=BBT148524892.2.3.0,bus2=RML1060067411.2.3.0,Phases=2,Linecode=CABBTG05_4_2,Length=0.017000000,Units=km
new line.RML10067416 bus1=BBT148525151.1.2.0,bus2=RML1060067416.1.2.0,Phases=2,Linecode=CABBTG05_4_2,Length=0.017000000,Units=km
new line.RML10067417 bus1=BBT148525319.1.2.0,bus2=RML1060067417.1.2.0,Phases=2,Linecode=CABBTG05_4_2,Length=0.017000000,Units=km
new line.RML10067418 bus1=BBT148525319.2.3.0,bus2=RML1060067418.2.3.0,Phases=2,Linecode=CABBTG05_4_2,Length=0.017000000,Units=km
new line.RML10067420 bus1=BBT148525312.2.3.0,bus2=RML1060067420.2.3.0,Phases=2,Linecode=CABBTG05_4_2,Length=0.017000000,Units=km
new line.RML10067425 bus1=BBT148523332.2.3.0,bus2=RML1060067425.2.3.0,Phases=2,Linecode=CABBTG05_4_2,Length=0.017000000,Units=km
new line.RML10067429 bus1=BBT148526969.1.3.0,bus2=RML1060067429.1.3.0,Phases=2,Linecode=CABBTG05_4_2,Length=0.017000000,Units=km
new line.RML10067431 bus1=BBT148526974.2.3.0,bus2=RML1060067431.2.3.0,Phases=2,Linecode=CABBTG05_4_2,Length=0.017000000,Units=km
new line.RML10067433 bus1=BBT148526978.1.2.0,bus2=RML1060067433.1.2.0,Phases=2,Linecode=CABBTG05_4_2,Length=0.017000000,Units=km
new line.RML10067435 bus1=BBT148526983.1.2.0,bus2=RML1060067435.1.2.0,Phases=2,Linecode=CABBTG05_4_2,Length=0.017000000,Units=km
new line.RML10067437 bus1=BBT148526022.1.3.0,bus2=RML1060067437.1.3.0,Phases=2,Linecode=CABBTG05_4_2,Length=0.017000000,Units=km
new line.RML10067438 bus1=BBT148525436.1.3.0,bus2=RML1060067438.1.3.0,Phases=2,Linecode=CABBTG05_4_2,Length=0.017000000,Units=km
new line.RML10067440 bus1=BBT148525428.2.3.0,bus2=RML1060067440.2.3.0,Phases=2,Linecode=CABBTG05_4_2,Length=0.017000000,Units=km
new line.RML10067442 bus1=BBT148525428.1.2.0,bus2=RML1060067442.1.2.0,Phases=2,Linecode=CABBTG05_4_2,Length=0.017000000,Units=km
new line.RML10067443 bus1=BBT148524314.1.3.0,bus2=RML1060067443.1.3.0,Phases=2,Linecode=CABBTG05_4_2,Length=0.017000000,Units=km
new line.RML10067446 bus1=BBT148526569.2.3.0,bus2=RML1060067446.2.3.0,Phases=2,Linecode=CABBTG05_4_2,Length=0.017000000,Units=km
new line.RML10067448 bus1=BBT148526438.1.2.0,bus2=RML1060067448.1.2.0,Phases=2,Linecode=CABBTG05_4_2,Length=0.017000000,Units=km
new line.RML10067453 bus1=BBT148523265.1.3.0,bus2=RML1060067453.1.3.0,Phases=2,Linecode=CABBTG05_4_2,Length=0.017000000,Units=km
new line.RML10067454 bus1=BBT148523131.1.3.0,bus2=RML1060067454.1.3.0,Phases=2,Linecode=CABBTG05_4_2,Length=0.017000000,Units=km
new line.RML10067455 bus1=BBT148524844.1.3.0,bus2=RML1060067455.1.3.0,Phases=2,Linecode=CABBTG05_4_2,Length=0.017000000,Units=km
new line.RML10067456 bus1=BBT148524810.1.0,bus2=RML1060067456.1.0,Phases=1,Linecode=CABBTG02_4_1,Length=0.017000000,Units=km
new line.RML10067458 bus1=BBT148524810.2.3.0,bus2=RML1060067458.2.3.0,Phases=2,Linecode=CABBTG05_4_2,Length=0.017000000,Units=km
new line.RML10067462 bus1=BBT148526750.1.2.0,bus2=RML1060067462.1.2.0,Phases=2,Linecode=CABBTG05_4_2,Length=0.017000000,Units=km
new line.RML10067464 bus1=BBT148526750.1.3.0,bus2=RML1060067464.1.3.0,Phases=2,Linecode=CABBTG05_4_2,Length=0.017000000,Units=km
new line.RML10067465 bus1=BBT148527061.1.2.0,bus2=RML1060067465.1.2.0,Phases=2,Linecode=CABBTG05_4_2,Length=0.017000000,Units=km
new line.RML10067466 bus1=BBT148527070.1.3.0,bus2=RML1060067466.1.3.0,Phases=2,Linecode=CABBTG05_4_2,Length=0.017000000,Units=km
new line.RML10067468 bus1=BBT148526984.1.2.0,bus2=RML1060067468.1.2.0,Phases=2,Linecode=CABBTG05_4_2,Length=0.017000000,Units=km
new line.RML10067469 bus1=BBT148526866.1.3.0,bus2=RML1060067469.1.3.0,Phases=2,Linecode=CABBTG05_4_2,Length=0.017000000,Units=km
new line.RML10067470 bus1=BBT148526888.1.3.0,bus2=RML1060067470.1.3.0,Phases=2,Linecode=CABBTG05_4_2,Length=0.017000000,Units=km
new line.RML10067471 bus1=BBT148526964.1.0,bus2=RML1060067471.1.0,Phases=1,Linecode=CABBTG02_4_1,Length=0.017000000,Units=km
new line.RML10067475 bus1=BBT148526487.2.3.0,bus2=RML1060067475.2.3.0,Phases=2,Linecode=CABBTG05_4_2,Length=0.017000000,Units=km
new line.RML10067476 bus1=BBT148526488.1.2.0,bus2=RML1060067476.1.2.0,Phases=2,Linecode=CABBTG05_4_2,Length=0.017000000,Units=km
new line.RML10067477 bus1=BBT148526488.2.3.0,bus2=RML1060067477.2.3.0,Phases=2,Linecode=CABBTG05_4_2,Length=0.017000000,Units=km
new line.RML10067478 bus1=BBT148526488.2.3.0,bus2=RML1060067478.2.3.0,Phases=2,Linecode=CABBTG05_4_2,Length=0.017000000,Units=km
new line.RML10067480 bus1=BBT148527117.2.3.0,bus2=RML1060067480.2.3.0,Phases=2,Linecode=CABBTG05_4_2,Length=0.017000000,Units=km
new line.RML10067481 bus1=BBT148526501.2.3.0,bus2=RML1060067481.2.3.0,Phases=2,Linecode=CABBTG05_4_2,Length=0.017000000,Units=km
new line.RML10067483 bus1=BBT148527088.1.2.0,bus2=RML1060067483.1.2.0,Phases=2,Linecode=CABBTG05_4_2,Length=0.017000000,Units=km
new line.RML10067485 bus1=BBT148527088.1.3.0,bus2=RML1060067485.1.3.0,Phases=2,Linecode=CABBTG05_4_2,Length=0.017000000,Units=km
new line.RML10067488 bus1=BBT148527088.2.3.0,bus2=RML1060067488.2.3.0,Phases=2,Linecode=CABBTG05_4_2,Length=0.017000000,Units=km
new line.RML10067489 bus1=BBT148527088.1.3.0,bus2=RML1060067489.1.3.0,Phases=2,Linecode=CABBTG05_4_2,Length=0.017000000,Units=km
new line.RML10067493 bus1=BBT148524811.1.2.0,bus2=RML1060067493.1.2.0,Phases=2,Linecode=CABBTG05_4_2,Length=0.017000000,Units=km
new line.RML10067494 bus1=BBT148526330.1.2.0,bus2=RML1060067494.1.2.0,Phases=2,Linecode=CABBTG05_4_2,Length=0.017000000,Units=km
new line.RML10067495 bus1=BBT148526467.2.3.0,bus2=RML1060067495.2.3.0,Phases=2,Linecode=CABBTG05_4_2,Length=0.017000000,Units=km
new line.RML10067496 bus1=BBT148526467.1.2.0,bus2=RML1060067496.1.2.0,Phases=2,Linecode=CABBTG05_4_2,Length=0.017000000,Units=km
new line.RML10067497 bus1=BBT148526487.1.2.0,bus2=RML1060067497.1.2.0,Phases=2,Linecode=CABBTG05_4_2,Length=0.017000000,Units=km
new line.RML10067499 bus1=BBT148527087.2.3.0,bus2=RML1060067499.2.3.0,Phases=2,Linecode=CABBTG05_4_2,Length=0.017000000,Units=km
new line.RML10067500 bus1=BBT148527087.1.2.0,bus2=RML1060067500.1.2.0,Phases=2,Linecode=CABBTG05_4_2,Length=0.017000000,Units=km
new line.RML10067501 bus1=BBT148527076.1.3.0,bus2=RML1060067501.1.3.0,Phases=2,Linecode=CABBTG05_4_2,Length=0.017000000,Units=km
new line.RML10067502 bus1=BBT148527076.1.2.0,bus2=RML1060067502.1.2.0,Phases=2,Linecode=CABBTG05_4_2,Length=0.017000000,Units=km
new line.RML10067505 bus1=BBT148525101.1.3.0,bus2=RML1060067505.1.3.0,Phases=2,Linecode=CABBTG05_4_2,Length=0.017000000,Units=km
new line.RML10067507 bus1=BBT148525102.1.2.0,bus2=RML1060067507.1.2.0,Phases=2,Linecode=CABBTG05_4_2,Length=0.017000000,Units=km
new line.RML10067508 bus1=BBT148526339.1.2.0,bus2=RML1060067508.1.2.0,Phases=2,Linecode=CABBTG05_4_2,Length=0.017000000,Units=km
new line.RML10067510 bus1=BBT148526339.2.3.0,bus2=RML1060067510.2.3.0,Phases=2,Linecode=CABBTG05_4_2,Length=0.017000000,Units=km
new line.RML10067511 bus1=BBT148526338.1.2.0,bus2=RML1060067511.1.2.0,Phases=2,Linecode=CABBTG05_4_2,Length=0.017000000,Units=km
new line.RML10067513 bus1=BBT148524847.1.2.0,bus2=RML1060067513.1.2.0,Phases=2,Linecode=CABBTG05_4_2,Length=0.017000000,Units=km
new line.RML10067514 bus1=BBT148524849.2.3.0,bus2=RML1060067514.2.3.0,Phases=2,Linecode=CABBTG05_4_2,Length=0.017000000,Units=km
new line.RML10067515 bus1=BBT148525101.1.3.0,bus2=RML1060067515.1.3.0,Phases=2,Linecode=CABBTG05_4_2,Length=0.017000000,Units=km
new line.RML10067540 bus1=BBT148526444.1.2.0,bus2=RML1060067540.1.2.0,Phases=2,Linecode=CABBTG05_4_2,Length=0.017000000,Units=km
new line.RML10067542 bus1=BBT148526458.1.2.0,bus2=RML1060067542.1.2.0,Phases=2,Linecode=CABBTG05_4_2,Length=0.017000000,Units=km
new line.RML10067545 bus1=BBT148526463.2.3.0,bus2=RML1060067545.2.3.0,Phases=2,Linecode=CABBTG05_4_2,Length=0.017000000,Units=km
new line.RML10067547 bus1=BBT148526463.1.2.0,bus2=RML1060067547.1.2.0,Phases=2,Linecode=CABBTG05_4_2,Length=0.017000000,Units=km
new line.RML10067558 bus1=BBT148526466.1.3.0,bus2=RML1060067558.1.3.0,Phases=2,Linecode=CABBTG05_4_2,Length=0.017000000,Units=km
new line.RML10067559 bus1=BBT148527144.1.2.0,bus2=RML1060067559.1.2.0,Phases=2,Linecode=CABBTG05_4_2,Length=0.017000000,Units=km
new line.RML10067560 bus1=BBT148527144.1.3.0,bus2=RML1060067560.1.3.0,Phases=2,Linecode=CABBTG05_4_2,Length=0.017000000,Units=km
new line.RML10067561 bus1=BBT148527135.2.3.0,bus2=RML1060067561.2.3.0,Phases=2,Linecode=CABBTG05_4_2,Length=0.017000000,Units=km
new line.RML10067562 bus1=BBT148527134.2.3.0,bus2=RML1060067562.2.3.0,Phases=2,Linecode=CABBTG05_4_2,Length=0.017000000,Units=km
new line.RML10067563 bus1=BBT148526985.1.3.0,bus2=RML1060067563.1.3.0,Phases=2,Linecode=CABBTG05_4_2,Length=0.017000000,Units=km
new line.RML10067565 bus1=BBT148526985.1.2.0,bus2=RML1060067565.1.2.0,Phases=2,Linecode=CABBTG05_4_2,Length=0.017000000,Units=km
new line.RML10067566 bus1=BBT148527008.2.3.0,bus2=RML1060067566.2.3.0,Phases=2,Linecode=CABBTG05_4_2,Length=0.017000000,Units=km
new line.RML10067567 bus1=BBT148527008.1.2.0,bus2=RML1060067567.1.2.0,Phases=2,Linecode=CABBTG05_4_2,Length=0.017000000,Units=km
new line.RML10067568 bus1=BBT148527025.1.3.0,bus2=RML1060067568.1.3.0,Phases=2,Linecode=CABBTG05_4_2,Length=0.017000000,Units=km
new line.RML10067569 bus1=BBT148527025.1.2.0,bus2=RML1060067569.1.2.0,Phases=2,Linecode=CABBTG05_4_2,Length=0.017000000,Units=km
new line.RML10067571 bus1=BBT148527025.2.3.0,bus2=RML1060067571.2.3.0,Phases=2,Linecode=CABBTG05_4_2,Length=0.017000000,Units=km
new line.RML10067573 bus1=BBT148527025.2.3.0,bus2=RML1060067573.2.3.0,Phases=2,Linecode=CABBTG05_4_2,Length=0.017000000,Units=km
new line.RML10067574 bus1=BBT148527026.2.3.0,bus2=RML1060067574.2.3.0,Phases=2,Linecode=CABBTG05_4_2,Length=0.017000000,Units=km
new line.RML10067575 bus1=BBT148526030.1.3.0,bus2=RML1060067575.1.3.0,Phases=2,Linecode=CABBTG05_4_2,Length=0.017000000,Units=km
new line.RML10067576 bus1=BBT148526030.2.3.0,bus2=RML1060067576.2.3.0,Phases=2,Linecode=CABBTG05_4_2,Length=0.017000000,Units=km
new line.RML10067577 bus1=BBT148526030.2.3.0,bus2=RML1060067577.2.3.0,Phases=2,Linecode=CABBTG05_4_2,Length=0.017000000,Units=km
new line.RML10067579 bus1=BBT148527026.1.3.0,bus2=RML1060067579.1.3.0,Phases=2,Linecode=CABBTG05_4_2,Length=0.017000000,Units=km
new line.RML10067580 bus1=BBT148525978.1.3.0,bus2=RML1060067580.1.3.0,Phases=2,Linecode=CABBTG05_4_2,Length=0.017000000,Units=km
new line.RML10067582 bus1=BBT148525978.2.3.0,bus2=RML1060067582.2.3.0,Phases=2,Linecode=CABBTG05_4_2,Length=0.017000000,Units=km
new line.RML10067584 bus1=BBT148525979.1.3.0,bus2=RML1060067584.1.3.0,Phases=2,Linecode=CABBTG05_4_2,Length=0.017000000,Units=km
new line.RML10067585 bus1=BBT148525979.1.2.0,bus2=RML1060067585.1.2.0,Phases=2,Linecode=CABBTG05_4_2,Length=0.017000000,Units=km
new line.RML10067586 bus1=BBT148526030.1.2.0,bus2=RML1060067586.1.2.0,Phases=2,Linecode=CABBTG05_4_2,Length=0.017000000,Units=km
new line.RML10067600 bus1=BBT148525400.1.2.0,bus2=RML1060067600.1.2.0,Phases=2,Linecode=CABBTG05_4_2,Length=0.017000000,Units=km
new line.RML10067607 bus1=BBT148525406.1.3.0,bus2=RML1060067607.1.3.0,Phases=2,Linecode=CABBTG05_4_2,Length=0.017000000,Units=km
new line.RML10067614 bus1=BBT148525406.1.2.0,bus2=RML1060067614.1.2.0,Phases=2,Linecode=CABBTG05_4_2,Length=0.017000000,Units=km
new line.RML10067615 bus1=BBT148525438.1.2.0,bus2=RML1060067615.1.2.0,Phases=2,Linecode=CABBTG05_4_2,Length=0.017000000,Units=km
new line.RML10067617 bus1=BBT148525438.1.2.0,bus2=RML1060067617.1.2.0,Phases=2,Linecode=CABBTG05_4_2,Length=0.017000000,Units=km
new line.RML10067620 bus1=BBT148525438.2.3.0,bus2=RML1060067620.2.3.0,Phases=2,Linecode=CABBTG05_4_2,Length=0.017000000,Units=km
new line.RML10067624 bus1=BBT148525438.1.3.0,bus2=RML1060067624.1.3.0,Phases=2,Linecode=CABBTG05_4_2,Length=0.017000000,Units=km
new line.RML10067629 bus1=BBT148526023.1.2.0,bus2=RML1060067629.1.2.0,Phases=2,Linecode=CABBTG05_4_2,Length=0.017000000,Units=km
new line.RML10067642 bus1=BBT148526023.2.3.0,bus2=RML1060067642.2.3.0,Phases=2,Linecode=CABBTG05_4_2,Length=0.017000000,Units=km
new line.RML10067646 bus1=BBT148526925.1.2.0,bus2=RML1060067646.1.2.0,Phases=2,Linecode=CABBTG05_4_2,Length=0.017000000,Units=km
new line.RML10067650 bus1=BBT148526925.2.3.0,bus2=RML1060067650.2.3.0,Phases=2,Linecode=CABBTG05_4_2,Length=0.017000000,Units=km
new line.RML10067653 bus1=BBT148526925.1.3.0,bus2=RML1060067653.1.3.0,Phases=2,Linecode=CABBTG05_4_2,Length=0.017000000,Units=km
new line.RML10067654 bus1=BBT148526925.1.2.0,bus2=RML1060067654.1.2.0,Phases=2,Linecode=CABBTG05_4_2,Length=0.017000000,Units=km
new line.RML10067657 bus1=BBT148526919.1.3.0,bus2=RML1060067657.1.3.0,Phases=2,Linecode=CABBTG05_4_2,Length=0.017000000,Units=km
new line.RML10067659 bus1=BBT148526919.1.2.0,bus2=RML1060067659.1.2.0,Phases=2,Linecode=CABBTG05_4_2,Length=0.017000000,Units=km
new line.RML10067661 bus1=BBT148526919.1.3.0,bus2=RML1060067661.1.3.0,Phases=2,Linecode=CABBTG05_4_2,Length=0.017000000,Units=km
new line.RML10067669 bus1=BBT148526894.1.2.0,bus2=RML1060067669.1.2.0,Phases=2,Linecode=CABBTG05_4_2,Length=0.017000000,Units=km
new line.RML10067670 bus1=BBT148526894.1.3.0,bus2=RML1060067670.1.3.0,Phases=2,Linecode=CABBTG05_4_2,Length=0.017000000,Units=km
new line.RML10067946 bus1=BBT238186.1.2.0,bus2=RML1060067946.1.2.0,Phases=2,Linecode=CABBTG05_4_2,Length=0.012000000,Units=km
new line.RML10067990 bus1=BBT3697474.1.2.0,bus2=RML1060067990.1.2.0,Phases=2,Linecode=CABBTG04_4_2,Length=0.020000000,Units=km
new line.RML10068064 bus1=BBT3697250.2.0,bus2=RML1060068064.2.0,Phases=1,Linecode=CABBTG02_4_1,Length=0.018000000,Units=km
new line.RML10068080 bus1=BBT241693.1.3.0,bus2=RML1060068080.1.3.0,Phases=2,Linecode=CABBTG04_4_2,Length=0.018000000,Units=km
new line.RML10068091 bus1=BBT245249.1.3.0,bus2=RML1060068091.1.3.0,Phases=2,Linecode=CABBTG05_4_2,Length=0.024000000,Units=km
new line.RML10068092 bus1=BBT6330076.1.2.0,bus2=RML1060068092.1.2.0,Phases=2,Linecode=CABBTG04_4_2,Length=0.012000000,Units=km
new line.RML10068370 bus1=BBT252242.2.0,bus2=RML1060068370.2.0,Phases=1,Linecode=CABBTG02_4_1,Length=0.017000000,Units=km
new line.RML10069460 bus1=BBT148525979.1.0,bus2=RML1060069460.1.0,Phases=1,Linecode=CABBTG02_4_1,Length=0.017000000,Units=km
new line.RML10069486 bus1=BBT243219.1.2.0,bus2=RML1060069486.1.2.0,Phases=2,Linecode=CABBTG04_4_2,Length=0.018000000,Units=km
new line.RML10069571 bus1=BBT148522163.1.2.0,bus2=RML1060069571.1.2.0,Phases=2,Linecode=CABBTG05_4_2,Length=0.017000000,Units=km
new line.RML10069575 bus1=BBT148522317.2.3.0,bus2=RML1060069575.2.3.0,Phases=2,Linecode=CABBTG05_4_2,Length=0.017000000,Units=km
new line.RML10069583 bus1=BBT148522013.2.0,bus2=RML1060069583.2.0,Phases=1,Linecode=CABBTG02_4_1,Length=0.017000000,Units=km
new line.RML10069584 bus1=BBT148522163.3.0,bus2=RML1060069584.3.0,Phases=1,Linecode=CABBTG02_4_1,Length=0.017000000,Units=km
new line.RML10069586 bus1=BBT148522163.1.2.0,bus2=RML1060069586.1.2.0,Phases=2,Linecode=CABBTG05_4_2,Length=0.017000000,Units=km
new line.RML10069590 bus1=BBT148522207.2.3.0,bus2=RML1060069590.2.3.0,Phases=2,Linecode=CABBTG05_4_2,Length=0.017000000,Units=km
new line.RML10069593 bus1=BBT148522207.1.3.0,bus2=RML1060069593.1.3.0,Phases=2,Linecode=CABBTG05_4_2,Length=0.017000000,Units=km
new line.RML10069594 bus1=BBT148522386.2.3.0,bus2=RML1060069594.2.3.0,Phases=2,Linecode=CABBTG05_4_2,Length=0.017000000,Units=km
new line.RML10069595 bus1=BBT148522386.1.2.0,bus2=RML1060069595.1.2.0,Phases=2,Linecode=CABBTG05_4_2,Length=0.017000000,Units=km
new line.RML10069597 bus1=BBT148522275.1.3.0,bus2=RML1060069597.1.3.0,Phases=2,Linecode=CABBTG05_4_2,Length=0.017000000,Units=km
new line.RML10069600 bus1=BBT148522317.1.3.0,bus2=RML1060069600.1.3.0,Phases=2,Linecode=CABBTG05_4_2,Length=0.017000000,Units=km
new line.RML10069606 bus1=BBT148522275.1.2.0,bus2=RML1060069606.1.2.0,Phases=2,Linecode=CABBTG05_4_2,Length=0.017000000,Units=km
new line.RML10069614 bus1=BBT148522591.1.2.0,bus2=RML1060069614.1.2.0,Phases=2,Linecode=CABBTG05_4_2,Length=0.017000000,Units=km
new line.RML10069616 bus1=BBT148522563.2.3.0,bus2=RML1060069616.2.3.0,Phases=2,Linecode=CABBTG05_4_2,Length=0.017000000,Units=km
new line.RML10069621 bus1=BBT148523253.1.2.0,bus2=RML1060069621.1.2.0,Phases=2,Linecode=CABBTG05_4_2,Length=0.017000000,Units=km
new line.RML10069622 bus1=BBT148522602.1.2.0,bus2=RML1060069622.1.2.0,Phases=2,Linecode=CABBTG05_4_2,Length=0.017000000,Units=km
new line.RML10069625 bus1=BBT148522591.2.3.0,bus2=RML1060069625.2.3.0,Phases=2,Linecode=CABBTG05_4_2,Length=0.017000000,Units=km
new line.RML10069627 bus1=BBT148522564.2.3.0,bus2=RML1060069627.2.3.0,Phases=2,Linecode=CABBTG05_4_2,Length=0.017000000,Units=km
new line.RML10069630 bus1=BBT148522564.1.2.0,bus2=RML1060069630.1.2.0,Phases=2,Linecode=CABBTG05_4_2,Length=0.017000000,Units=km
new line.RML10069634 bus1=BBT148522564.1.3.0,bus2=RML1060069634.1.3.0,Phases=2,Linecode=CABBTG05_4_2,Length=0.017000000,Units=km
new line.RML10069637 bus1=BBT148522564.1.2.0,bus2=RML1060069637.1.2.0,Phases=2,Linecode=CABBTG05_4_2,Length=0.017000000,Units=km
new line.RML10069641 bus1=BBT148522581.2.3.0,bus2=RML1060069641.2.3.0,Phases=2,Linecode=CABBTG05_4_2,Length=0.017000000,Units=km
new line.RML10069643 bus1=BBT148522581.1.2.0,bus2=RML1060069643.1.2.0,Phases=2,Linecode=CABBTG05_4_2,Length=0.017000000,Units=km
new line.RML10069645 bus1=BBT148522537.1.2.0,bus2=RML1060069645.1.2.0,Phases=2,Linecode=CABBTG05_4_2,Length=0.017000000,Units=km
new line.RML10069646 bus1=BBT148522537.1.3.0,bus2=RML1060069646.1.3.0,Phases=2,Linecode=CABBTG05_4_2,Length=0.017000000,Units=km
new line.RML10069648 bus1=BBT148522521.2.0,bus2=RML1060069648.2.0,Phases=1,Linecode=CABBTG02_4_1,Length=0.017000000,Units=km
new line.RML10069654 bus1=BBT148522468.2.3.0,bus2=RML1060069654.2.3.0,Phases=2,Linecode=CABBTG05_4_2,Length=0.017000000,Units=km
new line.RML10069657 bus1=BBT148522495.1.2.0,bus2=RML1060069657.1.2.0,Phases=2,Linecode=CABBTG05_4_2,Length=0.017000000,Units=km
new line.RML10069661 bus1=BBT148522155.2.3.0,bus2=RML1060069661.2.3.0,Phases=2,Linecode=CABBTG05_4_2,Length=0.017000000,Units=km
new line.RML10069664 bus1=BBT148522036.3.0,bus2=RML1060069664.3.0,Phases=1,Linecode=CABBTG02_4_1,Length=0.017000000,Units=km
new line.RML10069667 bus1=BBT148522107.1.3.0,bus2=RML1060069667.1.3.0,Phases=2,Linecode=CABBTG05_4_2,Length=0.017000000,Units=km
new line.RML10069668 bus1=BBT148522460.1.3.0,bus2=RML1060069668.1.3.0,Phases=2,Linecode=CABBTG05_4_2,Length=0.017000000,Units=km
new line.RML10069687 bus1=BBT148523265.1.2.0,bus2=RML1060069687.1.2.0,Phases=2,Linecode=CABBTG05_4_2,Length=0.017000000,Units=km
new line.RML10069688 bus1=BBT148523330.1.0,bus2=RML1060069688.1.0,Phases=1,Linecode=CABBTG02_4_1,Length=0.017000000,Units=km
new line.RML10069689 bus1=BBT148523330.2.3.0,bus2=RML1060069689.2.3.0,Phases=2,Linecode=CABBTG05_4_2,Length=0.017000000,Units=km
new line.RML10069692 bus1=BBT148523330.1.3.0,bus2=RML1060069692.1.3.0,Phases=2,Linecode=CABBTG05_4_2,Length=0.017000000,Units=km
new line.RML10069694 bus1=BBT148523332.1.2.0,bus2=RML1060069694.1.2.0,Phases=2,Linecode=CABBTG05_4_2,Length=0.017000000,Units=km
new line.RML10069700 bus1=BBT148523339.1.2.0,bus2=RML1060069700.1.2.0,Phases=2,Linecode=CABBTG05_4_2,Length=0.017000000,Units=km
new line.RML10069705 bus1=BBT148523339.1.3.0,bus2=RML1060069705.1.3.0,Phases=2,Linecode=CABBTG05_4_2,Length=0.017000000,Units=km
new line.RML10069707 bus1=BBT148523339.1.3.0,bus2=RML1060069707.1.3.0,Phases=2,Linecode=CABBTG05_4_2,Length=0.017000000,Units=km
new line.RML10069710 bus1=BBT148523339.1.3.0,bus2=RML1060069710.1.3.0,Phases=2,Linecode=CABBTG05_4_2,Length=0.017000000,Units=km
new line.RML10069711 bus1=BBT148523341.1.3.0,bus2=RML1060069711.1.3.0,Phases=2,Linecode=CABBTG05_4_2,Length=0.017000000,Units=km
new line.RML10069714 bus1=BBT148523341.2.3.0,bus2=RML1060069714.2.3.0,Phases=2,Linecode=CABBTG05_4_2,Length=0.017000000,Units=km
new line.RML10069715 bus1=BBT148523307.1.2.0,bus2=RML1060069715.1.2.0,Phases=2,Linecode=CABBTG05_4_2,Length=0.017000000,Units=km
new line.RML10069717 bus1=BBT148523307.2.3.0,bus2=RML1060069717.2.3.0,Phases=2,Linecode=CABBTG05_4_2,Length=0.017000000,Units=km
new line.RML10069718 bus1=BBT148523307.2.3.0,bus2=RML1060069718.2.3.0,Phases=2,Linecode=CABBTG05_4_2,Length=0.017000000,Units=km
new line.RML10069719 bus1=BBT148523307.1.3.0,bus2=RML1060069719.1.3.0,Phases=2,Linecode=CABBTG05_4_2,Length=0.017000000,Units=km
new line.RML10069725 bus1=BBT148523294.1.2.0,bus2=RML1060069725.1.2.0,Phases=2,Linecode=CABBTG05_4_2,Length=0.017000000,Units=km
new line.RML10069732 bus1=BBT148523294.1.2.0,bus2=RML1060069732.1.2.0,Phases=2,Linecode=CABBTG05_4_2,Length=0.017000000,Units=km
new line.RML10069737 bus1=BBT148523294.2.3.0,bus2=RML1060069737.2.3.0,Phases=2,Linecode=CABBTG05_4_2,Length=0.017000000,Units=km
new line.RML10069738 bus1=BBT148523294.1.3.0,bus2=RML1060069738.1.3.0,Phases=2,Linecode=CABBTG05_4_2,Length=0.017000000,Units=km
new line.RML10069742 bus1=BBT148523130.2.3.0,bus2=RML1060069742.2.3.0,Phases=2,Linecode=CABBTG05_4_2,Length=0.017000000,Units=km
new line.RML10069743 bus1=BBT148523130.1.3.0,bus2=RML1060069743.1.3.0,Phases=2,Linecode=CABBTG05_4_2,Length=0.017000000,Units=km
new line.RML10069747 bus1=BBT148523131.2.3.0,bus2=RML1060069747.2.3.0,Phases=2,Linecode=CABBTG05_4_2,Length=0.017000000,Units=km
new line.RML10069760 bus1=BBT148523131.2.3.0,bus2=RML1060069760.2.3.0,Phases=2,Linecode=CABBTG05_4_2,Length=0.017000000,Units=km
new line.RML10069762 bus1=BBT148523131.1.2.0,bus2=RML1060069762.1.2.0,Phases=2,Linecode=CABBTG05_4_2,Length=0.017000000,Units=km
new line.RML10069765 bus1=BBT148523132.1.3.0,bus2=RML1060069765.1.3.0,Phases=2,Linecode=CABBTG05_4_2,Length=0.017000000,Units=km
new line.RML10069768 bus1=BBT148523132.2.3.0,bus2=RML1060069768.2.3.0,Phases=2,Linecode=CABBTG05_4_2,Length=0.017000000,Units=km
new line.RML10069773 bus1=BBT148523265.2.3.0,bus2=RML1060069773.2.3.0,Phases=2,Linecode=CABBTG05_4_2,Length=0.017000000,Units=km
new line.RML10069777 bus1=BBT148523265.1.3.0,bus2=RML1060069777.1.3.0,Phases=2,Linecode=CABBTG05_4_2,Length=0.017000000,Units=km
new line.RML10069779 bus1=BBT148523264.1.2.0,bus2=RML1060069779.1.2.0,Phases=2,Linecode=CABBTG05_4_2,Length=0.017000000,Units=km
new line.RML10069782 bus1=BBT148523264.2.3.0,bus2=RML1060069782.2.3.0,Phases=2,Linecode=CABBTG05_4_2,Length=0.017000000,Units=km
new line.RML10069783 bus1=BBT148523264.1.3.0,bus2=RML1060069783.1.3.0,Phases=2,Linecode=CABBTG05_4_2,Length=0.017000000,Units=km
new line.RML10069784 bus1=BBT148523264.1.2.0,bus2=RML1060069784.1.2.0,Phases=2,Linecode=CABBTG05_4_2,Length=0.017000000,Units=km
new line.RML10069791 bus1=BBT148526337.2.3.0,bus2=RML1060069791.2.3.0,Phases=2,Linecode=CABBTG05_4_2,Length=0.017000000,Units=km
new line.RML10069794 bus1=BBT148527132.2.3.0,bus2=RML1060069794.2.3.0,Phases=2,Linecode=CABBTG05_4_2,Length=0.017000000,Units=km
new line.RML10069853 bus1=BBT148524087.2.3.0,bus2=RML1060069853.2.3.0,Phases=2,Linecode=CABBTG05_4_2,Length=0.017000000,Units=km
new line.RML10069856 bus1=BBT148524087.1.3.0,bus2=RML1060069856.1.3.0,Phases=2,Linecode=CABBTG05_4_2,Length=0.017000000,Units=km
new line.RML10069862 bus1=BBT148524087.1.2.0,bus2=RML1060069862.1.2.0,Phases=2,Linecode=CABBTG05_4_2,Length=0.017000000,Units=km
new line.RML10069863 bus1=BBT148524087.1.2.0,bus2=RML1060069863.1.2.0,Phases=2,Linecode=CABBTG05_4_2,Length=0.017000000,Units=km
new line.RML10069866 bus1=BBT148524088.1.2.0,bus2=RML1060069866.1.2.0,Phases=2,Linecode=CABBTG05_4_2,Length=0.017000000,Units=km
new line.RML10069869 bus1=BBT148524088.2.3.0,bus2=RML1060069869.2.3.0,Phases=2,Linecode=CABBTG05_4_2,Length=0.017000000,Units=km
new line.RML10069872 bus1=BBT148524088.1.3.0,bus2=RML1060069872.1.3.0,Phases=2,Linecode=CABBTG05_4_2,Length=0.017000000,Units=km
new line.RML10069873 bus1=BBT148524088.1.2.0,bus2=RML1060069873.1.2.0,Phases=2,Linecode=CABBTG05_4_2,Length=0.017000000,Units=km
new line.RML10069877 bus1=BBT148523383.2.3.0,bus2=RML1060069877.2.3.0,Phases=2,Linecode=CABBTG05_4_2,Length=0.017000000,Units=km
new line.RML10069879 bus1=BBT148523383.1.3.0,bus2=RML1060069879.1.3.0,Phases=2,Linecode=CABBTG05_4_2,Length=0.017000000,Units=km
new line.RML10069885 bus1=BBT148523382.1.2.0,bus2=RML1060069885.1.2.0,Phases=2,Linecode=CABBTG05_4_2,Length=0.017000000,Units=km
new line.RML10069887 bus1=BBT148523382.1.3.0,bus2=RML1060069887.1.3.0,Phases=2,Linecode=CABBTG05_4_2,Length=0.017000000,Units=km
new line.RML10069987 bus1=BBT148523382.2.3.0,bus2=RML1060069987.2.3.0,Phases=2,Linecode=CABBTG05_4_2,Length=0.017000000,Units=km
new line.RML10069988 bus1=BBT148523382.2.3.0,bus2=RML1060069988.2.3.0,Phases=2,Linecode=CABBTG05_4_2,Length=0.017000000,Units=km
new line.RML10069989 bus1=BBT148523368.1.2.0,bus2=RML1060069989.1.2.0,Phases=2,Linecode=CABBTG05_4_2,Length=0.017000000,Units=km
new line.RML10069991 bus1=BBT148523368.2.3.0,bus2=RML1060069991.2.3.0,Phases=2,Linecode=CABBTG05_4_2,Length=0.017000000,Units=km
new line.RML10069992 bus1=BBT148523367.2.3.0,bus2=RML1060069992.2.3.0,Phases=2,Linecode=CABBTG05_4_2,Length=0.017000000,Units=km
new line.RML10069993 bus1=BBT148523367.2.3.0,bus2=RML1060069993.2.3.0,Phases=2,Linecode=CABBTG05_4_2,Length=0.017000000,Units=km
new line.RML10069996 bus1=BBT148523367.1.2.0,bus2=RML1060069996.1.2.0,Phases=2,Linecode=CABBTG05_4_2,Length=0.017000000,Units=km
new line.RML10069997 bus1=BBT148523367.1.3.0,bus2=RML1060069997.1.3.0,Phases=2,Linecode=CABBTG05_4_2,Length=0.017000000,Units=km
new line.RML10069998 bus1=BBT148523362.2.0,bus2=RML1060069998.2.0,Phases=1,Linecode=CABBTG02_4_1,Length=0.017000000,Units=km
new line.RML10070001 bus1=BBT148524893.1.2.0,bus2=RML1060070001.1.2.0,Phases=2,Linecode=CABBTG05_4_2,Length=0.017000000,Units=km