new line.18698003 bus1=BBT265815.1.2.0,bus2=BBT148519309.1.2.0,Phases=2,Linecode=BT803_BT803_4_2_4,Length=0.029830000,Units=km
new line.18698084 bus1=BBT148521809.1.2.3.0,bus2=BBT148521810.1.2.3.0,Phases=3,Linecode=BT518_BT518_7_3_1,Length=0.000500000,Units=km
new line.18698085 bus1=BBT148521925.1.2.3.0,bus2=BBT148521927.1.2.3.0,Phases=3,Linecode=BT518_BT518_7_3_1,Length=0.000500000,Units=km
new line.18698089 bus1=BBT148521810.1.2.3.0,bus2=BBT148521977.1.2.3.0,Phases=3,Linecode=BT803_BT803_4_3_4,Length=0.023407000,Units=km
new line.18698094 bus1=BBT148521810.1.2.3.0,bus2=BBT148522013.1.2.3.0,Phases=3,Linecode=BT803_BT803_4_3_4,Length=0.023407000,Units=km
new line.18698095 bus1=BBT148522013.1.2.3.0,bus2=BBT148522022.1.2.3.0,Phases=3,Linecode=BT803_BT803_4_3_4,Length=0.026568000,Units=km
new line.18698098 bus1=BBT148522022.1.2.3.0,bus2=BBT148522036.1.2.3.0,Phases=3,Linecode=BT803_BT803_4_3_4,Length=0.025630000,Units=km
new line.18698103 bus1=BBT148522036.1.2.3.0,bus2=BBT148522107.1.2.3.0,Phases=3,Linecode=BT803_BT803_4_3_4,Length=0.036052000,Units=km
new line.18698107 bus1=BBT148522107.1.2.3.0,bus2=BBT148522155.1.2.3.0,Phases=3,Linecode=BT803_BT803_4_3_4,Length=0.036052000,Units=km
new line.18698108 bus1=BBT148522013.1.2.3.0,bus2=BBT148522163.1.2.3.0,Phases=3,Linecode=BT803_BT803_4_3_4,Length=0.035111000,Units=km
new line.18698109 bus1=BBT148522163.1.2.3.0,bus2=BBT148522207.1.2.3.0,Phases=3,Linecode=BT803_BT803_4_3_4,Length=0.036052000,Units=km
new line.18698111 bus1=BBT148521927.1.2.3.0,bus2=BBT148522241.1.2.3.0,Phases=3,Linecode=BT803_BT803_4_3_4,Length=0.025630000,Units=km
new line.18698112 bus1=BBT148522241.1.2.3.0,bus2=BBT148522275.1.2.3.0,Phases=3,Linecode=BT803_BT803_4_3_4,Length=0.009486000,Units=km
new line.18698113 bus1=BBT148522275.1.2.3.0,bus2=BBT148522317.1.2.3.0,Phases=3,Linecode=BT803_BT803_4_3_4,Length=0.032891000,Units=km
new line.18698114 bus1=BBT148522317.1.2.3.0,bus2=BBT148522386.1.2.3.0,Phases=3,Linecode=BT803_BT803_4_3_4,Length=0.036052000,Units=km
new line.18698115 bus1=BBT148522241.1.2.3.0,bus2=BBT148522392.1.2.3.0,Phases=3,Linecode=BT803_BT803_4_3_4,Length=0.022470000,Units=km
new line.18698116 bus1=BBT148522392.1.2.3.0,bus2=BBT148522460.1.2.3.0,Phases=3,Linecode=BT803_BT803_4_3_4,Length=0.022845000,Units=km
new line.18698117 bus1=BBT148522460.1.2.3.0,bus2=BBT148522468.1.2.3.0,Phases=3,Linecode=BT803_BT803_4_3_4,Length=0.036052000,Units=km
new line.18698118 bus1=BBT148522468.1.2.3.0,bus2=BBT148522495.1.2.3.0,Phases=3,Linecode=BT803_BT803_4_3_4,Length=0.036397000,Units=km
new line.18698120 bus1=BBT148521927.1.2.3.0,bus2=BBT148522521.1.2.3.0,Phases=3,Linecode=BT803_BT803_4_3_4,Length=0.026568000,Units=km
new line.18698121 bus1=BBT148522521.1.2.3.0,bus2=BBT148522523.1.2.3.0,Phases=3,Linecode=BT803_BT803_4_3_4,Length=0.009486000,Units=km
new line.18698122 bus1=BBT148522523.1.2.3.0,bus2=BBT148522533.1.2.3.0,Phases=3,Linecode=BT803_BT803_4_3_4,Length=0.014141000,Units=km
new line.18698123 bus1=BBT148522523.1.2.3.0,bus2=BBT148522536.1.2.3.0,Phases=3,Linecode=BT803_BT803_4_3_4,Length=0.013601000,Units=km
new line.18698124 bus1=BBT148522523.1.2.3.0,bus2=BBT148522537.1.2.3.0,Phases=3,Linecode=BT803_BT803_4_3_4,Length=0.030362000,Units=km
new line.18698125 bus1=BBT148522537.1.2.3.0,bus2=BBT148522557.1.2.3.0,Phases=3,Linecode=BT803_BT803_4_3_4,Length=0.036397000,Units=km
new line.18698126 bus1=BBT148521977.1.2.3.0,bus2=BBT148522563.1.2.3.0,Phases=3,Linecode=BT803_BT803_4_3_4,Length=0.006708000,Units=km
new line.18698127 bus1=BBT148522563.1.2.3.0,bus2=BBT148522564.1.2.3.0,Phases=3,Linecode=BT803_BT803_4_3_4,Length=0.042375000,Units=km
new line.18698128 bus1=BBT148522564.1.2.3.0,bus2=BBT148522581.1.2.3.0,Phases=3,Linecode=BT803_BT803_4_3_4,Length=0.036052000,Units=km
new line.18698129 bus1=BBT148522563.1.2.3.0,bus2=BBT148522591.1.2.3.0,Phases=3,Linecode=BT803_BT803_4_3_4,Length=0.036052000,Units=km
new line.18698132 bus1=BBT148522591.1.2.3.0,bus2=BBT148522602.1.2.3.0,Phases=3,Linecode=BT803_BT803_4_3_4,Length=0.036052000,Units=km
new line.18698135 bus1=BBT148522762.1.2.3.0,bus2=BBT148522763.1.2.3.0,Phases=3,Linecode=BT518_BT518_7_3_1,Length=0.000500000,Units=km
new line.18698138 bus1=BBT148522860.1.2.3.0,bus2=BBT148522861.1.2.3.0,Phases=3,Linecode=BT518_BT518_7_3_1,Length=0.000500000,Units=km
new line.18698144 bus1=BBT148522861.1.2.3.0,bus2=BBT148522921.1.2.3.0,Phases=3,Linecode=BT803_BT803_4_3_4,Length=0.018026000,Units=km
new line.18698145 bus1=BBT148522921.1.2.3.0,bus2=BBT148522932.1.2.3.0,Phases=3,Linecode=BT803_BT803_4_3_4,Length=0.007615000,Units=km
new line.18698146 bus1=BBT148522932.1.2.3.0,bus2=BBT148522961.1.2.3.0,Phases=3,Linecode=BT803_BT803_4_3_4,Length=0.032891000,Units=km
new line.18698147 bus1=BBT148522861.1.2.3.0,bus2=BBT148522971.1.2.3.0,Phases=3,Linecode=BT803_BT803_4_3_4,Length=0.026568000,Units=km
new line.18698149 bus1=BBT148522971.1.2.3.0,bus2=BBT148523035.1.2.3.0,Phases=3,Linecode=BT803_BT803_4_3_4,Length=0.007211000,Units=km
new line.18698152 bus1=BBT148523035.1.2.3.0,bus2=BBT148523055.1.2.3.0,Phases=3,Linecode=BT803_BT803_4_3_4,Length=0.016278000,Units=km
new line.18698154 bus1=BBT148523035.1.2.3.0,bus2=BBT148523103.1.2.3.0,Phases=3,Linecode=BT803_BT803_4_3_4,Length=0.014865000,Units=km
new line.18698157 bus1=BBT148522921.1.2.3.0,bus2=BBT148523116.1.2.3.0,Phases=3,Linecode=BT803_BT803_4_3_4,Length=0.008062000,Units=km
new line.18698159 bus1=BBT148522921.1.2.3.0,bus2=BBT148523125.1.2.3.0,Phases=3,Linecode=BT803_BT803_4_3_4,Length=0.026568000,Units=km
new line.18698160 bus1=BBT148523125.1.2.3.0,bus2=BBT148523130.1.2.3.0,Phases=3,Linecode=BT803_BT803_4_3_4,Length=0.036685000,Units=km
new line.18698161 bus1=BBT148523130.1.2.3.0,bus2=BBT148523131.1.2.3.0,Phases=3,Linecode=BT803_BT803_4_3_4,Length=0.036052000,Units=km
new line.18698162 bus1=BBT148523131.1.2.3.0,bus2=BBT148523132.1.2.3.0,Phases=3,Linecode=BT803_BT803_4_3_4,Length=0.035111000,Units=km
new line.18698164 bus1=BBT148523186.1.2.3.0,bus2=BBT148523187.1.2.3.0,Phases=3,Linecode=BT518_BT518_7_3_1,Length=0.000500000,Units=km
new line.18698165 bus1=BBT148523187.1.2.3.0,bus2=BBT148523232.1.2.3.0,Phases=3,Linecode=BT803_BT803_4_3_4,Length=0.025630000,Units=km
new line.18698167 bus1=BBT148523232.1.2.3.0,bus2=BBT148523247.1.2.3.0,Phases=3,Linecode=BT803_BT803_4_3_4,Length=0.023407000,Units=km
new line.18698168 bus1=BBT148523247.1.2.3.0,bus2=BBT148523253.1.2.3.0,Phases=3,Linecode=BT803_BT803_4_3_4,Length=0.025959000,Units=km
new line.18698169 bus1=BBT148523253.1.2.3.0,bus2=BBT148523254.1.2.3.0,Phases=3,Linecode=BT803_BT803_4_3_4,Length=0.039214000,Units=km
new line.18698171 bus1=BBT148523232.1.2.3.0,bus2=BBT148523264.1.2.3.0,Phases=3,Linecode=BT803_BT803_4_3_4,Length=0.039556000,Units=km
new line.18698172 bus1=BBT148523264.1.2.3.0,bus2=BBT148523265.1.2.3.0,Phases=3,Linecode=BT803_BT803_4_3_4,Length=0.042056000,Units=km
new line.18698173 bus1=BBT148523265.1.2.3.0,bus2=BBT148523273.1.2.3.0,Phases=3,Linecode=BT803_BT803_4_3_4,Length=0.036052000,Units=km
new line.18698174 bus1=BBT148523187.1.2.3.0,bus2=BBT148523287.1.2.3.0,Phases=3,Linecode=BT803_BT803_4_3_4,Length=0.026247000,Units=km
new line.18698176 bus1=BBT148523287.1.2.3.0,bus2=BBT148523294.1.2.3.0,Phases=3,Linecode=BT803_BT803_4_3_4,Length=0.040258000,Units=km
new line.18698178 bus1=BBT148523294.1.2.3.0,bus2=BBT148523307.1.2.3.0,Phases=3,Linecode=BT803_BT803_4_3_4,Length=0.042375000,Units=km
new line.18698180 bus1=BBT148523307.1.2.3.0,bus2=BBT148523313.1.2.3.0,Phases=3,Linecode=BT803_BT803_4_3_4,Length=0.036052000,Units=km
new line.18698182 bus1=BBT148523035.1.2.3.0,bus2=BBT148523330.1.2.3.0,Phases=3,Linecode=BT803_BT803_4_3_4,Length=0.027511000,Units=km
new line.18698184 bus1=BBT148523330.1.2.3.0,bus2=BBT148523332.1.2.3.0,Phases=3,Linecode=BT803_BT803_4_3_4,Length=0.036052000,Units=km
new line.18698186 bus1=BBT148523332.1.2.3.0,bus2=BBT148523339.1.2.3.0,Phases=3,Linecode=BT803_BT803_4_3_4,Length=0.036052000,Units=km
new line.18698188 bus1=BBT148523339.1.2.3.0,bus2=BBT148523341.1.2.3.0,Phases=3,Linecode=BT803_BT803_4_3_4,Length=0.036052000,Units=km
new line.18698190 bus1=BBT148523287.1.2.3.0,bus2=BBT148523358.1.2.3.0,Phases=3,Linecode=BT803_BT803_4_3_4,Length=0.025630000,Units=km
new line.18698191 bus1=BBT148522763.1.2.3.0,bus2=BBT148523360.1.2.3.0,Phases=3,Linecode=BT803_BT803_4_3_4,Length=0.025630000,Units=km
new line.18698193 bus1=BBT148523360.1.2.3.0,bus2=BBT148523361.1.2.3.0,Phases=3,Linecode=BT803_BT803_4_3_4,Length=0.032891000,Units=km
new line.18698194 bus1=BBT148523360.1.2.3.0,bus2=BBT148523362.1.2.3.0,Phases=3,Linecode=BT803_BT803_4_3_4,Length=0.005385000,Units=km
new line.18698195 bus1=BBT148523362.1.2.3.0,bus2=BBT148523367.1.2.3.0,Phases=3,Linecode=BT803_BT803_4_3_4,Length=0.032570000,Units=km
new line.18698196 bus1=BBT148523367.1.2.3.0,bus2=BBT148523368.1.2.3.0,Phases=3,Linecode=BT803_BT803_4_3_4,Length=0.036052000,Units=km
new line.18698197 bus1=BBT148523368.1.2.3.0,bus2=BBT148523382.1.2.3.0,Phases=3,Linecode=BT803_BT803_4_3_4,Length=0.036052000,Units=km
new line.18698198 bus1=BBT148523382.1.2.3.0,bus2=BBT148523383.1.2.3.0,Phases=3,Linecode=BT803_BT803_4_3_4,Length=0.036052000,Units=km
new line.18698202 bus1=BBT148523469.1.2.3.0,bus2=BBT148523470.1.2.3.0,Phases=3,Linecode=BT518_BT518_7_3_1,Length=0.000500000,Units=km
new line.18698227 bus1=BBT148523470.1.2.3.0,bus2=BBT148524021.1.2.3.0,Phases=3,Linecode=BT803_BT803_4_3_4,Length=0.025630000,Units=km
new line.18698228 bus1=BBT148524021.1.2.3.0,bus2=BBT148524058.1.2.3.0,Phases=3,Linecode=BT803_BT803_4_3_4,Length=0.025296000,Units=km
new line.18698230 bus1=BBT148524021.1.2.3.0,bus2=BBT148524087.1.2.3.0,Phases=3,Linecode=BT803_BT803_4_3_4,Length=0.040258000,Units=km
new line.18698231 bus1=BBT148524087.1.2.3.0,bus2=BBT148524088.1.2.3.0,Phases=3,Linecode=BT803_BT803_4_3_4,Length=0.042375000,Units=km
new line.18698232 bus1=BBT148524088.1.2.3.0,bus2=BBT148524102.1.2.3.0,Phases=3,Linecode=BT803_BT803_4_3_4,Length=0.035111000,Units=km
new line.18698233 bus1=BBT148523470.1.2.3.0,bus2=BBT148524199.1.2.3.0,Phases=3,Linecode=BT803_BT803_4_3_4,Length=0.023407000,Units=km
new line.18698234 bus1=BBT148524199.1.2.3.0,bus2=BBT148524201.1.2.3.0,Phases=3,Linecode=BT803_BT803_4_3_4,Length=0.007615000,Units=km
new line.18698235 bus1=BBT148524201.1.2.3.0,bus2=BBT148524213.1.2.3.0,Phases=3,Linecode=BT803_BT803_4_3_4,Length=0.032277000,Units=km
new line.18698236 bus1=BBT148524201.1.2.3.0,bus2=BBT148524214.1.2.3.0,Phases=3,Linecode=BT803_BT803_4_3_4,Length=0.038272000,Units=km
new line.18698237 bus1=BBT148524214.1.2.3.0,bus2=BBT148524215.1.2.3.0,Phases=3,Linecode=BT803_BT803_4_3_4,Length=0.036052000,Units=km
new line.18698238 bus1=BBT148524215.1.2.3.0,bus2=BBT148524268.1.2.3.0,Phases=3,Linecode=BT803_BT803_4_3_4,Length=0.036052000,Units=km
new line.18698239 bus1=BBT148524268.1.2.3.0,bus2=BBT148524312.1.2.3.0,Phases=3,Linecode=BT803_BT803_4_3_4,Length=0.036052000,Units=km
new line.18698240 bus1=BBT148522763.1.2.3.0,bus2=BBT148524313.1.2.3.0,Phases=3,Linecode=BT803_BT803_4_3_4,Length=0.024350000,Units=km
new line.18698241 bus1=BBT148524313.1.2.3.0,bus2=BBT148524314.1.2.3.0,Phases=3,Linecode=BT803_BT803_4_3_4,Length=0.006708000,Units=km
new line.18698242 bus1=BBT148524314.1.2.3.0,bus2=BBT148524324.1.2.3.0,Phases=3,Linecode=BT803_BT803_4_3_4,Length=0.030673000,Units=km
new line.18698243 bus1=BBT148524324.1.2.3.0,bus2=BBT148524325.1.2.3.0,Phases=3,Linecode=BT803_BT803_4_3_4,Length=0.024350000,Units=km
new line.18698244 bus1=BBT148524325.1.2.3.0,bus2=BBT148524326.1.2.3.0,Phases=3,Linecode=BT803_BT803_4_3_4,Length=0.024350000,Units=km
new line.18698245 bus1=BBT148524326.1.2.3.0,bus2=BBT148524327.1.2.3.0,Phases=3,Linecode=BT803_BT803_4_3_4,Length=0.036052000,Units=km
new line.18698246 bus1=BBT148524324.1.2.3.0,bus2=BBT148524340.1.2.3.0,Phases=3,Linecode=BT803_BT803_4_3_4,Length=0.026831000,Units=km
new line.18698247 bus1=BBT148524326.1.2.3.0,bus2=BBT148524354.1.2.3.0,Phases=3,Linecode=BT803_BT803_4_3_4,Length=0.021998000,Units=km
new line.18698250 bus1=BBT148524384.1.2.3.0,bus2=BBT148524386.1.2.3.0,Phases=3,Linecode=BT518_BT518_7_3_1,Length=0.000500000,Units=km
new line.18698252 bus1=BBT148524729.1.2.3.0,bus2=BBT148524730.1.2.3.0,Phases=3,Linecode=BT518_BT518_7_3_1,Length=0.000500000,Units=km
new line.18698253 bus1=BBT148524730.1.2.3.0,bus2=BBT148524803.1.2.3.0,Phases=3,Linecode=BT803_BT803_4_3_4,Length=0.019645000,Units=km
new line.18698254 bus1=BBT148524803.1.2.3.0,bus2=BBT148524810.1.2.3.0,Phases=3,Linecode=BT803_BT803_4_3_4,Length=0.024737000,Units=km
new line.18698255 bus1=BBT148524803.1.2.3.0,bus2=BBT148524811.1.2.3.0,Phases=3,Linecode=BT803_BT803_4_3_4,Length=0.025630000,Units=km
new line.18698256 bus1=BBT148524811.1.2.3.0,bus2=BBT148524818.1.2.3.0,Phases=3,Linecode=BT803_BT803_4_3_4,Length=0.023407000,Units=km
new line.18698257 bus1=BBT148524818.1.2.3.0,bus2=BBT148524819.1.2.3.0,Phases=3,Linecode=BT803_BT803_4_3_4,Length=0.036052000,Units=km
new line.18698258 bus1=BBT148524819.1.2.3.0,bus2=BBT148524820.1.2.3.0,Phases=3,Linecode=BT803_BT803_4_3_4,Length=0.036052000,Units=km
new line.18698259 bus1=BBT148524730.1.2.3.0,bus2=BBT148524821.1.2.3.0,Phases=3,Linecode=BT803_BT803_4_3_4,Length=0.019645000,Units=km
new line.18698260 bus1=BBT148524821.1.2.3.0,bus2=BBT148524843.1.2.3.0,Phases=3,Linecode=BT803_BT803_4_3_4,Length=0.005099000,Units=km
new line.18698261 bus1=BBT148524843.1.2.3.0,bus2=BBT148524844.1.2.3.0,Phases=3,Linecode=BT803_BT803_4_3_4,Length=0.024998000,Units=km
new line.18698262 bus1=BBT148524843.1.2.3.0,bus2=BBT148524845.1.2.3.0,Phases=3,Linecode=BT803_BT803_4_3_4,Length=0.006083000,Units=km
new line.18698263 bus1=BBT148524845.1.2.3.0,bus2=BBT148524846.1.2.3.0,Phases=3,Linecode=BT803_BT803_4_3_4,Length=0.032997000,Units=km
new line.18698264 bus1=BBT148524843.1.2.3.0,bus2=BBT148524847.1.2.3.0,Phases=3,Linecode=BT803_BT803_4_3_4,Length=0.022089000,Units=km
new line.18698265 bus1=BBT148524847.1.2.3.0,bus2=BBT148524849.1.2.3.0,Phases=3,Linecode=BT803_BT803_4_3_4,Length=0.033835000,Units=km
new line.18698266 bus1=BBT148524386.1.2.3.0,bus2=BBT148524871.1.2.3.0,Phases=3,Linecode=BT803_BT803_4_3_4,Length=0.030081000,Units=km
new line.18698268 bus1=BBT148524871.1.2.3.0,bus2=BBT148524878.1.2.3.0,Phases=3,Linecode=BT803_BT803_4_3_4,Length=0.029118000,Units=km
new line.18698269 bus1=BBT148524871.1.2.3.0,bus2=BBT148524892.1.2.3.0,Phases=3,Linecode=BT803_BT803_4_3_4,Length=0.046482000,Units=km
new line.18698270 bus1=BBT148524892.1.2.3.0,bus2=BBT148524893.1.2.3.0,Phases=3,Linecode=BT803_BT803_4_3_4,Length=0.036052000,Units=km
new line.18698273 bus1=BBT148524849.1.2.3.0,bus2=BBT148525101.1.2.3.0,Phases=3,Linecode=BT803_BT803_4_3_4,Length=0.036052000,Units=km
new line.18698274 bus1=BBT148525101.1.2.3.0,bus2=BBT148525102.1.2.3.0,Phases=3,Linecode=BT803_BT803_4_3_4,Length=0.036052000,Units=km
new line.18698275 bus1=BBT148524386.1.2.3.0,bus2=BBT148525103.1.2.3.0,Phases=3,Linecode=BT803_BT803_4_3_4,Length=0.023768000,Units=km
new line.18698276 bus1=BBT148525103.1.2.3.0,bus2=BBT148525135.1.2.3.0,Phases=3,Linecode=BT803_BT803_4_3_4,Length=0.024737000,Units=km
new line.18698277 bus1=BBT148525103.1.2.3.0,bus2=BBT148525151.1.2.3.0,Phases=3,Linecode=BT803_BT803_4_3_4,Length=0.039846000,Units=km
new line.18698278 bus1=BBT148525151.1.2.3.0,bus2=BBT148525152.1.2.3.0,Phases=3,Linecode=BT803_BT803_4_3_4,Length=0.036052000,Units=km
new line.18698279 bus1=BBT148525195.1.2.3.0,bus2=BBT148525196.1.2.3.0,Phases=3,Linecode=BT518_BT518_7_3_1,Length=0.000500000,Units=km
new line.18698284 bus1=BBT148525292.1.2.3.0,bus2=BBT148525293.1.2.3.0,Phases=3,Linecode=BT518_BT518_7_3_1,Length=0.000500000,Units=km
new line.18698286 bus1=BBT148525196.1.2.3.0,bus2=BBT148525295.1.2.3.0,Phases=3,Linecode=BT803_BT803_4_3_4,Length=0.026247000,Units=km
new line.18698287 bus1=BBT148525295.1.2.3.0,bus2=BBT148525304.1.2.3.0,Phases=3,Linecode=BT803_BT803_4_3_4,Length=0.025998000,Units=km
new line.18698289 bus1=BBT148525295.1.2.3.0,bus2=BBT148525306.1.2.3.0,Phases=3,Linecode=BT803_BT803_4_3_4,Length=0.008062000,Units=km
new line.18698292 bus1=BBT148525306.1.2.3.0,bus2=BBT148525312.1.2.3.0,Phases=3,Linecode=BT803_BT803_4_3_4,Length=0.037333000,Units=km
new line.18698294 bus1=BBT148525312.1.2.3.0,bus2=BBT148525319.1.2.3.0,Phases=3,Linecode=BT803_BT803_4_3_4,Length=0.042375000,Units=km
new line.18698297 bus1=BBT148525319.1.2.3.0,bus2=BBT148525339.1.2.3.0,Phases=3,Linecode=BT803_BT803_4_3_4,Length=0.036052000,Units=km
new line.18698300 bus1=BBT148525196.1.2.3.0,bus2=BBT148525343.1.2.3.0,Phases=3,Linecode=BT803_BT803_4_3_4,Length=0.025998000,Units=km
new line.18698302 bus1=BBT148525343.1.2.3.0,bus2=BBT148525345.1.2.3.0,Phases=3,Linecode=BT803_BT803_4_3_4,Length=0.007280000,Units=km
new line.18698305 bus1=BBT148525345.1.2.3.0,bus2=BBT148525346.1.2.3.0,Phases=3,Linecode=BT803_BT803_4_3_4,Length=0.036997000,Units=km
new line.18698307 bus1=BBT148525346.1.2.3.0,bus2=BBT148525359.1.2.3.0,Phases=3,Linecode=BT803_BT803_4_3_4,Length=0.042716000,Units=km
new line.18698308 bus1=BBT148525359.1.2.3.0,bus2=BBT148525370.1.2.3.0,Phases=3,Linecode=BT803_BT803_4_3_4,Length=0.036052000,Units=km
new line.18698309 bus1=BBT148525293.1.2.3.0,bus2=BBT148525394.1.2.3.0,Phases=3,Linecode=BT803_BT803_4_3_4,Length=0.026568000,Units=km
new line.18698310 bus1=BBT148525394.1.2.3.0,bus2=BBT148525395.1.2.3.0,Phases=3,Linecode=BT803_BT803_4_3_4,Length=0.026568000,Units=km
new line.18698311 bus1=BBT148525394.1.2.3.0,bus2=BBT148525400.1.2.3.0,Phases=3,Linecode=BT803_BT803_4_3_4,Length=0.025078000,Units=km
new line.18698312 bus1=BBT148525400.1.2.3.0,bus2=BBT148525406.1.2.3.0,Phases=3,Linecode=BT803_BT803_4_3_4,Length=0.030362000,Units=km
new line.18698314 bus1=BBT148524314.1.2.3.0,bus2=BBT148525428.1.2.3.0,Phases=3,Linecode=BT803_BT803_4_3_4,Length=0.034173000,Units=km
new line.18698316 bus1=BBT148525428.1.2.3.0,bus2=BBT148525436.1.2.3.0,Phases=3,Linecode=BT803_BT803_4_3_4,Length=0.034782000,Units=km
new line.18698318 bus1=BBT148525406.1.2.3.0,bus2=BBT148525438.1.2.3.0,Phases=3,Linecode=BT803_BT803_4_3_4,Length=0.028790000,Units=km
new line.18698340 bus1=BBT148525293.1.2.3.0,bus2=BBT148525967.1.2.3.0,Phases=3,Linecode=BT803_BT803_4_3_4,Length=0.026924000,Units=km
new line.18698343 bus1=BBT148525967.1.2.3.0,bus2=BBT148525978.1.2.3.0,Phases=3,Linecode=BT803_BT803_4_3_4,Length=0.022359000,Units=km
new line.18698344 bus1=BBT148525978.1.2.3.0,bus2=BBT148525979.1.2.3.0,Phases=3,Linecode=BT803_BT803_4_3_4,Length=0.030673000,Units=km
new line.18698350 bus1=BBT148525436.1.2.3.0,bus2=BBT148526022.1.2.3.0,Phases=3,Linecode=BT803_BT803_4_3_4,Length=0.034173000,Units=km
new line.18698351 bus1=BBT148525438.1.2.3.0,bus2=BBT148526023.1.2.3.0,Phases=3,Linecode=BT803_BT803_4_3_4,Length=0.036052000,Units=km
new line.18698352 bus1=BBT148525979.1.2.3.0,bus2=BBT148526030.1.2.3.0,Phases=3,Linecode=BT803_BT803_4_3_4,Length=0.030673000,Units=km
new line.18698353 bus1=BBT148526030.1.2.3.0,bus2=BBT148526034.1.2.3.0,Phases=3,Linecode=BT803_BT803_4_3_4,Length=0.036052000,Units=km
new line.18698355 bus1=BBT148525967.1.2.3.0,bus2=BBT148526035.1.2.3.0,Phases=3,Linecode=BT803_BT803_4_3_4,Length=0.023407000,Units=km
new line.18698368 bus1=BBT148526108.1.2.3.0,bus2=BBT148526109.1.2.3.0,Phases=3,Linecode=BT518_BT518_7_3_1,Length=0.000500000,Units=km
new line.18698370 bus1=BBT148526183.1.2.3.0,bus2=BBT148526184.1.2.3.0,Phases=3,Linecode=BT518_BT518_7_3_1,Length=0.000500000,Units=km
new line.18698374 bus1=BBT148526109.1.2.3.0,bus2=BBT148526232.1.2.3.0,Phases=3,Linecode=BT803_BT803_4_3_4,Length=0.019923000,Units=km
new line.18698376 bus1=BBT148526232.1.2.3.0,bus2=BBT148526257.1.2.3.0,Phases=3,Linecode=BT803_BT803_4_3_4,Length=0.006324000,Units=km
new line.18698378 bus1=BBT148526257.1.2.3.0,bus2=BBT148526263.1.2.3.0,Phases=3,Linecode=BT803_BT803_4_3_4,Length=0.025998000,Units=km
new line.18698379 bus1=BBT148525343.1.2.3.0,bus2=BBT148526264.1.2.3.0,Phases=3,Linecode=BT803_BT803_4_3_4,Length=0.026247000,Units=km
new line.18698384 bus1=BBT148526232.1.2.3.0,bus2=BBT148526328.1.2.3.0,Phases=3,Linecode=BT803_BT803_4_3_4,Length=0.006324000,Units=km
new line.18698385 bus1=BBT148526328.1.2.3.0,bus2=BBT148526329.1.2.3.0,Phases=3,Linecode=BT803_BT803_4_3_4,Length=0.037333000,Units=km
new line.18698386 bus1=BBT148526329.1.2.3.0,bus2=BBT148526330.1.2.3.0,Phases=3,Linecode=BT803_BT803_4_3_4,Length=0.042375000,Units=km
new line.18698388 bus1=BBT148526232.1.2.3.0,bus2=BBT148526336.1.2.3.0,Phases=3,Linecode=BT803_BT803_4_3_4,Length=0.023407000,Units=km
new line.18698389 bus1=BBT148526109.1.2.3.0,bus2=BBT148526337.1.2.3.0,Phases=3,Linecode=BT803_BT803_4_3_4,Length=0.025630000,Units=km
new line.18698390 bus1=BBT148526337.1.2.3.0,bus2=BBT148526338.1.2.3.0,Phases=3,Linecode=BT803_BT803_4_3_4,Length=0.006324000,Units=km
new line.18698391 bus1=BBT148526338.1.2.3.0,bus2=BBT148526339.1.2.3.0,Phases=3,Linecode=BT803_BT803_4_3_4,Length=0.036997000,Units=km
new line.18698392 bus1=BBT148526339.1.2.3.0,bus2=BBT148526345.1.2.3.0,Phases=3,Linecode=BT803_BT803_4_3_4,Length=0.042716000,Units=km
new line.18698396 bus1=BBT148526184.1.2.3.0,bus2=BBT148526435.1.2.3.0,Phases=3,Linecode=BT803_BT803_4_3_4,Length=0.022470000,Units=km
new line.18698397 bus1=BBT148526184.1.2.3.0,bus2=BBT148526438.1.2.3.0,Phases=3,Linecode=BT803_BT803_4_3_4,Length=0.026568000,Units=km
new line.18698401 bus1=BBT148526438.1.2.3.0,bus2=BBT148526444.1.2.3.0,Phases=3,Linecode=BT803_BT803_4_3_4,Length=0.027890000,Units=km
new line.18698402 bus1=BBT148526435.1.2.3.0,bus2=BBT148526447.1.2.3.0,Phases=3,Linecode=BT803_BT803_4_3_4,Length=0.004123000,Units=km
new line.18698403 bus1=BBT148526447.1.2.3.0,bus2=BBT148526455.1.2.3.0,Phases=3,Linecode=BT803_BT803_4_3_4,Length=0.022134000,Units=km
new line.18698404 bus1=BBT148526435.1.2.3.0,bus2=BBT148526456.1.2.3.0,Phases=3,Linecode=BT803_BT803_4_3_4,Length=0.004472000,Units=km
new line.18707177 bus1=BBT148763659.1.2.3.0,bus2=BBT148763656.1.2.3.0,Phases=3,Linecode=BT108_BT108_7_3_1,Length=0.029730000,Units=km
new line.18709911 bus1=BBT148835622.1.2.3.0,bus2=BBT148835623.1.2.3.0,Phases=3,Linecode=BT518_BT518_7_3_1,Length=0.000500000,Units=km
new line.18709968 bus1=BBT148836936.1.2.3.0,bus2=BBT148836937.1.2.3.0,Phases=3,Linecode=BT518_BT518_7_3_1,Length=0.000500000,Units=km
new line.18709973 bus1=BBT148837005.1.2.3.0,bus2=BBT148837006.1.2.3.0,Phases=3,Linecode=BT518_BT518_7_3_1,Length=0.000500000,Units=km
new line.18710016 bus1=BBT148837585.1.2.3.0,bus2=BBT148837586.1.2.3.0,Phases=3,Linecode=BT518_BT518_7_3_1,Length=0.000500000,Units=km
new line.18710043 bus1=BBT148838282.1.2.3.0,bus2=BBT148838283.1.2.3.0,Phases=3,Linecode=BT518_BT518_7_3_1,Length=0.000500000,Units=km
new line.18710106 bus1=BBT148839668.1.2.3.0,bus2=BBT148839669.1.2.3.0,Phases=3,Linecode=BT518_BT518_7_3_1,Length=0.000500000,Units=km
new line.18710112 bus1=BBT148839763.1.2.3.0,bus2=BBT148839764.1.2.3.0,Phases=3,Linecode=BT518_BT518_7_3_1,Length=0.000500000,Units=km
new line.18710117 bus1=BBT148839934.1.2.3.0,bus2=BBT148839935.1.2.3.0,Phases=3,Linecode=BT518_BT518_7_3_1,Length=0.000500000,Units=km
new line.18710123 bus1=BBT148840216.1.2.3.0,bus2=BBT148840217.1.2.3.0,Phases=3,Linecode=BT518_BT518_7_3_1,Length=0.000500000,Units=km
new line.18710128 bus1=BBT148840345.1.2.3.0,bus2=BBT148840346.1.2.3.0,Phases=3,Linecode=BT518_BT518_7_3_1,Length=0.000500000,Units=km
new line.18710144 bus1=BBT148835623.1.2.3.0,bus2=BBT148840588.1.2.3.0,Phases=3,Linecode=BT803_BT803_4_3_4,Length=0.025959000,Units=km
new line.18710145 bus1=BBT148835623.1.2.3.0,bus2=BBT148840589.1.2.3.0,Phases=3,Linecode=BT803_BT803_4_3_4,Length=0.025959000,Units=km
new line.18710147 bus1=BBT148840589.1.2.3.0,bus2=BBT148840591.1.2.3.0,Phases=3,Linecode=BT803_BT803_4_3_4,Length=0.035168000,Units=km
new line.18710149 bus1=BBT148840591.1.2.3.0,bus2=BBT148840592.1.2.3.0,Phases=3,Linecode=BT803_BT803_4_3_4,Length=0.010630000,Units=km
new line.18710150 bus1=BBT148840592.1.2.3.0,bus2=BBT148840593.1.2.3.0,Phases=3,Linecode=BT803_BT803_4_3_4,Length=0.021953000,Units=km
new line.18710152 bus1=BBT148840593.1.2.3.0,bus2=BBT148840596.1.2.3.0,Phases=3,Linecode=BT803_BT803_4_3_4,Length=0.009219000,Units=km
new line.18710154 bus1=BBT268209.1.2.0,bus2=BBT148840611.1.2.0,Phases=2,Linecode=BT803_BT803_4_2_4,Length=0.031046000,Units=km
new line.18710155 bus1=BBT148840593.1.2.3.0,bus2=BBT148840614.1.2.3.0,Phases=3,Linecode=BT803_BT803_4_3_4,Length=0.034652000,Units=km
new line.18710158 bus1=BBT148840614.1.2.3.0,bus2=BBT148840655.1.2.3.0,Phases=3,Linecode=BT803_BT803_4_3_4,Length=0.008544000,Units=km
new line.18710160 bus1=BBT148840591.1.2.3.0,bus2=BBT148840657.1.2.3.0,Phases=3,Linecode=BT803_BT803_4_3_4,Length=0.013038000,Units=km
new line.18710162 bus1=BBT148840657.1.2.3.0,bus2=BBT148840659.1.2.3.0,Phases=3,Linecode=BT803_BT803_4_3_4,Length=0.012648000,Units=km
new line.18710167 bus1=BBT148840756.1.2.3.0,bus2=BBT148840757.1.2.3.0,Phases=3,Linecode=BT518_BT518_7_3_1,Length=0.000500000,Units=km
new line.18710169 bus1=BBT148840757.1.2.3.0,bus2=BBT148840768.1.2.3.0,Phases=3,Linecode=BT803_BT803_4_3_4,Length=0.038272000,Units=km
new line.18710170 bus1=BBT148840768.1.2.3.0,bus2=BBT148840769.1.2.3.0,Phases=3,Linecode=BT803_BT803_4_3_4,Length=0.038272000,Units=km
new line.18710171 bus1=BBT148840769.1.2.3.0,bus2=BBT148840770.1.2.3.0,Phases=3,Linecode=BT803_BT803_4_3_4,Length=0.038272000,Units=km
new line.18710172 bus1=BBT148737173.1.2.3.0,bus2=BBT148840792.1.2.3.0,Phases=3,Linecode=BT803_BT803_4_3_4,Length=0.008246000,Units=km
new line.18710173 bus1=BBT148840792.1.2.3.0,bus2=BBT148840808.1.2.3.0,Phases=3,Linecode=BT803_BT803_4_3_4,Length=0.009434000,Units=km
new line.18710174 bus1=BBT148840808.1.2.3.0,bus2=BBT148840815.1.2.3.0,Phases=3,Linecode=BT803_BT803_4_3_4,Length=0.009848000,Units=km
new line.18710175 bus1=BBT148840815.1.2.3.0,bus2=BBT148840816.1.2.3.0,Phases=3,Linecode=BT803_BT803_4_3_4,Length=0.038272000,Units=km
new line.18710178 bus1=BBT148840659.1.2.3.0,bus2=BBT148840971.1.2.3.0,Phases=3,Linecode=BT803_BT803_4_3_4,Length=0.009055000,Units=km
new line.18710179 bus1=BBT148840971.1.2.3.0,bus2=BBT148840972.1.2.3.0,Phases=3,Linecode=BT803_BT803_4_3_4,Length=0.036997000,Units=km
new line.18710180 bus1=BBT148840768.1.2.3.0,bus2=BBT148840977.1.2.3.0,Phases=3,Linecode=BT803_BT803_4_3_4,Length=0.017087000,Units=km
new line.18710181 bus1=BBT148840977.1.2.3.0,bus2=BBT148840988.1.2.3.0,Phases=3,Linecode=BT803_BT803_4_3_4,Length=0.036997000,Units=km
new line.18710182 bus1=BBT148840988.1.2.3.0,bus2=BBT148840989.1.2.3.0,Phases=3,Linecode=BT803_BT803_4_3_4,Length=0.037944000,Units=km
new line.18710183 bus1=BBT148840815.1.2.3.0,bus2=BBT148840999.1.2.3.0,Phases=3,Linecode=BT803_BT803_4_3_4,Length=0.023852000,Units=km
new line.18710185 bus1=BBT148840977.1.2.3.0,bus2=BBT148841004.1.2.3.0,Phases=3,Linecode=BT803_BT803_4_3_4,Length=0.037333000,Units=km
new line.18710186 bus1=BBT148841006.1.2.3.0,bus2=BBT148841005.1.2.3.0,Phases=3,Linecode=BT803_BT803_4_3_4,Length=0.004472000,Units=km
new line.18710188 bus1=BBT148841016.1.2.3.0,bus2=BBT148841006.1.2.3.0,Phases=3,Linecode=BT803_BT803_4_3_4,Length=0.017087000,Units=km
new line.18710190 bus1=BBT148841006.1.2.3.0,bus2=BBT148841007.1.2.3.0,Phases=3,Linecode=BT803_BT803_4_3_4,Length=0.025630000,Units=km
new line.18710191 bus1=BBT148841007.1.2.3.0,bus2=BBT148841009.1.2.3.0,Phases=3,Linecode=BT803_BT803_4_3_4,Length=0.029730000,Units=km
new line.18710194 bus1=BBT148840757.1.2.3.0,bus2=BBT148841015.1.2.3.0,Phases=3,Linecode=BT803_BT803_4_3_4,Length=0.036997000,Units=km
new line.18710196 bus1=BBT148841015.1.2.3.0,bus2=BBT148841016.1.2.3.0,Phases=3,Linecode=BT803_BT803_4_3_4,Length=0.005385000,Units=km
new line.18710197 bus1=BBT148841016.1.2.3.0,bus2=BBT148841017.1.2.3.0,Phases=3,Linecode=BT803_BT803_4_3_4,Length=0.024350000,Units=km
new line.18710198 bus1=BBT148841017.1.2.3.0,bus2=BBT148841018.1.2.3.0,Phases=3,Linecode=BT803_BT803_4_3_4,Length=0.029408000,Units=km
new line.18710207 bus1=BBT148841005.1.2.3.0,bus2=BBT148841123.1.2.3.0,Phases=3,Linecode=BT803_BT803_4_3_4,Length=0.038894000,Units=km
new line.18710212 bus1=BBT148841006.1.2.3.0,bus2=BBT148841148.1.2.3.0,Phases=3,Linecode=BT803_BT803_4_3_4,Length=0.008062000,Units=km
new line.18710214 bus1=BBT148837006.1.2.3.0,bus2=BBT148841150.1.2.3.0,Phases=3,Linecode=BT803_BT803_4_3_4,Length=0.016762000,Units=km
new line.18710215 bus1=BBT148841150.1.2.3.0,bus2=BBT148841151.1.2.3.0,Phases=3,Linecode=BT803_BT803_4_3_4,Length=0.031013000,Units=km
new line.18710216 bus1=BBT148841151.1.2.3.0,bus2=BBT148841159.1.2.3.0,Phases=3,Linecode=BT803_BT803_4_3_4,Length=0.019312000,Units=km
new line.18710217 bus1=BBT148841150.1.2.3.0,bus2=BBT148841160.1.2.3.0,Phases=3,Linecode=BT803_BT803_4_3_4,Length=0.007615000,Units=km
new line.18710218 bus1=BBT148841160.1.2.3.0,bus2=BBT148841168.1.2.3.0,Phases=3,Linecode=BT803_BT803_4_3_4,Length=0.038272000,Units=km
new line.18710219 bus1=BBT148841168.1.2.3.0,bus2=BBT148841169.1.2.3.0,Phases=3,Linecode=BT803_BT803_4_3_4,Length=0.035111000,Units=km
new line.18710220 bus1=BBT148841169.1.2.3.0,bus2=BBT148841177.1.2.3.0,Phases=3,Linecode=BT803_BT803_4_3_4,Length=0.035732000,Units=km
new line.18710221 bus1=BBT148840589.1.2.3.0,bus2=BBT148841178.1.2.3.0,Phases=3,Linecode=BT803_BT803_4_3_4,Length=0.035732000,Units=km
new line.18710224 bus1=BBT148841178.1.2.3.0,bus2=BBT148841179.1.2.3.0,Phases=3,Linecode=BT803_BT803_4_3_4,Length=0.035111000,Units=km
new line.18710225 bus1=BBT148841179.1.2.3.0,bus2=BBT148841180.1.2.3.0,Phases=3,Linecode=BT803_BT803_4_3_4,Length=0.035111000,Units=km
new line.18710226 bus1=BBT148837006.1.2.3.0,bus2=BBT148841181.1.2.3.0,Phases=3,Linecode=BT803_BT803_4_3_4,Length=0.035111000,Units=km
new line.18710227 bus1=BBT148841181.1.2.3.0,bus2=BBT148841182.1.2.3.0,Phases=3,Linecode=BT803_BT803_4_3_4,Length=0.007615000,Units=km
new line.18710228 bus1=BBT148841182.1.2.3.0,bus2=BBT148841183.1.2.3.0,Phases=3,Linecode=BT803_BT803_4_3_4,Length=0.035111000,Units=km
new line.18710229 bus1=BBT148841183.1.2.3.0,bus2=BBT148841191.1.2.3.0,Phases=3,Linecode=BT803_BT803_4_3_4,Length=0.035732000,Units=km