new load.3004765799M1 bus1=BMT119973088.1.2.3.0,Phases=3,kv=13.8,kW=1.91538,pf=0.92,Vminpu=0.93,Vmaxpu=1.5,model=8,zipv=[0.5,0,0.5,1,0,0,0],daily=A4-1,status=variable
new load.3009008803M1 bus1=BMT150347573.1.2.3.0,Phases=3,kv=13.8,kW=19.68566,pf=0.92,Vminpu=0.93,Vmaxpu=1.5,model=8,zipv=[0.5,0,0.5,1,0,0,0],daily=A4-2,status=variable
new load.3009009304M1 bus1=BMT150347117.1.2.3.0,Phases=3,kv=13.8,kW=34.39718,pf=0.92,Vminpu=0.93,Vmaxpu=1.5,model=8,zipv=[0.5,0,0.5,1,0,0,0],daily=A4-3,status=variable
new load.3009012418M1 bus1=BMT150346831.1.2.3.0,Phases=3,kv=13.8,kW=26.30888,pf=0.92,Vminpu=0.93,Vmaxpu=1.5,model=8,zipv=[0.5,0,0.5,1,0,0,0],daily=A4-2,status=variable
new load.3009013800M1 bus1=BMT119973816.1.2.3.0,Phases=3,kv=13.8,kW=24.76596,pf=0.92,Vminpu=0.93,Vmaxpu=1.5,model=8,zipv=[0.5,0,0.5,1,0,0,0],daily=A4-3,status=variable
new load.3009014230M1 bus1=BMT150347121.1.2.3.0,Phases=3,kv=13.8,kW=44.37236,pf=0.92,Vminpu=0.93,Vmaxpu=1.5,model=8,zipv=[0.5,0,0.5,1,0,0,0],daily=A4-3,status=variable
new load.3009014490M1 bus1=BMT119974068.1.2.3.0,Phases=3,kv=13.8,kW=90.60718,pf=0.92,Vminpu=0.93,Vmaxpu=1.5,model=8,zipv=[0.5,0,0.5,1,0,0,0],daily=A4-3,status=variable
new load.3009018338M1 bus1=BMT172221621.1.2.3.0,Phases=3,kv=13.8,kW=98.49336,pf=0.92,Vminpu=0.93,Vmaxpu=1.5,model=8,zipv=[0.5,0,0.5,1,0,0,0],daily=A4-3,status=variable
new load.3009019167M1 bus1=BMT150343856.1.2.3.0,Phases=3,kv=13.8,kW=28.89804,pf=0.92,Vminpu=0.93,Vmaxpu=1.5,model=8,zipv=[0.5,0,0.5,1,0,0,0],daily=A4-2,status=variable
new load.3009019623M1 bus1=BMT133989636.1.2.3.0,Phases=3,kv=13.8,kW=147.2199,pf=0.92,Vminpu=0.93,Vmaxpu=1.5,model=8,zipv=[0.5,0,0.5,1,0,0,0],daily=A4-3,status=variable
new load.3009020114M1 bus1=BMT119965465.1.2.3.0,Phases=3,kv=13.8,kW=78.9415,pf=0.92,Vminpu=0.93,Vmaxpu=1.5,model=8,zipv=[0.5,0,0.5,1,0,0,0],daily=A4-3,status=variable
new load.3009022128M1 bus1=BMT119965500.1.2.3.0,Phases=3,kv=13.8,kW=79.76926,pf=0.92,Vminpu=0.93,Vmaxpu=1.5,model=8,zipv=[0.5,0,0.5,1,0,0,0],daily=A4-4,status=variable
new load.3009022325M1 bus1=BMT151801261.1.2.3.0,Phases=3,kv=13.8,kW=96.2438,pf=0.92,Vminpu=0.93,Vmaxpu=1.5,model=8,zipv=[0.5,0,0.5,1,0,0,0],daily=A4-4,status=variable
new load.3010001327M1 bus1=BMT150343860.1.2.3.0,Phases=3,kv=13.8,kW=29.83198,pf=0.92,Vminpu=0.93,Vmaxpu=1.5,model=8,zipv=[0.5,0,0.5,1,0,0,0],daily=A4-1,status=variable
new load.3013181982M1 bus1=BMT164992433.1.2.3.0,Phases=3,kv=13.8,kW=156.2135,pf=0.92,Vminpu=0.93,Vmaxpu=1.5,model=8,zipv=[0.5,0,0.5,1,0,0,0],daily=A4-3,status=variable
new load.3013404412M1 bus1=BMT162405528.1.2.3.0,Phases=3,kv=13.8,kW=137.89112,pf=0.92,Vminpu=0.93,Vmaxpu=1.5,model=8,zipv=[0.5,0,0.5,1,0,0,0],daily=A4-4,status=variable
new load.3013415335M1 bus1=BMT165919124.1.2.3.0,Phases=3,kv=13.8,kW=183.73816,pf=0.92,Vminpu=0.93,Vmaxpu=1.5,model=8,zipv=[0.5,0,0.5,1,0,0,0],daily=A4-4,status=variable
new load.3013544104M1 bus1=BMT165518229.1.2.0,Phases=2,kv=13.8,kW=13.96628,pf=0.92,Vminpu=0.93,Vmaxpu=1.5,model=8,zipv=[0.5,0,0.5,1,0,0,0],daily=A4-1,status=variable
