new line.RML10002756 bus1=BBT130026444.1.2.0,bus2=RML1060002756.1.2.0,Phases=2,Linecode=CABBTG04_4_2,Length=0.017000000,Units=km
new line.RML10002875 bus1=BBT2031240.1.2.3.0,bus2=RML1060002875.1.2.3.0,Phases=3,Linecode=CABBTG12_4_3,Length=0.017000000,Units=km
new line.RML10009007 bus1=BBT866272.1.2.3.0,bus2=RML1060009007.1.2.3.0,Phases=3,Linecode=CABBTG06_4_3,Length=0.017000000,Units=km
new line.RML10009014 bus1=BBT869352.1.2.3.0,bus2=RML1060009014.1.2.3.0,Phases=3,Linecode=CABBTG06_4_3,Length=0.017000000,Units=km
new line.RML10009063 bus1=BBT870031.1.2.3.0,bus2=RML1060009063.1.2.3.0,Phases=3,Linecode=CABBTG06_4_3,Length=0.017000000,Units=km
new line.RML10015433 bus1=BBT865656.1.2.3.0,bus2=RML1060015433.1.2.3.0,Phases=3,Linecode=CABBTG06_4_3,Length=0.017000000,Units=km
new line.RML10015762 bus1=BBT2877988.1.2.0,bus2=RML1060015762.1.2.0,Phases=2,Linecode=CABBTG04_4_2,Length=0.017000000,Units=km
new line.RML10016273 bus1=BBT4057684.1.2.0,bus2=RML1060016273.1.2.0,Phases=2,Linecode=CABBTG05_4_2,Length=0.017000000,Units=km
new line.RML10023259 bus1=BBT139643037.1.2.3.0,bus2=RML1060023259.1.2.3.0,Phases=3,Linecode=CABBTG08_4_3,Length=0.017000000,Units=km
new line.RML10036573 bus1=BBT148138643.1.2.3.0,bus2=RML1060036573.1.2.3.0,Phases=3,Linecode=CABBTG06_4_3,Length=0.017000000,Units=km
new line.RML10039014 bus1=BBT4660503.1.2.3.0,bus2=RML1060039014.1.2.3.0,Phases=3,Linecode=CABBTG06_4_3,Length=0.017000000,Units=km
new line.RML10039018 bus1=BBT3386594.1.2.0,bus2=RML1060039018.1.2.0,Phases=2,Linecode=CABBTG05_4_2,Length=0.017000000,Units=km
new line.RML10039022 bus1=BBT3782626.1.2.0,bus2=RML1060039022.1.2.0,Phases=2,Linecode=CABBTG05_4_2,Length=0.017000000,Units=km
new line.RML10039023 bus1=BBT864942.1.2.0,bus2=RML1060039023.1.2.0,Phases=2,Linecode=CABBTG05_4_2,Length=0.017000000,Units=km
new line.RML10039033 bus1=BBT4030153.1.0,bus2=RML1060039033.1.0,Phases=1,Linecode=CABBTG02_4_1,Length=0.017000000,Units=km
new line.RML10042876 bus1=BBT865726.1.2.0,bus2=RML1060042876.1.2.0,Phases=2,Linecode=CABBTG05_4_2,Length=0.017000000,Units=km
new line.RML10043165 bus1=BBT2873004.1.2.3.0,bus2=RML1060043165.1.2.3.0,Phases=3,Linecode=CABBTG06_4_3,Length=0.014000000,Units=km
new line.RML10043525 bus1=BBT3537304.1.2.3.0,bus2=RML1060043525.1.2.3.0,Phases=3,Linecode=CABBTG06_4_3,Length=0.017000000,Units=km
new line.RML10043541 bus1=BBT870024.1.3.0,bus2=RML1060043541.1.3.0,Phases=2,Linecode=CABBTG05_4_2,Length=0.009000000,Units=km
new line.RML10043549 bus1=BBT4246537.2.3.0,bus2=RML1060043549.2.3.0,Phases=2,Linecode=CABBTG04_4_2,Length=0.017000000,Units=km
new line.RML10043556 bus1=BBT2871709.1.0,bus2=RML1060043556.1.0,Phases=1,Linecode=CABBTG02_4_1,Length=0.017000000,Units=km
new line.RML10043559 bus1=BBT2871688.1.2.0,bus2=RML1060043559.1.2.0,Phases=2,Linecode=CABBTG05_4_2,Length=0.017000000,Units=km
new line.RML10043930 bus1=BBT4553858.1.2.3.0,bus2=RML1060043930.1.2.3.0,Phases=3,Linecode=CABBTG12_4_3,Length=0.017000000,Units=km
new line.RML10043937 bus1=BBT2873585.1.2.0,bus2=RML1060043937.1.2.0,Phases=2,Linecode=CABBTG05_4_2,Length=0.017000000,Units=km
new line.RML10043942 bus1=BBT869793.1.2.0,bus2=RML1060043942.1.2.0,Phases=2,Linecode=CABBTG05_4_2,Length=0.017000000,Units=km
new line.RML10043959 bus1=BBT3928695.1.2.3.0,bus2=RML1060043959.1.2.3.0,Phases=3,Linecode=CABBTG06_4_3,Length=0.017000000,Units=km
new line.RML10045411 bus1=BBT868197.1.2.0,bus2=RML1060045411.1.2.0,Phases=2,Linecode=CABBTG05_4_2,Length=0.017000000,Units=km
new line.RML10045843 bus1=BBT2871674.1.2.0,bus2=RML1060045843.1.2.0,Phases=2,Linecode=CABBTG05_4_2,Length=0.017000000,Units=km
new line.RML10045989 bus1=BBT868295.1.2.0,bus2=RML1060045989.1.2.0,Phases=2,Linecode=CABBTG05_4_2,Length=0.017000000,Units=km
new line.RML10048742 bus1=BBT4809274.1.2.0,bus2=RML1060048742.1.2.0,Phases=2,Linecode=CABBTG05_4_2,Length=0.017000000,Units=km
new line.RML10048747 bus1=BBT35261102.1.2.0,bus2=RML1060048747.1.2.0,Phases=2,Linecode=CABBTG05_4_2,Length=0.017000000,Units=km
new line.RML10058747 bus1=BBT868120.1.2.3.0,bus2=RML1060058747.1.2.3.0,Phases=3,Linecode=CABBTG06_4_3,Length=0.017000000,Units=km
new line.RML10058943 bus1=BBT868148.1.2.3.0,bus2=RML1060058943.1.2.3.0,Phases=3,Linecode=CABBTG06_4_3,Length=0.017000000,Units=km
new line.RML10067681 bus1=BBT865474.1.2.3.0,bus2=RML1060067681.1.2.3.0,Phases=3,Linecode=CABBTG07_4_3,Length=0.017000000,Units=km
new line.RML10070776 bus1=BBT685028.1.2.0,bus2=RML1060070776.1.2.0,Phases=2,Linecode=CABBTG05_4_2,Length=0.017000000,Units=km
new line.RML10073877 bus1=BBT4057684.1.0,bus2=RML1060073877.1.0,Phases=1,Linecode=CABBTG02_4_1,Length=0.017000000,Units=km
new line.RML10074273 bus1=BBT3617069.1.2.0,bus2=RML1060074273.1.2.0,Phases=2,Linecode=CABBTG05_4_2,Length=0.017000000,Units=km
new line.RML10074275 bus1=BBT866531.1.2.3.0,bus2=RML1060074275.1.2.3.0,Phases=3,Linecode=CABBTG06_4_3,Length=0.010000000,Units=km
new line.RML10074287 bus1=BBT864522.1.2.3.0,bus2=RML1060074287.1.2.3.0,Phases=3,Linecode=CABBTG06_4_3,Length=0.022000000,Units=km
new line.RML10075382 bus1=BBT3539894.1.2.0,bus2=RML1060075382.1.2.0,Phases=2,Linecode=CABBTG05_4_2,Length=0.017000000,Units=km
new line.RML10075385 bus1=BBT3539894.1.2.0,bus2=RML1060075385.1.2.0,Phases=2,Linecode=CABBTG05_4_2,Length=0.017000000,Units=km
new line.RML10075387 bus1=BBT3539894.1.2.0,bus2=RML1060075387.1.2.0,Phases=2,Linecode=CABBTG05_4_2,Length=0.017000000,Units=km
new line.RML10075389 bus1=BBT3539894.1.2.0,bus2=RML1060075389.1.2.0,Phases=2,Linecode=CABBTG05_4_2,Length=0.017000000,Units=km
new line.RML10075392 bus1=BBT3661701.1.2.0,bus2=RML1060075392.1.2.0,Phases=2,Linecode=CABBTG05_4_2,Length=0.017000000,Units=km
new line.RML10079850 bus1=BBT4246537.1.2.3.0,bus2=RML1060079850.1.2.3.0,Phases=3,Linecode=CABBTG06_4_3,Length=0.017000000,Units=km
new line.RML10090424 bus1=BBT148138643.1.2.3.0,bus2=RML1060090424.1.2.3.0,Phases=3,Linecode=CABBTG06_4_3,Length=0.017000000,Units=km
new line.RML10091520 bus1=BBT4144211.1.2.0,bus2=RML1060091520.1.2.0,Phases=2,Linecode=CABBTG05_4_2,Length=0.017000000,Units=km
new line.RML10091530 bus1=BBT130625217.1.2.0,bus2=RML1060091530.1.2.0,Phases=2,Linecode=CABBTG05_4_2,Length=0.017000000,Units=km
new line.RML10091558 bus1=BBT865726.1.2.0,bus2=RML1060091558.1.2.0,Phases=2,Linecode=CABBTG05_4_2,Length=0.017000000,Units=km
new line.RML10091564 bus1=BBT4040233.1.0,bus2=RML1060091564.1.0,Phases=1,Linecode=CABBTG02_4_1,Length=0.017000000,Units=km
new line.RML10091835 bus1=BBT686141.1.2.0,bus2=RML1060091835.1.2.0,Phases=2,Linecode=CABBTG05_4_2,Length=0.017000000,Units=km
new line.RML10095081 bus1=BBT868806.1.2.3.0,bus2=RML1060095081.1.2.3.0,Phases=3,Linecode=CABBTG06_4_3,Length=0.017000000,Units=km
new line.RML10104358 bus1=BBT35261102.1.2.0,bus2=RML1060104358.1.2.0,Phases=2,Linecode=CABBTG05_4_2,Length=0.006000000,Units=km
new line.RML10104363 bus1=BBT4184349.1.2.0,bus2=RML1060104363.1.2.0,Phases=2,Linecode=CABBTG05_4_2,Length=0.013000000,Units=km
new line.RML10104427 bus1=BBT866272.1.2.0,bus2=RML1060104427.1.2.0,Phases=2,Linecode=CABBTG05_4_2,Length=0.010000000,Units=km
new line.RML10104513 bus1=BBT4116512.1.2.0,bus2=RML1060104513.1.2.0,Phases=2,Linecode=CABBTG05_4_2,Length=0.016000000,Units=km
new line.RML10104551 bus1=BBT867329.1.2.0,bus2=RML1060104551.1.2.0,Phases=2,Linecode=CABBTG05_4_2,Length=0.018000000,Units=km
new line.RML10104554 bus1=BBT2877981.1.0,bus2=RML1060104554.1.0,Phases=1,Linecode=CABBTG02_4_1,Length=0.016000000,Units=km
new line.RML10104557 bus1=BBT2872157.1.2.0,bus2=RML1060104557.1.2.0,Phases=2,Linecode=CABBTG05_4_2,Length=0.015000000,Units=km
new line.RML10104563 bus1=BBT866272.1.2.0,bus2=RML1060104563.1.2.0,Phases=2,Linecode=CABBTG05_4_2,Length=0.012000000,Units=km
new line.RML10104617 bus1=BBT130267671.1.2.3.0,bus2=RML1060104617.1.2.3.0,Phases=3,Linecode=CABBTG07_4_3,Length=0.015000000,Units=km
new line.RML10110142 bus1=BBT55481512.1.2.3.0,bus2=RML1060110142.1.2.3.0,Phases=3,Linecode=CABBTG06_4_3,Length=0.017000000,Units=km
new line.RML10110154 bus1=BBT4185133.1.2.0,bus2=RML1060110154.1.2.0,Phases=2,Linecode=CABBTG05_4_2,Length=0.015000000,Units=km
new line.RML10110170 bus1=BBT2873732.1.2.0,bus2=RML1060110170.1.2.0,Phases=2,Linecode=CABBTG05_4_2,Length=0.010000000,Units=km
new line.RML10110646 bus1=BBT3944214.1.2.0,bus2=RML1060110646.1.2.0,Phases=2,Linecode=CABBTG05_4_2,Length=0.015000000,Units=km
new line.RML10110701 bus1=BBT3386587.1.2.0,bus2=RML1060110701.1.2.0,Phases=2,Linecode=CABBTG05_4_2,Length=0.017000000,Units=km
new line.RML10110712 bus1=BBT112288024.1.2.0,bus2=RML1060110712.1.2.0,Phases=2,Linecode=CABBTG05_4_2,Length=0.015000000,Units=km
new line.RML10110714 bus1=BBT866769.1.2.3.0,bus2=RML1060110714.1.2.3.0,Phases=3,Linecode=CABBTG07_4_3,Length=0.009000000,Units=km
new line.RML10110739 bus1=BBT868918.1.2.3.0,bus2=RML1060110739.1.2.3.0,Phases=3,Linecode=CABBTG06_4_3,Length=0.020000000,Units=km
new line.RML10110750 bus1=BBT2871681.1.2.3.0,bus2=RML1060110750.1.2.3.0,Phases=3,Linecode=CABBTG06_4_3,Length=0.020000000,Units=km
new line.RML10110755 bus1=BBT4231165.1.2.0,bus2=RML1060110755.1.2.0,Phases=2,Linecode=CABBTG05_4_2,Length=0.008000000,Units=km
new line.RML10113772 bus1=BBT2872052.1.2.0,bus2=RML1060113772.1.2.0,Phases=2,Linecode=CABBTG05_4_2,Length=0.017000000,Units=km
new line.RML10113800 bus1=BBT3944200.1.2.0,bus2=RML1060113800.1.2.0,Phases=2,Linecode=CABBTG05_4_2,Length=0.017000000,Units=km
new line.RML10113812 bus1=BBT4709335.1.2.0,bus2=RML1060113812.1.2.0,Phases=2,Linecode=CABBTG05_4_2,Length=0.017000000,Units=km
new line.RML10113814 bus1=BBT4709335.1.2.0,bus2=RML1060113814.1.2.0,Phases=2,Linecode=CABBTG05_4_2,Length=0.017000000,Units=km
new line.RML10113819 bus1=BBT4040261.1.2.0,bus2=RML1060113819.1.2.0,Phases=2,Linecode=CABBTG05_4_2,Length=0.017000000,Units=km
new line.RML10113903 bus1=BBT867749.1.2.0,bus2=RML1060113903.1.2.0,Phases=2,Linecode=CABBTG05_4_2,Length=0.017000000,Units=km
new line.RML10113907 bus1=BBT867749.1.2.0,bus2=RML1060113907.1.2.0,Phases=2,Linecode=CABBTG05_4_2,Length=0.017000000,Units=km
new line.RML10113918 bus1=BBT85124706.1.2.3.0,bus2=RML1060113918.1.2.3.0,Phases=3,Linecode=CABBTG06_4_3,Length=0.017000000,Units=km
new line.RML10113922 bus1=BBT4809848.1.2.3.0,bus2=RML1060113922.1.2.3.0,Phases=3,Linecode=CABBTG06_4_3,Length=0.017000000,Units=km
new line.RML10113925 bus1=BBT69289838.1.2.0,bus2=RML1060113925.1.2.0,Phases=2,Linecode=CABBTG05_4_2,Length=0.017000000,Units=km
new line.RML10113981 bus1=BBT2872864.1.2.0,bus2=RML1060113981.1.2.0,Phases=2,Linecode=CABBTG05_4_2,Length=0.017000000,Units=km
new line.RML10113991 bus1=BBT4368232.1.2.3.0,bus2=RML1060113991.1.2.3.0,Phases=3,Linecode=CABBTG06_4_3,Length=0.017000000,Units=km
new line.RML10114019 bus1=BBT866671.1.2.3.0,bus2=RML1060114019.1.2.3.0,Phases=3,Linecode=CABBTG06_4_3,Length=0.017000000,Units=km
new line.RML10114027 bus1=BBT864606.1.2.3.0,bus2=RML1060114027.1.2.3.0,Phases=3,Linecode=CABBTG06_4_3,Length=0.017000000,Units=km
new line.RML10114031 bus1=BBT868085.1.0,bus2=RML1060114031.1.0,Phases=1,Linecode=CABBTG02_4_1,Length=0.017000000,Units=km
new line.RML10114032 bus1=BBT4156657.1.2.0,bus2=RML1060114032.1.2.0,Phases=2,Linecode=CABBTG05_4_2,Length=0.017000000,Units=km
new line.RML10114037 bus1=BBT869541.1.2.0,bus2=RML1060114037.1.2.0,Phases=2,Linecode=CABBTG05_4_2,Length=0.017000000,Units=km
new line.RML10114038 bus1=BBT868127.1.2.0,bus2=RML1060114038.1.2.0,Phases=2,Linecode=CABBTG05_4_2,Length=0.017000000,Units=km
new line.RML10114040 bus1=BBT866251.1.2.0,bus2=RML1060114040.1.2.0,Phases=2,Linecode=CABBTG05_4_2,Length=0.017000000,Units=km
new line.RML10114041 bus1=BBT866251.1.2.0,bus2=RML1060114041.1.2.0,Phases=2,Linecode=CABBTG05_4_2,Length=0.017000000,Units=km
new line.RML10114326 bus1=BBT866503.1.2.3.0,bus2=RML1060114326.1.2.3.0,Phases=3,Linecode=CABBTG06_4_3,Length=0.017000000,Units=km
new line.RML10115430 bus1=BBT2032857.1.2.3.0,bus2=RML1060115430.1.2.3.0,Phases=3,Linecode=CABBTG06_4_3,Length=0.017000000,Units=km
new line.RML10121316 bus1=BBT866265.1.2.3.0,bus2=RML1060121316.1.2.3.0,Phases=3,Linecode=CABBTG06_4_3,Length=0.018000000,Units=km
new line.RML10121341 bus1=BBT868309.1.0,bus2=RML1060121341.1.0,Phases=1,Linecode=CABBTG02_4_1,Length=0.017000000,Units=km
new line.RML10126601 bus1=BBT2033529.1.2.3.0,bus2=RML1060126601.1.2.3.0,Phases=3,Linecode=CABBTG06_4_3,Length=0.017000000,Units=km
new line.RML10126724 bus1=BBT130218902.1.2.3.0,bus2=RML1060126724.1.2.3.0,Phases=3,Linecode=CABBTG11_4_3,Length=0.017000000,Units=km
new line.RML10129406 bus1=BBT2032017.1.2.0,bus2=RML1060129406.1.2.0,Phases=2,Linecode=CABBTG05_4_2,Length=0.017000000,Units=km
new line.RML10129415 bus1=BBT2035272.1.2.0,bus2=RML1060129415.1.2.0,Phases=2,Linecode=CABBTG05_4_2,Length=0.017000000,Units=km
new line.RML10132212 bus1=BBT868687.1.2.0,bus2=RML1060132212.1.2.0,Phases=2,Linecode=CABBTG05_4_2,Length=0.017000000,Units=km
new line.RML10132793 bus1=BBT126634118.1.2.3.0,bus2=RML1060132793.1.2.3.0,Phases=3,Linecode=CABBTG06_4_3,Length=0.008000000,Units=km
new line.RML10132848 bus1=BBT88848377.1.2.3.0,bus2=RML1060132848.1.2.3.0,Phases=3,Linecode=CABBTG06_4_3,Length=0.020000000,Units=km
new line.RML10132889 bus1=BBT88827615.1.2.3.0,bus2=RML1060132889.1.2.3.0,Phases=3,Linecode=CABBTG06_4_3,Length=0.018000000,Units=km
new line.RML10132894 bus1=BBT868071.1.2.3.0,bus2=RML1060132894.1.2.3.0,Phases=3,Linecode=CABBTG06_4_3,Length=0.015000000,Units=km
new line.RML10136174 bus1=BBT156763077.1.2.3.0,bus2=RML1060136174.1.2.3.0,Phases=3,Linecode=CABBTG06_4_3,Length=0.017000000,Units=km
new line.RML10136264 bus1=BBT4068646.1.2.0,bus2=RML1060136264.1.2.0,Phases=2,Linecode=CABBTG05_4_2,Length=0.017000000,Units=km
new line.RML10137895 bus1=BBT81321249.1.2.3.0,bus2=RML1060137895.1.2.3.0,Phases=3,Linecode=CABBTG06_4_3,Length=0.017000000,Units=km
new line.RML10138244 bus1=BBT869009.1.2.3.0,bus2=RML1060138244.1.2.3.0,Phases=3,Linecode=CABBTG06_4_3,Length=0.017000000,Units=km
new line.RML10138247 bus1=BBT871641.1.2.0,bus2=RML1060138247.1.2.0,Phases=2,Linecode=CABBTG05_4_2,Length=0.017000000,Units=km
new line.RML10138280 bus1=BBT870696.1.2.3.0,bus2=RML1060138280.1.2.3.0,Phases=3,Linecode=CABBTG06_4_3,Length=0.017000000,Units=km
new line.RML10138872 bus1=BBT868050.1.0,bus2=RML1060138872.1.0,Phases=1,Linecode=CABBTG02_4_1,Length=0.017000000,Units=km
new line.RML10140352 bus1=BBT150792952.1.2.3.0,bus2=RML1060140352.1.2.3.0,Phases=3,Linecode=CABBTG06_4_3,Length=0.017000000,Units=km
new line.RML10140354 bus1=BBT2872647.1.2.0,bus2=RML1060140354.1.2.0,Phases=2,Linecode=CABBTG05_4_2,Length=0.017000000,Units=km
new line.RML10143788 bus1=BBT149244219.1.2.0,bus2=RML1060143788.1.2.0,Phases=2,Linecode=CABBTG05_4_2,Length=0.017000000,Units=km
new line.RML10143791 bus1=BBT121446173.1.2.3.0,bus2=RML1060143791.1.2.3.0,Phases=3,Linecode=CABBTG06_4_3,Length=0.022000000,Units=km
new line.RML10143857 bus1=BBT2871695.1.2.3.0,bus2=RML1060143857.1.2.3.0,Phases=3,Linecode=CABBTG06_4_3,Length=0.013000000,Units=km
new line.RML10144334 bus1=BBT125297846.1.2.0,bus2=RML1060144334.1.2.0,Phases=2,Linecode=CABBTG05_4_2,Length=0.017000000,Units=km
new line.RML10144337 bus1=BBT869471.1.2.0,bus2=RML1060144337.1.2.0,Phases=2,Linecode=CABBTG05_4_2,Length=0.017000000,Units=km
new line.RML10144546 bus1=BBT3386594.1.2.0,bus2=RML1060144546.1.2.0,Phases=2,Linecode=CABBTG05_4_2,Length=0.017000000,Units=km
new line.RML10144557 bus1=BBT154405806.1.2.3.0,bus2=RML1060144557.1.2.3.0,Phases=3,Linecode=CABBTG06_4_3,Length=0.017000000,Units=km
new line.RML10144558 bus1=BBT5073559.1.2.3.0,bus2=RML1060144558.1.2.3.0,Phases=3,Linecode=CABBTG12_4_3,Length=0.017000000,Units=km
new line.RML10144560 bus1=BBT126626187.1.2.0,bus2=RML1060144560.1.2.0,Phases=2,Linecode=CABBTG05_4_2,Length=0.017000000,Units=km
new line.RML10145138 bus1=BBT868498.1.2.0,bus2=RML1060145138.1.2.0,Phases=2,Linecode=CABBTG05_4_2,Length=0.017000000,Units=km
new line.RML10145181 bus1=BBT868456.1.2.0,bus2=RML1060145181.1.2.0,Phases=2,Linecode=CABBTG05_4_2,Length=0.017000000,Units=km
new line.RML10146956 bus1=BBT865096.1.2.0,bus2=RML1060146956.1.2.0,Phases=2,Linecode=CABBTG04_4_2,Length=0.017000000,Units=km
new line.RML10146986 bus1=BBT4292009.1.2.3.0,bus2=RML1060146986.1.2.3.0,Phases=3,Linecode=CABBTG06_4_3,Length=0.017000000,Units=km
new line.RML10146996 bus1=BBT158944160.1.2.0,bus2=RML1060146996.1.2.0,Phases=2,Linecode=CABBTG05_4_2,Length=0.017000000,Units=km
new line.RML10160304 bus1=BBT4176089.1.2.3.0,bus2=RML1060160304.1.2.3.0,Phases=3,Linecode=CABBTG12_4_3,Length=0.018000000,Units=km
new line.RML10160397 bus1=BBT4159968.1.2.3.0,bus2=RML1060160397.1.2.3.0,Phases=3,Linecode=CABBTG06_4_3,Length=0.022000000,Units=km
new line.RML10160400 bus1=BBT2872129.1.2.0,bus2=RML1060160400.1.2.0,Phases=2,Linecode=CABBTG05_4_2,Length=0.013000000,Units=km
new line.RML10160479 bus1=BBT3928695.1.2.3.0,bus2=RML1060160479.1.2.3.0,Phases=3,Linecode=CABBTG07_4_3,Length=0.022000000,Units=km
new line.RML10162924 bus1=BBT121370741.1.2.3.0,bus2=RML1060162924.1.2.3.0,Phases=3,Linecode=CABBTG09_4_3,Length=0.017000000,Units=km
new line.RML10163614 bus1=BBT868309.1.3.0,bus2=RML1060163614.1.3.0,Phases=2,Linecode=CABBTG04_4_2,Length=0.017000000,Units=km
new line.RML10165378 bus1=BBT4973935.1.2.0,bus2=RML1060165378.1.2.0,Phases=2,Linecode=CABBTG04_4_2,Length=0.017000000,Units=km
new line.RML10167110 bus1=BBT865957.1.2.3.0,bus2=RML1060167110.1.2.3.0,Phases=3,Linecode=CABBTG11_4_3,Length=0.017000000,Units=km
new line.RML10167425 bus1=BBT866265.1.2.3.0,bus2=RML1060167425.1.2.3.0,Phases=3,Linecode=CABBTG06_4_3,Length=0.011000000,Units=km
new line.RML10167866 bus1=BBT158944424.1.2.3.0,bus2=RML1060167866.1.2.3.0,Phases=3,Linecode=CABBTG06_4_3,Length=0.017000000,Units=km
new line.RML10169321 bus1=BBT866307.1.2.3.0,bus2=RML1060169321.1.2.3.0,Phases=3,Linecode=CABBTG11_4_3,Length=0.017000000,Units=km
new line.RML10170316 bus1=BBT866314.1.2.0,bus2=RML1060170316.1.2.0,Phases=2,Linecode=CABBTG04_4_2,Length=0.017000000,Units=km
new line.RML10171740 bus1=BBT682277.1.2.0,bus2=RML1060171740.1.2.0,Phases=2,Linecode=CABBTG05_4_2,Length=0.017000000,Units=km
new line.RML10176022 bus1=BBT4198125.1.0,bus2=RML1060176022.1.0,Phases=1,Linecode=CABBTG02_4_1,Length=0.017000000,Units=km
new line.RML10176198 bus1=BBT678378.1.2.0,bus2=RML1060176198.1.2.0,Phases=2,Linecode=CABBTG05_4_2,Length=0.017000000,Units=km
new line.RML10177564 bus1=BBT2877988.1.0,bus2=RML1060177564.1.0,Phases=1,Linecode=CABBTG02_4_1,Length=0.017000000,Units=km
new line.RML10178071 bus1=BBT869009.1.2.3.0,bus2=RML1060178071.1.2.3.0,Phases=3,Linecode=CABBTG11_4_3,Length=0.017000000,Units=km
new line.RML10178334 bus1=BBT866573.1.2.3.0,bus2=RML1060178334.1.2.3.0,Phases=3,Linecode=CABBTG06_4_3,Length=0.017000000,Units=km
new line.RML10178800 bus1=BBT4224214.1.0,bus2=RML1060178800.1.0,Phases=1,Linecode=CABBTG02_4_1,Length=0.017000000,Units=km
new line.RML10180816 bus1=BBT688549.1.2.0,bus2=RML1060180816.1.2.0,Phases=2,Linecode=CABBTG05_4_2,Length=0.017000000,Units=km
new line.RML10181453 bus1=BBT688549.1.2.0,bus2=RML1060181453.1.2.0,Phases=2,Linecode=CABBTG05_4_2,Length=0.017000000,Units=km
new line.RML10187546 bus1=BBT88750027.1.2.3.0,bus2=RML1060187546.1.2.3.0,Phases=3,Linecode=CABBTG06_4_3,Length=0.017000000,Units=km
new line.RML10188078 bus1=BBT130626176.1.2.3.0,bus2=RML1060188078.1.2.3.0,Phases=3,Linecode=CABBTG06_4_3,Length=0.017000000,Units=km
new line.RML10188316 bus1=BBT869121.1.2.3.0,bus2=RML1060188316.1.2.3.0,Phases=3,Linecode=CABBTG06_4_3,Length=0.017000000,Units=km
new line.RML10195270 bus1=BBT4064061.1.2.0,bus2=RML1060195270.1.2.0,Phases=2,Linecode=CABBTG05_4_2,Length=0.017000000,Units=km
new line.RML10195341 bus1=BBT165798946.1.2.3.0,bus2=RML1060195341.1.2.3.0,Phases=3,Linecode=CABBTG08_4_3,Length=0.017000000,Units=km
new line.RML10200628 bus1=BBT4156629.1.2.3.0,bus2=RML1060200628.1.2.3.0,Phases=3,Linecode=CABBTG06_4_3,Length=0.017000000,Units=km
new line.RML10203834 bus1=BBT865698.1.2.3.0,bus2=RML1060203834.1.2.3.0,Phases=3,Linecode=CABBTG06_4_3,Length=0.017000000,Units=km
new line.RML10204337 bus1=BBT121443114.1.2.0,bus2=RML1060204337.1.2.0,Phases=2,Linecode=CABBTG04_4_2,Length=0.017000000,Units=km
new line.RML10205233 bus1=BBT4197929.1.2.0,bus2=RML1060205233.1.2.0,Phases=2,Linecode=CABBTG05_4_2,Length=0.017000000,Units=km
new line.RML10205249 bus1=BBT3580410.1.0,bus2=RML1060205249.1.0,Phases=1,Linecode=CABBTG02_4_1,Length=0.017000000,Units=km
new line.RML10205288 bus1=BBT3571912.1.2.0,bus2=RML1060205288.1.2.0,Phases=2,Linecode=CABBTG05_4_2,Length=0.017000000,Units=km
new line.RML10205316 bus1=BBT88878141.1.2.3.0,bus2=RML1060205316.1.2.3.0,Phases=3,Linecode=CABBTG06_4_3,Length=0.017000000,Units=km
new line.RML10205529 bus1=BBT868687.1.2.3.0,bus2=RML1060205529.1.2.3.0,Phases=3,Linecode=CABBTG08_4_3,Length=0.017000000,Units=km
new line.RML10205611 bus1=BBT130625217.1.2.3.0,bus2=RML1060205611.1.2.3.0,Phases=3,Linecode=CABBTG06_4_3,Length=0.017000000,Units=km
new line.RML10209013 bus1=BBT865971.1.2.3.0,bus2=RML1060209013.1.2.3.0,Phases=3,Linecode=CABBTG06_4_3,Length=0.017000000,Units=km
new line.RML10210441 bus1=BBT869751.1.2.0,bus2=RML1060210441.1.2.0,Phases=2,Linecode=CABBTG05_4_2,Length=0.017000000,Units=km
new line.RML10211783 bus1=BBT869310.1.2.3.0,bus2=RML1060211783.1.2.3.0,Phases=3,Linecode=CABBTG06_4_3,Length=0.017000000,Units=km
new line.RML10213025 bus1=BBT92829179.1.2.0,bus2=RML1060213025.1.2.0,Phases=2,Linecode=CABBTG05_4_2,Length=0.017000000,Units=km
new line.RML10216568 bus1=BBT867742.2.3.0,bus2=RML1060216568.2.3.0,Phases=2,Linecode=CABBTG05_4_2,Length=0.017000000,Units=km
new line.RML10218170 bus1=BBT130625301.1.2.0,bus2=RML1060218170.1.2.0,Phases=2,Linecode=CABBTG05_4_2,Length=0.017000000,Units=km
new line.RML10218270 bus1=BBT16475300.1.2.3.0,bus2=RML1060218270.1.2.3.0,Phases=3,Linecode=CABBTG07_4_3,Length=0.017000000,Units=km
new line.RML10218643 bus1=BBT4156650.1.2.0,bus2=RML1060218643.1.2.0,Phases=2,Linecode=CABBTG05_4_2,Length=0.017000000,Units=km
new line.RML10218697 bus1=BBT150793048.1.2.3.0,bus2=RML1060218697.1.2.3.0,Phases=3,Linecode=CABBTG07_4_3,Length=0.017000000,Units=km
new line.RML10218721 bus1=BBT2872976.1.0,bus2=RML1060218721.1.0,Phases=1,Linecode=CABBTG02_4_1,Length=0.017000000,Units=km
new line.RML10222309 bus1=BBT2872997.1.2.3.0,bus2=RML1060222309.1.2.3.0,Phases=3,Linecode=CABBTG10_4_3,Length=0.017000000,Units=km
new line.RML10222313 bus1=BBT3537304.1.2.3.0,bus2=RML1060222313.1.2.3.0,Phases=3,Linecode=CABBTG10_4_3,Length=0.017000000,Units=km
new line.RML10222314 bus1=BBT865824.1.2.0,bus2=RML1060222314.1.2.0,Phases=2,Linecode=CABBTG13_4_2,Length=0.017000000,Units=km
new line.RML10222317 bus1=BBT865782.1.3.0,bus2=RML1060222317.1.3.0,Phases=2,Linecode=CABBTG13_4_2,Length=0.017000000,Units=km
new line.RML10223205 bus1=BBT866587.1.2.3.0,bus2=RML1060223205.1.2.3.0,Phases=3,Linecode=CABBTG10_4_3,Length=0.017000000,Units=km
new line.RML10223207 bus1=BBT866531.1.2.0,bus2=RML1060223207.1.2.0,Phases=2,Linecode=CABBTG13_4_2,Length=0.017000000,Units=km
new line.RML10223265 bus1=BBT865789.1.2.0,bus2=RML1060223265.1.2.0,Phases=2,Linecode=CABBTG13_4_2,Length=0.017000000,Units=km
new line.RML10223827 bus1=BBT4224228.1.0,bus2=RML1060223827.1.0,Phases=1,Linecode=CABBTG02_4_1,Length=0.017000000,Units=km
new line.RML10224003 bus1=BBT4040191.1.2.3.0,bus2=RML1060224003.1.2.3.0,Phases=3,Linecode=CABBTG10_4_3,Length=0.017000000,Units=km
new line.RML10224004 bus1=BBT4040191.1.2.3.0,bus2=RML1060224004.1.2.3.0,Phases=3,Linecode=CABBTG10_4_3,Length=0.017000000,Units=km
new line.RML10225711 bus1=BBT3944179.1.2.3.0,bus2=RML1060225711.1.2.3.0,Phases=3,Linecode=CABBTG10_4_3,Length=0.017000000,Units=km
new line.RML10225712 bus1=BBT2872451.1.2.3.0,bus2=RML1060225712.1.2.3.0,Phases=3,Linecode=CABBTG10_4_3,Length=0.017000000,Units=km
new line.RML10225716 bus1=BBT4199735.1.2.0,bus2=RML1060225716.1.2.0,Phases=2,Linecode=CABBTG13_4_2,Length=0.017000000,Units=km
new line.RML10227865 bus1=BBT4197915.1.2.3.0,bus2=RML1060227865.1.2.3.0,Phases=3,Linecode=CABBTG06_4_3,Length=0.017000000,Units=km
new line.RML10227878 bus1=BBT865803.1.2.3.0,bus2=RML1060227878.1.2.3.0,Phases=3,Linecode=CABBTG06_4_3,Length=0.017000000,Units=km
new line.RML10227880 bus1=BBT4224214.1.0,bus2=RML1060227880.1.0,Phases=1,Linecode=CABBTG02_4_1,Length=0.017000000,Units=km
new line.RML10229210 bus1=BBT4144225.1.2.0,bus2=RML1060229210.1.2.0,Phases=2,Linecode=CABBTG13_4_2,Length=0.017000000,Units=km
new line.RML10229718 bus1=BBT148137781.1.2.3.0,bus2=RML1060229718.1.2.3.0,Phases=3,Linecode=CABBTG06_4_3,Length=0.017000000,Units=km
new line.RML10229719 bus1=BBT4031686.1.2.0,bus2=RML1060229719.1.2.0,Phases=2,Linecode=CABBTG05_4_2,Length=0.017000000,Units=km
new line.RML10229744 bus1=BBT868218.1.2.0,bus2=RML1060229744.1.2.0,Phases=2,Linecode=CABBTG05_4_2,Length=0.017000000,Units=km
new line.RML10234406 bus1=BBT88627611.1.2.3.0,bus2=RML1060234406.1.2.3.0,Phases=3,Linecode=CABBTG06_4_3,Length=0.017000000,Units=km
new line.RML10236274 bus1=BBT685322.1.2.0,bus2=RML1060236274.1.2.0,Phases=2,Linecode=CABBTG05_4_2,Length=0.017000000,Units=km
new line.RML10236283 bus1=BBT684580.1.2.0,bus2=RML1060236283.1.2.0,Phases=2,Linecode=CABBTG05_4_2,Length=0.017000000,Units=km
new line.RML10238038 bus1=BBT3661575.1.2.0,bus2=RML1060238038.1.2.0,Phases=2,Linecode=CABBTG05_4_2,Length=0.017000000,Units=km
new line.RML10238068 bus1=BBT4612798.2.0,bus2=RML1060238068.2.0,Phases=1,Linecode=CABBTG02_4_1,Length=0.017000000,Units=km
new line.RML10239242 bus1=BBT865894.1.0,bus2=RML1060239242.1.0,Phases=1,Linecode=CABBTG02_4_1,Length=0.017000000,Units=km
new line.RML10239268 bus1=BBT130267671.1.2.3.0,bus2=RML1060239268.1.2.3.0,Phases=3,Linecode=CABBTG06_4_3,Length=0.017000000,Units=km
new line.RML10239275 bus1=BBT2871786.1.0,bus2=RML1060239275.1.0,Phases=1,Linecode=CABBTG02_4_1,Length=0.017000000,Units=km
new line.RML10239329 bus1=BBT865096.1.2.3.0,bus2=RML1060239329.1.2.3.0,Phases=3,Linecode=CABBTG12_4_3,Length=0.017000000,Units=km
new line.RML10239384 bus1=BBT104741079.1.2.3.0,bus2=RML1060239384.1.2.3.0,Phases=3,Linecode=CABBTG06_4_3,Length=0.017000000,Units=km
new line.RML10239404 bus1=BBT130296378.1.2.3.0,bus2=RML1060239404.1.2.3.0,Phases=3,Linecode=CABBTG06_4_3,Length=0.017000000,Units=km
new line.RML10239408 bus1=BBT88829778.1.2.0,bus2=RML1060239408.1.2.0,Phases=2,Linecode=CABBTG05_4_2,Length=0.017000000,Units=km
new line.RML10240456 bus1=BBT2871800.1.0,bus2=RML1060240456.1.0,Phases=1,Linecode=CABBTG02_4_1,Length=0.017000000,Units=km
new line.RML10241408 bus1=BBT2873557.1.2.3.0,bus2=RML1060241408.1.2.3.0,Phases=3,Linecode=CABBTG06_4_3,Length=0.017000000,Units=km
new line.RML10243144 bus1=BBT869541.1.2.0,bus2=RML1060243144.1.2.0,Phases=2,Linecode=CABBTG05_4_2,Length=0.017000000,Units=km
new line.RML10243445 bus1=BBT4058055.1.2.3.0,bus2=RML1060243445.1.2.3.0,Phases=3,Linecode=CABBTG06_4_3,Length=0.017000000,Units=km
new line.RML10243459 bus1=BBT88729797.1.2.0,bus2=RML1060243459.1.2.0,Phases=2,Linecode=CABBTG05_4_2,Length=0.017000000,Units=km
new line.RML10243463 bus1=BBT2872066.1.2.0,bus2=RML1060243463.1.2.0,Phases=2,Linecode=CABBTG05_4_2,Length=0.017000000,Units=km
new line.RML10243471 bus1=BBT158841026.1.2.3.0,bus2=RML1060243471.1.2.3.0,Phases=3,Linecode=CABBTG06_4_3,Length=0.006000000,Units=km
new line.RML10245310 bus1=BBT868701.2.0,bus2=RML1060245310.2.0,Phases=1,Linecode=CABBTG02_4_1,Length=0.017000000,Units=km
new line.RML10251909 bus1=BBT3928695.1.2.3.0,bus2=RML1060251909.1.2.3.0,Phases=3,Linecode=CABBTG06_4_3,Length=0.017000000,Units=km
new line.RML10270055 bus1=BBT4242687.1.2.0,bus2=RML1060270055.1.2.0,Phases=2,Linecode=CABBTG05_4_2,Length=0.017000000,Units=km
new line.RML10270160 bus1=BBT88774345.1.2.0,bus2=RML1060270160.1.2.0,Phases=2,Linecode=CABBTG05_4_2,Length=0.017000000,Units=km
new line.RML10272555 bus1=BBT866293.1.2.3.0,bus2=RML1060272555.1.2.3.0,Phases=3,Linecode=CABBTG10_4_3,Length=0.017000000,Units=km
new line.RML10272566 bus1=BBT3928695.2.0,bus2=RML1060272566.2.0,Phases=1,Linecode=CABBTG02_4_1,Length=0.017000000,Units=km
new line.RML10272592 bus1=BBT866293.1.2.0,bus2=RML1060272592.1.2.0,Phases=2,Linecode=CABBTG13_4_2,Length=0.017000000,Units=km
new line.RML10272594 bus1=BBT130267664.1.2.0,bus2=RML1060272594.1.2.0,Phases=2,Linecode=CABBTG13_4_2,Length=0.017000000,Units=km
new line.RML10272597 bus1=BBT868113.1.2.0,bus2=RML1060272597.1.2.0,Phases=2,Linecode=CABBTG13_4_2,Length=0.017000000,Units=km
new line.RML10272601 bus1=BBT4031553.1.2.0,bus2=RML1060272601.1.2.0,Phases=2,Linecode=CABBTG05_4_2,Length=0.017000000,Units=km
new line.RML10272604 bus1=BBT4031553.3.0,bus2=RML1060272604.3.0,Phases=1,Linecode=CABBTG02_4_1,Length=0.017000000,Units=km
new line.RML10272639 bus1=BBT868414.1.3.0,bus2=RML1060272639.1.3.0,Phases=2,Linecode=CABBTG05_4_2,Length=0.017000000,Units=km
new line.RML10272645 bus1=BBT4156657.1.3.0,bus2=RML1060272645.1.3.0,Phases=2,Linecode=CABBTG05_4_2,Length=0.017000000,Units=km
new line.RML10272648 bus1=BBT2873725.1.2.3.0,bus2=RML1060272648.1.2.3.0,Phases=3,Linecode=CABBTG06_4_3,Length=0.017000000,Units=km
new line.RML10272649 bus1=BBT4040261.1.3.0,bus2=RML1060272649.1.3.0,Phases=2,Linecode=CABBTG05_4_2,Length=0.017000000,Units=km
new line.RML10272668 bus1=BBT3283533.1.2.3.0,bus2=RML1060272668.1.2.3.0,Phases=3,Linecode=CABBTG10_4_3,Length=0.017000000,Units=km
new line.RML10272670 bus1=BBT2872129.1.2.3.0,bus2=RML1060272670.1.2.3.0,Phases=3,Linecode=CABBTG10_4_3,Length=0.017000000,Units=km
new line.RML10272673 bus1=BBT4157329.1.3.0,bus2=RML1060272673.1.3.0,Phases=2,Linecode=CABBTG13_4_2,Length=0.017000000,Units=km
new line.RML10272682 bus1=BBT864655.1.2.3.0,bus2=RML1060272682.1.2.3.0,Phases=3,Linecode=CABBTG12_4_3,Length=0.017000000,Units=km
new line.RML10272963 bus1=BBT2877981.1.2.3.0,bus2=RML1060272963.1.2.3.0,Phases=3,Linecode=CABBT815_4_3,Length=0.017000000,Units=km
new line.RML10272992 bus1=BBT865831.1.2.0,bus2=RML1060272992.1.2.0,Phases=2,Linecode=CABBTG05_4_2,Length=0.017000000,Units=km
new line.RML10273005 bus1=BBT868085.1.2.3.0,bus2=RML1060273005.1.2.3.0,Phases=3,Linecode=CABBTG06_4_3,Length=0.017000000,Units=km