new line.10556302 bus1=BBT3097774.1.2.3.0,bus2=BBT3097781.1.2.3.0,Phases=3,Linecode=BT513_BT513_7_3_1,Length=0.000501000,Units=km
new line.10868593 bus1=BBT3221870.1.2.3.0,bus2=BBT866727.1.2.3.0,Phases=3,Linecode=BT803_BT803_4_3_4,Length=0.039457000,Units=km
new line.10868600 bus1=BBT3221863.1.2.3.0,bus2=BBT3221870.1.2.3.0,Phases=3,Linecode=BT513_BT513_7_3_1,Length=0.000501000,Units=km
new line.10868607 bus1=BBT3221870.1.2.3.0,bus2=BBT3221877.1.2.3.0,Phases=3,Linecode=BT803_BT803_4_3_4,Length=0.043058000,Units=km
new line.10868628 bus1=BBT3221877.1.2.3.0,bus2=BBT3221884.1.2.3.0,Phases=3,Linecode=BT803_BT803_4_3_4,Length=0.026427000,Units=km
new line.10996441 bus1=BBT3271493.1.2.3.0,bus2=BBT3271500.1.2.3.0,Phases=3,Linecode=BT514_BT514_7_3_1,Length=0.000501000,Units=km
new line.11371760 bus1=BBT3406033.1.2.3.0,bus2=BBT3406040.1.2.3.0,Phases=3,Linecode=BT810_BT810_4_3_4,Length=0.035857000,Units=km
new line.11384829 bus1=BBT3409134.1.2.0,bus2=BBT3409141.1.2.0,Phases=2,Linecode=BT517_BT517_7_2_1,Length=0.000501000,Units=km
new line.11385606 bus1=BBT3409281.1.2.0,bus2=BBT3409288.1.2.0,Phases=2,Linecode=BT518_BT518_7_2_1,Length=0.000501000,Units=km
new line.11385718 bus1=BBT4073056.1.2.0,bus2=BBT4073063.1.2.0,Phases=2,Linecode=BT518_BT518_7_2_1,Length=0.000501000,Units=km
new line.11385809 bus1=BBT3782605.1.2.0,bus2=BBT90513187.1.2.0,Phases=2,Linecode=BT801_BT801_4_2_3,Length=0.043875000,Units=km
new line.11385837 bus1=BBT3782612.1.2.0,bus2=BBT90513887.1.2.0,Phases=2,Linecode=BT801_BT801_4_2_3,Length=0.036410000,Units=km
new line.11385851 bus1=BBT3782626.1.2.0,bus2=BBT90514426.1.2.0,Phases=2,Linecode=BT801_BT801_4_2_3,Length=0.029975000,Units=km
new line.11504641 bus1=BBT3646175.1.2.0,bus2=BBT3646182.1.2.0,Phases=2,Linecode=BT809_BT809_4_2_4,Length=0.033250000,Units=km
new line.11504690 bus1=BBT3446220.1.2.0,bus2=BBT682018.1.2.0,Phases=2,Linecode=BT801_BT801_4_2_3,Length=0.037131000,Units=km
new line.11504697 bus1=BBT682011.1.2.0,bus2=BBT3446220.1.2.0,Phases=2,Linecode=BT517_BT517_7_2_1,Length=0.000501000,Units=km
new line.11504704 bus1=BBT3446220.1.2.0,bus2=BBT3446227.1.2.0,Phases=2,Linecode=BT801_BT801_4_2_3,Length=0.044023000,Units=km
new line.11504732 bus1=BBT3446227.1.2.0,bus2=BBT3763103.1.2.0,Phases=2,Linecode=BT801_BT801_4_2_3,Length=0.049043000,Units=km
new line.11710756 bus1=BBT3524872.1.2.3.0,bus2=BBT3524879.1.2.3.0,Phases=3,Linecode=BT803_BT803_4_3_4,Length=0.029077000,Units=km
new line.11710777 bus1=BBT3524879.1.2.3.0,bus2=BBT3524886.1.2.3.0,Phases=3,Linecode=BT803_BT803_4_3_4,Length=0.029690000,Units=km
new line.12076800 bus1=BBT3648898.1.2.3.0,bus2=BBT4224137.1.2.3.0,Phases=3,Linecode=BT810_BT810_4_3_4,Length=0.030895000,Units=km
new line.12076807 bus1=BBT3648898.1.2.3.0,bus2=BBT4224151.1.2.3.0,Phases=3,Linecode=BT810_BT810_4_3_4,Length=0.043058000,Units=km
new line.12077157 bus1=BBT3649241.1.2.3.0,bus2=BBT3649248.1.2.3.0,Phases=3,Linecode=BT301_BT501_5_3_1,Length=0.013004000,Units=km
new line.12077178 bus1=BBT3649227.1.2.3.0,bus2=BBT3649234.1.2.3.0,Phases=3,Linecode=BT301_BT501_5_3_1,Length=0.013042000,Units=km
new line.12077199 bus1=BBT3649234.1.2.3.0,bus2=BBT3649241.1.2.3.0,Phases=3,Linecode=BT301_BT501_5_3_1,Length=0.018033000,Units=km
new line.12084871 bus1=BBT3652265.1.2.0,bus2=BBT3652272.1.2.0,Phases=2,Linecode=BT508_BT508_7_2_1,Length=0.000501000,Units=km
new line.12092291 bus1=BBT5357661.1.2.0,bus2=BBT11225790.1.2.0,Phases=2,Linecode=BT808_BT808_4_2_3,Length=0.040035000,Units=km
new line.12093523 bus1=BBT3655394.1.2.0,bus2=BBT3655401.1.2.0,Phases=2,Linecode=BT807_BT807_4_2_3,Length=0.037172000,Units=km
new line.12093586 bus1=BBT3655359.1.2.0,bus2=BBT3655394.1.2.0,Phases=2,Linecode=BT807_BT807_4_2_3,Length=0.039061000,Units=km
new line.12093593 bus1=BBT3655352.1.2.0,bus2=BBT3655359.1.2.0,Phases=2,Linecode=BT513_BT513_7_2_1,Length=0.000501000,Units=km
new line.12093600 bus1=BBT3655359.1.2.0,bus2=BBT3655408.1.2.0,Phases=2,Linecode=BT808_BT808_4_2_3,Length=0.031153000,Units=km
new line.12093621 bus1=BBT3655408.1.2.0,bus2=BBT3655415.1.2.0,Phases=2,Linecode=BT807_BT807_4_2_3,Length=0.039329000,Units=km
new line.12093670 bus1=BBT3655415.1.2.0,bus2=BBT3655422.1.2.0,Phases=2,Linecode=BT807_BT807_4_2_3,Length=0.050491000,Units=km
new line.12093705 bus1=BBT3655422.1.2.0,bus2=BBT4579478.1.2.0,Phases=2,Linecode=BT808_BT808_4_2_3,Length=0.058615000,Units=km
new line.12094608 bus1=BBT3655541.1.2.3.0,bus2=BBT864410.1.2.3.0,Phases=3,Linecode=BT803_BT803_4_3_4,Length=0.018794000,Units=km
new line.12094636 bus1=BBT4184146.1.2.3.0,bus2=BBT4184153.1.2.3.0,Phases=3,Linecode=BT514_BT514_7_3_1,Length=0.000501000,Units=km
new line.12103918 bus1=BBT3661624.1.2.0,bus2=BBT3661631.1.2.0,Phases=2,Linecode=BT810_BT810_4_2_4,Length=0.039935000,Units=km
new line.12103939 bus1=BBT3661617.1.2.0,bus2=BBT3661624.1.2.0,Phases=2,Linecode=BT807_BT807_4_2_3,Length=0.039633000,Units=km
new line.12103967 bus1=BBT3661610.1.2.0,bus2=BBT3661617.1.2.0,Phases=2,Linecode=BT807_BT807_4_2_3,Length=0.039822000,Units=km
new line.12104023 bus1=BBT3661603.1.2.0,bus2=BBT3661610.1.2.0,Phases=2,Linecode=BT807_BT807_4_2_3,Length=0.042649000,Units=km
new line.12104044 bus1=BBT3661554.1.2.0,bus2=BBT3661603.1.2.0,Phases=2,Linecode=BT807_BT807_4_2_3,Length=0.043612000,Units=km
new line.12104051 bus1=BBT3661547.1.2.0,bus2=BBT3661554.1.2.0,Phases=2,Linecode=BT513_BT513_7_2_1,Length=0.000501000,Units=km
new line.12104058 bus1=BBT3661554.1.2.0,bus2=BBT3661575.1.2.0,Phases=2,Linecode=BT807_BT807_4_2_3,Length=0.046023000,Units=km
new line.12104072 bus1=BBT3661575.1.2.0,bus2=BBT3661582.1.2.0,Phases=2,Linecode=BT807_BT807_4_2_3,Length=0.037812000,Units=km
new line.12104100 bus1=BBT3661582.1.2.0,bus2=BBT3661589.1.2.0,Phases=2,Linecode=BT807_BT807_4_2_3,Length=0.039418000,Units=km
new line.12104121 bus1=BBT3661589.1.2.0,bus2=BBT3661596.1.2.0,Phases=2,Linecode=BT807_BT807_4_2_3,Length=0.042449000,Units=km
new line.12291063 bus1=BBT3740206.1.2.3.0,bus2=BBT3740199.1.2.3.0,Phases=3,Linecode=BT803_BT803_4_3_4,Length=0.046542000,Units=km
new line.12291077 bus1=BBT3740206.1.2.3.0,bus2=BBT4040219.1.2.3.0,Phases=3,Linecode=BT803_BT803_4_3_4,Length=0.043921000,Units=km
new line.12297923 bus1=BBT3782570.1.2.0,bus2=BBT90511157.1.2.0,Phases=2,Linecode=BT807_BT807_4_2_3,Length=0.038494000,Units=km
new line.12297951 bus1=BBT3782584.1.2.0,bus2=BBT3782591.1.2.0,Phases=2,Linecode=BT801_BT801_4_2_3,Length=0.025619000,Units=km
new line.12297972 bus1=BBT4068604.1.2.0,bus2=BBT4073070.1.2.0,Phases=2,Linecode=BT809_BT809_4_2_4,Length=0.033295000,Units=km
new line.12306575 bus1=BBT3748963.1.2.0,bus2=BBT3748970.1.2.0,Phases=2,Linecode=BT508_BT508_7_2_1,Length=0.000501000,Units=km
new line.12306925 bus1=BBT3749215.1.2.3.0,bus2=BBT3749222.1.2.3.0,Phases=3,Linecode=BT803_BT803_4_3_4,Length=0.046240000,Units=km
new line.12306932 bus1=BBT3749215.1.2.3.0,bus2=BBT3749243.1.2.3.0,Phases=3,Linecode=BT810_BT810_4_3_4,Length=0.050649000,Units=km
new line.12306960 bus1=BBT3749243.1.2.3.0,bus2=BBT3749250.1.2.3.0,Phases=3,Linecode=BT810_BT810_4_3_4,Length=0.035478000,Units=km
new line.12306981 bus1=BBT3749250.1.2.3.0,bus2=BBT3749257.1.2.3.0,Phases=3,Linecode=BT810_BT810_4_3_4,Length=0.024705000,Units=km
new line.12307009 bus1=BBT3749257.1.2.3.0,bus2=BBT3749264.1.2.3.0,Phases=3,Linecode=BT810_BT810_4_3_4,Length=0.028643000,Units=km
new line.12307044 bus1=BBT3749194.1.2.3.0,bus2=BBT3749215.1.2.3.0,Phases=3,Linecode=BT803_BT803_4_3_4,Length=0.049419000,Units=km
new line.10061479 bus1=BBT2919834.1.2.3.0,bus2=BBT2919841.1.2.3.0,Phases=3,Linecode=BT810_BT810_4_3_4,Length=0.038023000,Units=km
new line.10061500 bus1=BBT2919827.1.2.3.0,bus2=BBT2919834.1.2.3.0,Phases=3,Linecode=BT810_BT810_4_3_4,Length=0.037600000,Units=km
new line.10061528 bus1=BBT2919820.1.2.3.0,bus2=BBT2919827.1.2.3.0,Phases=3,Linecode=BT810_BT810_4_3_4,Length=0.034938000,Units=km
new line.10061556 bus1=BBT2919813.1.2.3.0,bus2=BBT2919820.1.2.3.0,Phases=3,Linecode=BT803_BT803_4_3_4,Length=0.031265000,Units=km
new line.10061584 bus1=BBT2919806.1.2.3.0,bus2=BBT2919813.1.2.3.0,Phases=3,Linecode=BT803_BT803_4_3_4,Length=0.029025000,Units=km
new line.10061612 bus1=BBT2919799.1.2.3.0,bus2=BBT2919806.1.2.3.0,Phases=3,Linecode=BT803_BT803_4_3_4,Length=0.033115000,Units=km
new line.10061633 bus1=BBT2919792.1.2.3.0,bus2=BBT2919799.1.2.3.0,Phases=3,Linecode=BT803_BT803_4_3_4,Length=0.020597000,Units=km
new line.10061654 bus1=BBT2919785.1.2.3.0,bus2=BBT2919792.1.2.3.0,Phases=3,Linecode=BT803_BT803_4_3_4,Length=0.039023000,Units=km
new line.10061675 bus1=BBT2919638.1.2.3.0,bus2=BBT2919785.1.2.3.0,Phases=3,Linecode=BT803_BT803_4_3_4,Length=0.042023000,Units=km
new line.10061682 bus1=BBT2919631.1.2.3.0,bus2=BBT2919638.1.2.3.0,Phases=3,Linecode=BT518_BT518_7_3_1,Length=0.000501000,Units=km
new line.10061689 bus1=BBT2919638.1.2.3.0,bus2=BBT2919778.1.2.3.0,Phases=3,Linecode=BT803_BT803_4_3_4,Length=0.047023000,Units=km
new line.10061724 bus1=BBT2919778.1.2.3.0,bus2=BBT2919848.1.2.3.0,Phases=3,Linecode=BT803_BT803_4_3_4,Length=0.046023000,Units=km
new line.10061745 bus1=BBT2919848.1.2.3.0,bus2=BBT2919855.1.2.3.0,Phases=3,Linecode=BT803_BT803_4_3_4,Length=0.048023000,Units=km
new line.10061766 bus1=BBT2919855.1.2.3.0,bus2=BBT2919862.1.2.3.0,Phases=3,Linecode=BT803_BT803_4_3_4,Length=0.031899000,Units=km
new line.10061787 bus1=BBT2919862.1.2.3.0,bus2=BBT2919869.1.2.3.0,Phases=3,Linecode=BT803_BT803_4_3_4,Length=0.055880000,Units=km
new line.10061822 bus1=BBT2919869.1.2.3.0,bus2=BBT2919876.1.2.3.0,Phases=3,Linecode=BT803_BT803_4_3_4,Length=0.036901000,Units=km
new line.10061850 bus1=BBT2919876.1.2.3.0,bus2=BBT2919883.1.2.3.0,Phases=3,Linecode=BT803_BT803_4_3_4,Length=0.033624000,Units=km
new line.10061892 bus1=BBT3682883.1.2.3.0,bus2=BBT2919736.1.2.3.0,Phases=3,Linecode=BT803_BT803_4_3_4,Length=0.032704000,Units=km
new line.10061913 bus1=BBT2919736.1.2.3.0,bus2=BBT3682897.1.2.3.0,Phases=3,Linecode=BT803_BT803_4_3_4,Length=0.050232000,Units=km
new line.10061955 bus1=BBT2919722.1.2.3.0,bus2=BBT2919729.1.2.3.0,Phases=3,Linecode=BT803_BT803_4_3_4,Length=0.044733000,Units=km
new line.10061976 bus1=BBT2919715.1.2.3.0,bus2=BBT2919722.1.2.3.0,Phases=3,Linecode=BT803_BT803_4_3_4,Length=0.037957000,Units=km
new line.10062011 bus1=BBT2919708.1.2.3.0,bus2=BBT2919715.1.2.3.0,Phases=3,Linecode=BT803_BT803_4_3_4,Length=0.033847000,Units=km
new line.10062032 bus1=BBT2919659.1.2.3.0,bus2=BBT2919708.1.2.3.0,Phases=3,Linecode=BT803_BT803_4_3_4,Length=0.036065000,Units=km
new line.10062039 bus1=BBT2919652.1.2.3.0,bus2=BBT2919659.1.2.3.0,Phases=3,Linecode=BT513_BT513_7_3_1,Length=0.000501000,Units=km
new line.10062046 bus1=BBT2919659.1.2.3.0,bus2=BBT2919666.1.2.3.0,Phases=3,Linecode=BT803_BT803_4_3_4,Length=0.034938000,Units=km
new line.10062074 bus1=BBT2919666.1.2.3.0,bus2=BBT2919673.1.2.3.0,Phases=3,Linecode=BT803_BT803_4_3_4,Length=0.035123000,Units=km
new line.10062102 bus1=BBT2919673.1.2.3.0,bus2=BBT2919680.1.2.3.0,Phases=3,Linecode=BT803_BT803_4_3_4,Length=0.042449000,Units=km
new line.10062130 bus1=BBT2919680.1.2.3.0,bus2=BBT2919687.1.2.3.0,Phases=3,Linecode=BT803_BT803_4_3_4,Length=0.035912000,Units=km
new line.10062165 bus1=BBT2919687.1.2.3.0,bus2=BBT2919694.1.2.3.0,Phases=3,Linecode=BT810_BT810_4_3_4,Length=0.037865000,Units=km
new line.10062193 bus1=BBT2919694.1.2.3.0,bus2=BBT2919701.1.2.3.0,Phases=3,Linecode=BT810_BT810_4_3_4,Length=0.033250000,Units=km
new line.10062235 bus1=BBT3682890.1.2.3.0,bus2=BBT3682883.1.2.3.0,Phases=3,Linecode=BT803_BT803_4_3_4,Length=0.038338000,Units=km
new line.10062242 bus1=BBT3682869.1.2.3.0,bus2=BBT3682890.1.2.3.0,Phases=3,Linecode=BT521_BT521_7_3_1,Length=0.000501000,Units=km
new line.10062249 bus1=BBT3682890.1.2.3.0,bus2=BBT2919743.1.2.3.0,Phases=3,Linecode=BT803_BT803_4_3_4,Length=0.019110000,Units=km
new line.10062270 bus1=BBT2919743.1.2.3.0,bus2=BBT2919750.1.2.3.0,Phases=3,Linecode=BT803_BT803_4_3_4,Length=0.040803000,Units=km
new line.10062291 bus1=BBT2919750.1.2.3.0,bus2=BBT2919757.1.2.3.0,Phases=3,Linecode=BT810_BT810_4_3_4,Length=0.033847000,Units=km
new line.11030335 bus1=BBT3283533.1.2.3.0,bus2=BBT3631699.1.2.3.0,Phases=3,Linecode=BT810_BT810_4_3_4,Length=0.039973000,Units=km
new line.11033415 bus1=BBT3284842.1.2.3.0,bus2=BBT3284849.1.2.3.0,Phases=3,Linecode=BT810_BT810_4_3_4,Length=0.034141000,Units=km
new line.11033429 bus1=BBT3284835.1.2.3.0,bus2=BBT3284842.1.2.3.0,Phases=3,Linecode=BT810_BT810_4_3_4,Length=0.032659000,Units=km
new line.11035018 bus1=BBT3285731.1.2.3.0,bus2=BBT3636319.1.2.3.0,Phases=3,Linecode=BT810_BT810_4_3_4,Length=0.032659000,Units=km
new line.11874199 bus1=BBT3580368.1.2.3.0,bus2=BBT3580375.1.2.3.0,Phases=3,Linecode=BT803_BT803_4_3_4,Length=0.033625000,Units=km
new line.11874220 bus1=BBT3580375.1.2.3.0,bus2=BBT3580396.1.2.3.0,Phases=3,Linecode=BT810_BT810_4_3_4,Length=0.039457000,Units=km
new line.11874241 bus1=BBT3580396.1.2.3.0,bus2=BBT3580410.1.2.3.0,Phases=3,Linecode=BT810_BT810_4_3_4,Length=0.038481000,Units=km
new line.11874262 bus1=BBT4159961.1.2.3.0,bus2=BBT4157329.1.2.3.0,Phases=3,Linecode=BT810_BT810_4_3_4,Length=0.028661000,Units=km
new line.12772803 bus1=BBT4019730.1.2.3.0,bus2=BBT4019737.1.2.3.0,Phases=3,Linecode=BT513_BT513_5_3_1,Length=0.046154000,Units=km
new line.12772831 bus1=BBT4019723.1.2.3.0,bus2=BBT4019730.1.2.3.0,Phases=3,Linecode=BT513_BT513_5_3_1,Length=0.044789000,Units=km
new line.12772845 bus1=BBT4019716.1.2.3.0,bus2=BBT4019723.1.2.3.0,Phases=3,Linecode=BT513_BT513_5_3_1,Length=0.045289000,Units=km
new line.12772859 bus1=BBT4019709.1.2.3.0,bus2=BBT4019716.1.2.3.0,Phases=3,Linecode=BT513_BT513_5_3_1,Length=0.045289000,Units=km
new line.12772873 bus1=BBT4019702.1.2.3.0,bus2=BBT4019709.1.2.3.0,Phases=3,Linecode=BT513_BT513_5_3_1,Length=0.045289000,Units=km
new line.12772887 bus1=BBT4019695.1.2.3.0,bus2=BBT4019702.1.2.3.0,Phases=3,Linecode=BT513_BT513_5_3_1,Length=0.045289000,Units=km
new line.12772901 bus1=BBT4019688.1.2.3.0,bus2=BBT4019695.1.2.3.0,Phases=3,Linecode=BT513_BT513_5_3_1,Length=0.045289000,Units=km
new line.12772915 bus1=BBT4019681.1.2.3.0,bus2=BBT4019688.1.2.3.0,Phases=3,Linecode=BT513_BT513_5_3_1,Length=0.044789000,Units=km
new line.12772936 bus1=BBT4019674.1.2.3.0,bus2=BBT4019681.1.2.3.0,Phases=3,Linecode=BT513_BT513_5_3_1,Length=0.045289000,Units=km
new line.12773027 bus1=BBT4019667.1.2.3.0,bus2=BBT4019674.1.2.3.0,Phases=3,Linecode=BT513_BT513_5_3_1,Length=0.046154000,Units=km
new line.12773041 bus1=BBT4019898.1.2.3.0,bus2=BBT4019667.1.2.3.0,Phases=3,Linecode=BT513_BT513_5_3_1,Length=0.045289000,Units=km
new line.12773083 bus1=BBT4019891.1.2.3.0,bus2=BBT4019898.1.2.3.0,Phases=3,Linecode=BT513_BT513_5_3_1,Length=0.045805000,Units=km
new line.12773111 bus1=BBT4019884.1.2.3.0,bus2=BBT4019891.1.2.3.0,Phases=3,Linecode=BT513_BT513_5_3_1,Length=0.040322000,Units=km
new line.12773118 bus1=BBT4019884.1.2.3.0,bus2=BBT4019905.1.2.3.0,Phases=3,Linecode=BT513_BT513_5_3_1,Length=0.031915000,Units=km
new line.12773174 bus1=BBT4019905.1.2.3.0,bus2=BBT4019912.1.2.3.0,Phases=3,Linecode=BT513_BT513_5_3_1,Length=0.055242000,Units=km
new line.12773566 bus1=BBT4019912.1.2.3.0,bus2=BBT4019919.1.2.3.0,Phases=3,Linecode=BT513_BT513_5_3_1,Length=0.056095000,Units=km
new line.12773587 bus1=BBT4019919.1.2.3.0,bus2=BBT4019926.1.2.3.0,Phases=3,Linecode=BT513_BT513_5_3_1,Length=0.055242000,Units=km
new line.12773615 bus1=BBT4019926.1.2.3.0,bus2=BBT4019933.1.2.3.0,Phases=3,Linecode=BT513_BT513_5_3_1,Length=0.054723000,Units=km
new line.12773629 bus1=BBT4019933.1.2.3.0,bus2=BBT4019940.1.2.3.0,Phases=3,Linecode=BT513_BT513_5_3_1,Length=0.055242000,Units=km
new line.12773657 bus1=BBT4019940.1.2.3.0,bus2=BBT4019947.1.2.3.0,Phases=3,Linecode=BT513_BT513_5_3_1,Length=0.056318000,Units=km
new line.12773671 bus1=BBT4019947.1.2.3.0,bus2=BBT4019954.1.2.3.0,Phases=3,Linecode=BT513_BT513_5_3_1,Length=0.056051000,Units=km
new line.12773692 bus1=BBT4019954.1.2.3.0,bus2=BBT4019961.1.2.3.0,Phases=3,Linecode=BT513_BT513_5_3_1,Length=0.056866000,Units=km
new line.12773706 bus1=BBT4019961.1.2.3.0,bus2=BBT4020017.1.2.3.0,Phases=3,Linecode=BT513_BT513_5_3_1,Length=0.055242000,Units=km
new line.12773741 bus1=BBT4020017.1.2.3.0,bus2=BBT4020024.1.2.3.0,Phases=3,Linecode=BT513_BT513_5_3_1,Length=0.055988000,Units=km
new line.12773923 bus1=BBT4020024.1.2.3.0,bus2=BBT4020031.1.2.3.0,Phases=3,Linecode=BT513_BT513_5_3_1,Length=0.056238000,Units=km
new line.12773930 bus1=BBT4020031.1.2.3.0,bus2=BBT4020038.1.2.3.0,Phases=3,Linecode=BT513_BT513_5_3_1,Length=0.054218000,Units=km
new line.12773944 bus1=BBT4020038.1.2.3.0,bus2=BBT4020045.1.2.3.0,Phases=3,Linecode=BT513_BT513_5_3_1,Length=0.072130000,Units=km
new line.12773958 bus1=BBT4020045.1.2.3.0,bus2=BBT4020059.1.2.3.0,Phases=3,Linecode=BT513_BT513_5_3_1,Length=0.067137000,Units=km
new line.12773965 bus1=BBT4020059.1.2.3.0,bus2=BBT4020150.1.2.3.0,Phases=3,Linecode=BT513_BT513_5_3_1,Length=0.070474000,Units=km
new line.12773993 bus1=BBT4020150.1.2.3.0,bus2=BBT4020157.1.2.3.0,Phases=3,Linecode=BT513_BT513_5_3_1,Length=0.070743000,Units=km
new line.12774021 bus1=BBT4020157.1.2.3.0,bus2=BBT4020164.1.2.3.0,Phases=3,Linecode=BT513_BT513_5_3_1,Length=0.068837000,Units=km
new line.12774049 bus1=BBT4020164.1.2.3.0,bus2=BBT4020171.1.2.3.0,Phases=3,Linecode=BT513_BT513_5_3_1,Length=0.071629000,Units=km
new line.12774070 bus1=BBT4020171.1.2.3.0,bus2=BBT4020178.1.2.3.0,Phases=3,Linecode=BT513_BT513_5_3_1,Length=0.070232000,Units=km
new line.12774091 bus1=BBT4020178.1.2.3.0,bus2=BBT4020185.1.2.3.0,Phases=3,Linecode=BT513_BT513_5_3_1,Length=0.071047000,Units=km
new line.12774672 bus1=BBT4020416.1.2.3.0,bus2=BBT4020423.1.2.3.0,Phases=3,Linecode=BT513_BT513_5_3_1,Length=0.065454000,Units=km
new line.12774889 bus1=BBT4020227.1.2.3.0,bus2=BBT4020234.1.2.3.0,Phases=3,Linecode=BT518_BT518_7_3_1,Length=0.000501000,Units=km
new line.12774896 bus1=BBT4020234.1.2.3.0,bus2=BBT4020269.1.2.3.0,Phases=3,Linecode=BT513_BT513_5_3_1,Length=0.031025000,Units=km
new line.12774980 bus1=BBT4020269.1.2.3.0,bus2=BBT4020276.1.2.3.0,Phases=3,Linecode=BT513_BT513_5_3_1,Length=0.041060000,Units=km
new line.12774987 bus1=BBT4020269.1.2.3.0,bus2=BBT4020962.1.2.3.0,Phases=3,Linecode=BT513_BT513_5_3_1,Length=0.035138000,Units=km
new line.12775008 bus1=BBT4020276.1.2.3.0,bus2=BBT4020283.1.2.3.0,Phases=3,Linecode=BT513_BT513_5_3_1,Length=0.046056000,Units=km
new line.12775022 bus1=BBT4020283.1.2.3.0,bus2=BBT4020318.1.2.3.0,Phases=3,Linecode=BT513_BT513_5_3_1,Length=0.046542000,Units=km
new line.12775134 bus1=BBT4020318.1.2.3.0,bus2=BBT4020325.1.2.3.0,Phases=3,Linecode=BT513_BT513_5_3_1,Length=0.054585000,Units=km
new line.12775190 bus1=BBT4020325.1.2.3.0,bus2=BBT4020332.1.2.3.0,Phases=3,Linecode=BT513_BT513_5_3_1,Length=0.058256000,Units=km
new line.12775218 bus1=BBT4020332.1.2.3.0,bus2=BBT4020339.1.2.3.0,Phases=3,Linecode=BT513_BT513_5_3_1,Length=0.051278000,Units=km
new line.12775246 bus1=BBT4020339.1.2.3.0,bus2=BBT4020353.1.2.3.0,Phases=3,Linecode=BT513_BT513_5_3_1,Length=0.047898000,Units=km
new line.12775274 bus1=BBT4020353.1.2.3.0,bus2=BBT4020360.1.2.3.0,Phases=3,Linecode=BT513_BT513_5_3_1,Length=0.043278000,Units=km
new line.12775295 bus1=BBT4020360.1.2.3.0,bus2=BBT4020367.1.2.3.0,Phases=3,Linecode=BT513_BT513_5_3_1,Length=0.056874000,Units=km
new line.12775309 bus1=BBT4020367.1.2.3.0,bus2=BBT4020374.1.2.3.0,Phases=3,Linecode=BT513_BT513_5_3_1,Length=0.050817000,Units=km
new line.12775330 bus1=BBT4020374.1.2.3.0,bus2=BBT4020381.1.2.3.0,Phases=3,Linecode=BT513_BT513_5_3_1,Length=0.049662000,Units=km
new line.12775372 bus1=BBT4020381.1.2.3.0,bus2=BBT4020388.1.2.3.0,Phases=3,Linecode=BT513_BT513_5_3_1,Length=0.055818000,Units=km
new line.12775393 bus1=BBT4020388.1.2.3.0,bus2=BBT4020395.1.2.3.0,Phases=3,Linecode=BT513_BT513_5_3_1,Length=0.045619000,Units=km
new line.12775407 bus1=BBT4020395.1.2.3.0,bus2=BBT4020402.1.2.3.0,Phases=3,Linecode=BT513_BT513_5_3_1,Length=0.056742000,Units=km
new line.12775435 bus1=BBT4020402.1.2.3.0,bus2=BBT4020409.1.2.3.0,Phases=3,Linecode=BT513_BT513_5_3_1,Length=0.049511000,Units=km
new line.12775463 bus1=BBT4020409.1.2.3.0,bus2=BBT4020416.1.2.3.0,Phases=3,Linecode=BT513_BT513_5_3_1,Length=0.060323000,Units=km
new line.12777185 bus1=BBT4020962.1.2.3.0,bus2=BBT4020969.1.2.3.0,Phases=3,Linecode=BT513_BT513_5_3_1,Length=0.039330000,Units=km
new line.12777234 bus1=BBT4020969.1.2.3.0,bus2=BBT4020976.1.2.3.0,Phases=3,Linecode=BT513_BT513_5_3_1,Length=0.036148000,Units=km
new line.12777248 bus1=BBT4020976.1.2.3.0,bus2=BBT4021102.1.2.3.0,Phases=3,Linecode=BT513_BT513_5_3_1,Length=0.032024000,Units=km
new line.12777262 bus1=BBT4021102.1.2.3.0,bus2=BBT4021109.1.2.3.0,Phases=3,Linecode=BT513_BT513_5_3_1,Length=0.037346000,Units=km
new line.12777276 bus1=BBT4021109.1.2.3.0,bus2=BBT4021116.1.2.3.0,Phases=3,Linecode=BT513_BT513_5_3_1,Length=0.038494000,Units=km
new line.12777535 bus1=BBT4021410.1.2.3.0,bus2=BBT4021417.1.2.3.0,Phases=3,Linecode=BT513_BT513_5_3_1,Length=0.055773000,Units=km
new line.12777563 bus1=BBT4021403.1.2.3.0,bus2=BBT4021410.1.2.3.0,Phases=3,Linecode=BT513_BT513_5_3_1,Length=0.052711000,Units=km
new line.12777619 bus1=BBT4021396.1.2.3.0,bus2=BBT4021403.1.2.3.0,Phases=3,Linecode=BT513_BT513_5_3_1,Length=0.056628000,Units=km
new line.12777633 bus1=BBT4021389.1.2.3.0,bus2=BBT4021396.1.2.3.0,Phases=3,Linecode=BT513_BT513_5_3_1,Length=0.066048000,Units=km
new line.12777654 bus1=BBT4021382.1.2.3.0,bus2=BBT4021389.1.2.3.0,Phases=3,Linecode=BT513_BT513_5_3_1,Length=0.057704000,Units=km
new line.12777675 bus1=BBT4021375.1.2.3.0,bus2=BBT4021382.1.2.3.0,Phases=3,Linecode=BT513_BT513_5_3_1,Length=0.055485000,Units=km
new line.12777696 bus1=BBT4021368.1.2.3.0,bus2=BBT4021375.1.2.3.0,Phases=3,Linecode=BT513_BT513_5_3_1,Length=0.061871000,Units=km
new line.12777724 bus1=BBT4021361.1.2.3.0,bus2=BBT4021368.1.2.3.0,Phases=3,Linecode=BT513_BT513_5_3_1,Length=0.080823000,Units=km
new line.12777745 bus1=BBT4021354.1.2.3.0,bus2=BBT4021361.1.2.3.0,Phases=3,Linecode=BT513_BT513_5_3_1,Length=0.083550000,Units=km
new line.12777773 bus1=BBT4021347.1.2.3.0,bus2=BBT4021354.1.2.3.0,Phases=3,Linecode=BT513_BT513_5_3_1,Length=0.088793000,Units=km
new line.12777794 bus1=BBT4021277.1.2.3.0,bus2=BBT4021347.1.2.3.0,Phases=3,Linecode=BT513_BT513_5_3_1,Length=0.086116000,Units=km
new line.12777808 bus1=BBT4021270.1.2.3.0,bus2=BBT4021277.1.2.3.0,Phases=3,Linecode=BT513_BT513_5_3_1,Length=0.096653000,Units=km
new line.12777829 bus1=BBT4021263.1.2.3.0,bus2=BBT4021270.1.2.3.0,Phases=3,Linecode=BT513_BT513_5_3_1,Length=0.079179000,Units=km
new line.12777843 bus1=BBT4021256.1.2.3.0,bus2=BBT4021263.1.2.3.0,Phases=3,Linecode=BT513_BT513_5_3_1,Length=0.083046000,Units=km
new line.11447248 bus1=BBT3428160.1.2.0,bus2=BBT3428167.1.2.0,Phases=2,Linecode=BT505_BT505_7_2_1,Length=0.000501000,Units=km
new line.11738693 bus1=BBT3533629.1.2.0,bus2=BBT3533636.1.2.0,Phases=2,Linecode=BT810_BT810_4_2_4,Length=0.036725000,Units=km
new line.11741808 bus1=BBT3534952.1.2.3.0,bus2=BBT3534945.1.2.3.0,Phases=3,Linecode=BT803_BT803_4_3_4,Length=0.040322000,Units=km
new line.11741829 bus1=BBT3534959.1.2.3.0,bus2=BBT3534952.1.2.3.0,Phases=3,Linecode=BT803_BT803_4_3_4,Length=0.039457000,Units=km
new line.11741857 bus1=BBT4057866.1.2.3.0,bus2=BBT3534959.1.2.3.0,Phases=3,Linecode=BT803_BT803_4_3_4,Length=0.036369000,Units=km
new line.11747807 bus1=BBT3537297.1.2.3.0,bus2=BBT3537304.1.2.3.0,Phases=3,Linecode=BT810_BT810_4_3_4,Length=0.027793000,Units=km
new line.11754604 bus1=BBT3539831.1.2.0,bus2=BBT3296770.1.2.0,Phases=2,Linecode=BT807_BT807_4_2_3,Length=0.019110000,Units=km
new line.11754632 bus1=BBT3539838.1.2.0,bus2=BBT3539845.1.2.0,Phases=2,Linecode=BT517_BT517_7_2_1,Length=0.000501000,Units=km
new line.11754681 bus1=BBT3539887.1.2.0,bus2=BBT3539894.1.2.0,Phases=2,Linecode=BT809_BT809_4_2_4,Length=0.029077000,Units=km
new line.11754702 bus1=BBT3539880.1.2.0,bus2=BBT3539887.1.2.0,Phases=2,Linecode=BT803_BT803_4_2_4,Length=0.029282000,Units=km
new line.11754723 bus1=BBT3539873.1.2.0,bus2=BBT3539880.1.2.0,Phases=2,Linecode=BT803_BT803_4_2_4,Length=0.024603000,Units=km
new line.12019015 bus1=BBT3631699.1.2.3.0,bus2=BBT4675000.1.2.3.0,Phases=3,Linecode=BT810_BT810_4_3_4,Length=0.038598000,Units=km
new line.12030663 bus1=BBT3636319.1.2.3.0,bus2=BBT3636326.1.2.3.0,Phases=3,Linecode=BT810_BT810_4_3_4,Length=0.043921000,Units=km
new line.12030691 bus1=BBT3636326.1.2.3.0,bus2=BBT4144183.1.2.3.0,Phases=3,Linecode=BT810_BT810_4_3_4,Length=0.034995000,Units=km
new line.12578931 bus1=BBT3981048.1.2.3.0,bus2=BBT3981055.1.2.3.0,Phases=3,Linecode=BT518_BT518_7_3_1,Length=0.000501000,Units=km
new line.12836181 bus1=BBT4034864.1.2.3.0,bus2=BBT4031672.1.2.3.0,Phases=3,Linecode=BT810_BT810_4_3_4,Length=0.036725000,Units=km
new line.12858938 bus1=BBT4040184.1.2.3.0,bus2=BBT4040191.1.2.3.0,Phases=3,Linecode=BT810_BT810_4_3_4,Length=0.040322000,Units=km
new line.12859281 bus1=BBT4040219.1.2.3.0,bus2=BBT4040226.1.2.3.0,Phases=3,Linecode=BT803_BT803_4_3_4,Length=0.046660000,Units=km
new line.12859344 bus1=BBT152901347.1.2.3.0,bus2=BBT4040240.1.2.3.0,Phases=3,Linecode=BT810_BT810_4_3_4,Length=0.019215000,Units=km
new line.12859365 bus1=BBT4040240.1.2.3.0,bus2=BBT4040247.1.2.3.0,Phases=3,Linecode=BT810_BT810_4_3_4,Length=0.037024000,Units=km
new line.12859554 bus1=BBT4040254.1.2.3.0,bus2=BBT4040261.1.2.3.0,Phases=3,Linecode=BT810_BT810_4_3_4,Length=0.041689000,Units=km
new line.12859575 bus1=BBT4040261.1.2.3.0,bus2=BBT4040268.1.2.3.0,Phases=3,Linecode=BT810_BT810_4_3_4,Length=0.042556000,Units=km
new line.12859659 bus1=BBT4040275.1.2.3.0,bus2=BBT4116484.1.2.3.0,Phases=3,Linecode=BT803_BT803_4_3_4,Length=0.030025000,Units=km
new line.12859687 bus1=BBT4040282.1.2.3.0,bus2=BBT4040289.1.2.3.0,Phases=3,Linecode=BT803_BT803_4_3_4,Length=0.040828000,Units=km
new line.12859722 bus1=BBT4040289.2.3.0,bus2=BBT4723909.2.3.0,Phases=2,Linecode=BT808_BT808_4_2_3,Length=0.036245000,Units=km
new line.12859897 bus1=BBT4040331.1.2.3.0,bus2=BBT4040324.1.2.3.0,Phases=3,Linecode=BT803_BT803_4_3_4,Length=0.050620000,Units=km
new line.12859925 bus1=BBT12707200.1.2.3.0,bus2=BBT4040331.1.2.3.0,Phases=3,Linecode=BT518_BT518_7_3_1,Length=0.000501000,Units=km
new line.12859932 bus1=BBT4040331.1.2.3.0,bus2=BBT4040338.1.2.3.0,Phases=3,Linecode=BT803_BT803_4_3_4,Length=0.044790000,Units=km
new line.12859939 bus1=BBT4040331.1.2.3.0,bus2=BBT12707683.1.2.3.0,Phases=3,Linecode=BT803_BT803_4_3_4,Length=0.025561000,Units=km
new line.12859967 bus1=BBT4040338.1.2.3.0,bus2=BBT4040345.1.2.3.0,Phases=3,Linecode=BT810_BT810_4_3_4,Length=0.041689000,Units=km
new line.12860072 bus1=BBT4040345.1.2.3.0,bus2=BBT4040352.1.2.3.0,Phases=3,Linecode=BT810_BT810_4_3_4,Length=0.047024000,Units=km
new line.12984112 bus1=BBT4064026.1.2.3.0,bus2=BBT2872605.1.2.3.0,Phases=3,Linecode=BT810_BT810_4_3_4,Length=0.032258000,Units=km
new line.12984294 bus1=BBT4064047.1.2.3.0,bus2=BBT4660482.1.2.3.0,Phases=3,Linecode=BT810_BT810_4_3_4,Length=0.028661000,Units=km
new line.12984336 bus1=BBT4064061.1.2.3.0,bus2=BBT2857828.1.2.3.0,Phases=3,Linecode=BT810_BT810_4_3_4,Length=0.028310000,Units=km
new line.12984343 bus1=BBT4064061.1.2.3.0,bus2=BBT4058020.1.2.3.0,Phases=3,Linecode=BT810_BT810_4_3_4,Length=0.029163000,Units=km
new line.12984672 bus1=BBT4064138.1.2.3.0,bus2=BBT865971.1.2.3.0,Phases=3,Linecode=BT803_BT803_4_3_4,Length=0.039973000,Units=km
new line.12984679 bus1=BBT4064138.1.2.3.0,bus2=BBT865978.1.2.3.0,Phases=3,Linecode=BT803_BT803_4_3_4,Length=0.031393000,Units=km
new line.12984686 bus1=BBT865922.1.2.3.0,bus2=BBT4064138.1.2.3.0,Phases=3,Linecode=BT513_BT513_7_3_1,Length=0.000501000,Units=km
new line.13002501 bus1=BBT4068317.1.2.3.0,bus2=BBT4068324.1.2.3.0,Phases=3,Linecode=BT803_BT803_4_3_4,Length=0.032258000,Units=km
new line.13003264 bus1=BBT4068590.1.2.0,bus2=BBT4068597.1.2.0,Phases=2,Linecode=BT801_BT801_4_2_3,Length=0.025463000,Units=km
new line.13003334 bus1=BBT4068583.1.2.0,bus2=BBT4068590.1.2.0,Phases=2,Linecode=BT810_BT810_4_2_4,Length=0.035618000,Units=km
new line.13003355 bus1=BBT4068576.1.2.0,bus2=BBT4068583.1.2.0,Phases=2,Linecode=BT801_BT801_4_2_3,Length=0.020621000,Units=km
new line.13003390 bus1=BBT4068569.1.2.0,bus2=BBT4068576.1.2.0,Phases=2,Linecode=BT801_BT801_4_2_3,Length=0.020597000,Units=km
new line.13003439 bus1=BBT4068562.1.2.0,bus2=BBT4068569.1.2.0,Phases=2,Linecode=BT801_BT801_4_2_3,Length=0.033385000,Units=km
new line.13003460 bus1=BBT4068555.1.2.0,bus2=BBT4068562.1.2.0,Phases=2,Linecode=BT801_BT801_4_2_3,Length=0.030422000,Units=km
new line.13003537 bus1=BBT4068548.1.2.0,bus2=BBT4068555.1.2.0,Phases=2,Linecode=BT801_BT801_4_2_3,Length=0.032024000,Units=km
new line.13003579 bus1=BBT4068541.1.2.0,bus2=BBT4068548.1.2.0,Phases=2,Linecode=BT801_BT801_4_2_3,Length=0.037131000,Units=km
new line.13003600 bus1=BBT4068611.1.2.0,bus2=BBT4068618.1.2.0,Phases=2,Linecode=BT801_BT801_4_2_3,Length=0.031899000,Units=km
new line.13003642 bus1=BBT4068618.1.2.0,bus2=BBT4068625.1.2.0,Phases=2,Linecode=BT801_BT801_4_2_3,Length=0.033385000,Units=km
new line.13003691 bus1=BBT4068625.1.2.0,bus2=BBT4068632.1.2.0,Phases=2,Linecode=BT801_BT801_4_2_3,Length=0.023093000,Units=km
new line.13003712 bus1=BBT4068632.1.2.0,bus2=BBT90518157.1.2.0,Phases=2,Linecode=BT801_BT801_4_2_3,Length=0.025814000,Units=km
new line.13003740 bus1=BBT4068639.1.2.0,bus2=BBT90518871.1.2.0,Phases=2,Linecode=BT801_BT801_4_2_3,Length=0.030602000,Units=km
new line.13003782 bus1=BBT4068646.1.2.0,bus2=BBT90520306.1.2.0,Phases=2,Linecode=BT801_BT801_4_2_3,Length=0.031393000,Units=km
new line.13003817 bus1=BBT4073091.1.2.0,bus2=BBT4073084.1.2.0,Phases=2,Linecode=BT801_BT801_4_2_3,Length=0.029622000,Units=km
new line.13003831 bus1=BBT4073098.1.2.0,bus2=BBT4073091.1.2.0,Phases=2,Linecode=BT801_BT801_4_2_3,Length=0.027173000,Units=km
new line.13003859 bus1=BBT4073105.1.2.0,bus2=BBT4073098.1.2.0,Phases=2,Linecode=BT801_BT801_4_2_3,Length=0.027210000,Units=km
new line.13003880 bus1=BBT4073112.1.2.0,bus2=BBT90525843.1.2.0,Phases=2,Linecode=BT801_BT801_4_2_3,Length=0.034995000,Units=km
new line.13003915 bus1=BBT4073119.1.2.0,bus2=BBT4073112.1.2.0,Phases=2,Linecode=BT801_BT801_4_2_3,Length=0.033965000,Units=km