new load.3000366461M1 bus1=RML1051746746.1.2.3.0,Phases=3,kv=0.22,kW=1.11722,pf=0.92,Vminpu=0.92,Vmaxpu=1.5,model=1,daily=RES6_10,status=variable
new load.3000366471M1 bus1=RML1051746879.1.2.3.0,Phases=3,kv=0.22,kW=1.48032,pf=0.92,Vminpu=0.92,Vmaxpu=1.5,model=1,daily=RES5_8,status=variable
new load.3000366481M1 bus1=RML1051747138.1.2.3.0,Phases=3,kv=0.22,kW=1.72538,pf=0.92,Vminpu=0.92,Vmaxpu=1.5,model=1,daily=RES3_6,status=variable
new load.3000366489M1 bus1=RML1051746837.1.2.3.0,Phases=3,kv=0.22,kW=0.69988,pf=0.92,Vminpu=0.92,Vmaxpu=1.5,model=1,daily=RES2_5,status=variable
new load.3001625932M1 bus1=RML1054055080.1.2.0,Phases=2,kv=0.22,kW=1.25154,pf=0.92,Vminpu=0.92,Vmaxpu=1.5,model=1,daily=RES2_9,status=variable
new load.3001625940M1 bus1=RML1054054520.1.2.3.0,Phases=3,kv=0.22,kW=1.10276,pf=0.92,Vminpu=0.92,Vmaxpu=1.5,model=1,daily=RES6_11,status=variable
new load.3001625948M1 bus1=RML1054051118.2.3.0,Phases=2,kv=0.22,kW=2.31504,pf=0.92,Vminpu=0.92,Vmaxpu=1.5,model=1,daily=RES3_10,status=variable
new load.3001625957M1 bus1=RML1054037972.2.3.0,Phases=2,kv=0.22,kW=1.51502,pf=0.92,Vminpu=0.92,Vmaxpu=1.5,model=1,daily=RES2_9,status=variable
new load.3001625966M1 bus1=RML1054037944.1.2.0,Phases=2,kv=0.22,kW=2.63192,pf=0.92,Vminpu=0.92,Vmaxpu=1.5,model=1,daily=RES4_11,status=variable
new load.3001625974M1 bus1=RML1054048339.1.2.3.0,Phases=3,kv=0.22,kW=0.94414,pf=0.92,Vminpu=0.92,Vmaxpu=1.5,model=1,daily=RES2_9,status=variable
new load.3001625984M1 bus1=RML1054048192.1.2.3.0,Phases=3,kv=0.22,kW=1.81408,pf=0.92,Vminpu=0.92,Vmaxpu=1.5,model=1,daily=RES3_10,status=variable
new load.3001625992M1 bus1=RML1054051146.1.2.3.0,Phases=3,kv=0.22,kW=1.65468,pf=0.92,Vminpu=0.92,Vmaxpu=1.5,model=1,daily=RES3_10,status=variable
new load.3001626001M1 bus1=RML1054053323.1.2.3.0,Phases=3,kv=0.22,kW=2.08386,pf=0.92,Vminpu=0.92,Vmaxpu=1.5,model=1,daily=RES4_11,status=variable
new load.3001626010M1 bus1=RML1054060225.1.2.0,Phases=2,kv=0.22,kW=1.43456,pf=0.92,Vminpu=0.92,Vmaxpu=1.5,model=1,daily=RES3_10,status=variable
new load.3001626018M1 bus1=RML1054060232.1.2.0,Phases=2,kv=0.22,kW=1.00192,pf=0.92,Vminpu=0.92,Vmaxpu=1.5,model=1,daily=RES3_10,status=variable
new load.3001626026M1 bus1=RML1056619635.1.2.3.0,Phases=3,kv=0.22,kW=1.51032,pf=0.92,Vminpu=0.92,Vmaxpu=1.5,model=1,daily=RES4_11,status=variable
new load.3001626034M1 bus1=RML1054048234.1.2.3.0,Phases=3,kv=0.22,kW=2.07974,pf=0.92,Vminpu=0.92,Vmaxpu=1.5,model=1,daily=RES3_10,status=variable
new load.3001626042M1 bus1=RML1054052189.1.2.3.0,Phases=3,kv=0.22,kW=1.85202,pf=0.92,Vminpu=0.92,Vmaxpu=1.5,model=1,daily=RES3_10,status=variable
new load.3001626050M1 bus1=RML1060129406.1.2.0,Phases=2,kv=0.22,kW=1.16372,pf=0.92,Vminpu=0.92,Vmaxpu=1.5,model=1,daily=RES2_9,status=variable
new load.3001626058M1 bus1=RML1054053393.1.2.3.0,Phases=3,kv=0.22,kW=2.51084,pf=0.92,Vminpu=0.92,Vmaxpu=1.5,model=1,daily=RES4_11,status=variable
new load.3001626075M1 bus1=RML1054052280.1.2.3.0,Phases=3,kv=0.22,kW=1.21718,pf=0.92,Vminpu=0.92,Vmaxpu=1.5,model=1,daily=RES4_11,status=variable
new load.3001626083M1 bus1=RML1054052371.1.2.3.0,Phases=3,kv=0.22,kW=0.62646,pf=0.92,Vminpu=0.92,Vmaxpu=1.5,model=1,daily=RES5_11,status=variable
new load.3001626091M1 bus1=RML1054053414.1.2.0,Phases=2,kv=0.22,kW=2.22406,pf=0.92,Vminpu=0.92,Vmaxpu=1.5,model=1,daily=RES4_11,status=variable
new load.3001626100M1 bus1=RML1054053470.1.2.0,Phases=2,kv=0.22,kW=0.98806,pf=0.92,Vminpu=0.92,Vmaxpu=1.5,model=1,daily=RES2_9,status=variable
new load.3001626116M1 bus1=RML1054055150.2.3.0,Phases=2,kv=0.22,kW=0.4865,pf=0.92,Vminpu=0.92,Vmaxpu=1.5,model=1,daily=RES1_8,status=variable
new load.3001626124M1 bus1=RML1054053827.1.2.3.0,Phases=3,kv=0.22,kW=2.65104,pf=0.92,Vminpu=0.92,Vmaxpu=1.5,model=1,daily=RES4_11,status=variable
new load.3000366416M1 bus1=RML1056476891.1.2.3.0,Phases=3,kv=0.22,kW=3.4577,pf=0.92,Vminpu=0.92,Vmaxpu=1.5,model=1,daily=COM3_8,status=variable
new load.3000366467M1 bus1=RML1051746984.1.2.3.0,Phases=3,kv=0.22,kW=0.09618,pf=0.92,Vminpu=0.92,Vmaxpu=1.5,model=1,daily=COM1_11,status=variable
new load.3000366477M1 bus1=RML1051747110.1.2.3.0,Phases=3,kv=0.22,kW=2.45864,pf=0.92,Vminpu=0.92,Vmaxpu=1.5,model=1,daily=RES4_8,status=variable
new load.3000366486M1 bus1=RML1051746788.1.2.3.0,Phases=3,kv=0.22,kW=3.87726,pf=0.92,Vminpu=0.92,Vmaxpu=1.5,model=1,daily=RES5_8,status=variable
new load.3001625929M1 bus1=RML1054055220.1.2.0,Phases=2,kv=0.22,kW=2.2582,pf=0.92,Vminpu=0.92,Vmaxpu=1.5,model=1,daily=RES5_11,status=variable
new load.3001625937M1 bus1=RML1054054541.1.2.3.0,Phases=3,kv=0.22,kW=2.61916,pf=0.92,Vminpu=0.92,Vmaxpu=1.5,model=1,daily=RES4_11,status=variable
new load.3001625945M1 bus1=RML1054051216.1.0,Phases=1,kv=0.127,kW=0.59284,pf=0.92,Vminpu=0.92,Vmaxpu=1.5,model=1,daily=RES2_9,status=variable
new load.3001625954M1 bus1=RML1054038021.1.3.0,Phases=2,kv=0.22,kW=2.39852,pf=0.92,Vminpu=0.92,Vmaxpu=1.5,model=1,daily=RES3_10,status=variable
new load.3001625963M1 bus1=RML1054037902.1.2.0,Phases=2,kv=0.22,kW=0.14464,pf=0.92,Vminpu=0.92,Vmaxpu=1.5,model=1,daily=RES1_8,status=variable
new load.3001625971M1 bus1=RML1054038000.1.2.0,Phases=2,kv=0.22,kW=2.07852,pf=0.92,Vminpu=0.92,Vmaxpu=1.5,model=1,daily=RES5_11,status=variable
new load.3001625980M1 bus1=RML1054048262.1.2.3.0,Phases=3,kv=0.22,kW=2.32602,pf=0.92,Vminpu=0.92,Vmaxpu=1.5,model=1,daily=RES4_11,status=variable
new load.3001625989M1 bus1=RML1054051244.1.3.0,Phases=2,kv=0.22,kW=0.12702,pf=0.92,Vminpu=0.92,Vmaxpu=1.5,model=1,daily=RES6_11,status=variable
new load.3001625997M1 bus1=RML1054054471.1.2.3.0,Phases=3,kv=0.22,kW=1.29034,pf=0.92,Vminpu=0.92,Vmaxpu=1.5,model=1,daily=RES3_10,status=variable
new load.3001626006M1 bus1=RML1054060239.1.2.3.0,Phases=3,kv=0.22,kW=2.57872,pf=0.92,Vminpu=0.92,Vmaxpu=1.5,model=1,daily=RES5_11,status=variable
new load.3001626015M1 bus1=RML1054060169.2.3.0,Phases=2,kv=0.22,kW=0.94414,pf=0.92,Vminpu=0.92,Vmaxpu=1.5,model=1,daily=RES2_9,status=variable
new load.3001626023M1 bus1=RML1054048213.1.2.3.0,Phases=3,kv=0.22,kW=1.02954,pf=0.92,Vminpu=0.92,Vmaxpu=1.5,model=1,daily=RES5_11,status=variable
new load.3001626031M1 bus1=RML1054048269.1.2.3.0,Phases=3,kv=0.22,kW=1.37012,pf=0.92,Vminpu=0.92,Vmaxpu=1.5,model=1,daily=RES4_11,status=variable
new load.3001626039M1 bus1=RML1054052140.1.2.3.0,Phases=3,kv=0.22,kW=1.16552,pf=0.92,Vminpu=0.92,Vmaxpu=1.5,model=1,daily=RES5_11,status=variable
new load.3001626047M1 bus1=RML1054052252.1.2.3.0,Phases=3,kv=0.22,kW=1.06856,pf=0.92,Vminpu=0.92,Vmaxpu=1.5,model=1,daily=RES2_9,status=variable
new load.3001626055M1 bus1=RML1054053351.1.2.3.0,Phases=3,kv=0.22,kW=0.68798,pf=0.92,Vminpu=0.92,Vmaxpu=1.5,model=1,daily=RES2_9,status=variable
new load.3001626064M1 bus1=RML1054053358.1.2.0,Phases=2,kv=0.22,kW=0.8415,pf=0.92,Vminpu=0.92,Vmaxpu=1.5,model=1,daily=RES1_8,status=variable
new load.3001626072M1 bus1=RML1054054583.1.2.3.0,Phases=3,kv=0.22,kW=1.38288,pf=0.92,Vminpu=0.92,Vmaxpu=1.5,model=1,daily=RES4_11,status=variable
new load.3001626080M1 bus1=RML1054052378.1.2.3.0,Phases=3,kv=0.22,kW=1.32474,pf=0.92,Vminpu=0.92,Vmaxpu=1.5,model=1,daily=RES2_9,status=variable
new load.3001626088M1 bus1=RML1054052322.1.2.3.0,Phases=3,kv=0.22,kW=1.94254,pf=0.92,Vminpu=0.92,Vmaxpu=1.5,model=1,daily=RES5_11,status=variable
new load.3001626097M1 bus1=RML1054053519.1.2.0,Phases=2,kv=0.22,kW=2.63698,pf=0.92,Vminpu=0.92,Vmaxpu=1.5,model=1,daily=RES5_11,status=variable
new load.3001626105M1 bus1=RML1054055171.1.3.0,Phases=2,kv=0.22,kW=1.10516,pf=0.92,Vminpu=0.92,Vmaxpu=1.5,model=1,daily=RES2_9,status=variable
new load.3001626113M1 bus1=RML1054055199.1.2.0,Phases=2,kv=0.22,kW=1.35006,pf=0.92,Vminpu=0.92,Vmaxpu=1.5,model=1,daily=RES5_11,status=variable
new load.3001626121M1 bus1=RML1054053876.2.3.0,Phases=2,kv=0.22,kW=0.80932,pf=0.92,Vminpu=0.92,Vmaxpu=1.5,model=1,daily=RES4_11,status=variable
new load.3000366324M1 bus1=RML1051447685.1.2.0,Phases=2,kv=0.24,kW=1.08012,pf=0.92,Vminpu=0.92,Vmaxpu=1.5,model=1,daily=RES5_8,status=variable
new load.3000366466M1 bus1=RML1051745850.1.2.3.0,Phases=3,kv=0.22,kW=0.39312,pf=0.92,Vminpu=0.92,Vmaxpu=1.5,model=1,daily=COM1_11,status=variable
new load.3000366485M1 bus1=RML1051747117.1.2.3.0,Phases=3,kv=0.22,kW=0.5879,pf=0.92,Vminpu=0.92,Vmaxpu=1.5,model=1,daily=RES2_5,status=variable
new load.3001625928M1 bus1=RML1054055227.1.2.0,Phases=2,kv=0.22,kW=0.8858,pf=0.92,Vminpu=0.92,Vmaxpu=1.5,model=1,daily=RES4_11,status=variable
new load.3001625936M1 bus1=RML1054054548.1.2.3.0,Phases=3,kv=0.22,kW=1.35108,pf=0.92,Vminpu=0.92,Vmaxpu=1.5,model=1,daily=RES3_10,status=variable
new load.3001625944M1 bus1=RML1054051223.2.3.0,Phases=2,kv=0.22,kW=2.12848,pf=0.92,Vminpu=0.92,Vmaxpu=1.5,model=1,daily=RES4_11,status=variable
new load.3001625953M1 bus1=RML1054038035.1.2.3.0,Phases=3,kv=0.22,kW=1.26816,pf=0.92,Vminpu=0.92,Vmaxpu=1.5,model=1,daily=RES4_11,status=variable
new load.3001625962M1 bus1=RML1054060183.1.2.3.0,Phases=3,kv=0.22,kW=1.16132,pf=0.92,Vminpu=0.92,Vmaxpu=1.5,model=1,daily=RES3_10,status=variable
new load.3001625970M1 bus1=RML1054038007.2.3.0,Phases=2,kv=0.22,kW=1.98624,pf=0.92,Vminpu=0.92,Vmaxpu=1.5,model=1,daily=RES5_11,status=variable
new load.3001625979M1 bus1=RML1054048304.1.2.3.0,Phases=3,kv=0.22,kW=1.11718,pf=0.92,Vminpu=0.92,Vmaxpu=1.5,model=1,daily=RES6_11,status=variable
new load.3001625988M1 bus1=RML1054051209.1.2.3.0,Phases=3,kv=0.22,kW=1.71424,pf=0.92,Vminpu=0.92,Vmaxpu=1.5,model=1,daily=RES4_11,status=variable
new load.3001625996M1 bus1=RML1054051237.1.3.0,Phases=2,kv=0.22,kW=0.74654,pf=0.92,Vminpu=0.92,Vmaxpu=1.5,model=1,daily=RES2_9,status=variable
new load.3001626005M1 bus1=RML1054048143.1.2.0,Phases=2,kv=0.22,kW=1.28692,pf=0.92,Vminpu=0.92,Vmaxpu=1.5,model=1,daily=RES5_11,status=variable
new load.3001626014M1 bus1=RML1054060176.1.2.3.0,Phases=3,kv=0.22,kW=1.41938,pf=0.92,Vminpu=0.92,Vmaxpu=1.5,model=1,daily=RES3_10,status=variable
new load.3001626022M1 bus1=RML1054048220.1.2.3.0,Phases=3,kv=0.22,kW=3.49746,pf=0.92,Vminpu=0.92,Vmaxpu=1.5,model=1,daily=RES1_8,status=variable
new load.3001626030M1 bus1=RML1054048360.1.2.3.0,Phases=3,kv=0.22,kW=0.95146,pf=0.92,Vminpu=0.92,Vmaxpu=1.5,model=1,daily=RES2_9,status=variable
new load.3001626046M1 bus1=RML1054053435.1.3.0,Phases=2,kv=0.22,kW=1.69264,pf=0.92,Vminpu=0.92,Vmaxpu=1.5,model=1,daily=RES3_10,status=variable
new load.3001626054M1 bus1=RML1054053344.2.3.0,Phases=2,kv=0.22,kW=1.723,pf=0.92,Vminpu=0.92,Vmaxpu=1.5,model=1,daily=RES3_10,status=variable
new load.3001626063M1 bus1=RML1054053400.1.2.3.0,Phases=3,kv=0.22,kW=2.08732,pf=0.92,Vminpu=0.92,Vmaxpu=1.5,model=1,daily=RES3_10,status=variable
new load.3001626071M1 bus1=RML1054054562.1.2.3.0,Phases=3,kv=0.22,kW=4.39156,pf=0.92,Vminpu=0.92,Vmaxpu=1.5,model=1,daily=RES1_8,status=variable
new load.3001626087M1 bus1=RML1054052329.2.3.0,Phases=2,kv=0.22,kW=0.99538,pf=0.92,Vminpu=0.92,Vmaxpu=1.5,model=1,daily=RES2_9,status=variable
new load.3001626104M1 bus1=RML1054055129.1.2.3.0,Phases=3,kv=0.22,kW=3.1899,pf=0.92,Vminpu=0.92,Vmaxpu=1.5,model=1,daily=RES6_11,status=variable
new load.3001626112M1 bus1=RML1054055262.1.2.3.0,Phases=3,kv=0.22,kW=1.8417,pf=0.92,Vminpu=0.92,Vmaxpu=1.5,model=1,daily=RES4_11,status=variable
new load.3001626120M1 bus1=RML1054053904.1.2.3.0,Phases=3,kv=0.22,kW=1.74342,pf=0.92,Vminpu=0.92,Vmaxpu=1.5,model=1,daily=RES5_11,status=variable
new load.3000366460M1 bus1=RML1051745843.1.2.3.0,Phases=3,kv=0.22,kW=0.94404,pf=0.92,Vminpu=0.92,Vmaxpu=1.5,model=1,daily=COM2_9,status=variable
new load.3000366470M1 bus1=RML1056590004.1.2.3.0,Phases=3,kv=0.22,kW=0.73586,pf=0.92,Vminpu=0.92,Vmaxpu=1.5,model=1,daily=RES5_8,status=variable
new load.3000366479M1 bus1=RML1051747131.1.2.3.0,Phases=3,kv=0.22,kW=1.25194,pf=0.92,Vminpu=0.92,Vmaxpu=1.5,model=1,daily=RES3_6,status=variable
new load.3000366488M1 bus1=RML1051746865.1.2.3.0,Phases=3,kv=0.22,kW=1.94508,pf=0.92,Vminpu=0.92,Vmaxpu=1.5,model=1,daily=RES5_8,status=variable
new load.3001625931M1 bus1=RML1054055108.1.3.0,Phases=2,kv=0.22,kW=1.43456,pf=0.92,Vminpu=0.92,Vmaxpu=1.5,model=1,daily=RES3_10,status=variable
new load.3001625939M1 bus1=RML1054054513.1.2.0,Phases=2,kv=0.22,kW=1.758,pf=0.92,Vminpu=0.92,Vmaxpu=1.5,model=1,daily=RES5_11,status=variable
new load.3001625947M1 bus1=RML1054051132.1.2.0,Phases=2,kv=0.22,kW=1.60914,pf=0.92,Vminpu=0.92,Vmaxpu=1.5,model=1,daily=RES3_10,status=variable
new load.3001625956M1 bus1=RML1054037979.1.2.3.0,Phases=3,kv=0.22,kW=0.8415,pf=0.92,Vminpu=0.92,Vmaxpu=1.5,model=1,daily=RES1_8,status=variable
new load.3001625965M1 bus1=RML1054037916.1.2.0,Phases=2,kv=0.22,kW=2.72114,pf=0.92,Vminpu=0.92,Vmaxpu=1.5,model=1,daily=RES4_11,status=variable
new load.3001625973M1 bus1=RML1054051111.1.2.3.0,Phases=3,kv=0.22,kW=2.22396,pf=0.92,Vminpu=0.92,Vmaxpu=1.5,model=1,daily=RES3_10,status=variable
new load.3001625982M1 bus1=RML1054048206.1.2.0,Phases=2,kv=0.22,kW=1.47846,pf=0.92,Vminpu=0.92,Vmaxpu=1.5,model=1,daily=RES4_11,status=variable
new load.3001625991M1 bus1=RML1054051195.1.2.3.0,Phases=3,kv=0.22,kW=2.64184,pf=0.92,Vminpu=0.92,Vmaxpu=1.5,model=1,daily=RES5_11,status=variable
new load.3001626000M1 bus1=RML1054053330.1.2.3.0,Phases=3,kv=0.22,kW=2.11736,pf=0.92,Vminpu=0.92,Vmaxpu=1.5,model=1,daily=RES5_11,status=variable
new load.3001626009M1 bus1=RML1054060253.1.2.3.0,Phases=3,kv=0.22,kW=1.7989,pf=0.92,Vminpu=0.92,Vmaxpu=1.5,model=1,daily=RES3_10,status=variable
new load.3001626017M1 bus1=RML1054060246.1.2.3.0,Phases=3,kv=0.22,kW=1.09784,pf=0.92,Vminpu=0.92,Vmaxpu=1.5,model=1,daily=RES2_9,status=variable
new load.3001626025M1 bus1=RML1054048255.1.2.3.0,Phases=3,kv=0.22,kW=1.84444,pf=0.92,Vminpu=0.92,Vmaxpu=1.5,model=1,daily=RES3_10,status=variable
new load.3001626033M1 bus1=RML1054048241.1.2.3.0,Phases=3,kv=0.22,kW=0.64406,pf=0.92,Vminpu=0.92,Vmaxpu=1.5,model=1,daily=RES2_9,status=variable
new load.3001626041M1 bus1=RML1054052154.1.3.0,Phases=2,kv=0.22,kW=0.03944,pf=0.92,Vminpu=0.92,Vmaxpu=1.5,model=1,daily=RES1_8,status=variable
new load.3001626049M1 bus1=RML1054052196.1.2.3.0,Phases=3,kv=0.22,kW=2.43648,pf=0.92,Vminpu=0.92,Vmaxpu=1.5,model=1,daily=RES3_10,status=variable
new load.3001626057M1 bus1=RML1054053372.1.2.3.0,Phases=3,kv=0.22,kW=2.2368,pf=0.92,Vminpu=0.92,Vmaxpu=1.5,model=1,daily=RES4_11,status=variable
new load.3001626066M1 bus1=RML1054054429.1.2.0,Phases=2,kv=0.22,kW=2.13286,pf=0.92,Vminpu=0.92,Vmaxpu=1.5,model=1,daily=RES3_10,status=variable
new load.3001626074M1 bus1=RML1054053428.1.2.0,Phases=2,kv=0.22,kW=2.86524,pf=0.92,Vminpu=0.92,Vmaxpu=1.5,model=1,daily=RES5_11,status=variable
new load.3001626090M1 bus1=RML1054052259.1.2.3.0,Phases=3,kv=0.22,kW=2.33104,pf=0.92,Vminpu=0.92,Vmaxpu=1.5,model=1,daily=RES5_11,status=variable
new load.3001626099M1 bus1=RML1054053505.1.2.3.0,Phases=3,kv=0.22,kW=1.3112,pf=0.92,Vminpu=0.92,Vmaxpu=1.5,model=1,daily=RES5_11,status=variable
new load.3001626107M1 bus1=RML1054055185.1.2.3.0,Phases=3,kv=0.22,kW=7.40254,pf=0.92,Vminpu=0.92,Vmaxpu=1.5,model=1,daily=RES1_8,status=variable
new load.3001626115M1 bus1=RML1054055143.1.3.0,Phases=2,kv=0.22,kW=1.77612,pf=0.92,Vminpu=0.92,Vmaxpu=1.5,model=1,daily=RES3_10,status=variable
new load.3001626123M1 bus1=RML1054053834.1.2.3.0,Phases=3,kv=0.22,kW=2.04562,pf=0.92,Vminpu=0.92,Vmaxpu=1.5,model=1,daily=RES4_11,status=variable
new load.3000366463M1 bus1=RML1051746074.1.2.3.0,Phases=3,kv=0.22,kW=0.02484,pf=0.92,Vminpu=0.92,Vmaxpu=1.5,model=1,daily=RES4_8,status=variable
new load.3000366474M1 bus1=RML1051746802.1.2.3.0,Phases=3,kv=0.22,kW=0.12264,pf=0.92,Vminpu=0.92,Vmaxpu=1.5,model=1,daily=RES1_4,status=variable
new load.3000366483M1 bus1=RML1051747124.1.2.3.0,Phases=3,kv=0.22,kW=2.91188,pf=0.92,Vminpu=0.92,Vmaxpu=1.5,model=1,daily=RES4_8,status=variable
new load.3001625934M1 bus1=RML1054054576.1.3.0,Phases=2,kv=0.22,kW=1.34348,pf=0.92,Vminpu=0.92,Vmaxpu=1.5,model=1,daily=RES3_10,status=variable
new load.3001625942M1 bus1=RML1054054478.2.3.0,Phases=2,kv=0.22,kW=0.66602,pf=0.92,Vminpu=0.92,Vmaxpu=1.5,model=1,daily=RES2_9,status=variable
new load.3001625950M1 bus1=RML1054051104.1.2.3.0,Phases=3,kv=0.22,kW=1.55894,pf=0.92,Vminpu=0.92,Vmaxpu=1.5,model=1,daily=RES2_9,status=variable
new load.3001625959M1 bus1=RML1054037923.1.2.3.0,Phases=3,kv=0.22,kW=1.83534,pf=0.92,Vminpu=0.92,Vmaxpu=1.5,model=1,daily=RES4_11,status=variable
new load.3001625968M1 bus1=RML1054037958.1.2.3.0,Phases=3,kv=0.22,kW=1.9373,pf=0.92,Vminpu=0.92,Vmaxpu=1.5,model=1,daily=RES4_11,status=variable
new load.3001625977M1 bus1=RML1054048311.1.2.0,Phases=2,kv=0.22,kW=0.23668,pf=0.92,Vminpu=0.92,Vmaxpu=1.5,model=1,daily=RES1_8,status=variable
new load.3001625986M1 bus1=RML1054048283.1.2.3.0,Phases=3,kv=0.22,kW=0.74654,pf=0.92,Vminpu=0.92,Vmaxpu=1.5,model=1,daily=RES2_9,status=variable
new load.3001625994M1 bus1=RML1054051167.1.2.3.0,Phases=3,kv=0.22,kW=2.17082,pf=0.92,Vminpu=0.92,Vmaxpu=1.5,model=1,daily=RES3_10,status=variable
new load.3001626003M1 bus1=RML1054052105.1.2.0,Phases=2,kv=0.22,kW=1.00192,pf=0.92,Vminpu=0.92,Vmaxpu=1.5,model=1,daily=RES3_10,status=variable
new load.3001626012M1 bus1=RML1054060204.1.2.3.0,Phases=3,kv=0.22,kW=4.20748,pf=0.92,Vminpu=0.92,Vmaxpu=1.5,model=1,daily=RES1_8,status=variable
new load.3001626020M1 bus1=RML1054048171.1.2.3.0,Phases=3,kv=0.22,kW=2.3454,pf=0.92,Vminpu=0.92,Vmaxpu=1.5,model=1,daily=RES3_10,status=variable
new load.3001626028M1 bus1=RML1054051720.1.0,Phases=1,kv=0.127,kW=1.8672,pf=0.92,Vminpu=0.92,Vmaxpu=1.5,model=1,daily=RES4_11,status=variable
new load.3001626036M1 bus1=RML1054048178.1.2.3.0,Phases=3,kv=0.22,kW=2.7976,pf=0.92,Vminpu=0.92,Vmaxpu=1.5,model=1,daily=RES4_11,status=variable
new load.3001626044M1 bus1=RML1054052231.1.2.0,Phases=2,kv=0.22,kW=1.04896,pf=0.92,Vminpu=0.92,Vmaxpu=1.5,model=1,daily=RES5_11,status=variable
new load.3001626061M1 bus1=RML1054053407.1.2.3.0,Phases=3,kv=0.22,kW=5.74584,pf=0.92,Vminpu=0.92,Vmaxpu=1.5,model=1,daily=RES1_8,status=variable
new load.3001626069M1 bus1=RML1054054527.1.2.0,Phases=2,kv=0.22,kW=1.79072,pf=0.92,Vminpu=0.92,Vmaxpu=1.5,model=1,daily=RES4_11,status=variable
new load.3001626077M1 bus1=RML1054052266.1.2.3.0,Phases=3,kv=0.22,kW=0.63676,pf=0.92,Vminpu=0.92,Vmaxpu=1.5,model=1,daily=RES2_9,status=variable
new load.3001626085M1 bus1=RML1054052350.1.3.0,Phases=2,kv=0.22,kW=3.57426,pf=0.92,Vminpu=0.92,Vmaxpu=1.5,model=1,daily=RES5_11,status=variable
new load.3001626093M1 bus1=RML1054053449.1.2.3.0,Phases=3,kv=0.22,kW=1.47208,pf=0.92,Vminpu=0.92,Vmaxpu=1.5,model=1,daily=RES4_11,status=variable
new load.3001626102M1 bus1=RML1054055073.1.2.3.0,Phases=3,kv=0.22,kW=1.2369,pf=0.92,Vminpu=0.92,Vmaxpu=1.5,model=1,daily=RES2_9,status=variable
new load.3001626110M1 bus1=RML1054055255.1.2.3.0,Phases=3,kv=0.22,kW=1.28276,pf=0.92,Vminpu=0.92,Vmaxpu=1.5,model=1,daily=RES3_10,status=variable
new load.3001626118M1 bus1=RML1054053911.1.3.0,Phases=2,kv=0.22,kW=1.61228,pf=0.92,Vminpu=0.92,Vmaxpu=1.5,model=1,daily=RES4_11,status=variable
new load.3001626126M1 bus1=RML1054053806.1.3.0,Phases=2,kv=0.22,kW=1.73058,pf=0.92,Vminpu=0.92,Vmaxpu=1.5,model=1,daily=RES3_10,status=variable
new load.3000366462M1 bus1=RML1051746088.1.2.3.0,Phases=3,kv=0.22,kW=0.1182,pf=0.92,Vminpu=0.92,Vmaxpu=1.5,model=1,daily=RES6_10,status=variable
new load.3000366473M1 bus1=RML1051746795.1.2.3.0,Phases=3,kv=0.22,kW=0.97424,pf=0.92,Vminpu=0.92,Vmaxpu=1.5,model=1,daily=RES2_5,status=variable
new load.3000366482M1 bus1=RML1051746886.2.3.0,Phases=2,kv=0.22,kW=0.1499,pf=0.92,Vminpu=0.92,Vmaxpu=1.5,model=1,daily=RES1_4,status=variable
new load.3000366491M1 bus1=RML1051746767.1.2.3.0,Phases=3,kv=0.22,kW=1.91228,pf=0.92,Vminpu=0.92,Vmaxpu=1.5,model=1,daily=RES4_8,status=variable
new load.3001625933M1 bus1=RML1054054597.1.2.3.0,Phases=3,kv=0.22,kW=1.8672,pf=0.92,Vminpu=0.92,Vmaxpu=1.5,model=1,daily=RES3_10,status=variable
new load.3001625941M1 bus1=RML1054054499.1.2.3.0,Phases=3,kv=0.22,kW=2.70012,pf=0.92,Vminpu=0.92,Vmaxpu=1.5,model=1,daily=RES5_11,status=variable
new load.3001625949M1 bus1=RML1054051125.1.3.0,Phases=2,kv=0.22,kW=1.65468,pf=0.92,Vminpu=0.92,Vmaxpu=1.5,model=1,daily=RES3_10,status=variable
new load.3001625958M1 bus1=RML1054037951.1.0,Phases=1,kv=0.127,kW=2.29986,pf=0.92,Vminpu=0.92,Vmaxpu=1.5,model=1,daily=RES3_10,status=variable
new load.3001625967M1 bus1=RML1054037965.1.2.3.0,Phases=3,kv=0.22,kW=2.38976,pf=0.92,Vminpu=0.92,Vmaxpu=1.5,model=1,daily=RES4_11,status=variable
new load.3001625975M1 bus1=RML1054048332.1.2.0,Phases=2,kv=0.22,kW=1.62688,pf=0.92,Vminpu=0.92,Vmaxpu=1.5,model=1,daily=RES5_11,status=variable
new load.3001625985M1 bus1=RML1054048290.1.3.0,Phases=2,kv=0.22,kW=0.0263,pf=0.92,Vminpu=0.92,Vmaxpu=1.5,model=1,daily=RES1_8,status=variable
new load.3001625993M1 bus1=RML1054052147.1.2.3.0,Phases=3,kv=0.22,kW=1.21408,pf=0.92,Vminpu=0.92,Vmaxpu=1.5,model=1,daily=RES5_11,status=variable
new load.3001626002M1 bus1=RML1054052119.1.2.0,Phases=2,kv=0.22,kW=1.4211,pf=0.92,Vminpu=0.92,Vmaxpu=1.5,model=1,daily=RES4_11,status=variable
new load.3001626011M1 bus1=RML1054060211.1.2.3.0,Phases=3,kv=0.22,kW=1.724,pf=0.92,Vminpu=0.92,Vmaxpu=1.5,model=1,daily=RES5_11,status=variable
new load.3001626019M1 bus1=RML1054048150.1.2.3.0,Phases=3,kv=0.22,kW=1.7971,pf=0.92,Vminpu=0.92,Vmaxpu=1.5,model=1,daily=RES4_11,status=variable
new load.3001626027M1 bus1=RML1054048346.1.2.3.0,Phases=3,kv=0.22,kW=2.14046,pf=0.92,Vminpu=0.92,Vmaxpu=1.5,model=1,daily=RES3_10,status=variable
new load.3001626035M1 bus1=RML1054048227.1.2.3.0,Phases=3,kv=0.22,kW=2.00102,pf=0.92,Vminpu=0.92,Vmaxpu=1.5,model=1,daily=RES4_11,status=variable
new load.3001626043M1 bus1=RML1054052224.1.2.3.0,Phases=3,kv=0.22,kW=1.36626,pf=0.92,Vminpu=0.92,Vmaxpu=1.5,model=1,daily=RES3_10,status=variable
new load.3001626051M1 bus1=RML1054052168.1.2.0,Phases=2,kv=0.22,kW=1.4042,pf=0.92,Vminpu=0.92,Vmaxpu=1.5,model=1,daily=RES3_10,status=variable
new load.3001626059M1 bus1=RML1054053442.1.2.0,Phases=2,kv=0.22,kW=1.71424,pf=0.92,Vminpu=0.92,Vmaxpu=1.5,model=1,daily=RES4_11,status=variable
new load.3001626068M1 bus1=RML1054054492.1.2.3.0,Phases=3,kv=0.22,kW=0.58552,pf=0.92,Vminpu=0.92,Vmaxpu=1.5,model=1,daily=RES2_9,status=variable
new load.3001626076M1 bus1=RML1054052273.1.2.3.0,Phases=3,kv=0.22,kW=3.49656,pf=0.92,Vminpu=0.92,Vmaxpu=1.5,model=1,daily=RES5_11,status=variable
new load.3001626084M1 bus1=RML1054052364.1.2.3.0,Phases=3,kv=0.22,kW=5.61478,pf=0.92,Vminpu=0.92,Vmaxpu=1.5,model=1,daily=RES6_11,status=variable
new load.3001626092M1 bus1=RML1054053421.1.2.0,Phases=2,kv=0.22,kW=2.74382,pf=0.92,Vminpu=0.92,Vmaxpu=1.5,model=1,daily=RES5_11,status=variable
new load.3001626101M1 bus1=RML1054053491.1.2.0,Phases=2,kv=0.22,kW=1.76284,pf=0.92,Vminpu=0.92,Vmaxpu=1.5,model=1,daily=RES5_11,status=variable
new load.3001626109M1 bus1=RML1054055234.1.2.3.0,Phases=3,kv=0.22,kW=2.46702,pf=0.92,Vminpu=0.92,Vmaxpu=1.5,model=1,daily=RES5_11,status=variable
new load.3001626117M1 bus1=RML1054055094.1.2.3.0,Phases=3,kv=0.22,kW=0.89,pf=0.92,Vminpu=0.92,Vmaxpu=1.5,model=1,daily=COM1_13,status=variable
new load.3001626125M1 bus1=RML1054053799.1.2.0,Phases=2,kv=0.22,kW=0.95638,pf=0.92,Vminpu=0.92,Vmaxpu=1.5,model=1,daily=RES3_10,status=variable
new load.3000366320M1 bus1=RML1056655279.1.2.0,Phases=2,kv=0.24,kW=2.84016,pf=0.92,Vminpu=0.92,Vmaxpu=1.5,model=1,daily=RES5_8,status=variable
new load.3000366464M1 bus1=RML1051746823.1.2.3.0,Phases=3,kv=0.22,kW=0.27436,pf=0.92,Vminpu=0.92,Vmaxpu=1.5,model=1,daily=RES2_5,status=variable
new load.3000366475M1 bus1=RML1051747103.1.2.3.0,Phases=3,kv=0.22,kW=3.67168,pf=0.92,Vminpu=0.92,Vmaxpu=1.5,model=1,daily=RES3_6,status=variable
new load.3000366484M1 bus1=RML1051747096.1.2.3.0,Phases=3,kv=0.22,kW=0.66774,pf=0.92,Vminpu=0.92,Vmaxpu=1.5,model=1,daily=RES1_4,status=variable
new load.3001625927M1 bus1=RML1054055157.1.2.0,Phases=2,kv=0.22,kW=0.76244,pf=0.92,Vminpu=0.92,Vmaxpu=1.5,model=1,daily=RES5_11,status=variable
new load.3001625935M1 bus1=RML1054054569.1.2.0,Phases=2,kv=0.22,kW=3.16632,pf=0.92,Vminpu=0.92,Vmaxpu=1.5,model=1,daily=RES5_11,status=variable
new load.3001625943M1 bus1=RML1054054464.1.2.3.0,Phases=3,kv=0.22,kW=1.62504,pf=0.92,Vminpu=0.92,Vmaxpu=1.5,model=1,daily=RES4_11,status=variable
new load.3001625951M1 bus1=RML1054051090.1.2.3.0,Phases=3,kv=0.22,kW=0.86668,pf=0.92,Vminpu=0.92,Vmaxpu=1.5,model=1,daily=RES4_11,status=variable
new load.3001625960M1 bus1=RML1054037937.1.2.0,Phases=2,kv=0.22,kW=1.61866,pf=0.92,Vminpu=0.92,Vmaxpu=1.5,model=1,daily=RES4_11,status=variable
new load.3001625969M1 bus1=RML1054037993.1.2.3.0,Phases=3,kv=0.22,kW=2.8021,pf=0.92,Vminpu=0.92,Vmaxpu=1.5,model=1,daily=RES5_11,status=variable
new load.3001625978M1 bus1=RML1054048297.1.2.3.0,Phases=3,kv=0.22,kW=2.66378,pf=0.92,Vminpu=0.92,Vmaxpu=1.5,model=1,daily=RES4_11,status=variable
new load.3001625987M1 bus1=RML1054048325.1.2.0,Phases=2,kv=0.22,kW=1.47844,pf=0.92,Vminpu=0.92,Vmaxpu=1.5,model=1,daily=RES2_9,status=variable
new load.3001625995M1 bus1=RML1054051174.1.2.3.0,Phases=3,kv=0.22,kW=2.1025,pf=0.92,Vminpu=0.92,Vmaxpu=1.5,model=1,daily=RES3_10,status=variable
new load.3001626004M1 bus1=RML1054052112.2.3.0,Phases=2,kv=0.22,kW=2.4289,pf=0.92,Vminpu=0.92,Vmaxpu=1.5,model=1,daily=RES3_10,status=variable
new load.3001626013M1 bus1=RML1054060197.1.2.3.0,Phases=3,kv=0.22,kW=1.73856,pf=0.92,Vminpu=0.92,Vmaxpu=1.5,model=1,daily=RES5_11,status=variable
new load.3001626021M1 bus1=RML1056619628.1.2.3.0,Phases=3,kv=0.22,kW=2.26306,pf=0.92,Vminpu=0.92,Vmaxpu=1.5,model=1,daily=RES5_11,status=variable
new load.3001626029M1 bus1=RML1054048353.1.2.3.0,Phases=3,kv=0.22,kW=1.6463,pf=0.92,Vminpu=0.92,Vmaxpu=1.5,model=1,daily=RES5_11,status=variable
new load.3001626037M1 bus1=RML1054048157.1.2.3.0,Phases=3,kv=0.22,kW=1.35866,pf=0.92,Vminpu=0.92,Vmaxpu=1.5,model=1,daily=RES3_10,status=variable
new load.3001626045M1 bus1=RML1054052245.1.2.3.0,Phases=3,kv=0.22,kW=1.58636,pf=0.92,Vminpu=0.92,Vmaxpu=1.5,model=1,daily=RES3_10,status=variable
new load.3001626053M1 bus1=RML1054053337.1.2.3.0,Phases=3,kv=0.22,kW=1.53324,pf=0.92,Vminpu=0.92,Vmaxpu=1.5,model=1,daily=RES3_10,status=variable
new load.3001626062M1 bus1=RML1054053386.1.2.0,Phases=2,kv=0.22,kW=0.46842,pf=0.92,Vminpu=0.92,Vmaxpu=1.5,model=1,daily=RES2_9,status=variable
new load.3001626070M1 bus1=RML1054054555.1.2.3.0,Phases=3,kv=0.22,kW=2.29986,pf=0.92,Vminpu=0.92,Vmaxpu=1.5,model=1,daily=RES3_10,status=variable
new load.3001626078M1 bus1=RML1054052308.1.2.3.0,Phases=3,kv=0.22,kW=1.9819,pf=0.92,Vminpu=0.92,Vmaxpu=1.5,model=1,daily=RES4_11,status=variable
new load.3001626086M1 bus1=RML1054052336.1.3.0,Phases=2,kv=0.22,kW=1.37384,pf=0.92,Vminpu=0.92,Vmaxpu=1.5,model=1,daily=RES3_10,status=variable
new load.3001626094M1 bus1=RML1054053456.1.2.3.0,Phases=3,kv=0.22,kW=1.00192,pf=0.92,Vminpu=0.92,Vmaxpu=1.5,model=1,daily=RES3_10,status=variable
new load.3001626103M1 bus1=RML1054055101.1.2.3.0,Phases=3,kv=0.22,kW=2.0266,pf=0.92,Vminpu=0.92,Vmaxpu=1.5,model=1,daily=RES3_10,status=variable
new load.3001626111M1 bus1=RML1054055248.1.2.3.0,Phases=3,kv=0.22,kW=2.62728,pf=0.92,Vminpu=0.92,Vmaxpu=1.5,model=1,daily=RES5_11,status=variable
new load.3001626119M1 bus1=RML1054053890.1.2.3.0,Phases=3,kv=0.22,kW=1.4801,pf=0.92,Vminpu=0.92,Vmaxpu=1.5,model=1,daily=RES3_10,status=variable
new load.3000366420M1 bus1=RML1051447965.1.2.0,Phases=2,kv=0.24,kW=1.03064,pf=0.92,Vminpu=0.92,Vmaxpu=1.5,model=1,daily=RES4_8,status=variable
new load.3000366468M1 bus1=RML1051746774.1.2.3.0,Phases=3,kv=0.22,kW=2.3987,pf=0.92,Vminpu=0.92,Vmaxpu=1.5,model=1,daily=RES3_6,status=variable
new load.3000366478M1 bus1=RML1051746900.1.2.3.0,Phases=3,kv=0.22,kW=0.53752,pf=0.92,Vminpu=0.92,Vmaxpu=1.5,model=1,daily=RES2_5,status=variable
new load.3000366487M1 bus1=RML1051747152.1.2.3.0,Phases=3,kv=0.22,kW=1.15382,pf=0.92,Vminpu=0.92,Vmaxpu=1.5,model=1,daily=RES6_10,status=variable
new load.3001625930M1 bus1=RML1054055241.1.2.0,Phases=2,kv=0.22,kW=0.95878,pf=0.92,Vminpu=0.92,Vmaxpu=1.5,model=1,daily=RES2_9,status=variable
new load.3001625938M1 bus1=RML1054054534.1.2.0,Phases=2,kv=0.22,kW=1.2524,pf=0.92,Vminpu=0.92,Vmaxpu=1.5,model=1,daily=RES3_10,status=variable
new load.3001625946M1 bus1=RML1054051181.1.2.3.0,Phases=3,kv=0.22,kW=1.89758,pf=0.92,Vminpu=0.92,Vmaxpu=1.5,model=1,daily=RES3_10,status=variable
new load.3001625955M1 bus1=RML1054037986.1.3.0,Phases=2,kv=0.22,kW=1.0393,pf=0.92,Vminpu=0.92,Vmaxpu=1.5,model=1,daily=RES2_9,status=variable
new load.3001625964M1 bus1=RML1054037930.1.2.3.0,Phases=3,kv=0.22,kW=0.71002,pf=0.92,Vminpu=0.92,Vmaxpu=1.5,model=1,daily=RES1_8,status=variable
new load.3001625972M1 bus1=RML1054038028.2.3.0,Phases=2,kv=0.22,kW=0.73286,pf=0.92,Vminpu=0.92,Vmaxpu=1.5,model=1,daily=RES4_11,status=variable
new load.3001625981M1 bus1=RML1054048199.1.2.3.0,Phases=3,kv=0.22,kW=1.49758,pf=0.92,Vminpu=0.92,Vmaxpu=1.5,model=1,daily=RES4_11,status=variable
new load.3001625990M1 bus1=RML1054051188.1.0,Phases=1,kv=0.127,kW=0.35132,pf=0.92,Vminpu=0.92,Vmaxpu=1.5,model=1,daily=RES2_9,status=variable
new load.3001625998M1 bus1=RML1054054443.1.2.3.0,Phases=3,kv=0.22,kW=2.2368,pf=0.92,Vminpu=0.92,Vmaxpu=1.5,model=1,daily=RES4_11,status=variable
new load.3001626008M1 bus1=RML1054060260.1.2.3.0,Phases=3,kv=0.22,kW=2.34406,pf=0.92,Vminpu=0.92,Vmaxpu=1.5,model=1,daily=RES6_11,status=variable
new load.3001626016M1 bus1=RML1054060162.1.2.0,Phases=2,kv=0.22,kW=1.95004,pf=0.92,Vminpu=0.92,Vmaxpu=1.5,model=1,daily=RES4_11,status=variable
new load.3001626024M1 bus1=RML1054048248.1.2.3.0,Phases=3,kv=0.22,kW=0.16102,pf=0.92,Vminpu=0.92,Vmaxpu=1.5,model=1,daily=RES2_9,status=variable
new load.3001626032M1 bus1=RML1054048276.1.2.3.0,Phases=3,kv=0.22,kW=2.4136,pf=0.92,Vminpu=0.92,Vmaxpu=1.5,model=1,daily=RES5_11,status=variable
new load.3001626040M1 bus1=RML1054052161.1.2.3.0,Phases=3,kv=0.22,kW=1.51046,pf=0.92,Vminpu=0.92,Vmaxpu=1.5,model=1,daily=RES3_10,status=variable
new load.3001626048M1 bus1=RML1054052203.1.2.3.0,Phases=3,kv=0.22,kW=2.6127,pf=0.92,Vminpu=0.92,Vmaxpu=1.5,model=1,daily=RES5_11,status=variable
new load.3001626056M1 bus1=RML1054053379.1.2.0,Phases=2,kv=0.22,kW=1.4801,pf=0.92,Vminpu=0.92,Vmaxpu=1.5,model=1,daily=RES3_10,status=variable