! manter este comentario para compatibilidade do C#
new circuit.alimMDH08 bus1=BMT101708035.1.2.3,basekv=13.800000000,pu=1.040000000