new line.RML10087705 bus1=BBT74489060.1.0,bus2=RML1010087705.1.0,Phases=1,Linecode=CABBTG01_4_1,Length=0.029000000,Units=km
new line.RML10087706 bus1=BBT104251016.1.0,bus2=RML1010087706.1.0,Phases=1,Linecode=CABBTG01_4_1,Length=0.029000000,Units=km
new line.RML10087710 bus1=BBT74511187.2.0,bus2=RML1010087710.2.0,Phases=1,Linecode=CABBTG01_4_1,Length=0.029000000,Units=km
new line.RML10087773 bus1=BBT2816306.2.0,bus2=RML1010087773.2.0,Phases=1,Linecode=CABBTG02_4_1,Length=0.029000000,Units=km
new line.RML10087782 bus1=BBT3436387.1.0,bus2=RML1010087782.1.0,Phases=1,Linecode=CABBTG01_4_1,Length=0.029000000,Units=km
new line.RML10087783 bus1=BBT1810462.1.2.0,bus2=RML1010087783.1.2.0,Phases=2,Linecode=CABBTG05_4_2,Length=0.029000000,Units=km
new line.RML10087784 bus1=BBT1810448.1.3.0,bus2=RML1010087784.1.3.0,Phases=2,Linecode=CABBTG05_4_2,Length=0.029000000,Units=km
new line.RML10087786 bus1=BBT74493386.1.0,bus2=RML1010087786.1.0,Phases=1,Linecode=CABBTG01_4_1,Length=0.029000000,Units=km
new line.RML10087794 bus1=BBT104250596.1.0,bus2=RML1010087794.1.0,Phases=1,Linecode=CABBTG02_4_1,Length=0.029000000,Units=km
new line.RML10088016 bus1=BBT2816411.1.0,bus2=RML1010088016.1.0,Phases=1,Linecode=CABBTG02_4_1,Length=0.029000000,Units=km
new line.RML10088072 bus1=BBT74567698.1.0,bus2=RML1010088072.1.0,Phases=1,Linecode=CABBTG02_4_1,Length=0.029000000,Units=km
new line.RML10088082 bus1=BBT104246648.3.0,bus2=RML1010088082.3.0,Phases=1,Linecode=CABBTG02_4_1,Length=0.029000000,Units=km
new line.RML10088116 bus1=BBT104204501.1.0,bus2=RML1010088116.1.0,Phases=1,Linecode=CABBTG02_4_1,Length=0.029000000,Units=km
new line.RML10088122 bus1=BBT104204501.2.0,bus2=RML1010088122.2.0,Phases=1,Linecode=CABBTG02_4_1,Length=0.029000000,Units=km
new line.RML10089816 bus1=BBT74491601.1.0,bus2=RML1010089816.1.0,Phases=1,Linecode=CABBTG01_4_1,Length=0.029000000,Units=km
new line.RML10089827 bus1=BBT104250673.3.0,bus2=RML1010089827.3.0,Phases=1,Linecode=CABBTG01_4_1,Length=0.029000000,Units=km
new line.RML10089859 bus1=BBT74509220.1.0,bus2=RML1010089859.1.0,Phases=1,Linecode=CABBTG01_4_1,Length=0.029000000,Units=km
new line.RML10089866 bus1=BBT74509220.2.0,bus2=RML1010089866.2.0,Phases=1,Linecode=CABBTG01_4_1,Length=0.029000000,Units=km
new line.RML10089888 bus1=BBT1800186.2.0,bus2=RML1010089888.2.0,Phases=1,Linecode=CABBTG01_4_1,Length=0.029000000,Units=km
new line.RML10089903 bus1=BBT1799521.1.0,bus2=RML1010089903.1.0,Phases=1,Linecode=CABBTG01_4_1,Length=0.029000000,Units=km
new line.RML10089909 bus1=BBT23544152.3.0,bus2=RML1010089909.3.0,Phases=1,Linecode=CABBTG01_4_1,Length=0.029000000,Units=km
new line.RML10090091 bus1=BBT1739279.1.0,bus2=RML1010090091.1.0,Phases=1,Linecode=CABBTG02_4_1,Length=0.029000000,Units=km
new line.RML10090155 bus1=BBT1804064.3.0,bus2=RML1010090155.3.0,Phases=1,Linecode=CABBTG01_4_1,Length=0.029000000,Units=km
new line.RML10108244 bus1=BBT2816488.2.0,bus2=RML1010108244.2.0,Phases=1,Linecode=CABBTG02_4_1,Length=0.029000000,Units=km
new line.RML10108248 bus1=BBT74562049.2.0,bus2=RML1010108248.2.0,Phases=1,Linecode=CABBTG02_4_1,Length=0.029000000,Units=km
new line.RML10108251 bus1=BBT104254530.1.0,bus2=RML1010108251.1.0,Phases=1,Linecode=CABBTG02_4_1,Length=0.029000000,Units=km
new line.RML10108258 bus1=BBT1810315.1.2.0,bus2=RML1010108258.1.2.0,Phases=2,Linecode=CABBTG05_4_2,Length=0.029000000,Units=km
new line.RML10108405 bus1=BBT104253753.3.0,bus2=RML1010108405.3.0,Phases=1,Linecode=CABBTG01_4_1,Length=0.013000000,Units=km
new line.RML10108429 bus1=BBT74562049.1.0,bus2=RML1010108429.1.0,Phases=1,Linecode=CABBTG01_4_1,Length=0.029000000,Units=km
new line.RML10109818 bus1=BBT2163038.1.2.0,bus2=RML1010109818.1.2.0,Phases=2,Linecode=CABBTG05_4_2,Length=0.024000000,Units=km
new line.RML10109834 bus1=BBT1738915.3.0,bus2=RML1010109834.3.0,Phases=1,Linecode=CABBT811_4_1,Length=0.014000000,Units=km
new line.RML10109865 bus1=BBT1739573.2.3.0,bus2=RML1010109865.2.3.0,Phases=2,Linecode=CABBTG05_4_2,Length=0.010000000,Units=km
new line.RML10176855 bus1=BBT1799136.1.2.0,bus2=RML1010176855.1.2.0,Phases=2,Linecode=CABBTG05_4_2,Length=0.029000000,Units=km
new line.RML10176893 bus1=BBT1816937.1.2.3.0,bus2=RML1010176893.1.2.3.0,Phases=3,Linecode=CABBTG06_4_3,Length=0.029000000,Units=km
new line.RML10176898 bus1=BBT1815383.1.2.0,bus2=RML1010176898.1.2.0,Phases=2,Linecode=CABBTG05_4_2,Length=0.029000000,Units=km
new line.RML10176928 bus1=BBT1812072.3.0,bus2=RML1010176928.3.0,Phases=1,Linecode=CABBTG02_4_1,Length=0.029000000,Units=km
new line.RML10176938 bus1=BBT4242388.2.0,bus2=RML1010176938.2.0,Phases=1,Linecode=CABBTG01_4_1,Length=0.029000000,Units=km
new line.RML10176939 bus1=BBT2816495.2.0,bus2=RML1010176939.2.0,Phases=1,Linecode=CABBTG01_4_1,Length=0.029000000,Units=km
new line.RML10177055 bus1=BBT1803994.1.2.0,bus2=RML1010177055.1.2.0,Phases=2,Linecode=CABBTG05_4_2,Length=0.029000000,Units=km
new line.RML10177083 bus1=BBT123416330.2.0,bus2=RML1010177083.2.0,Phases=1,Linecode=CABBTG02_4_1,Length=0.029000000,Units=km
new line.RML10177085 bus1=BBT123416330.2.0,bus2=RML1010177085.2.0,Phases=1,Linecode=CABBTG01_4_1,Length=0.029000000,Units=km
new line.RML10177089 bus1=BBT4503586.1.0,bus2=RML1010177089.1.0,Phases=1,Linecode=CABBTG02_4_1,Length=0.029000000,Units=km
new line.RML10177102 bus1=BBT137174816.3.0,bus2=RML1010177102.3.0,Phases=1,Linecode=CABBTG02_4_1,Length=0.019000000,Units=km
new line.RML10177104 bus1=BBT171569604.1.0,bus2=RML1010177104.1.0,Phases=1,Linecode=CABBTG02_4_1,Length=0.029000000,Units=km
new line.RML10177115 bus1=BBT2003543.1.2.3.0,bus2=RML1010177115.1.2.3.0,Phases=3,Linecode=CABBTG06_4_3,Length=0.029000000,Units=km
new line.RML10177122 bus1=BBT3728378.1.0,bus2=RML1010177122.1.0,Phases=1,Linecode=CABBTG02_4_1,Length=0.029000000,Units=km
new line.RML10177244 bus1=BBT1805065.2.0,bus2=RML1010177244.2.0,Phases=1,Linecode=CABBTG01_4_1,Length=0.029000000,Units=km
new line.RML10177270 bus1=BBT2559259.1.2.0,bus2=RML1010177270.1.2.0,Phases=2,Linecode=CABBTG05_4_2,Length=0.029000000,Units=km
new line.RML10178167 bus1=BBT171961802.1.2.3.0,bus2=RML1010178167.1.2.3.0,Phases=3,Linecode=CABBT815_4_3,Length=0.029000000,Units=km
new line.RML10178188 bus1=BBT1800739.1.2.0,bus2=RML1010178188.1.2.0,Phases=2,Linecode=CABBT811_4_2,Length=0.029000000,Units=km
new line.RML10178243 bus1=BBT2816467.1.0,bus2=RML1010178243.1.0,Phases=1,Linecode=CABBTG02_4_1,Length=0.029000000,Units=km
new line.RML10178342 bus1=BBT1797652.1.2.0,bus2=RML1010178342.1.2.0,Phases=2,Linecode=CABBTG05_4_2,Length=0.029000000,Units=km
new line.RML10178348 bus1=BBT1801047.1.2.0,bus2=RML1010178348.1.2.0,Phases=2,Linecode=CABBTG05_4_2,Length=0.029000000,Units=km
new line.RML10178352 bus1=BBT1799864.1.2.3.0,bus2=RML1010178352.1.2.3.0,Phases=3,Linecode=CABBTG06_4_3,Length=0.029000000,Units=km
new line.RML10178361 bus1=BBT127990991.2.3.0,bus2=RML1010178361.2.3.0,Phases=2,Linecode=CABBTG05_4_2,Length=0.029000000,Units=km
new line.RML10178384 bus1=BBT130860347.1.2.0,bus2=RML1010178384.1.2.0,Phases=2,Linecode=CABBTG05_4_2,Length=0.029000000,Units=km
new line.RML10178387 bus1=BBT1799871.2.3.0,bus2=RML1010178387.2.3.0,Phases=2,Linecode=CABBTG04_4_2,Length=0.017000000,Units=km
new line.RML10178405 bus1=BBT1800228.3.0,bus2=RML1010178405.3.0,Phases=1,Linecode=CABBTG01_4_1,Length=0.029000000,Units=km
new line.RML10178420 bus1=BBT1804351.3.0,bus2=RML1010178420.3.0,Phases=1,Linecode=CABBTG02_4_1,Length=0.029000000,Units=km
new line.RML10178424 bus1=BBT1821438.1.2.0,bus2=RML1010178424.1.2.0,Phases=2,Linecode=CABBTG05_4_2,Length=0.017000000,Units=km
new line.RML10178429 bus1=BBT1818113.2.3.0,bus2=RML1010178429.2.3.0,Phases=2,Linecode=CABBTG05_4_2,Length=0.017000000,Units=km
new line.RML10178457 bus1=BBT1739538.1.0,bus2=RML1010178457.1.0,Phases=1,Linecode=CABBTG01_4_1,Length=0.029000000,Units=km
new line.RML10178460 bus1=BBT1739566.2.3.0,bus2=RML1010178460.2.3.0,Phases=2,Linecode=CABBTG05_4_2,Length=0.029000000,Units=km
new line.RML10178476 bus1=BBT104193448.1.2.0,bus2=RML1010178476.1.2.0,Phases=2,Linecode=CABBTG05_4_2,Length=0.029000000,Units=km
new line.RML10178479 bus1=BBT104193448.1.2.0,bus2=RML1010178479.1.2.0,Phases=2,Linecode=CABBTG05_4_2,Length=0.029000000,Units=km
new line.RML10178836 bus1=BBT104247817.1.2.3.0,bus2=RML1010178836.1.2.3.0,Phases=3,Linecode=CABBT815_4_3,Length=0.029000000,Units=km
new line.RML10178841 bus1=BBT104251100.1.0,bus2=RML1010178841.1.0,Phases=1,Linecode=CABBTG02_4_1,Length=0.029000000,Units=km
new line.RML10178847 bus1=BBT74567698.1.0,bus2=RML1010178847.1.0,Phases=1,Linecode=CABBTG02_4_1,Length=0.029000000,Units=km
new line.RML10178849 bus1=BBT74567698.1.0,bus2=RML1010178849.1.0,Phases=1,Linecode=CABBTG02_4_1,Length=0.029000000,Units=km
new line.RML10178851 bus1=BBT74487051.2.0,bus2=RML1010178851.2.0,Phases=1,Linecode=CABBTG02_4_1,Length=0.029000000,Units=km
new line.RML10178852 bus1=BBT104246641.3.0,bus2=RML1010178852.3.0,Phases=1,Linecode=CABBTG02_4_1,Length=0.029000000,Units=km
new line.RML10178876 bus1=BBT104254019.1.0,bus2=RML1010178876.1.0,Phases=1,Linecode=CABBTG02_4_1,Length=0.029000000,Units=km
new line.RML10178880 bus1=BBT104254019.1.2.0,bus2=RML1010178880.1.2.0,Phases=2,Linecode=CABBTG05_4_2,Length=0.029000000,Units=km
new line.RML10178882 bus1=BBT104254019.1.2.0,bus2=RML1010178882.1.2.0,Phases=2,Linecode=CABBTG05_4_2,Length=0.029000000,Units=km
new line.RML10178885 bus1=BBT104254019.1.2.0,bus2=RML1010178885.1.2.0,Phases=2,Linecode=CABBTG05_4_2,Length=0.029000000,Units=km
new line.RML10178886 bus1=BBT104254600.2.0,bus2=RML1010178886.2.0,Phases=1,Linecode=CABBTG02_4_1,Length=0.029000000,Units=km
new line.RML10178889 bus1=BBT104254600.1.3.0,bus2=RML1010178889.1.3.0,Phases=2,Linecode=CABBTG05_4_2,Length=0.029000000,Units=km
new line.RML10178891 bus1=BBT104254243.1.3.0,bus2=RML1010178891.1.3.0,Phases=2,Linecode=CABBTG05_4_2,Length=0.029000000,Units=km
new line.RML10178892 bus1=BBT104254243.1.0,bus2=RML1010178892.1.0,Phases=1,Linecode=CABBTG02_4_1,Length=0.029000000,Units=km
new line.RML10178896 bus1=BBT104250673.1.0,bus2=RML1010178896.1.0,Phases=1,Linecode=CABBTG02_4_1,Length=0.029000000,Units=km
new line.RML10178901 bus1=BBT104250680.2.0,bus2=RML1010178901.2.0,Phases=1,Linecode=CABBTG02_4_1,Length=0.029000000,Units=km
new line.RML10178903 bus1=BBT104250673.2.0,bus2=RML1010178903.2.0,Phases=1,Linecode=CABBTG02_4_1,Length=0.029000000,Units=km
new line.RML10178910 bus1=BBT104204501.1.0,bus2=RML1010178910.1.0,Phases=1,Linecode=CABBTG02_4_1,Length=0.029000000,Units=km
new line.RML10178918 bus1=BBT104250596.2.0,bus2=RML1010178918.2.0,Phases=1,Linecode=CABBTG02_4_1,Length=0.029000000,Units=km
new line.RML10178922 bus1=BBT74511894.2.0,bus2=RML1010178922.2.0,Phases=1,Linecode=CABBTG02_4_1,Length=0.029000000,Units=km
new line.RML10178932 bus1=BBT74511691.2.0,bus2=RML1010178932.2.0,Phases=1,Linecode=CABBTG02_4_1,Length=0.029000000,Units=km
new line.RML10178938 bus1=BBT74511691.1.0,bus2=RML1010178938.1.0,Phases=1,Linecode=CABBTG02_4_1,Length=0.029000000,Units=km
new line.RML10178945 bus1=BBT74512181.2.0,bus2=RML1010178945.2.0,Phases=1,Linecode=CABBTG02_4_1,Length=0.029000000,Units=km
new line.RML10178947 bus1=BBT74567537.2.0,bus2=RML1010178947.2.0,Phases=1,Linecode=CABBTG02_4_1,Length=0.029000000,Units=km
new line.RML10178949 bus1=BBT74567215.1.0,bus2=RML1010178949.1.0,Phases=1,Linecode=CABBTG01_4_1,Length=0.029000000,Units=km
new line.RML10178951 bus1=BBT74567215.1.2.0,bus2=RML1010178951.1.2.0,Phases=2,Linecode=CABBTG05_4_2,Length=0.029000000,Units=km
new line.RML10178958 bus1=BBT74566739.1.2.0,bus2=RML1010178958.1.2.0,Phases=2,Linecode=CABBTG05_4_2,Length=0.029000000,Units=km
new line.RML10178973 bus1=BBT74566739.1.2.0,bus2=RML1010178973.1.2.0,Phases=2,Linecode=CABBTG05_4_2,Length=0.029000000,Units=km
new line.RML10178975 bus1=BBT104207322.1.2.0,bus2=RML1010178975.1.2.0,Phases=2,Linecode=CABBTG05_4_2,Length=0.029000000,Units=km
new line.RML10178980 bus1=BBT104207322.1.2.0,bus2=RML1010178980.1.2.0,Phases=2,Linecode=CABBTG05_4_2,Length=0.029000000,Units=km
new line.RML10178982 bus1=BBT104207322.1.2.0,bus2=RML1010178982.1.2.0,Phases=2,Linecode=CABBTG05_4_2,Length=0.029000000,Units=km
new line.RML10178987 bus1=BBT104207322.1.2.0,bus2=RML1010178987.1.2.0,Phases=2,Linecode=CABBTG05_4_2,Length=0.029000000,Units=km
new line.RML10178991 bus1=BBT104207322.1.2.0,bus2=RML1010178991.1.2.0,Phases=2,Linecode=CABBTG05_4_2,Length=0.029000000,Units=km
new line.RML10179019 bus1=BBT74491601.1.0,bus2=RML1010179019.1.0,Phases=1,Linecode=CABBTG01_4_1,Length=0.029000000,Units=km
new line.RML10179027 bus1=BBT74561923.1.0,bus2=RML1010179027.1.0,Phases=1,Linecode=CABBTG01_4_1,Length=0.029000000,Units=km
new line.RML10179051 bus1=BBT2695178.2.0,bus2=RML1010179051.2.0,Phases=1,Linecode=CABBTG02_4_1,Length=0.029000000,Units=km
new line.RML10179072 bus1=BBT1811477.2.0,bus2=RML1010179072.2.0,Phases=1,Linecode=CABBTG02_4_1,Length=0.029000000,Units=km
new line.RML10179088 bus1=BBT3430871.1.2.0,bus2=RML1010179088.1.2.0,Phases=2,Linecode=CABBTG05_4_2,Length=0.029000000,Units=km
new line.RML10179100 bus1=BBT2818378.1.0,bus2=RML1010179100.1.0,Phases=1,Linecode=CABBTG01_4_1,Length=0.029000000,Units=km
new line.RML10179113 bus1=BBT1805758.3.0,bus2=RML1010179113.3.0,Phases=1,Linecode=CABBTG01_4_1,Length=0.029000000,Units=km
new line.RML10179117 bus1=BBT74509311.1.0,bus2=RML1010179117.1.0,Phases=1,Linecode=CABBTG02_4_1,Length=0.029000000,Units=km
new line.RML10179122 bus1=BBT74509311.1.0,bus2=RML1010179122.1.0,Phases=1,Linecode=CABBTG02_4_1,Length=0.029000000,Units=km
new line.RML10179129 bus1=BBT74508303.1.2.0,bus2=RML1010179129.1.2.0,Phases=2,Linecode=CABBTG05_4_2,Length=0.029000000,Units=km
new line.RML10179133 bus1=BBT74561741.2.0,bus2=RML1010179133.2.0,Phases=1,Linecode=CABBTG01_4_1,Length=0.029000000,Units=km
new line.RML10179149 bus1=BBT2816320.1.0,bus2=RML1010179149.1.0,Phases=1,Linecode=CABBTG02_4_1,Length=0.029000000,Units=km
new line.RML10179168 bus1=BBT4523403.1.0,bus2=RML1010179168.1.0,Phases=1,Linecode=CABBTG02_4_1,Length=0.012000000,Units=km
new line.RML10063654 bus1=BBT104246648.1.2.3.0,bus2=RML1010063654.1.2.3.0,Phases=3,Linecode=CABBT815_4_3,Length=0.006000000,Units=km
new line.RML10086191 bus1=BBT104251100.2.0,bus2=RML1010086191.2.0,Phases=1,Linecode=CABBTG01_4_1,Length=0.029000000,Units=km
new line.RML10086214 bus1=BBT104254530.1.0,bus2=RML1010086214.1.0,Phases=1,Linecode=CABBTG02_4_1,Length=0.029000000,Units=km
new line.RML10086274 bus1=BBT4304128.2.0,bus2=RML1010086274.2.0,Phases=1,Linecode=CABBTG02_4_1,Length=0.029000000,Units=km
new line.RML10086311 bus1=BBT104250673.1.0,bus2=RML1010086311.1.0,Phases=1,Linecode=CABBTG01_4_1,Length=0.029000000,Units=km
new line.RML10086317 bus1=BBT104250673.2.0,bus2=RML1010086317.2.0,Phases=1,Linecode=CABBTG01_4_1,Length=0.029000000,Units=km
new line.RML10086322 bus1=BBT104251100.3.0,bus2=RML1010086322.3.0,Phases=1,Linecode=CABBTG01_4_1,Length=0.029000000,Units=km
new line.RML10087501 bus1=BBT2521305.1.0,bus2=RML1010087501.1.0,Phases=1,Linecode=CABBTG02_4_1,Length=0.029000000,Units=km
new line.RML10087505 bus1=BBT1809489.1.2.3.0,bus2=RML1010087505.1.2.3.0,Phases=3,Linecode=CABBTG06_4_3,Length=0.029000000,Units=km
new line.RML10087576 bus1=BBT3452872.1.2.0,bus2=RML1010087576.1.2.0,Phases=2,Linecode=CABBTG05_4_2,Length=0.029000000,Units=km
new line.RML10087585 bus1=BBT2816460.1.0,bus2=RML1010087585.1.0,Phases=1,Linecode=CABBTG01_4_1,Length=0.029000000,Units=km
new line.RML10087648 bus1=BBT1799738.1.0,bus2=RML1010087648.1.0,Phases=1,Linecode=CABBTG01_4_1,Length=0.029000000,Units=km
new line.RML10087672 bus1=BBT139177978.2.3.0,bus2=RML1010087672.2.3.0,Phases=2,Linecode=CABBTG05_4_2,Length=0.017000000,Units=km
new line.RML10087691 bus1=BBT173355286.1.2.0,bus2=RML1010087691.1.2.0,Phases=2,Linecode=CABBTG05_4_2,Length=0.017000000,Units=km
new line.RML10102523 bus1=BBT55940698.1.0,bus2=RML1010102523.1.0,Phases=1,Linecode=CABBTG02_4_1,Length=0.014000000,Units=km
new line.RML10103072 bus1=BBT3452865.1.2.0,bus2=RML1010103072.1.2.0,Phases=2,Linecode=CABBTG05_4_2,Length=0.026000000,Units=km
new line.RML10124941 bus1=BBT4523431.1.0,bus2=RML1010124941.1.0,Phases=1,Linecode=CABBTG01_4_1,Length=0.029000000,Units=km
new line.RML10124967 bus1=BBT1801992.1.2.3.0,bus2=RML1010124967.1.2.3.0,Phases=3,Linecode=CABBTG06_4_3,Length=0.029000000,Units=km
new line.RML10124978 bus1=BBT2816411.1.0,bus2=RML1010124978.1.0,Phases=1,Linecode=CABBTG02_4_1,Length=0.029000000,Units=km
new line.RML10125315 bus1=BBT1811918.1.2.3.0,bus2=RML1010125315.1.2.3.0,Phases=3,Linecode=CABBTG06_4_3,Length=0.029000000,Units=km
new line.RML10125346 bus1=BBT1811680.2.0,bus2=RML1010125346.2.0,Phases=1,Linecode=CABBTG02_4_1,Length=0.029000000,Units=km
new line.RML10125404 bus1=BBT1800935.1.0,bus2=RML1010125404.1.0,Phases=1,Linecode=CABBTG01_4_1,Length=0.029000000,Units=km
new line.RML10125799 bus1=BBT1816818.1.2.3.0,bus2=RML1010125799.1.2.3.0,Phases=3,Linecode=CABBTG06_4_3,Length=0.029000000,Units=km
new line.RML10126267 bus1=BBT1806171.1.2.3.0,bus2=RML1010126267.1.2.3.0,Phases=3,Linecode=CABBTG06_4_3,Length=0.029000000,Units=km
new line.RML10126960 bus1=BBT1803973.3.0,bus2=RML1010126960.3.0,Phases=1,Linecode=CABBTG01_4_1,Length=0.029000000,Units=km
new line.RML10167072 bus1=BBT2220872.1.0,bus2=RML1010167072.1.0,Phases=1,Linecode=CABBTG01_4_1,Length=0.029000000,Units=km
new line.RML10167082 bus1=BBT3468580.1.2.0,bus2=RML1010167082.1.2.0,Phases=2,Linecode=CABBTG05_4_2,Length=0.029000000,Units=km
new line.RML10167088 bus1=BBT2816362.1.0,bus2=RML1010167088.1.0,Phases=1,Linecode=CABBTG01_4_1,Length=0.029000000,Units=km
new line.RML10167095 bus1=BBT3430885.1.2.0,bus2=RML1010167095.1.2.0,Phases=2,Linecode=CABBTG05_4_2,Length=0.029000000,Units=km
new line.RML10167096 bus1=BBT2816446.2.0,bus2=RML1010167096.2.0,Phases=1,Linecode=CABBTG01_4_1,Length=0.029000000,Units=km
new line.RML10167097 bus1=BBT55945045.2.0,bus2=RML1010167097.2.0,Phases=1,Linecode=CABBTG02_4_1,Length=0.029000000,Units=km
new line.RML10167100 bus1=BBT3728385.2.0,bus2=RML1010167100.2.0,Phases=1,Linecode=CABBTG01_4_1,Length=0.029000000,Units=km
new line.RML10167105 bus1=BBT2816369.2.0,bus2=RML1010167105.2.0,Phases=1,Linecode=CABBTG02_4_1,Length=0.029000000,Units=km
new line.RML10169110 bus1=BBT1814375.1.2.3.0,bus2=RML1010169110.1.2.3.0,Phases=3,Linecode=CABBTG06_4_3,Length=0.017000000,Units=km
new line.RML10169200 bus1=BBT173355286.1.2.3.0,bus2=RML1010169200.1.2.3.0,Phases=3,Linecode=CABBTG06_4_3,Length=0.017000000,Units=km
new line.RML10169205 bus1=BBT3452879.1.2.0,bus2=RML1010169205.1.2.0,Phases=2,Linecode=CABBTG05_4_2,Length=0.009000000,Units=km
new line.RML10169211 bus1=BBT171960357.3.0,bus2=RML1010169211.3.0,Phases=1,Linecode=CABBTG01_4_1,Length=0.029000000,Units=km
new line.RML10032101 bus1=BBT1790995.1.2.0,bus2=RML1010032101.1.2.0,Phases=2,Linecode=CABBTG05_4_2,Length=0.017000000,Units=km
new line.RML10034040 bus1=BBT116822043.1.2.0,bus2=RML1010034040.1.2.0,Phases=2,Linecode=CABBTG05_4_2,Length=0.015000000,Units=km
new line.RML10034261 bus1=BBT116423358.1.2.0,bus2=RML1010034261.1.2.0,Phases=2,Linecode=CABBTG05_4_2,Length=0.022000000,Units=km
new line.RML10034933 bus1=BBT148092347.1.0,bus2=RML1010034933.1.0,Phases=1,Linecode=CABBTG01_4_1,Length=0.029000000,Units=km
new line.RML10049514 bus1=BBT1805240.1.0,bus2=RML1010049514.1.0,Phases=1,Linecode=CABBTG01_4_1,Length=0.010000000,Units=km
new line.RML10049516 bus1=BBT3754565.1.0,bus2=RML1010049516.1.0,Phases=1,Linecode=CABBTG01_4_1,Length=0.006000000,Units=km
new line.RML10049591 bus1=BBT1734575.1.2.3.0,bus2=RML1010049591.1.2.3.0,Phases=3,Linecode=CABBTG06_4_3,Length=0.017000000,Units=km
new line.RML10050029 bus1=BBT3430878.1.0,bus2=RML1010050029.1.0,Phases=1,Linecode=CABBTG01_4_1,Length=0.006000000,Units=km
new line.RML10050049 bus1=BBT2345360.1.0,bus2=RML1010050049.1.0,Phases=1,Linecode=CABBTG01_4_1,Length=0.020000000,Units=km
new line.RML10050077 bus1=BBT1816685.3.0,bus2=RML1010050077.3.0,Phases=1,Linecode=CABBTG01_4_1,Length=0.006000000,Units=km
new line.RML10050254 bus1=BBT1808866.3.0,bus2=RML1010050254.3.0,Phases=1,Linecode=CABBTG01_4_1,Length=0.013000000,Units=km
new line.RML10050295 bus1=BBT1804071.1.0,bus2=RML1010050295.1.0,Phases=1,Linecode=CABBTG01_4_1,Length=0.010000000,Units=km
new line.RML10050302 bus1=BBT104251674.1.2.0,bus2=RML1010050302.1.2.0,Phases=2,Linecode=CABBTG05_4_2,Length=0.029000000,Units=km
new line.RML10050349 bus1=BBT3452872.1.0,bus2=RML1010050349.1.0,Phases=1,Linecode=CABBTG01_4_1,Length=0.013000000,Units=km
new line.RML10050376 bus1=BBT1801509.2.0,bus2=RML1010050376.2.0,Phases=1,Linecode=CABBTG02_4_1,Length=0.014000000,Units=km
new line.RML10050390 bus1=BBT4523410.2.0,bus2=RML1010050390.2.0,Phases=1,Linecode=CABBTG02_4_1,Length=0.015000000,Units=km
new line.RML10050452 bus1=BBT4339737.1.0,bus2=RML1010050452.1.0,Phases=1,Linecode=CABBTG02_4_1,Length=0.008000000,Units=km
new line.RML10050464 bus1=BBT104254530.3.0,bus2=RML1010050464.3.0,Phases=1,Linecode=CABBTG02_4_1,Length=0.029000000,Units=km
new line.RML10050589 bus1=BBT104250673.2.0,bus2=RML1010050589.2.0,Phases=1,Linecode=CABBTG01_4_1,Length=0.029000000,Units=km
new line.RML10050595 bus1=BBT104254243.2.3.0,bus2=RML1010050595.2.3.0,Phases=2,Linecode=CABBTG05_4_2,Length=0.020000000,Units=km
new line.RML10139712 bus1=BBT74566697.1.0,bus2=RML1010139712.1.0,Phases=1,Linecode=CABBTG02_4_1,Length=0.029000000,Units=km
new line.RML10140587 bus1=BBT1807508.1.2.0,bus2=RML1010140587.1.2.0,Phases=2,Linecode=CABBTG05_4_2,Length=0.006000000,Units=km
new line.RML10141714 bus1=BBT166764353.3.0,bus2=RML1010141714.3.0,Phases=1,Linecode=CABBTG01_4_1,Length=0.029000000,Units=km
new line.RML10158948 bus1=BBT1815523.1.0,bus2=RML1010158948.1.0,Phases=1,Linecode=CABBTG02_4_1,Length=0.029000000,Units=km
new line.RML10161435 bus1=BBT3501445.1.2.0,bus2=RML1010161435.1.2.0,Phases=2,Linecode=CABBTG05_4_2,Length=0.029000000,Units=km
new line.RML10161569 bus1=BBT74511481.2.0,bus2=RML1010161569.2.0,Phases=1,Linecode=CABBTG02_4_1,Length=0.029000000,Units=km
new line.RML10161747 bus1=BBT1798632.1.2.0,bus2=RML1010161747.1.2.0,Phases=2,Linecode=CABBTG05_4_2,Length=0.029000000,Units=km
new line.RML10184825 bus1=BBT1794656.1.2.0,bus2=RML1010184825.1.2.0,Phases=2,Linecode=CABBTG05_4_2,Length=0.017000000,Units=km
new line.RML10201939 bus1=BBT73377607.1.2.3.0,bus2=RML1010201939.1.2.3.0,Phases=3,Linecode=CABBTG06_4_3,Length=0.010000000,Units=km
new line.RML10201952 bus1=BBT1812555.1.2.3.0,bus2=RML1010201952.1.2.3.0,Phases=3,Linecode=CABBTG06_4_3,Length=0.029000000,Units=km
new line.RML10201958 bus1=BBT1813003.1.0,bus2=RML1010201958.1.0,Phases=1,Linecode=CABBTG02_4_1,Length=0.029000000,Units=km
new line.RML10201962 bus1=BBT104254530.2.0,bus2=RML1010201962.2.0,Phases=1,Linecode=CABBTG02_4_1,Length=0.029000000,Units=km
new line.RML10201965 bus1=BBT104254243.1.0,bus2=RML1010201965.1.0,Phases=1,Linecode=CABBTG02_4_1,Length=0.029000000,Units=km
new line.RML10201967 bus1=BBT104204501.2.0,bus2=RML1010201967.2.0,Phases=1,Linecode=CABBTG02_4_1,Length=0.029000000,Units=km
new line.RML10201972 bus1=BBT104245010.1.2.0,bus2=RML1010201972.1.2.0,Phases=2,Linecode=CABBTG05_4_2,Length=0.029000000,Units=km
new line.RML10201974 bus1=BBT74504733.2.0,bus2=RML1010201974.2.0,Phases=1,Linecode=CABBTG02_4_1,Length=0.029000000,Units=km
new line.RML10201985 bus1=BBT104244849.1.0,bus2=RML1010201985.1.0,Phases=1,Linecode=CABBTG02_4_1,Length=0.029000000,Units=km
new line.RML10017127 bus1=BBT104246102.1.2.0,bus2=RML1010017127.1.2.0,Phases=2,Linecode=CABBTG05_4_2,Length=0.029000000,Units=km
new line.RML10017526 bus1=BBT74501716.2.0,bus2=RML1010017526.2.0,Phases=1,Linecode=CABBTG02_4_1,Length=0.029000000,Units=km
new line.RML10017582 bus1=BBT1818071.1.2.3.0,bus2=RML1010017582.1.2.3.0,Phases=3,Linecode=CABBT813_4_3,Length=0.025000000,Units=km
new line.RML10017596 bus1=BBT137175404.3.0,bus2=RML1010017596.3.0,Phases=1,Linecode=CABBTG02_4_1,Length=0.029000000,Units=km
new line.RML10017645 bus1=BBT139177992.1.0,bus2=RML1010017645.1.0,Phases=1,Linecode=CABBTG02_4_1,Length=0.017000000,Units=km
new line.RML10017652 bus1=BBT104250673.2.0,bus2=RML1010017652.2.0,Phases=1,Linecode=CABBTG02_4_1,Length=0.029000000,Units=km
new line.RML10017715 bus1=BBT3374864.1.0,bus2=RML1010017715.1.0,Phases=1,Linecode=CABBTG02_4_1,Length=0.029000000,Units=km
new line.RML10021488 bus1=BBT74501604.1.0,bus2=RML1010021488.1.0,Phases=1,Linecode=CABBTG01_4_1,Length=0.029000000,Units=km
new line.RML10021817 bus1=BBT139426562.1.2.0,bus2=RML1010021817.1.2.0,Phases=2,Linecode=CABBTG05_4_2,Length=0.020000000,Units=km
new line.RML10021838 bus1=BBT74491601.2.0,bus2=RML1010021838.2.0,Phases=1,Linecode=CABBTG02_4_1,Length=0.029000000,Units=km
new line.RML10031575 bus1=BBT148026208.1.2.0,bus2=RML1010031575.1.2.0,Phases=2,Linecode=CABBTG05_4_2,Length=0.020000000,Units=km
new line.RML10031580 bus1=BBT148025765.1.2.0,bus2=RML1010031580.1.2.0,Phases=2,Linecode=CABBTG05_4_2,Length=0.025000000,Units=km
new line.RML10057801 bus1=BBT139177999.2.0,bus2=RML1010057801.2.0,Phases=1,Linecode=CABBTG02_4_1,Length=0.016000000,Units=km
new line.RML10057891 bus1=BBT125735850.1.2.0,bus2=RML1010057891.1.2.0,Phases=2,Linecode=CABBTG13_4_2,Length=0.017000000,Units=km
new line.RML10115088 bus1=BBT104250554.2.0,bus2=RML1010115088.2.0,Phases=1,Linecode=CABBTG02_4_1,Length=0.029000000,Units=km
new line.RML10115123 bus1=BBT74515100.2.0,bus2=RML1010115123.2.0,Phases=1,Linecode=CABBTG02_4_1,Length=0.029000000,Units=km
new line.RML10137121 bus1=BBT168863974.3.0,bus2=RML1010137121.3.0,Phases=1,Linecode=CABBTG02_4_1,Length=0.030000000,Units=km
new line.RML10137164 bus1=BBT2280106.1.0,bus2=RML1010137164.1.0,Phases=1,Linecode=CABBTG01_4_1,Length=0.017000000,Units=km
new line.RML10137865 bus1=BBT104246641.1.2.0,bus2=RML1010137865.1.2.0,Phases=2,Linecode=CABBTG05_4_2,Length=0.029000000,Units=km
new line.RML10138144 bus1=BBT104254530.2.0,bus2=RML1010138144.2.0,Phases=1,Linecode=CABBTG02_4_1,Length=0.029000000,Units=km
new line.RML10138308 bus1=BBT74509311.2.0,bus2=RML1010138308.2.0,Phases=1,Linecode=CABBTG02_4_1,Length=0.011000000,Units=km
new line.RML10138379 bus1=BBT1739356.3.0,bus2=RML1010138379.3.0,Phases=1,Linecode=CABBTG02_4_1,Length=0.029000000,Units=km
new line.RML10138453 bus1=BBT104254243.1.0,bus2=RML1010138453.1.0,Phases=1,Linecode=CABBTG02_4_1,Length=0.020000000,Units=km
new line.RML10138464 bus1=BBT74509311.1.0,bus2=RML1010138464.1.0,Phases=1,Linecode=CABBTG02_4_1,Length=0.029000000,Units=km
new line.RML10139525 bus1=BBT1739496.2.3.0,bus2=RML1010139525.2.3.0,Phases=2,Linecode=CABBTG05_4_2,Length=0.029000000,Units=km
new line.RML10176807 bus1=BBT46776536.2.0,bus2=RML1010176807.2.0,Phases=1,Linecode=CABBTG02_4_1,Length=0.029000000,Units=km
new line.RML10204427 bus1=BBT129431080.1.2.0,bus2=RML1010204427.1.2.0,Phases=2,Linecode=CABBTG05_4_2,Length=0.029000000,Units=km
new line.RML10204538 bus1=BBT1812555.2.3.0,bus2=RML1010204538.2.3.0,Phases=2,Linecode=CABBTG05_4_2,Length=0.029000000,Units=km
new line.RML10204959 bus1=BBT2816516.2.0,bus2=RML1010204959.2.0,Phases=1,Linecode=CABBTG02_4_1,Length=0.029000000,Units=km
new line.RML10205240 bus1=BBT2816376.1.0,bus2=RML1010205240.1.0,Phases=1,Linecode=CABBTG02_4_1,Length=0.029000000,Units=km
new line.RML10206291 bus1=BBT2491429.1.0,bus2=RML1010206291.1.0,Phases=1,Linecode=CABBTG02_4_1,Length=0.029000000,Units=km
new line.RML10229098 bus1=BBT1804064.3.0,bus2=RML1010229098.3.0,Phases=1,Linecode=CABBTG02_4_1,Length=0.029000000,Units=km
new line.RML10229562 bus1=BBT129431080.2.0,bus2=RML1010229562.2.0,Phases=1,Linecode=CABBTG02_4_1,Length=0.029000000,Units=km
new line.RML10229591 bus1=BBT60046408.2.3.0,bus2=RML1010229591.2.3.0,Phases=2,Linecode=CABBTG05_4_2,Length=0.029000000,Units=km
new line.RML10229598 bus1=BBT75199784.1.2.0,bus2=RML1010229598.1.2.0,Phases=2,Linecode=CABBTG05_4_2,Length=0.029000000,Units=km
new line.RML10231695 bus1=BBT1825267.2.3.0,bus2=RML1010231695.2.3.0,Phases=2,Linecode=CABBTG05_4_2,Length=0.017000000,Units=km
new line.RML10232118 bus1=BBT125707318.1.0,bus2=RML1010232118.1.0,Phases=1,Linecode=CABBTG02_4_1,Length=0.029000000,Units=km
new line.RML10015251 bus1=BBT74515436.1.0,bus2=RML1010015251.1.0,Phases=1,Linecode=CABBTG02_4_1,Length=0.029000000,Units=km
new line.RML10015258 bus1=BBT1739496.2.3.0,bus2=RML1010015258.2.3.0,Phases=2,Linecode=CABBTG05_4_2,Length=0.029000000,Units=km
new line.RML10015370 bus1=BBT1803098.1.3.0,bus2=RML1010015370.1.3.0,Phases=2,Linecode=CABBTG05_4_2,Length=0.029000000,Units=km
new line.RML10050829 bus1=BBT104204501.2.0,bus2=RML1010050829.2.0,Phases=1,Linecode=CABBTG01_4_1,Length=0.017000000,Units=km
new line.RML10050947 bus1=BBT1809475.1.2.3.0,bus2=RML1010050947.1.2.3.0,Phases=3,Linecode=CABBTG07_4_3,Length=0.020000000,Units=km
new line.RML10050961 bus1=BBT1799815.2.3.0,bus2=RML1010050961.2.3.0,Phases=2,Linecode=CABBTG05_4_2,Length=0.017000000,Units=km
new line.RML10050985 bus1=BBT104246648.1.2.3.0,bus2=RML1010050985.1.2.3.0,Phases=3,Linecode=CABBTG06_4_3,Length=0.014000000,Units=km
new line.RML10051864 bus1=BBT110558156.2.0,bus2=RML1010051864.2.0,Phases=1,Linecode=CABBTG01_4_1,Length=0.026000000,Units=km
new line.RML10053303 bus1=BBT104253529.1.0,bus2=RML1010053303.1.0,Phases=1,Linecode=CABBTG01_4_1,Length=0.015000000,Units=km
new line.RML10075638 bus1=BBT1816958.1.2.3.0,bus2=RML1010075638.1.2.3.0,Phases=3,Linecode=CABBTG06_4_3,Length=0.029000000,Units=km
new line.RML10092854 bus1=BBT149349392.1.2.0,bus2=RML1010092854.1.2.0,Phases=2,Linecode=CABBTG05_4_2,Length=0.029000000,Units=km
new line.RML10109986 bus1=BBT104246886.1.2.3.0,bus2=RML1010109986.1.2.3.0,Phases=3,Linecode=CABBTG06_4_3,Length=0.012000000,Units=km
new line.RML10110119 bus1=BBT1798226.2.3.0,bus2=RML1010110119.2.3.0,Phases=2,Linecode=CABBTG05_4_2,Length=0.022000000,Units=km
new line.RML10110144 bus1=BBT3728385.2.0,bus2=RML1010110144.2.0,Phases=1,Linecode=CABBTG02_4_1,Length=0.017000000,Units=km
new line.RML10110524 bus1=BBT2816523.1.2.0,bus2=RML1010110524.1.2.0,Phases=2,Linecode=CABBTG05_4_2,Length=0.014000000,Units=km
new line.RML10111010 bus1=BBT46776536.1.0,bus2=RML1010111010.1.0,Phases=1,Linecode=CABBTG02_4_1,Length=0.029000000,Units=km