new load.3000797123M1 bus1=RML1002649762.1.0,Phases=1,kv=0.127,kW=0.62314,pf=0.92,Vminpu=0.92,Vmaxpu=1.5,model=1,daily=RES1_16,status=variable
new load.3000797124M1 bus1=RML1002649769.2.0,Phases=1,kv=0.127,kW=1.21458,pf=0.92,Vminpu=0.92,Vmaxpu=1.5,model=1,daily=RES1_16,status=variable
new load.3000797126M1 bus1=RML1002649797.2.3.0,Phases=2,kv=0.22,kW=12.96962,pf=0.92,Vminpu=0.92,Vmaxpu=1.5,model=1,daily=RES1_16,status=variable
new load.3000797127M1 bus1=RML1002649825.2.0,Phases=1,kv=0.127,kW=1.62648,pf=0.92,Vminpu=0.92,Vmaxpu=1.5,model=1,daily=RES1_16,status=variable
new load.3000797128M1 bus1=RML1002649811.3.0,Phases=1,kv=0.127,kW=0.84492,pf=0.92,Vminpu=0.92,Vmaxpu=1.5,model=1,daily=RES1_16,status=variable
new load.3000797118M1 bus1=RML1002649832.1.0,Phases=1,kv=0.127,kW=1.22514,pf=0.92,Vminpu=0.92,Vmaxpu=1.5,model=1,daily=RES1_16,status=variable
new load.3000797120M1 bus1=RML1010169211.3.0,Phases=1,kv=0.127,kW=1.5948,pf=0.92,Vminpu=0.92,Vmaxpu=1.5,model=1,daily=RES1_16,status=variable
new load.3000797121M1 bus1=RML1002649776.1.0,Phases=1,kv=0.127,kW=1.65816,pf=0.92,Vminpu=0.92,Vmaxpu=1.5,model=1,daily=RES1_16,status=variable
new load.3000797306M1 bus1=RML1002649867.2.3.0,Phases=2,kv=0.22,kW=3.33746,pf=0.92,Vminpu=0.92,Vmaxpu=1.5,model=1,daily=RES1_16,status=variable
new load.3002417628M1 bus1=RML1003174524.3.0,Phases=1,kv=0.127,kW=1.42184,pf=0.92,Vminpu=0.92,Vmaxpu=1.5,model=1,daily=RES1_2,status=variable
new load.3003616316M1 bus1=RML1002649853.1.3.0,Phases=2,kv=0.22,kW=0.84234,pf=0.92,Vminpu=0.92,Vmaxpu=1.5,model=1,daily=COM1_6,status=variable
new load.3003674177M1 bus1=RML1002649860.1.3.0,Phases=2,kv=0.22,kW=2.748,pf=0.92,Vminpu=0.92,Vmaxpu=1.5,model=1,daily=COM1_8,status=variable
new load.3003837791M1 bus1=RML1002649783.3.0,Phases=1,kv=0.127,kW=1.76396,pf=0.92,Vminpu=0.92,Vmaxpu=1.5,model=1,daily=RES1_8,status=variable
new load.3003849250M1 bus1=RML1002649818.1.2.3.0,Phases=3,kv=0.22,kW=1.03082,pf=0.92,Vminpu=0.92,Vmaxpu=1.5,model=1,daily=COM1_12,status=variable
new load.3004378518M1 bus1=RML1002650126.2.0,Phases=1,kv=0.127,kW=1.3131,pf=0.92,Vminpu=0.92,Vmaxpu=1.5,model=1,daily=COM1_25,status=variable
new load.3004382254M1 bus1=RML1002649755.1.0,Phases=1,kv=0.127,kW=1.75816,pf=0.92,Vminpu=0.92,Vmaxpu=1.5,model=1,daily=RES1_26,status=variable
new load.3004483546M1 bus1=RML1003230160.3.0,Phases=1,kv=0.127,kW=1.522,pf=0.92,Vminpu=0.92,Vmaxpu=1.5,model=1,daily=RES1_1,status=variable
new load.3004497490M1 bus1=RML1002649748.2.0,Phases=1,kv=0.127,kW=0.92174,pf=0.92,Vminpu=0.92,Vmaxpu=1.5,model=1,daily=RES1_2,status=variable
new load.3005176548M1 bus1=RML1003230153.1.0,Phases=1,kv=0.127,kW=0.00516,pf=0.92,Vminpu=0.92,Vmaxpu=1.5,model=1,daily=RES1_17,status=variable
new load.3006321450M1 bus1=RML1003243334.3.0,Phases=1,kv=0.127,kW=0.64858,pf=0.92,Vminpu=0.92,Vmaxpu=1.5,model=1,daily=COM1_21,status=variable
new load.3007138888M1 bus1=RML1003580531.1.0,Phases=1,kv=0.127,kW=0.42152,pf=0.92,Vminpu=0.92,Vmaxpu=1.5,model=1,daily=RES1_10,status=variable
new load.3007325058M1 bus1=RML1003651973.1.2.0,Phases=2,kv=0.22,kW=1.44284,pf=0.92,Vminpu=0.92,Vmaxpu=1.5,model=1,daily=RES1_14,status=variable
new load.3007588052M1 bus1=RML1003805490.1.2.0,Phases=2,kv=0.22,kW=0.29598,pf=0.92,Vminpu=0.92,Vmaxpu=1.5,model=1,daily=RES1_19,status=variable
new load.3007640193M1 bus1=RML1003805490.1.2.0,Phases=2,kv=0.22,kW=1.0897,pf=0.92,Vminpu=0.92,Vmaxpu=1.5,model=1,daily=RES1_23,status=variable
new load.3006266427M1 bus1=RML1003213024.2.0,Phases=1,kv=0.127,kW=0.17092,pf=0.92,Vminpu=0.92,Vmaxpu=1.5,model=1,daily=RES1_18,status=variable
new load.3006465632M1 bus1=RML1003329343.2.0,Phases=1,kv=0.127,kW=1.79812,pf=0.92,Vminpu=0.92,Vmaxpu=1.5,model=1,daily=RES1_26,status=variable
new load.3005931641M1 bus1=RML1003029323.2.0,Phases=1,kv=0.127,kW=0.2744,pf=0.92,Vminpu=0.92,Vmaxpu=1.5,model=1,daily=RES1_8,status=variable
new load.3006056982M1 bus1=RML1003069678.2.0,Phases=1,kv=0.127,kW=1.60738,pf=0.92,Vminpu=0.92,Vmaxpu=1.5,model=1,daily=RES1_12,status=variable
new load.3006126836M1 bus1=RML1003098462.2.0,Phases=1,kv=0.127,kW=1.39944,pf=0.92,Vminpu=0.92,Vmaxpu=1.5,model=1,daily=RES1_14,status=variable
new load.3010158318M1 bus1=RML1002637197.2.0,Phases=1,kv=0.127,kW=1.0296,pf=0.92,Vminpu=0.92,Vmaxpu=1.5,model=1,daily=RES1_2,status=variable
new load.3005057114M1 bus1=RML1002637407.2.0,Phases=1,kv=0.127,kW=1.67038,pf=0.92,Vminpu=0.92,Vmaxpu=1.5,model=1,daily=RES1_13,status=variable
new load.3004458399M1 bus1=RML1002637414.2.0,Phases=1,kv=0.127,kW=1.76342,pf=0.92,Vminpu=0.92,Vmaxpu=1.5,model=1,daily=RES1_1,status=variable
new load.3003628100M1 bus1=RML1002637533.1.0,Phases=1,kv=0.127,kW=0.06984,pf=0.92,Vminpu=0.92,Vmaxpu=1.5,model=1,daily=RES1_3,status=variable
new load.3003471659M1 bus1=RML1002637484.1.2.0,Phases=2,kv=0.22,kW=1.32378,pf=0.92,Vminpu=0.92,Vmaxpu=1.5,model=1,daily=RES1_2,status=variable
new load.3003493419M1 bus1=RML1002637491.1.2.0,Phases=2,kv=0.22,kW=0.43146,pf=0.92,Vminpu=0.92,Vmaxpu=1.5,model=1,daily=RES1_2,status=variable
new load.3002235263M1 bus1=RML1002637197.2.0,Phases=1,kv=0.127,kW=1.43804,pf=0.92,Vminpu=0.92,Vmaxpu=1.5,model=1,daily=RES1_1,status=variable
new load.3002235264M1 bus1=RML1002637197.2.0,Phases=1,kv=0.127,kW=1.16512,pf=0.92,Vminpu=0.92,Vmaxpu=1.5,model=1,daily=RES1_1,status=variable
new load.3002235266M1 bus1=RML1002637211.1.2.0,Phases=2,kv=0.22,kW=1.2071,pf=0.92,Vminpu=0.92,Vmaxpu=1.5,model=1,daily=RES1_1,status=variable
new load.3002235267M1 bus1=RML1002637225.1.2.0,Phases=2,kv=0.22,kW=0.77674,pf=0.92,Vminpu=0.92,Vmaxpu=1.5,model=1,daily=RES1_1,status=variable
new load.3002235269M1 bus1=RML1002637274.1.2.0,Phases=2,kv=0.22,kW=2.8026,pf=0.92,Vminpu=0.92,Vmaxpu=1.5,model=1,daily=RES1_1,status=variable
new load.3002235270M1 bus1=RML1002637274.1.2.0,Phases=2,kv=0.22,kW=0.98668,pf=0.92,Vminpu=0.92,Vmaxpu=1.5,model=1,daily=RES1_1,status=variable
new load.3002235271M1 bus1=RML1002637400.1.0,Phases=1,kv=0.127,kW=0.04198,pf=0.92,Vminpu=0.92,Vmaxpu=1.5,model=1,daily=RES1_1,status=variable
new load.3002235273M1 bus1=RML1002637379.1.0,Phases=1,kv=0.127,kW=1.18612,pf=0.92,Vminpu=0.92,Vmaxpu=1.5,model=1,daily=RES1_1,status=variable
new load.3002235274M1 bus1=RML1002637505.2.0,Phases=1,kv=0.127,kW=3.02302,pf=0.92,Vminpu=0.92,Vmaxpu=1.5,model=1,daily=RES1_1,status=variable
new load.3002235275M1 bus1=RML1002637498.2.0,Phases=1,kv=0.127,kW=1.04966,pf=0.92,Vminpu=0.92,Vmaxpu=1.5,model=1,daily=RES1_1,status=variable
new load.3002235276M1 bus1=RML1002637267.1.2.0,Phases=2,kv=0.22,kW=1.01816,pf=0.92,Vminpu=0.92,Vmaxpu=1.5,model=1,daily=RES1_1,status=variable
new load.3002235277M1 bus1=RML1002637267.1.2.0,Phases=2,kv=0.22,kW=0.56682,pf=0.92,Vminpu=0.92,Vmaxpu=1.5,model=1,daily=RES1_1,status=variable
new load.3002235278M1 bus1=RML1002637232.1.2.0,Phases=2,kv=0.22,kW=1.2596,pf=0.92,Vminpu=0.92,Vmaxpu=1.5,model=1,daily=RES1_1,status=variable
new load.3002235279M1 bus1=RML1002637232.1.2.0,Phases=2,kv=0.22,kW=1.50102,pf=0.92,Vminpu=0.92,Vmaxpu=1.5,model=1,daily=RES1_1,status=variable
new load.3002235280M1 bus1=RML1002637218.1.2.0,Phases=2,kv=0.22,kW=1.2491,pf=0.92,Vminpu=0.92,Vmaxpu=1.5,model=1,daily=RES1_1,status=variable
new load.3002235281M1 bus1=RML1002637218.1.2.0,Phases=2,kv=0.22,kW=1.8684,pf=0.92,Vminpu=0.92,Vmaxpu=1.5,model=1,daily=RES1_1,status=variable
new load.3002235282M1 bus1=RML1002637204.1.2.0,Phases=2,kv=0.22,kW=1.5535,pf=0.92,Vminpu=0.92,Vmaxpu=1.5,model=1,daily=RES1_1,status=variable
new load.3002235283M1 bus1=RML1002637204.1.2.0,Phases=2,kv=0.22,kW=0.78724,pf=0.92,Vminpu=0.92,Vmaxpu=1.5,model=1,daily=RES1_1,status=variable
new load.3002235195M1 bus1=RML1002637477.1.0,Phases=1,kv=0.127,kW=1.45902,pf=0.92,Vminpu=0.92,Vmaxpu=1.5,model=1,daily=RES1_1,status=variable
new load.3002235198M1 bus1=RML1002637309.1.0,Phases=1,kv=0.127,kW=1.43804,pf=0.92,Vminpu=0.92,Vmaxpu=1.5,model=1,daily=RES1_1,status=variable
new load.3002235199M1 bus1=RML1002637281.2.0,Phases=1,kv=0.127,kW=0.29768,pf=0.92,Vminpu=0.92,Vmaxpu=1.5,model=1,daily=COM1_2,status=variable
new load.3002235200M1 bus1=RML1002637288.1.2.0,Phases=2,kv=0.22,kW=1.04966,pf=0.92,Vminpu=0.92,Vmaxpu=1.5,model=1,daily=RES1_1,status=variable
new load.3002235185M1 bus1=RML1002637526.1.0,Phases=1,kv=0.127,kW=0.38838,pf=0.92,Vminpu=0.92,Vmaxpu=1.5,model=1,daily=RES1_1,status=variable
new load.3003341881M1 bus1=RML1002637372.1.0,Phases=1,kv=0.127,kW=1.8264,pf=0.92,Vminpu=0.92,Vmaxpu=1.5,model=1,daily=RES1_1,status=variable
new load.3003419235M1 bus1=RML1002637512.1.0,Phases=1,kv=0.127,kW=1.40654,pf=0.92,Vminpu=0.92,Vmaxpu=1.5,model=1,daily=RES1_1,status=variable
new load.3003427012M1 bus1=RML1002637365.2.0,Phases=1,kv=0.127,kW=1.57872,pf=0.92,Vminpu=0.92,Vmaxpu=1.5,model=1,daily=RES1_2,status=variable
new load.3010501073M1 bus1=RML1008014679.2.0,Phases=1,kv=0.127,kW=2.03836,pf=0.92,Vminpu=0.92,Vmaxpu=1.5,model=1,daily=RES1_8,status=variable
new load.3010575671M1 bus1=RML1008222117.3.0,Phases=1,kv=0.127,kW=0.21076,pf=0.92,Vminpu=0.92,Vmaxpu=1.5,model=1,daily=RES1_10,status=variable
new load.3010601653M1 bus1=RML1009658874.2.0,Phases=1,kv=0.127,kW=0.62674,pf=0.92,Vminpu=0.92,Vmaxpu=1.5,model=1,daily=RES1_10,status=variable
new load.3006060767M1 bus1=RML1003074109.1.0,Phases=1,kv=0.127,kW=0.66324,pf=0.92,Vminpu=0.92,Vmaxpu=1.5,model=1,daily=RES1_12,status=variable
new load.3006023896M1 bus1=RML1003060515.3.0,Phases=1,kv=0.127,kW=0.69912,pf=0.92,Vminpu=0.92,Vmaxpu=1.5,model=1,daily=RES1_11,status=variable
new load.3007742001M1 bus1=RML1003887698.2.0,Phases=1,kv=0.127,kW=0.22712,pf=0.92,Vminpu=0.92,Vmaxpu=1.5,model=1,daily=COM1_2,status=variable
new load.3003643555M1 bus1=RML1002643539.2.0,Phases=1,kv=0.127,kW=1.33604,pf=0.92,Vminpu=0.92,Vmaxpu=1.5,model=1,daily=RES1_4,status=variable
new load.3003643563M1 bus1=RML1002643588.2.0,Phases=1,kv=0.127,kW=0.46352,pf=0.92,Vminpu=0.92,Vmaxpu=1.5,model=1,daily=RES1_4,status=variable
new load.3003643564M1 bus1=RML1002643532.3.0,Phases=1,kv=0.127,kW=0.409,pf=0.92,Vminpu=0.92,Vmaxpu=1.5,model=1,daily=RES1_4,status=variable
new load.3003668783M1 bus1=RML1002643448.2.0,Phases=1,kv=0.127,kW=1.2815,pf=0.92,Vminpu=0.92,Vmaxpu=1.5,model=1,daily=RES1_4,status=variable
new load.3003691437M1 bus1=RML1002643581.3.0,Phases=1,kv=0.127,kW=3.45578,pf=0.92,Vminpu=0.92,Vmaxpu=1.5,model=1,daily=RES1_5,status=variable
new load.3003643571M1 bus1=RML1002643525.3.0,Phases=1,kv=0.127,kW=0.35446,pf=0.92,Vminpu=0.92,Vmaxpu=1.5,model=1,daily=RES1_4,status=variable
new load.3003648316M1 bus1=RML1002643567.3.0,Phases=1,kv=0.127,kW=2.22218,pf=0.92,Vminpu=0.92,Vmaxpu=1.5,model=1,daily=RES1_4,status=variable
new load.3003649015M1 bus1=RML1002643469.2.0,Phases=1,kv=0.127,kW=3.51732,pf=0.92,Vminpu=0.92,Vmaxpu=1.5,model=1,daily=RES1_4,status=variable
new load.3003651104M1 bus1=RML1002643546.3.0,Phases=1,kv=0.127,kW=1.74502,pf=0.92,Vminpu=0.92,Vmaxpu=1.5,model=1,daily=RES1_4,status=variable
new load.3003651112M1 bus1=RML1002643462.1.0,Phases=1,kv=0.127,kW=1.6087,pf=0.92,Vminpu=0.92,Vmaxpu=1.5,model=1,daily=RES1_4,status=variable
new load.3003652868M1 bus1=RML1002643560.1.2.0,Phases=2,kv=0.22,kW=2.22218,pf=0.92,Vminpu=0.92,Vmaxpu=1.5,model=1,daily=RES1_4,status=variable
new load.3003968759M1 bus1=RML1002643553.3.0,Phases=1,kv=0.127,kW=0.46036,pf=0.92,Vminpu=0.92,Vmaxpu=1.5,model=1,daily=RES1_12,status=variable
new load.3007771177M1 bus1=RML1003912807.1.0,Phases=1,kv=0.127,kW=1.11264,pf=0.92,Vminpu=0.92,Vmaxpu=1.5,model=1,daily=RES1_1,status=variable
new load.3010035564M1 bus1=RML1003910252.1.0,Phases=1,kv=0.127,kW=1.2176,pf=0.92,Vminpu=0.92,Vmaxpu=1.5,model=1,daily=RES1_1,status=variable
new load.3010087807M1 bus1=RML1003934192.2.0,Phases=1,kv=0.127,kW=1.0296,pf=0.92,Vminpu=0.92,Vmaxpu=1.5,model=1,daily=RES1_2,status=variable
new load.3010558764M1 bus1=RML1008292439.1.2.0,Phases=2,kv=0.22,kW=1.84474,pf=0.92,Vminpu=0.92,Vmaxpu=1.5,model=1,daily=RES1_9,status=variable
new load.3010523736M1 bus1=RML1008054740.3.0,Phases=1,kv=0.127,kW=2.1429,pf=0.92,Vminpu=0.92,Vmaxpu=1.5,model=1,daily=RES1_8,status=variable
new load.3006013527M1 bus1=RML1003060557.3.0,Phases=1,kv=0.127,kW=1.5081,pf=0.92,Vminpu=0.92,Vmaxpu=1.5,model=1,daily=RES1_11,status=variable
new load.3007685635M1 bus1=RML1003893466.1.0,Phases=1,kv=0.127,kW=1.52448,pf=0.92,Vminpu=0.92,Vmaxpu=1.5,model=1,daily=RES1_25,status=variable
new load.3007521314M1 bus1=RML1003761691.1.0,Phases=1,kv=0.127,kW=0.1859,pf=0.92,Vminpu=0.92,Vmaxpu=1.5,model=1,daily=RES1_18,status=variable
new load.3007466168M1 bus1=RML1003860923.2.0,Phases=1,kv=0.127,kW=1.0817,pf=0.92,Vminpu=0.92,Vmaxpu=1.5,model=1,daily=RES1_17,status=variable
new load.3005550555M1 bus1=RML1002640410.2.3.0,Phases=2,kv=0.22,kW=0.8531,pf=0.92,Vminpu=0.92,Vmaxpu=1.5,model=1,daily=RES1_2,status=variable
new load.3005485331M1 bus1=RML1002640438.3.0,Phases=1,kv=0.127,kW=0.36738,pf=0.92,Vminpu=0.92,Vmaxpu=1.5,model=1,daily=RES1_1,status=variable
new load.3005701817M1 bus1=RML1002640389.1.0,Phases=1,kv=0.127,kW=1.29204,pf=0.92,Vminpu=0.92,Vmaxpu=1.5,model=1,daily=RES1_3,status=variable
new load.3005173187M1 bus1=RML1002640403.1.2.0,Phases=2,kv=0.22,kW=2.0595,pf=0.92,Vminpu=0.92,Vmaxpu=1.5,model=1,daily=RES1_16,status=variable
new load.3004899967M1 bus1=RML1002640431.1.0,Phases=1,kv=0.127,kW=1.62024,pf=0.92,Vminpu=0.92,Vmaxpu=1.5,model=1,daily=RES1_8,status=variable
new load.3004922442M1 bus1=RML1002640396.3.0,Phases=1,kv=0.127,kW=0.85684,pf=0.92,Vminpu=0.92,Vmaxpu=1.5,model=1,daily=RES1_9,status=variable
new load.3004116256M1 bus1=RML1002640417.3.0,Phases=1,kv=0.127,kW=0.35542,pf=0.92,Vminpu=0.92,Vmaxpu=1.5,model=1,daily=RES1_17,status=variable
new load.3004249728M1 bus1=RML1002640424.2.0,Phases=1,kv=0.127,kW=0.45144,pf=0.92,Vminpu=0.92,Vmaxpu=1.5,model=1,daily=RES1_19,status=variable
new load.3000434189M1 bus1=RML1002649503.1.2.0,Phases=2,kv=0.22,kW=1.39238,pf=0.92,Vminpu=0.92,Vmaxpu=1.5,model=1,daily=RES1_6,status=variable
new load.3000434190M1 bus1=RML1002649510.2.0,Phases=1,kv=0.127,kW=1.65198,pf=0.92,Vminpu=0.92,Vmaxpu=1.5,model=1,daily=RES1_6,status=variable
new load.3006069758M1 bus1=RML1002649503.1.2.0,Phases=2,kv=0.22,kW=1.07834,pf=0.92,Vminpu=0.92,Vmaxpu=1.5,model=1,daily=RES1_13,status=variable
new load.3010519506M1 bus1=RML1004045051.3.0,Phases=1,kv=0.127,kW=1.72476,pf=0.92,Vminpu=0.92,Vmaxpu=1.5,model=1,daily=RES1_8,status=variable
new load.3010376475M1 bus1=RML1004014041.1.0,Phases=1,kv=0.127,kW=2.59184,pf=0.92,Vminpu=0.92,Vmaxpu=1.5,model=1,daily=RES1_5,status=variable
new load.3006494507M1 bus1=RML1003342790.2.0,Phases=1,kv=0.127,kW=2.1413,pf=0.92,Vminpu=0.92,Vmaxpu=1.5,model=1,daily=RES1_1,status=variable
new load.3006494508M1 bus1=RML1003342783.1.2.0,Phases=2,kv=0.22,kW=0.75344,pf=0.92,Vminpu=0.92,Vmaxpu=1.5,model=1,daily=COM1_1,status=variable
new load.3006397614M1 bus1=RML1003286314.2.3.0,Phases=2,kv=0.22,kW=1.06406,pf=0.92,Vminpu=0.92,Vmaxpu=1.5,model=1,daily=RES1_23,status=variable
new load.3006723282M1 bus1=RML1003463253.1.0,Phases=1,kv=0.127,kW=1.455,pf=0.92,Vminpu=0.92,Vmaxpu=1.5,model=1,daily=RES1_3,status=variable
new load.3003425648M1 bus1=RML1002653661.1.2.3.0,Phases=3,kv=0.22,kW=1.6964,pf=0.92,Vminpu=0.92,Vmaxpu=1.5,model=1,daily=RES1_2,status=variable
new load.3004107118M1 bus1=RML1002653675.1.3.0,Phases=2,kv=0.22,kW=3.02062,pf=0.92,Vminpu=0.92,Vmaxpu=1.5,model=1,daily=RES1_16,status=variable
new load.3003928921M1 bus1=RML1002653731.1.2.3.0,Phases=3,kv=0.22,kW=1.88762,pf=0.92,Vminpu=0.92,Vmaxpu=1.5,model=1,daily=RES1_11,status=variable
new load.3004865780M1 bus1=RML1002653801.3.0,Phases=1,kv=0.127,kW=0.88896,pf=0.92,Vminpu=0.92,Vmaxpu=1.5,model=1,daily=RES1_7,status=variable
new load.3004934950M1 bus1=RML1003248822.3.0,Phases=1,kv=0.127,kW=1.4698,pf=0.92,Vminpu=0.92,Vmaxpu=1.5,model=1,daily=RES1_10,status=variable
new load.3005173144M1 bus1=RML1002653752.1.3.0,Phases=2,kv=0.22,kW=1.9539,pf=0.92,Vminpu=0.92,Vmaxpu=1.5,model=1,daily=RES1_16,status=variable
new load.3005314773M1 bus1=RML1002653794.2.0,Phases=1,kv=0.127,kW=0.6908,pf=0.92,Vminpu=0.92,Vmaxpu=1.5,model=1,daily=RES1_20,status=variable
new load.3005761650M1 bus1=RML1002653808.1.0,Phases=1,kv=0.127,kW=2.87656,pf=0.92,Vminpu=0.92,Vmaxpu=1.5,model=1,daily=RES1_4,status=variable
new load.3005509001M1 bus1=RML1002653682.2.3.0,Phases=2,kv=0.22,kW=2.63464,pf=0.92,Vminpu=0.92,Vmaxpu=1.5,model=1,daily=RES1_1,status=variable
new load.3005541999M1 bus1=RML1003169841.3.0,Phases=1,kv=0.127,kW=0.92174,pf=0.92,Vminpu=0.92,Vmaxpu=1.5,model=1,daily=RES1_2,status=variable
new load.3007248488M1 bus1=RML1003671951.3.0,Phases=1,kv=0.127,kW=0.02996,pf=0.92,Vminpu=0.92,Vmaxpu=1.5,model=1,daily=RES1_11,status=variable
new load.3000973953M1 bus1=RML155239137.3.0,Phases=1,kv=0.127,kW=1.0752,pf=0.92,Vminpu=0.92,Vmaxpu=1.5,model=1,daily=RES1_20,status=variable
new load.3005515266M1 bus1=RML1002653577.2.3.0,Phases=2,kv=0.22,kW=0.24142,pf=0.92,Vminpu=0.92,Vmaxpu=1.5,model=1,daily=RES1_1,status=variable
new load.3005515267M1 bus1=RML1002653577.2.3.0,Phases=2,kv=0.22,kW=1.57448,pf=0.92,Vminpu=0.92,Vmaxpu=1.5,model=1,daily=RES1_1,status=variable
new load.3005515268M1 bus1=RML1002653577.2.3.0,Phases=2,kv=0.22,kW=1.45902,pf=0.92,Vminpu=0.92,Vmaxpu=1.5,model=1,daily=RES1_1,status=variable
new load.3005181939M1 bus1=RML1002653584.1.2.3.0,Phases=3,kv=0.22,kW=11.12452,pf=0.92,Vminpu=0.92,Vmaxpu=1.5,model=1,daily=COM1_20,status=variable
new load.3004791847M1 bus1=RML1002653577.2.3.0,Phases=2,kv=0.22,kW=1.07378,pf=0.92,Vminpu=0.92,Vmaxpu=1.5,model=1,daily=RES1_6,status=variable
new load.3004219796M1 bus1=RML1002662502.1.0,Phases=1,kv=0.127,kW=0.35082,pf=0.92,Vminpu=0.92,Vmaxpu=1.5,model=1,daily=RES1_18,status=variable
new load.3005898273M1 bus1=RML1003006706.2.0,Phases=1,kv=0.127,kW=1.56876,pf=0.92,Vminpu=0.92,Vmaxpu=1.5,model=1,daily=RES1_7,status=variable
new load.3010528024M1 bus1=RML1008026929.1.2.3.0,Phases=3,kv=0.22,kW=2.87788,pf=0.92,Vminpu=0.92,Vmaxpu=1.5,model=1,daily=COM1_13,status=variable
new load.3007753937M1 bus1=RML1003890883.3.0,Phases=1,kv=0.127,kW=0.82924,pf=0.92,Vminpu=0.92,Vmaxpu=1.5,model=1,daily=RES1_1,status=variable
new load.3007709024M1 bus1=RML1003871647.1.2.3.0,Phases=3,kv=0.22,kW=0.15096,pf=0.92,Vminpu=0.92,Vmaxpu=1.5,model=1,daily=COM1_1,status=variable
new load.3004288446M1 bus1=RML1010746206.1.0,Phases=1,kv=0.127,kW=0.85996,pf=0.92,Vminpu=0.92,Vmaxpu=1.5,model=1,daily=RUR1_24,status=variable
new load.3004177104M1 bus1=RML1010542775.1.0,Phases=1,kv=0.127,kW=0.012,pf=0.92,Vminpu=0.92,Vmaxpu=1.5,model=1,daily=RES1_18,status=variable
new load.3004119084M1 bus1=RML1010542760.2.0,Phases=1,kv=0.127,kW=0.26784,pf=0.92,Vminpu=0.92,Vmaxpu=1.5,model=1,daily=RES1_17,status=variable
new load.3003744603M1 bus1=RML1003081564.1.0,Phases=1,kv=0.127,kW=0.4838,pf=0.92,Vminpu=0.92,Vmaxpu=1.5,model=1,daily=RES1_6,status=variable
new load.3004756616M1 bus1=RML1010542997.2.0,Phases=1,kv=0.127,kW=2.88594,pf=0.92,Vminpu=0.92,Vmaxpu=1.5,model=1,daily=RES1_5,status=variable
new load.3004863224M1 bus1=RML1010542996.2.0,Phases=1,kv=0.127,kW=0.13944,pf=0.92,Vminpu=0.92,Vmaxpu=1.5,model=1,daily=RES1_7,status=variable
new load.3004454377M1 bus1=RML1010567972.1.2.0,Phases=2,kv=0.22,kW=1.15462,pf=0.92,Vminpu=0.92,Vmaxpu=1.5,model=1,daily=RES1_1,status=variable
new load.3004454378M1 bus1=RML1010542774.1.0,Phases=1,kv=0.127,kW=0.06298,pf=0.92,Vminpu=0.92,Vmaxpu=1.5,model=1,daily=RES1_1,status=variable
new load.3005135946M1 bus1=RML1003170604.2.0,Phases=1,kv=0.127,kW=0.52808,pf=0.92,Vminpu=0.92,Vmaxpu=1.5,model=1,daily=RES1_16,status=variable
new load.3005452274M1 bus1=RML1003172018.1.2.0,Phases=2,kv=0.22,kW=0.35784,pf=0.92,Vminpu=0.92,Vmaxpu=1.5,model=1,daily=COM1_1,status=variable
new load.3003423816M1 bus1=RML1010542716.1.2.0,Phases=2,kv=0.22,kW=0.53932,pf=0.92,Vminpu=0.92,Vmaxpu=1.5,model=1,daily=RES1_2,status=variable
new load.3002417632M1 bus1=RML1010301891.1.0,Phases=1,kv=0.127,kW=0.1667,pf=0.92,Vminpu=0.92,Vmaxpu=1.5,model=1,daily=RES1_2,status=variable
new load.3002417633M1 bus1=RML1010542776.1.0,Phases=1,kv=0.127,kW=0.0098,pf=0.92,Vminpu=0.92,Vmaxpu=1.5,model=1,daily=RES1_2,status=variable
new load.3002417634M1 bus1=RML1003453348.2.0,Phases=1,kv=0.127,kW=0.64718,pf=0.92,Vminpu=0.92,Vmaxpu=1.5,model=1,daily=RES1_2,status=variable
new load.3002417635M1 bus1=RML1010542991.2.0,Phases=1,kv=0.127,kW=0.6864,pf=0.92,Vminpu=0.92,Vmaxpu=1.5,model=1,daily=RES1_2,status=variable
new load.3002417636M1 bus1=RML1010542993.1.0,Phases=1,kv=0.127,kW=1.1963,pf=0.92,Vminpu=0.92,Vmaxpu=1.5,model=1,daily=RES1_2,status=variable
new load.3002417637M1 bus1=RML1010542958.2.0,Phases=1,kv=0.127,kW=0.36282,pf=0.92,Vminpu=0.92,Vmaxpu=1.5,model=1,daily=RES1_2,status=variable
new load.3002417638M1 bus1=RML1010542992.1.2.0,Phases=2,kv=0.22,kW=0.2758,pf=0.92,Vminpu=0.92,Vmaxpu=1.5,model=1,daily=COM1_5,status=variable
new load.3002417640M1 bus1=RML1010542688.1.0,Phases=1,kv=0.127,kW=0.1765,pf=0.92,Vminpu=0.92,Vmaxpu=1.5,model=1,daily=RES1_2,status=variable
new load.3006085271M1 bus1=RML1010542693.1.0,Phases=1,kv=0.127,kW=0.54974,pf=0.92,Vminpu=0.92,Vmaxpu=1.5,model=1,daily=RES1_13,status=variable
new load.3006253258M1 bus1=RML1003208768.2.0,Phases=1,kv=0.127,kW=0.25186,pf=0.92,Vminpu=0.92,Vmaxpu=1.5,model=1,daily=RES1_18,status=variable
new load.3007447308M1 bus1=RML1003712159.1.0,Phases=1,kv=0.127,kW=0.3274,pf=0.92,Vminpu=0.92,Vmaxpu=1.5,model=1,daily=RES1_16,status=variable
new load.3007618429M1 bus1=RML1003825027.1.0,Phases=1,kv=0.127,kW=0.2791,pf=0.92,Vminpu=0.92,Vmaxpu=1.5,model=1,daily=RES1_21,status=variable
new load.3003734267M1 bus1=RML1002671182.1.2.3.0,Phases=3,kv=0.22,kW=1.68738,pf=0.92,Vminpu=0.92,Vmaxpu=1.5,model=1,daily=RES1_6,status=variable
new load.3003568363M1 bus1=RML1002650889.2.0,Phases=1,kv=0.127,kW=1.60814,pf=0.92,Vminpu=0.92,Vmaxpu=1.5,model=1,daily=RES1_2,status=variable
new load.3004161202M1 bus1=RML1002650763.2.0,Phases=1,kv=0.127,kW=0.42278,pf=0.92,Vminpu=0.92,Vmaxpu=1.5,model=1,daily=RES1_18,status=variable
new load.3004183781M1 bus1=RML1002650994.3.0,Phases=1,kv=0.127,kW=0.23388,pf=0.92,Vminpu=0.92,Vmaxpu=1.5,model=1,daily=RES1_18,status=variable
new load.3003871642M1 bus1=RML1002650924.3.0,Phases=1,kv=0.127,kW=0.78758,pf=0.92,Vminpu=0.92,Vmaxpu=1.5,model=1,daily=RES1_10,status=variable
new load.3005762111M1 bus1=RML1002650910.2.0,Phases=1,kv=0.127,kW=1.90862,pf=0.92,Vminpu=0.92,Vmaxpu=1.5,model=1,daily=RES1_4,status=variable
new load.3005701868M1 bus1=RML1003276283.3.0,Phases=1,kv=0.127,kW=1.26876,pf=0.92,Vminpu=0.92,Vmaxpu=1.5,model=1,daily=RES1_3,status=variable
new load.3005641944M1 bus1=RML1002650896.1.0,Phases=1,kv=0.127,kW=0.90212,pf=0.92,Vminpu=0.92,Vmaxpu=1.5,model=1,daily=RES1_2,status=variable
new load.3005486624M1 bus1=RML1002651001.2.0,Phases=1,kv=0.127,kW=1.34356,pf=0.92,Vminpu=0.92,Vmaxpu=1.5,model=1,daily=RES1_1,status=variable
new load.3005312270M1 bus1=RML1002650987.3.0,Phases=1,kv=0.127,kW=0.89136,pf=0.92,Vminpu=0.92,Vmaxpu=1.5,model=1,daily=RES1_20,status=variable
new load.3005376536M1 bus1=RML1002650798.1.2.3.0,Phases=3,kv=0.22,kW=1.21918,pf=0.92,Vminpu=0.92,Vmaxpu=1.5,model=1,daily=COM1_24,status=variable
new load.3005192847M1 bus1=RML1002650966.1.2.0,Phases=2,kv=0.22,kW=0.46358,pf=0.92,Vminpu=0.92,Vmaxpu=1.5,model=1,daily=RES1_17,status=variable
new load.3004355180M1 bus1=RML1002650931.2.0,Phases=1,kv=0.127,kW=1.01632,pf=0.92,Vminpu=0.92,Vmaxpu=1.5,model=1,daily=RES1_25,status=variable
new load.3004559298M1 bus1=RML1002650861.2.3.0,Phases=2,kv=0.22,kW=1.3826,pf=0.92,Vminpu=0.92,Vmaxpu=1.5,model=1,daily=RES1_2,status=variable
new load.3003453963M1 bus1=RML1002650840.1.2.0,Phases=2,kv=0.22,kW=1.55912,pf=0.92,Vminpu=0.92,Vmaxpu=1.5,model=1,daily=RES1_2,status=variable
new load.3003334704M1 bus1=RML1002650938.2.0,Phases=1,kv=0.127,kW=1.30158,pf=0.92,Vminpu=0.92,Vmaxpu=1.5,model=1,daily=RES1_1,status=variable
new load.3000797372M1 bus1=RML1002650805.3.0,Phases=1,kv=0.127,kW=1.49974,pf=0.92,Vminpu=0.92,Vmaxpu=1.5,model=1,daily=RES1_16,status=variable
new load.3000797373M1 bus1=RML1002650826.1.0,Phases=1,kv=0.127,kW=1.35188,pf=0.92,Vminpu=0.92,Vmaxpu=1.5,model=1,daily=RES1_16,status=variable
new load.3000797374M1 bus1=RML1002650847.1.2.0,Phases=2,kv=0.22,kW=0.9611,pf=0.92,Vminpu=0.92,Vmaxpu=1.5,model=1,daily=RES1_16,status=variable
new load.3000797375M1 bus1=RML1002650819.2.0,Phases=1,kv=0.127,kW=1.62648,pf=0.92,Vminpu=0.92,Vmaxpu=1.5,model=1,daily=RES1_16,status=variable
new load.3000797376M1 bus1=RML1002650812.3.0,Phases=1,kv=0.127,kW=1.14066,pf=0.92,Vminpu=0.92,Vmaxpu=1.5,model=1,daily=RES1_16,status=variable
new load.3000797377M1 bus1=RML1002650882.3.0,Phases=1,kv=0.127,kW=0.42246,pf=0.92,Vminpu=0.92,Vmaxpu=1.5,model=1,daily=RES1_16,status=variable
new load.3000797378M1 bus1=RML1002650952.2.0,Phases=1,kv=0.127,kW=2.02782,pf=0.92,Vminpu=0.92,Vmaxpu=1.5,model=1,daily=RES1_16,status=variable
new load.3000797379M1 bus1=RML1002650945.1.0,Phases=1,kv=0.127,kW=1.83772,pf=0.92,Vminpu=0.92,Vmaxpu=1.5,model=1,daily=RES1_16,status=variable
new load.3000797380M1 bus1=RML1002650854.3.0,Phases=1,kv=0.127,kW=1.9222,pf=0.92,Vminpu=0.92,Vmaxpu=1.5,model=1,daily=RES1_16,status=variable
new load.3000797381M1 bus1=RML1002650973.1.0,Phases=1,kv=0.127,kW=1.33076,pf=0.92,Vminpu=0.92,Vmaxpu=1.5,model=1,daily=RES1_16,status=variable
new load.3000797382M1 bus1=RML1010737963.1.2.3.0,Phases=3,kv=0.22,kW=1.79546,pf=0.92,Vminpu=0.92,Vmaxpu=1.5,model=1,daily=RES1_16,status=variable
new load.3000797383M1 bus1=RML1002650903.2.0,Phases=1,kv=0.127,kW=4.22464,pf=0.92,Vminpu=0.92,Vmaxpu=1.5,model=1,daily=RES1_16,status=variable
new load.3000797384M1 bus1=RML1002650868.1.0,Phases=1,kv=0.127,kW=0.97166,pf=0.92,Vminpu=0.92,Vmaxpu=1.5,model=1,daily=RES1_16,status=variable
new load.3000797385M1 bus1=RML1002650875.3.0,Phases=1,kv=0.127,kW=0.5492,pf=0.92,Vminpu=0.92,Vmaxpu=1.5,model=1,daily=RES1_16,status=variable
new load.3000797369M1 bus1=RML1002645331.3.0,Phases=1,kv=0.127,kW=0.60202,pf=0.92,Vminpu=0.92,Vmaxpu=1.5,model=1,daily=RES1_16,status=variable
new load.3007135029M1 bus1=RML1003578445.1.2.0,Phases=2,kv=0.22,kW=0.81652,pf=0.92,Vminpu=0.92,Vmaxpu=1.5,model=1,daily=RES1_9,status=variable
new load.3007063170M1 bus1=RML1003547638.1.0,Phases=1,kv=0.127,kW=1.6559,pf=0.92,Vminpu=0.92,Vmaxpu=1.5,model=1,daily=RES1_7,status=variable
new load.3007439180M1 bus1=RML1003714819.2.3.0,Phases=2,kv=0.22,kW=2.38692,pf=0.92,Vminpu=0.92,Vmaxpu=1.5,model=1,daily=RES1_16,status=variable
new load.3007575596M1 bus1=RML1003798182.3.0,Phases=1,kv=0.127,kW=0.60568,pf=0.92,Vminpu=0.92,Vmaxpu=1.5,model=1,daily=RES1_18,status=variable
new load.3006252665M1 bus1=RML1003208908.1.3.0,Phases=2,kv=0.22,kW=0.47076,pf=0.92,Vminpu=0.92,Vmaxpu=1.5,model=1,daily=RES1_18,status=variable
new load.3006411489M1 bus1=RML1003294161.3.0,Phases=1,kv=0.127,kW=1.0192,pf=0.92,Vminpu=0.92,Vmaxpu=1.5,model=1,daily=RES1_23,status=variable
new load.3005969290M1 bus1=RML1010737963.1.2.3.0,Phases=3,kv=0.22,kW=0.50472,pf=0.92,Vminpu=0.92,Vmaxpu=1.5,model=1,daily=RES1_10,status=variable
new load.3007696966M1 bus1=RML1003871220.3.0,Phases=1,kv=0.127,kW=2.6772,pf=0.92,Vminpu=0.92,Vmaxpu=1.5,model=1,daily=RES1_26,status=variable
new load.3007750102M1 bus1=RML1003893893.3.0,Phases=1,kv=0.127,kW=2.07832,pf=0.92,Vminpu=0.92,Vmaxpu=1.5,model=1,daily=RES1_1,status=variable
new load.3010018325M1 bus1=RML1002650917.2.0,Phases=1,kv=0.127,kW=1.49052,pf=0.92,Vminpu=0.92,Vmaxpu=1.5,model=1,daily=RES1_1,status=variable
new load.3010259011M1 bus1=RML1003986755.1.0,Phases=1,kv=0.127,kW=1.66452,pf=0.92,Vminpu=0.92,Vmaxpu=1.5,model=1,daily=RES1_3,status=variable
new load.3010424182M1 bus1=RML1003578445.1.2.0,Phases=2,kv=0.22,kW=1.55758,pf=0.92,Vminpu=0.92,Vmaxpu=1.5,model=1,daily=RES1_6,status=variable
new load.3010396316M1 bus1=RML1004035531.1.2.0,Phases=2,kv=0.22,kW=1.67558,pf=0.92,Vminpu=0.92,Vmaxpu=1.5,model=1,daily=RES1_6,status=variable
new load.3010405168M1 bus1=RML1010748085.1.2.0,Phases=2,kv=0.22,kW=1.61658,pf=0.92,Vminpu=0.92,Vmaxpu=1.5,model=1,daily=RES1_6,status=variable
new load.3010253066M1 bus1=RML1003979314.1.0,Phases=1,kv=0.127,kW=1.78092,pf=0.92,Vminpu=0.92,Vmaxpu=1.5,model=1,daily=RES1_3,status=variable
new load.3005914650M1 bus1=RML1003013930.1.0,Phases=1,kv=0.127,kW=1.3197,pf=0.92,Vminpu=0.92,Vmaxpu=1.5,model=1,daily=RES1_8,status=variable
new load.3006128926M1 bus1=RML1003102424.1.0,Phases=1,kv=0.127,kW=1.23672,pf=0.92,Vminpu=0.92,Vmaxpu=1.5,model=1,daily=RES1_14,status=variable
new load.3006314360M1 bus1=RML1003238301.2.3.0,Phases=2,kv=0.22,kW=0.66866,pf=0.92,Vminpu=0.92,Vmaxpu=1.5,model=1,daily=RES1_18,status=variable
new load.3007597693M1 bus1=RML1003823095.1.0,Phases=1,kv=0.127,kW=0.70752,pf=0.92,Vminpu=0.92,Vmaxpu=1.5,model=1,daily=RES1_20,status=variable
new load.3007546843M1 bus1=RML1003782642.2.0,Phases=1,kv=0.127,kW=0.34782,pf=0.92,Vminpu=0.92,Vmaxpu=1.5,model=1,daily=RES1_18,status=variable
new load.3007549062M1 bus1=RML1003787094.1.2.0,Phases=2,kv=0.22,kW=0.50974,pf=0.92,Vminpu=0.92,Vmaxpu=1.5,model=1,daily=RES1_18,status=variable
new load.3007605086M1 bus1=RML1003898814.1.2.0,Phases=2,kv=0.22,kW=0.62952,pf=0.92,Vminpu=0.92,Vmaxpu=1.5,model=1,daily=RES1_20,status=variable
new load.3005308311M1 bus1=RML1002655523.1.2.0,Phases=2,kv=0.22,kW=0.7572,pf=0.92,Vminpu=0.92,Vmaxpu=1.5,model=1,daily=COM1_22,status=variable
new load.3005705763M1 bus1=RML1002655502.1.0,Phases=1,kv=0.127,kW=1.03596,pf=0.92,Vminpu=0.92,Vmaxpu=1.5,model=1,daily=RES1_3,status=variable
new load.3004221589M1 bus1=RML1002655509.3.0,Phases=1,kv=0.127,kW=0.50074,pf=0.92,Vminpu=0.92,Vmaxpu=1.5,model=1,daily=RES1_18,status=variable
new load.3004269835M1 bus1=RML1002655495.3.0,Phases=1,kv=0.127,kW=0.5181,pf=0.92,Vminpu=0.92,Vmaxpu=1.5,model=1,daily=RES1_20,status=variable
new load.3004890980M1 bus1=RML1002662705.3.0,Phases=1,kv=0.127,kW=1.2413,pf=0.92,Vminpu=0.92,Vmaxpu=1.5,model=1,daily=RES1_8,status=variable
new load.3004808978M1 bus1=RML1002662698.3.0,Phases=1,kv=0.127,kW=0.1534,pf=0.92,Vminpu=0.92,Vmaxpu=1.5,model=1,daily=RES1_6,status=variable
new load.3004833814M1 bus1=RML1002662684.3.0,Phases=1,kv=0.127,kW=1.39444,pf=0.92,Vminpu=0.92,Vmaxpu=1.5,model=1,daily=RES1_7,status=variable