new line.10038386 bus1=BBT2559056.1.2.3.0,bus2=BBT2559063.1.2.3.0,Phases=3,Linecode=BT803_BT803_4_3_4,Length=0.042207000,Units=km
new line.10038414 bus1=BBT2559063.1.2.3.0,bus2=BBT2559070.1.2.3.0,Phases=3,Linecode=BT803_BT803_4_3_4,Length=0.044199000,Units=km
new line.10038519 bus1=BBT2559098.1.2.3.0,bus2=BBT2559105.1.2.3.0,Phases=3,Linecode=BT810_BT810_4_3_4,Length=0.030012000,Units=km
new line.10038792 bus1=BBT2559168.1.2.3.0,bus2=BBT2559175.1.2.3.0,Phases=3,Linecode=BT803_BT803_4_3_4,Length=0.037592000,Units=km
new line.10038820 bus1=BBT2559175.1.2.3.0,bus2=BBT2559182.1.2.3.0,Phases=3,Linecode=BT803_BT803_4_3_4,Length=0.037458000,Units=km
new line.10038855 bus1=BBT2559182.1.2.3.0,bus2=BBT2559189.1.2.3.0,Phases=3,Linecode=BT810_BT810_4_3_4,Length=0.040029000,Units=km
new line.10038883 bus1=BBT2559189.1.2.3.0,bus2=BBT2559196.1.2.3.0,Phases=3,Linecode=BT810_BT810_4_3_4,Length=0.040029000,Units=km
new line.10039065 bus1=BBT2559259.1.2.3.0,bus2=BBT1800396.1.2.3.0,Phases=3,Linecode=BT107_BT107_7_3_1,Length=0.040377000,Units=km
new line.10039072 bus1=BBT2559259.1.2.3.0,bus2=BBT2559266.1.2.3.0,Phases=3,Linecode=BT108_BT108_7_3_1,Length=0.024850000,Units=km
new line.11171259 bus1=BBT2718558.1.2.0,bus2=BBT2718565.1.2.0,Phases=2,Linecode=BT316_BT316_7_2_1,Length=0.000501000,Units=km
new line.11171294 bus1=BBT2718544.1.2.0,bus2=BBT2718551.1.2.0,Phases=2,Linecode=BT316_BT316_7_2_1,Length=0.000501000,Units=km
new line.11777067 bus1=BBT3468587.1.2.0,bus2=BBT4021769.1.2.0,Phases=2,Linecode=BT808_BT808_4_2_3,Length=0.024217000,Units=km
new line.11777116 bus1=BBT3728378.1.2.0,bus2=BBT3728385.1.2.0,Phases=2,Linecode=BT808_BT808_4_2_3,Length=0.044222000,Units=km
new line.11777144 bus1=BBT2816474.1.2.0,bus2=BBT3728378.1.2.0,Phases=2,Linecode=BT808_BT808_4_2_3,Length=0.041248000,Units=km
new line.11777151 bus1=BBT2816474.1.2.0,bus2=BBT3227178.1.2.0,Phases=2,Linecode=BT808_BT808_4_2_3,Length=0.045018000,Units=km
new line.11777158 bus1=BBT2816474.1.2.0,bus2=BBT4242360.1.2.0,Phases=2,Linecode=BT808_BT808_4_2_3,Length=0.046880000,Units=km
new line.11777193 bus1=BBT2816460.1.2.0,bus2=BBT2816474.1.2.0,Phases=2,Linecode=BT810_BT810_4_2_4,Length=0.025623000,Units=km
new line.11777200 bus1=BBT2816460.1.2.0,bus2=BBT2816467.1.2.0,Phases=2,Linecode=BT808_BT808_4_2_3,Length=0.025623000,Units=km
new line.11777207 bus1=BBT2816453.1.2.0,bus2=BBT2816460.1.2.0,Phases=2,Linecode=BT518_BT518_7_2_1,Length=0.000501000,Units=km
new line.11777235 bus1=BBT3468580.1.2.0,bus2=BBT3468587.1.2.0,Phases=2,Linecode=BT808_BT808_4_2_3,Length=0.037658000,Units=km
new line.11777256 bus1=BBT2816495.1.2.0,bus2=BBT3468580.1.2.0,Phases=2,Linecode=BT808_BT808_4_2_3,Length=0.040624000,Units=km
new line.11777277 bus1=BBT2816488.1.2.0,bus2=BBT2816495.1.2.0,Phases=2,Linecode=BT807_BT807_4_2_3,Length=0.039220000,Units=km
new line.11777284 bus1=BBT2816481.1.2.0,bus2=BBT2816488.1.2.0,Phases=2,Linecode=BT518_BT518_7_2_1,Length=0.000501000,Units=km
new line.11777291 bus1=BBT2816488.1.2.0,bus2=BBT2816502.1.2.0,Phases=2,Linecode=BT807_BT807_4_2_3,Length=0.040624000,Units=km
new line.11777319 bus1=BBT2816502.1.2.0,bus2=BBT2816509.1.2.0,Phases=2,Linecode=BT807_BT807_4_2_3,Length=0.043618000,Units=km
new line.11777347 bus1=BBT2816509.1.2.0,bus2=BBT2816516.1.2.0,Phases=2,Linecode=BT808_BT808_4_2_3,Length=0.024850000,Units=km
new line.11777354 bus1=BBT2816509.1.2.0,bus2=BBT2816523.1.2.0,Phases=2,Linecode=BT808_BT808_4_2_3,Length=0.026412000,Units=km
new line.11777382 bus1=BBT2816530.1.2.0,bus2=BBT2816537.1.2.0,Phases=2,Linecode=BT808_BT808_4_2_3,Length=0.040241000,Units=km
new line.11777403 bus1=BBT2816523.1.2.0,bus2=BBT2816530.1.2.0,Phases=2,Linecode=BT808_BT808_4_2_3,Length=0.026412000,Units=km
new line.11777417 bus1=BBT2816537.1.2.0,bus2=BBT2816544.1.2.0,Phases=2,Linecode=BT808_BT808_4_2_3,Length=0.040624000,Units=km
new line.11777438 bus1=BBT2816544.1.2.0,bus2=BBT4523431.1.2.0,Phases=2,Linecode=BT808_BT808_4_2_3,Length=0.040016000,Units=km
new line.11777480 bus1=BBT2816425.1.2.0,bus2=BBT3430885.1.2.0,Phases=2,Linecode=BT808_BT808_4_2_3,Length=0.039220000,Units=km
new line.11777501 bus1=BBT2816404.1.2.0,bus2=BBT2816425.1.2.0,Phases=2,Linecode=BT807_BT807_4_2_3,Length=0.040624000,Units=km
new line.11777508 bus1=BBT2816397.1.2.0,bus2=BBT2816404.1.2.0,Phases=2,Linecode=BT518_BT518_7_2_1,Length=0.000501000,Units=km
new line.11777515 bus1=BBT2816404.1.2.0,bus2=BBT2816411.1.2.0,Phases=2,Linecode=BT807_BT807_4_2_3,Length=0.038616000,Units=km
new line.11777529 bus1=BBT2816411.1.2.0,bus2=BBT2816418.1.2.0,Phases=2,Linecode=BT807_BT807_4_2_3,Length=0.039841000,Units=km
new line.11777564 bus1=BBT2816418.1.2.0,bus2=BBT2816432.1.2.0,Phases=2,Linecode=BT808_BT808_4_2_3,Length=0.040821000,Units=km
new line.11777599 bus1=BBT2816432.1.2.0,bus2=BBT2816439.1.2.0,Phases=2,Linecode=BT808_BT808_4_2_3,Length=0.040821000,Units=km
new line.11777613 bus1=BBT2816439.1.2.0,bus2=BBT2816446.1.2.0,Phases=2,Linecode=BT808_BT808_4_2_3,Length=0.040624000,Units=km
new line.11777627 bus1=BBT2816446.1.2.0,bus2=BBT3747215.1.2.0,Phases=2,Linecode=BT808_BT808_4_2_3,Length=0.045018000,Units=km
new line.11777662 bus1=BBT2816376.1.2.0,bus2=BBT2816383.1.2.0,Phases=2,Linecode=BT808_BT808_4_2_3,Length=0.052652000,Units=km
new line.11777676 bus1=BBT2816383.1.2.0,bus2=BBT2816390.1.2.0,Phases=2,Linecode=BT808_BT808_4_2_3,Length=0.037817000,Units=km
new line.11777697 bus1=BBT2816390.1.2.0,bus2=BBT3883442.1.2.0,Phases=2,Linecode=BT808_BT808_4_2_3,Length=0.049223000,Units=km
new line.11777711 bus1=BBT2816362.1.2.0,bus2=BBT2816376.1.2.0,Phases=2,Linecode=BT808_BT808_4_2_3,Length=0.046976000,Units=km
new line.11777718 bus1=BBT2816355.1.2.0,bus2=BBT2816362.1.2.0,Phases=2,Linecode=BT513_BT513_7_3_1,Length=0.000501000,Units=km
new line.11777725 bus1=BBT2816362.1.2.0,bus2=BBT2816369.1.2.0,Phases=2,Linecode=BT808_BT808_4_2_3,Length=0.046976000,Units=km
new line.11777746 bus1=BBT2816369.1.2.0,bus2=BBT3430871.1.2.0,Phases=2,Linecode=BT808_BT808_4_2_3,Length=0.049759000,Units=km
new line.11777760 bus1=BBT3430871.1.2.0,bus2=BBT3430878.1.2.0,Phases=2,Linecode=BT808_BT808_4_2_3,Length=0.050269000,Units=km
new line.11777816 bus1=BBT2816313.1.2.0,bus2=BBT2816334.1.2.0,Phases=2,Linecode=BT808_BT808_4_2_3,Length=0.034146000,Units=km
new line.11777823 bus1=BBT2816313.1.2.0,bus2=BBT3452865.1.2.0,Phases=2,Linecode=BT808_BT808_4_2_3,Length=0.042076000,Units=km
new line.11777851 bus1=BBT2816306.1.2.0,bus2=BBT2816313.1.2.0,Phases=2,Linecode=BT808_BT808_4_2_3,Length=0.041199000,Units=km
new line.11777858 bus1=BBT2816306.1.2.0,bus2=BBT2816348.1.2.0,Phases=2,Linecode=BT808_BT808_4_2_3,Length=0.038603000,Units=km
new line.11777879 bus1=BBT2816334.1.2.0,bus2=BBT2816341.1.2.0,Phases=2,Linecode=BT808_BT808_4_2_3,Length=0.039979000,Units=km
new line.11777900 bus1=BBT2816292.1.2.0,bus2=BBT2816306.1.2.0,Phases=2,Linecode=BT808_BT808_4_2_3,Length=0.041199000,Units=km
new line.11777907 bus1=BBT2816285.1.2.0,bus2=BBT2816292.1.2.0,Phases=2,Linecode=BT513_BT513_7_2_1,Length=0.000501000,Units=km
new line.11777914 bus1=BBT2816292.1.2.0,bus2=BBT2816299.1.2.0,Phases=2,Linecode=BT808_BT808_4_2_3,Length=0.031077000,Units=km
new line.11777942 bus1=BBT2816299.1.2.0,bus2=BBT2818378.1.2.0,Phases=2,Linecode=BT808_BT808_4_2_3,Length=0.031397000,Units=km
new line.11777963 bus1=BBT2816320.1.2.0,bus2=BBT2816327.1.2.0,Phases=2,Linecode=BT808_BT808_4_2_3,Length=0.047453000,Units=km
new line.11645439 bus1=BBT2794977.1.2.0,bus2=BBT2794984.1.2.0,Phases=2,Linecode=BT316_BT316_7_2_1,Length=0.000501000,Units=km
new line.12708879 bus1=BBT3022631.1.2.3.0,bus2=BBT3022638.1.2.3.0,Phases=3,Linecode=BT314_BT314_7_3_1,Length=0.000501000,Units=km
new line.12891901 bus1=BBT3090153.1.2.0,bus2=BBT3090160.1.2.0,Phases=2,Linecode=BT316_BT316_7_2_1,Length=0.000501000,Units=km
new line.12978435 bus1=BBT3140868.1.2.3.0,bus2=BBT4415736.1.2.3.0,Phases=3,Linecode=BT107_BT106_7_3_1,Length=0.020889000,Units=km
new line.13298181 bus1=BBT3501438.1.2.0,bus2=BBT3501445.1.2.0,Phases=2,Linecode=BT808_BT808_4_2_3,Length=0.043698000,Units=km
new line.13469583 bus1=BBT4021769.1.2.0,bus2=BBT4021776.1.2.0,Phases=2,Linecode=BT808_BT808_4_2_3,Length=0.025623000,Units=km
new line.13601386 bus1=BBT23544152.1.2.3.0,bus2=BBT4461880.1.2.3.0,Phases=3,Linecode=BT803_BT803_4_3_4,Length=0.038225000,Units=km
new line.13607819 bus1=BBT137173332.1.2.3.0,bus2=BBT4503586.1.2.3.0,Phases=3,Linecode=BT803_BT803_4_3_4,Length=0.040216000,Units=km
new line.13607826 bus1=BBT21109020.1.2.3.0,bus2=BBT137173332.1.2.3.0,Phases=3,Linecode=BT803_BT803_4_3_4,Length=0.031157000,Units=km
new line.16486100 bus1=BBT26580332.1.2.3.0,bus2=BBT2889708.1.2.3.0,Phases=3,Linecode=BT810_BT810_4_3_4,Length=0.009059000,Units=km
new line.16486114 bus1=BBT26584238.1.2.3.0,bus2=BBT26584245.1.2.3.0,Phases=3,Linecode=BT516_BT516_7_3_1,Length=0.000501000,Units=km
new line.16664782 bus1=BBT2820940.2.3.0,bus2=BBT32963058.2.3.0,Phases=2,Linecode=BT808_BT808_4_2_3,Length=0.037028000,Units=km
new line.16868601 bus1=BBT4523410.1.2.0,bus2=BBT55945045.1.2.0,Phases=2,Linecode=BT808_BT808_4_2_3,Length=0.040016000,Units=km
new line.17376822 bus1=BBT1799500.1.2.3.0,bus2=BBT63181379.1.2.3.0,Phases=3,Linecode=BT810_BT810_4_3_4,Length=0.032153000,Units=km
new line.17381036 bus1=BBT87653512.1.2.0,bus2=BBT87653519.1.2.0,Phases=2,Linecode=BT316_BT316_7_2_1,Length=0.000501000,Units=km
new line.17563750 bus1=BBT74025534.1.2.3.0,bus2=BBT1804729.1.2.3.0,Phases=3,Linecode=BT521_BT521_7_3_1,Length=0.000501000,Units=km
new line.17571478 bus1=BBT1805611.1.2.3.0,bus2=BBT74335641.1.2.3.0,Phases=3,Linecode=BT810_BT810_4_3_4,Length=0.030162000,Units=km
new line.17572213 bus1=BBT1797421.1.2.0,bus2=BBT74381316.1.2.0,Phases=2,Linecode=BT808_BT808_4_2_3,Length=0.010054000,Units=km
new line.17574537 bus1=BBT74486967.1.2.0,bus2=BBT74486974.1.2.0,Phases=2,Linecode=BT308_BT308_7_2_1,Length=0.000501000,Units=km
new line.17574579 bus1=BBT74486974.1.2.0,bus2=BBT74487373.1.2.0,Phases=2,Linecode=BT807_BT807_4_2_3,Length=0.027814000,Units=km
new line.17574593 bus1=BBT74486974.1.2.0,bus2=BBT74492343.1.2.0,Phases=2,Linecode=BT807_BT807_4_2_3,Length=0.027742000,Units=km
new line.17574628 bus1=BBT74487373.1.2.0,bus2=BBT74487051.1.2.0,Phases=2,Linecode=BT807_BT807_4_2_3,Length=0.023864000,Units=km
new line.17574635 bus1=BBT74487373.1.2.0,bus2=BBT74488948.1.2.0,Phases=2,Linecode=BT808_BT808_4_2_3,Length=0.020527000,Units=km
new line.17574656 bus1=BBT74488948.1.2.0,bus2=BBT74489060.1.2.0,Phases=2,Linecode=BT808_BT808_4_2_3,Length=0.039424000,Units=km
new line.17574670 bus1=BBT74489060.1.2.0,bus2=BBT74488381.1.2.0,Phases=2,Linecode=BT808_BT808_4_2_3,Length=0.041417000,Units=km
new line.17574740 bus1=BBT74487373.1.2.0,bus2=BBT74491944.1.2.0,Phases=2,Linecode=BT808_BT808_4_2_3,Length=0.016162000,Units=km
new line.17574768 bus1=BBT74491601.1.2.0,bus2=BBT74491335.1.2.0,Phases=2,Linecode=BT808_BT808_4_2_3,Length=0.044672000,Units=km
new line.17574782 bus1=BBT74491944.1.2.0,bus2=BBT74491601.1.2.0,Phases=2,Linecode=BT808_BT808_4_2_3,Length=0.046343000,Units=km
new line.17574810 bus1=BBT74492343.1.2.0,bus2=BBT74487100.1.2.0,Phases=2,Linecode=BT807_BT807_4_2_3,Length=0.006711000,Units=km
new line.17574852 bus1=BBT74492343.1.2.0,bus2=BBT74492504.1.2.0,Phases=2,Linecode=BT808_BT808_4_2_3,Length=0.019034000,Units=km
new line.17574866 bus1=BBT74492343.1.2.0,bus2=BBT74492623.1.2.0,Phases=2,Linecode=BT808_BT808_4_2_3,Length=0.015040000,Units=km
new line.17574873 bus1=BBT74492623.1.2.0,bus2=BBT74493386.1.2.0,Phases=2,Linecode=BT808_BT808_4_2_3,Length=0.036070000,Units=km
new line.17574880 bus1=BBT74493386.1.2.0,bus2=BBT74493197.1.2.0,Phases=2,Linecode=BT808_BT808_4_2_3,Length=0.041634000,Units=km
new line.17575076 bus1=BBT74498685.1.2.0,bus2=BBT74498692.1.2.0,Phases=2,Linecode=BT317_BT317_7_2_1,Length=0.000501000,Units=km
new line.17575111 bus1=BBT74499126.1.2.0,bus2=BBT74499133.1.2.0,Phases=2,Linecode=BT317_BT317_7_2_1,Length=0.000501000,Units=km
new line.17575160 bus1=BBT74498692.1.2.0,bus2=BBT74500652.1.2.0,Phases=2,Linecode=BT807_BT807_4_2_3,Length=0.026937000,Units=km
new line.17575167 bus1=BBT74500652.1.2.0,bus2=BBT74500876.1.2.0,Phases=2,Linecode=BT808_BT808_4_2_3,Length=0.034146000,Units=km
new line.17575181 bus1=BBT74498692.1.2.0,bus2=BBT74500904.1.2.0,Phases=2,Linecode=BT108_BT108_7_2_1,Length=0.025249000,Units=km
new line.17575188 bus1=BBT74500904.1.2.0,bus2=BBT74500925.1.2.0,Phases=2,Linecode=BT808_BT808_4_2_3,Length=0.022813000,Units=km
new line.17575195 bus1=BBT74500652.1.2.0,bus2=BBT74501716.1.2.0,Phases=2,Linecode=BT808_BT808_4_2_3,Length=0.044425000,Units=km
new line.17575223 bus1=BBT74501604.1.2.0,bus2=BBT74501527.1.2.0,Phases=2,Linecode=BT808_BT808_4_2_3,Length=0.040821000,Units=km
new line.17575244 bus1=BBT74501716.1.2.0,bus2=BBT74501604.1.2.0,Phases=2,Linecode=BT808_BT808_4_2_3,Length=0.041065000,Units=km
new line.17575300 bus1=BBT74499133.1.2.0,bus2=BBT74502668.1.2.0,Phases=2,Linecode=BT807_BT807_4_2_3,Length=0.023864000,Units=km
new line.17575307 bus1=BBT74502668.1.2.0,bus2=BBT74502409.1.2.0,Phases=2,Linecode=BT807_BT807_4_2_3,Length=0.027214000,Units=km
new line.17575328 bus1=BBT74499133.1.2.0,bus2=BBT74504558.1.2.0,Phases=2,Linecode=BT807_BT807_4_2_3,Length=0.031397000,Units=km
new line.17575342 bus1=BBT74504558.1.2.0,bus2=BBT74504614.1.2.0,Phases=2,Linecode=BT808_BT808_4_2_3,Length=0.028029000,Units=km
new line.17575349 bus1=BBT104193448.1.2.0,bus2=BBT74504663.1.2.0,Phases=2,Linecode=BT808_BT808_4_2_3,Length=0.035000000,Units=km
new line.17575356 bus1=BBT74504663.1.2.0,bus2=BBT74504733.1.2.0,Phases=2,Linecode=BT808_BT808_4_2_3,Length=0.030818000,Units=km
new line.17575468 bus1=BBT74502668.1.2.0,bus2=BBT74509605.1.2.0,Phases=2,Linecode=BT808_BT808_4_2_3,Length=0.011407000,Units=km
new line.17575475 bus1=BBT74508303.1.2.0,bus2=BBT74508310.1.2.0,Phases=2,Linecode=BT808_BT808_4_2_3,Length=0.028856000,Units=km
new line.17575510 bus1=BBT74509220.1.2.0,bus2=BBT74508303.1.2.0,Phases=2,Linecode=BT808_BT808_4_2_3,Length=0.043847000,Units=km
new line.17575517 bus1=BBT74509311.1.2.0,bus2=BBT74509220.1.2.0,Phases=2,Linecode=BT808_BT808_4_2_3,Length=0.038849000,Units=km
new line.17575524 bus1=BBT74509605.1.2.0,bus2=BBT74509311.1.2.0,Phases=2,Linecode=BT808_BT808_4_2_3,Length=0.034684000,Units=km
new line.17575552 bus1=BBT74508303.1.2.0,bus2=BBT74510032.1.2.0,Phases=2,Linecode=BT808_BT808_4_2_3,Length=0.026087000,Units=km
new line.17575559 bus1=BBT74510032.1.2.0,bus2=BBT74510207.1.2.0,Phases=2,Linecode=BT808_BT808_4_2_3,Length=0.028856000,Units=km
new line.17575566 bus1=BBT74500904.1.2.0,bus2=BBT74511187.1.2.0,Phases=2,Linecode=BT808_BT808_4_2_3,Length=0.036907000,Units=km
new line.12298553 bus1=BBT2919668.1.2.0,bus2=BBT2919675.1.2.0,Phases=2,Linecode=BT316_BT316_7_2_1,Length=0.000501000,Units=km
new line.13412190 bus1=BBT3883442.1.2.0,bus2=BBT4604463.1.2.0,Phases=2,Linecode=BT808_BT808_4_2_3,Length=0.020600000,Units=km
new line.13546786 bus1=BBT4332247.1.2.3.0,bus2=BBT4332254.1.2.3.0,Phases=3,Linecode=BT810_BT810_4_3_4,Length=0.032998000,Units=km
new line.13546800 bus1=BBT4332240.1.2.3.0,bus2=BBT4332247.1.2.3.0,Phases=3,Linecode=BT810_BT810_4_3_4,Length=0.039576000,Units=km
new line.13546863 bus1=BBT4332219.1.2.3.0,bus2=BBT4332240.1.2.3.0,Phases=3,Linecode=BT810_BT810_4_3_4,Length=0.039310000,Units=km
new line.13546870 bus1=BBT4332212.1.2.3.0,bus2=BBT4332219.1.2.3.0,Phases=3,Linecode=BT521_BT521_7_3_1,Length=0.000501000,Units=km
new line.13546877 bus1=BBT4332219.1.2.3.0,bus2=BBT4332226.1.2.3.0,Phases=3,Linecode=BT810_BT810_4_3_4,Length=0.039310000,Units=km
new line.13546891 bus1=BBT4332226.1.2.3.0,bus2=BBT4332233.1.2.3.0,Phases=3,Linecode=BT810_BT810_4_3_4,Length=0.038094000,Units=km
new line.13549306 bus1=BBT4342831.1.2.3.0,bus2=BBT4342838.1.2.3.0,Phases=3,Linecode=BT516_BT516_7_3_1,Length=0.000501000,Units=km
new line.13560688 bus1=BBT4390480.2.3.0,bus2=BBT4390487.2.3.0,Phases=2,Linecode=BT808_BT808_4_2_3,Length=0.035014000,Units=km
new line.13560695 bus1=BBT4390480.2.3.0,bus2=BBT4390529.2.3.0,Phases=2,Linecode=BT808_BT808_4_2_3,Length=0.035014000,Units=km
new line.13560737 bus1=BBT4390487.2.3.0,bus2=BBT4390501.2.3.0,Phases=2,Linecode=BT808_BT808_4_2_3,Length=0.035014000,Units=km
new line.13560751 bus1=BBT4390536.2.3.0,bus2=BBT28542600.2.3.0,Phases=2,Linecode=BT808_BT808_4_2_3,Length=0.035014000,Units=km
new line.13560786 bus1=BBT4390529.2.3.0,bus2=BBT4390536.2.3.0,Phases=2,Linecode=BT808_BT808_4_2_3,Length=0.028011000,Units=km
new line.13561528 bus1=BBT4392419.1.2.3.0,bus2=BBT1803504.1.2.3.0,Phases=3,Linecode=BT803_BT803_4_3_4,Length=0.027742000,Units=km
new line.13561535 bus1=BBT4392419.1.2.3.0,bus2=BBT1803511.1.2.3.0,Phases=3,Linecode=BT803_BT803_4_3_4,Length=0.012171000,Units=km
new line.13561542 bus1=BBT4392419.1.2.3.0,bus2=BBT4392426.1.2.3.0,Phases=3,Linecode=BT803_BT803_4_3_4,Length=0.002237000,Units=km
new line.13561570 bus1=BBT4392426.1.2.3.0,bus2=BBT1804834.1.2.3.0,Phases=3,Linecode=BT803_BT803_4_3_4,Length=0.026087000,Units=km
new line.16718717 bus1=BBT34539731.1.2.0,bus2=BBT168813011.1.2.0,Phases=2,Linecode=BT808_BT808_4_2_3,Length=0.043618000,Units=km
new line.16718724 bus1=BBT34539738.1.2.0,bus2=BBT34539731.1.2.0,Phases=2,Linecode=BT808_BT808_4_2_3,Length=0.031318000,Units=km
new line.16731912 bus1=BBT45985074.1.2.3.0,bus2=BBT168860605.1.2.3.0,Phases=3,Linecode=BT803_BT803_4_3_4,Length=0.033149000,Units=km
new line.16731919 bus1=BBT45985081.1.2.3.0,bus2=BBT45985074.1.2.3.0,Phases=3,Linecode=BT803_BT803_4_3_4,Length=0.047284000,Units=km
new line.16732878 bus1=BBT1821305.1.2.3.0,bus2=BBT34916065.1.2.3.0,Phases=3,Linecode=BT803_BT803_4_3_4,Length=0.025070000,Units=km
new line.16733256 bus1=BBT1811225.1.3.0,bus2=BBT34930814.1.3.0,Phases=2,Linecode=BT808_BT808_4_2_3,Length=0.035525000,Units=km
new line.16734404 bus1=BBT1803322.1.3.0,bus2=BBT34965506.1.3.0,Phases=2,Linecode=BT808_BT808_4_2_3,Length=0.033149000,Units=km
new line.16734411 bus1=BBT34965506.1.3.0,bus2=BBT34965681.1.3.0,Phases=2,Linecode=BT808_BT808_4_2_3,Length=0.034073000,Units=km
new line.17079539 bus1=BBT2816383.1.2.0,bus2=BBT46776536.1.2.0,Phases=2,Linecode=BT808_BT808_4_2_3,Length=0.042561000,Units=km
new line.17087169 bus1=BBT48577510.1.2.0,bus2=BBT48577517.1.2.0,Phases=2,Linecode=BT316_BT316_7_2_1,Length=0.000501000,Units=km
new line.17093560 bus1=BBT2816348.1.2.0,bus2=BBT59911371.1.2.0,Phases=2,Linecode=BT808_BT808_4_2_3,Length=0.023333000,Units=km
new line.17093574 bus1=BBT59911371.1.2.0,bus2=BBT59911385.1.2.0,Phases=2,Linecode=BT808_BT808_4_2_3,Length=0.040265000,Units=km
new line.17238950 bus1=BBT55912971.1.2.0,bus2=BBT55912978.1.2.0,Phases=2,Linecode=BT316_BT316_7_2_1,Length=0.000501000,Units=km
new line.17239685 bus1=BBT2816313.1.2.0,bus2=BBT55940698.1.2.0,Phases=2,Linecode=BT808_BT808_4_2_3,Length=0.028029000,Units=km
new line.17652265 bus1=BBT77768560.1.2.3.0,bus2=BBT77768567.1.2.3.0,Phases=3,Linecode=BT514_BT514_7_3_1,Length=0.000501000,Units=km
new line.17660203 bus1=BBT78182827.1.2.3.0,bus2=BBT2559098.1.2.3.0,Phases=3,Linecode=BT810_BT810_4_3_4,Length=0.032029000,Units=km
new line.17660980 bus1=BBT78196001.1.2.3.0,bus2=BBT78196008.1.2.3.0,Phases=3,Linecode=BT516_BT516_7_3_1,Length=0.000501000,Units=km
new line.17910831 bus1=BBT92612634.1.2.3.0,bus2=BBT92612641.1.2.3.0,Phases=3,Linecode=BT514_BT514_7_3_1,Length=0.000501000,Units=km
new line.18058685 bus1=BBT104247068.1.2.3.0,bus2=BBT104247313.1.2.3.0,Phases=3,Linecode=BT810_BT810_4_3_4,Length=0.035014000,Units=km
new line.18058706 bus1=BBT104245668.1.2.3.0,bus2=BBT104247789.1.2.3.0,Phases=3,Linecode=BT810_BT810_4_3_4,Length=0.030245000,Units=km
new line.18058713 bus1=BBT104247789.1.2.3.0,bus2=BBT104247810.1.2.3.0,Phases=3,Linecode=BT810_BT810_4_3_4,Length=0.030818000,Units=km
new line.18058727 bus1=BBT104247313.1.2.3.0,bus2=BBT104247817.1.2.3.0,Phases=3,Linecode=BT810_BT810_4_3_4,Length=0.024708000,Units=km
new line.18058755 bus1=BBT104247810.1.2.3.0,bus2=BBT104247992.1.2.3.0,Phases=3,Linecode=BT810_BT810_4_3_4,Length=0.039614000,Units=km
new line.18058762 bus1=BBT104247992.1.2.3.0,bus2=BBT104248132.1.2.3.0,Phases=3,Linecode=BT810_BT810_4_3_4,Length=0.042538000,Units=km
new line.18058769 bus1=BBT104245668.1.2.3.0,bus2=BBT104248475.1.2.3.0,Phases=3,Linecode=BT803_BT803_4_3_4,Length=0.026638000,Units=km
new line.18058776 bus1=BBT104248475.1.2.3.0,bus2=BBT104248587.1.2.3.0,Phases=3,Linecode=BT803_BT803_4_3_4,Length=0.022213000,Units=km
new line.18058797 bus1=BBT104241370.1.2.3.0,bus2=BBT104248895.1.2.3.0,Phases=3,Linecode=BT803_BT803_4_3_4,Length=0.039979000,Units=km
new line.18058804 bus1=BBT104248895.1.2.3.0,bus2=BBT104248902.1.2.3.0,Phases=3,Linecode=BT803_BT803_4_3_4,Length=0.024423000,Units=km
new line.18058811 bus1=BBT104248902.1.2.3.0,bus2=BBT104248909.1.2.3.0,Phases=3,Linecode=BT803_BT803_4_3_4,Length=0.029423000,Units=km
new line.18058902 bus1=BBT104241370.1.2.3.0,bus2=BBT104249448.1.2.3.0,Phases=3,Linecode=BT803_BT803_4_3_4,Length=0.016408000,Units=km
new line.18058909 bus1=BBT104249448.1.2.3.0,bus2=BBT104249455.1.2.3.0,Phases=3,Linecode=BT803_BT803_4_3_4,Length=0.028437000,Units=km
new line.18058937 bus1=BBT104249448.1.2.3.0,bus2=BBT104249539.1.2.3.0,Phases=3,Linecode=BT810_BT810_4_3_4,Length=0.016131000,Units=km
new line.18058944 bus1=BBT104249539.1.2.3.0,bus2=BBT104249595.1.2.3.0,Phases=3,Linecode=BT810_BT810_4_3_4,Length=0.049264000,Units=km
new line.18058951 bus1=BBT104249595.1.2.3.0,bus2=BBT104249658.1.2.3.0,Phases=3,Linecode=BT810_BT810_4_3_4,Length=0.034669000,Units=km
new line.18058958 bus1=BBT104249539.1.2.3.0,bus2=BBT104250085.1.2.3.0,Phases=3,Linecode=BT810_BT810_4_3_4,Length=0.034943000,Units=km
new line.18058965 bus1=BBT104250085.1.2.3.0,bus2=BBT104250092.1.2.3.0,Phases=3,Linecode=BT810_BT810_4_3_4,Length=0.029744000,Units=km
new line.18058972 bus1=BBT104250092.1.2.3.0,bus2=BBT104250358.1.2.3.0,Phases=3,Linecode=BT810_BT810_4_3_4,Length=0.034190000,Units=km
new line.18058979 bus1=BBT104249448.1.2.3.0,bus2=BBT104250498.1.2.3.0,Phases=3,Linecode=BT810_BT810_4_3_4,Length=0.024423000,Units=km
new line.11495835 bus1=BBT2772794.1.2.0,bus2=BBT2772801.1.2.0,Phases=2,Linecode=BT317_BT317_7_2_1,Length=0.000501000,Units=km
new line.11691226 bus1=BBT2802943.1.2.0,bus2=BBT2802950.1.2.0,Phases=2,Linecode=BT316_BT316_7_2_1,Length=0.000501000,Units=km
new line.13077093 bus1=BBT3244433.1.2.0,bus2=BBT3244440.1.2.0,Phases=2,Linecode=BT316_BT316_7_2_1,Length=0.000501000,Units=km
new line.13366984 bus1=BBT3658028.1.2.0,bus2=BBT3658035.1.2.0,Phases=2,Linecode=BT304_BT304_7_2_1,Length=0.000501000,Units=km
new line.13368034 bus1=BBT3717059.1.2.3.0,bus2=BBT4503579.1.2.3.0,Phases=3,Linecode=BT803_BT803_4_3_4,Length=0.024197000,Units=km
new line.13371156 bus1=BBT3728385.1.2.0,bus2=BBT4523403.1.2.0,Phases=2,Linecode=BT808_BT808_4_2_3,Length=0.040016000,Units=km
new line.13513550 bus1=BBT4229781.1.2.3.0,bus2=BBT4229788.1.2.3.0,Phases=3,Linecode=BT307_BT307_7_3_1,Length=0.000501000,Units=km
new line.13518982 bus1=BBT4242360.1.2.0,bus2=BBT4242367.1.2.0,Phases=2,Linecode=BT808_BT808_4_2_3,Length=0.045625000,Units=km
new line.13518996 bus1=BBT4242367.1.2.0,bus2=BBT4242374.1.2.0,Phases=2,Linecode=BT808_BT808_4_2_3,Length=0.042819000,Units=km
new line.13519017 bus1=BBT4242374.1.2.0,bus2=BBT4242381.1.2.0,Phases=2,Linecode=BT808_BT808_4_2_3,Length=0.032816000,Units=km
new line.13519038 bus1=BBT4242381.1.2.0,bus2=BBT4242388.1.2.0,Phases=2,Linecode=BT808_BT808_4_2_3,Length=0.032216000,Units=km
new line.13635602 bus1=BBT4566243.1.2.3.0,bus2=BBT4566250.1.2.3.0,Phases=3,Linecode=BT514_BT514_7_3_1,Length=0.000501000,Units=km
new line.13636771 bus1=BBT4568574.1.3.0,bus2=BBT4568567.1.3.0,Phases=2,Linecode=BT808_BT808_4_2_3,Length=0.034248000,Units=km
new line.13644569 bus1=BBT4586410.1.2.3.0,bus2=BBT4586417.1.2.3.0,Phases=3,Linecode=BT803_BT803_4_3_4,Length=0.031061000,Units=km
new line.13651030 bus1=BBT4604463.1.2.0,bus2=BBT4604470.1.2.0,Phases=2,Linecode=BT808_BT808_4_2_3,Length=0.021964000,Units=km
new line.13651653 bus1=BBT4605611.1.2.3.0,bus2=BBT4605618.1.2.3.0,Phases=3,Linecode=BT514_BT514_7_3_1,Length=0.000501000,Units=km
new line.16531740 bus1=BBT28542782.1.2.3.0,bus2=BBT28542789.1.2.3.0,Phases=3,Linecode=BT513_BT513_7_3_1,Length=0.000501000,Units=km
new line.16531747 bus1=BBT28542600.2.3.0,bus2=BBT28542607.2.3.0,Phases=2,Linecode=BT808_BT808_4_2_3,Length=0.035014000,Units=km
new line.16967427 bus1=BBT1815432.1.2.3.0,bus2=BBT73377607.1.2.3.0,Phases=3,Linecode=BT803_BT803_4_3_4,Length=0.031334000,Units=km
new line.17209515 bus1=BBT55900112.1.2.0,bus2=BBT55900119.1.2.0,Phases=2,Linecode=BT316_BT316_7_2_1,Length=0.000501000,Units=km
new line.17224628 bus1=BBT23544152.1.2.3.0,bus2=BBT54940041.1.2.3.0,Phases=3,Linecode=BT803_BT803_4_3_4,Length=0.043434000,Units=km
new line.17592513 bus1=BBT60046408.1.2.3.0,bus2=BBT75199784.1.2.3.0,Phases=3,Linecode=BT810_BT810_4_3_4,Length=0.040016000,Units=km
new line.17592996 bus1=BBT1816188.1.2.3.0,bus2=BBT75203228.1.2.3.0,Phases=3,Linecode=BT803_BT803_4_3_4,Length=0.026030000,Units=km
new line.17593010 bus1=BBT75203228.1.2.3.0,bus2=BBT75203270.1.2.3.0,Phases=3,Linecode=BT803_BT803_4_3_4,Length=0.028029000,Units=km
new line.17593017 bus1=BBT75203270.1.2.3.0,bus2=BBT75203333.1.2.3.0,Phases=3,Linecode=BT803_BT803_4_3_4,Length=0.029029000,Units=km
new line.17774583 bus1=BBT84272722.1.2.3.0,bus2=BBT84272729.1.2.3.0,Phases=3,Linecode=BT513_BT513_7_3_1,Length=0.000501000,Units=km
new line.17774597 bus1=BBT1811988.1.2.3.0,bus2=BBT84272904.1.2.3.0,Phases=3,Linecode=BT803_BT803_4_3_4,Length=0.038094000,Units=km
new line.17790074 bus1=BBT1815523.1.2.3.0,bus2=BBT91890787.1.2.3.0,Phases=3,Linecode=BT810_BT810_4_3_4,Length=0.032293000,Units=km
new line.17902543 bus1=BBT1734582.1.2.3.0,bus2=BBT92247563.1.2.3.0,Phases=3,Linecode=BT810_BT810_4_3_4,Length=0.043122000,Units=km
new line.18047289 bus1=BBT103865085.1.2.0,bus2=BBT103865092.1.2.0,Phases=2,Linecode=BT304_BT304_7_2_1,Length=0.000501000,Units=km
new line.18056382 bus1=BBT74504614.1.2.0,bus2=BBT104193448.1.2.0,Phases=2,Linecode=BT808_BT808_4_2_3,Length=0.033614000,Units=km
new line.18056760 bus1=BBT74566697.1.2.0,bus2=BBT104197774.1.2.0,Phases=2,Linecode=BT807_BT807_4_2_3,Length=0.019217000,Units=km
new line.18057215 bus1=BBT74567215.1.2.0,bus2=BBT104204501.1.2.0,Phases=2,Linecode=BT807_BT807_4_2_3,Length=0.022370000,Units=km
new line.18057334 bus1=BBT104207322.1.2.0,bus2=BBT104252801.1.2.0,Phases=2,Linecode=BT807_BT807_4_2_3,Length=0.033852000,Units=km
new line.18058286 bus1=BBT104240166.1.2.0,bus2=BBT74567215.1.2.0,Phases=2,Linecode=BT513_BT513_7_2_1,Length=0.000501000,Units=km
new line.18058307 bus1=BBT104240516.1.2.3.0,bus2=BBT104240523.1.2.3.0,Phases=3,Linecode=BT521_BT521_7_3_1,Length=0.000501000,Units=km
new line.18058328 bus1=BBT104241363.1.2.3.0,bus2=BBT104241370.1.2.3.0,Phases=3,Linecode=BT521_BT521_7_3_1,Length=0.000501000,Units=km
new line.18058342 bus1=BBT104240523.1.2.3.0,bus2=BBT104242378.1.2.3.0,Phases=3,Linecode=BT803_BT803_4_3_4,Length=0.024197000,Units=km
new line.18058349 bus1=BBT104242378.1.2.3.0,bus2=BBT104242399.1.2.3.0,Phases=3,Linecode=BT803_BT803_4_3_4,Length=0.024423000,Units=km
new line.18058356 bus1=BBT104242399.1.2.3.0,bus2=BBT104242420.1.2.3.0,Phases=3,Linecode=BT803_BT803_4_3_4,Length=0.040513000,Units=km
new line.18058377 bus1=BBT104242420.1.2.3.0,bus2=BBT104242777.1.2.3.0,Phases=3,Linecode=BT810_BT810_4_3_4,Length=0.025249000,Units=km
new line.18058440 bus1=BBT104242777.1.2.3.0,bus2=BBT104244240.1.2.3.0,Phases=3,Linecode=BT810_BT810_4_3_4,Length=0.030245000,Units=km
new line.18058489 bus1=BBT104244240.1.2.3.0,bus2=BBT104244849.1.2.3.0,Phases=3,Linecode=BT810_BT810_4_3_4,Length=0.043284000,Units=km
new line.18058496 bus1=BBT104244849.1.2.3.0,bus2=BBT104244940.1.2.3.0,Phases=3,Linecode=BT810_BT810_4_3_4,Length=0.048279000,Units=km
new line.18058503 bus1=BBT74504733.1.2.0,bus2=BBT104245010.1.2.0,Phases=2,Linecode=BT808_BT808_4_2_3,Length=0.043029000,Units=km
new line.18058517 bus1=BBT104193448.1.2.0,bus2=BBT104245220.1.2.0,Phases=2,Linecode=BT808_BT808_4_2_3,Length=0.033028000,Units=km
new line.18058524 bus1=BBT74504558.1.2.0,bus2=BBT104245276.1.2.0,Phases=2,Linecode=BT808_BT808_4_2_3,Length=0.033028000,Units=km
new line.18058545 bus1=BBT104240523.1.2.3.0,bus2=BBT104245668.1.2.3.0,Phases=3,Linecode=BT803_BT803_4_3_4,Length=0.037751000,Units=km
new line.18058566 bus1=BBT104245668.1.2.3.0,bus2=BBT104245948.1.2.3.0,Phases=3,Linecode=BT810_BT810_4_3_4,Length=0.033300000,Units=km
new line.18058573 bus1=BBT104245948.1.2.3.0,bus2=BBT104246102.1.2.3.0,Phases=3,Linecode=BT810_BT810_4_3_4,Length=0.043284000,Units=km
new line.18058594 bus1=BBT104246102.1.2.3.0,bus2=BBT104246641.1.2.3.0,Phases=3,Linecode=BT810_BT810_4_3_4,Length=0.043284000,Units=km
new line.18058601 bus1=BBT104246641.1.2.3.0,bus2=BBT104246648.1.2.3.0,Phases=3,Linecode=BT810_BT810_4_3_4,Length=0.041634000,Units=km
new line.18058608 bus1=BBT104242378.1.2.3.0,bus2=BBT104246655.1.2.3.0,Phases=3,Linecode=BT810_BT810_4_3_4,Length=0.028856000,Units=km
new line.18058629 bus1=BBT104246655.1.2.3.0,bus2=BBT104246676.1.2.3.0,Phases=3,Linecode=BT810_BT810_4_3_4,Length=0.040241000,Units=km
new line.18058636 bus1=BBT104246676.1.2.3.0,bus2=BBT104246732.1.2.3.0,Phases=3,Linecode=BT810_BT810_4_3_4,Length=0.045504000,Units=km
new line.18058643 bus1=BBT104246732.1.2.3.0,bus2=BBT104246886.1.2.3.0,Phases=3,Linecode=BT810_BT810_4_3_4,Length=0.041898000,Units=km
new line.18058986 bus1=BBT104250498.1.2.3.0,bus2=BBT104250554.1.2.3.0,Phases=3,Linecode=BT810_BT810_4_3_4,Length=0.048846000,Units=km
new line.18058993 bus1=BBT104250554.1.2.3.0,bus2=BBT104250596.1.2.3.0,Phases=3,Linecode=BT810_BT810_4_3_4,Length=0.048279000,Units=km
new line.18059007 bus1=BBT104250596.1.2.3.0,bus2=BBT104250673.1.2.3.0,Phases=3,Linecode=BT810_BT810_4_3_4,Length=0.037217000,Units=km
new line.18059014 bus1=BBT104250673.1.2.3.0,bus2=BBT104250680.1.2.3.0,Phases=3,Linecode=BT810_BT810_4_3_4,Length=0.031636000,Units=km
new line.18059028 bus1=BBT104250358.1.2.3.0,bus2=BBT104250939.1.2.3.0,Phases=3,Linecode=BT810_BT810_4_3_4,Length=0.035370000,Units=km
new line.18059042 bus1=BBT104250939.1.2.3.0,bus2=BBT104251016.1.2.3.0,Phases=3,Linecode=BT810_BT810_4_3_4,Length=0.031636000,Units=km