new line.CTR105216 bus1=BMT122472725.3,bus2=BMT122472872.3,Phases=1,LineCode=tieSwitch1,Length=0.001,Units=km,switch=T !numEQ 159645
new line.CTR105237 bus1=BMT122471696.1,bus2=BMT170756071.1,Phases=1,LineCode=tieSwitch1,Length=0.001,Units=km,switch=T !numEQ 101297
new line.CTR105244 bus1=BMT122474692.1.2.3,bus2=BMT168594863.1.2.3,Phases=3,LineCode=tieSwitch,Length=0.001,Units=km,switch=T !numEQ 101298
new line.CTR131914 bus1=BMT122474685.3,bus2=BMT162957006.3,Phases=1,LineCode=tieSwitch1,Length=0.001,Units=km,switch=T !numEQ 50362
new line.CTR131928 bus1=BMT122479340.3,bus2=BMT122479361.3,Phases=1,LineCode=tieSwitch1,Length=0.001,Units=km,switch=T !numEQ 53729
new line.CTR132075 bus1=BMT122478654.2,bus2=BMT170326424.2,Phases=1,LineCode=tieSwitch1,Length=0.001,Units=km,switch=T !numEQ 52981
new line.CTR132082 bus1=BMT122476995.1,bus2=BMT167049507.1,Phases=1,LineCode=tieSwitch1,Length=0.001,Units=km,switch=T !numEQ 108601
new line.CTR147244 bus1=BMT122476442.2,bus2=BMT122476778.2,Phases=1,LineCode=tieSwitch1,Length=0.001,Units=km,switch=T !numEQ 53148
new line.CTR147888 bus1=BMT122471794.1,bus2=BMT122480964.1,Phases=1,LineCode=tieSwitch1,Length=0.001,Units=km,switch=T !numEQ 178650
new line.CTR161020 bus1=BMT122471892.1,bus2=BMT170756087.1,Phases=1,LineCode=tieSwitch1,Length=0.001,Units=km,switch=T !numEQ 50353
new line.CTR161027 bus1=BMT122480635.3,bus2=BMT122480663.3,Phases=1,LineCode=tieSwitch1,Length=0.001,Units=km,switch=T !numEQ 52569
new line.CTR161034 bus1=BMT122472494.1.2.3,bus2=BMT170167604.1.2.3,Phases=3,LineCode=tieSwitch,Length=0.001,Units=km,switch=T !numEQ 50370
new line.CTR161041 bus1=BMT122472522.1,bus2=BMT122474405.1,Phases=1,LineCode=tieSwitch1,Length=0.001,Units=km,switch=T !numEQ 50366
new line.CTR161048 bus1=BMT122470268.1.2.3,bus2=BMT170766820.1.2.3,Phases=3,LineCode=tieSwitch,Length=0.001,Units=km,switch=T !numEQ 50372
new line.CTR161062 bus1=BMT122480411.3,bus2=BMT164104885.3,Phases=1,LineCode=tieSwitch1,Length=0.001,Units=km,switch=T !numEQ 295560
new line.CTR161069 bus1=BMT122474755.3,bus2=BMT122480320.3,Phases=1,LineCode=tieSwitch1,Length=0.001,Units=km,switch=T !numEQ 50377
new line.CTR161076 bus1=BMT122474944.1.2.3,bus2=BMT136959337.1.2.3,Phases=3,LineCode=tieSwitch,Length=0.001,Units=km,switch=T !numEQ 50383
new line.CTR161083 bus1=BMT122476379.2,bus2=BMT122476386.2,Phases=1,LineCode=tieSwitch1,Length=0.001,Units=km,switch=T !numEQ 50386
new line.CTR161090 bus1=BMT122475133.1.2.3,bus2=BMT122475322.1.2.3,Phases=3,LineCode=tieSwitch,Length=0.001,Units=km,switch=T !numEQ 50387
new line.CTR161097 bus1=BMT122475406.1.2.3,bus2=BMT165999142.1.2.3,Phases=3,LineCode=tieSwitch,Length=0.001,Units=km,switch=T !numEQ 50388
new line.CTR161125 bus1=BMT122471640.1,bus2=BMT122482987.1,Phases=1,LineCode=tieSwitch1,Length=0.001,Units=km,switch=T !numEQ 50371
new line.CTR161195 bus1=BMT122472473.1,bus2=BMT122474510.1,Phases=1,LineCode=tieSwitch1,Length=0.001,Units=km,switch=T !numEQ 50394
new line.CTR162091 bus1=BMT122472291.1.2.3,bus2=BMT162983216.1.2.3,Phases=3,LineCode=tieSwitch,Length=0.001,Units=km,switch=T !numEQ 50300
new line.CTR162203 bus1=BMT122471038.1.2.3,bus2=BMT122484562.1.2.3,Phases=3,LineCode=tieSwitch,Length=0.001,Units=km,switch=T !numEQ 195805
new line.CTR162371 bus1=BMT122471052.1,bus2=BMT122484513.1,Phases=1,LineCode=tieSwitch1,Length=0.001,Units=km,switch=T !numEQ 50341
new line.CTR162385 bus1=BMT122484079.1,bus2=BMT122484485.1,Phases=1,LineCode=tieSwitch1,Length=0.001,Units=km,switch=T !numEQ 50541
new line.CTR162392 bus1=BMT122471605.1,bus2=BMT122483995.1,Phases=1,LineCode=tieSwitch1,Length=0.001,Units=km,switch=T !numEQ 50345
new line.CTR162399 bus1=BMT122471612.1.2.3,bus2=BMT122483981.1.2.3,Phases=3,LineCode=tieSwitch,Length=0.001,Units=km,switch=T !numEQ 50346
new line.CTR17625 bus1=BMT122474818.3,bus2=BMT167761560.3,Phases=1,LineCode=tieSwitch1,Length=0.001,Units=km,switch=T !numEQ 182681
new line.CTR276373 bus1=BMT122484380.1,bus2=BMT122484436.1,Phases=1,LineCode=tieSwitch1,Length=0.001,Units=km,switch=T !numEQ 203089
new line.CTR276695 bus1=BMT122483155.3,bus2=BMT170755760.3,Phases=1,LineCode=tieSwitch1,Length=0.001,Units=km,switch=T !numEQ 50352
new line.CTR277150 bus1=BMT122470849.1.2.3,bus2=BMT122470863.1.2.3,Phases=3,LineCode=tieSwitch,Length=0.001,Units=km,switch=T !numEQ 133038
new line.CTR277157 bus1=BMT122470877.1.2.3,bus2=BMT122470884.1.2.3,Phases=3,LineCode=tieSwitch,Length=0.001,Units=km,switch=T !numEQ 133039
new line.CTR325352 bus1=BMT122475826.3,bus2=BMT151617990.3,Phases=1,LineCode=tieSwitch1,Length=0.001,Units=km,switch=T !numEQ 281230
new line.CTR384250 bus1=BMT122470667.1.2.3,bus2=BMT170606475.1.2.3,Phases=3,LineCode=tieSwitch,Length=0.001,Units=km,switch=T !numEQ 281522
new line.CTR385370 bus1=BMT122471227.3,bus2=BMT122471241.3,Phases=1,LineCode=tieSwitch1,Length=0.001,Units=km,switch=T !numEQ 295437
new line.CTR427832 bus1=BMT137374479.3,bus2=BMT168554354.3,Phases=1,LineCode=tieSwitch1,Length=0.001,Units=km,switch=T !numEQ 290965
new line.CTR844255 bus1=BMT161740095.1.2.3,bus2=BMT161740096.1.2.3,Phases=3,LineCode=tieSwitch,Length=0.001,Units=km,switch=T !numEQ 317399
new line.CTR844257 bus1=BMT148676646.1.2.3,bus2=BMT170582641.1.2.3,Phases=3,LineCode=tieSwitch,Length=0.001,Units=km,switch=T !numEQ 317398
new line.CTR844258 bus1=BMT148267968.1.2.3,bus2=BMT170581689.1.2.3,Phases=3,LineCode=tieSwitch,Length=0.001,Units=km,switch=T !numEQ 314780
new line.CTR844259 bus1=BMT161727517.1.2.3,bus2=BMT170581587.1.2.3,Phases=3,LineCode=tieSwitch,Length=0.001,Units=km,switch=T !numEQ 312774
new line.CTR844584 bus1=BMT148365202.1,bus2=BMT164888208.1,Phases=1,LineCode=tieSwitch1,Length=0.001,Units=km,switch=T !numEQ 306628
new line.CTR844747 bus1=BMT148401598.3,bus2=BMT160925345.3,Phases=1,LineCode=tieSwitch1,Length=0.001,Units=km,switch=T !numEQ 312805
new line.CTR844786 bus1=BMT170582648.1.2.3,bus2=BMT150970171.1.2.3,Phases=3,LineCode=tieSwitch,Length=0.001,Units=km,switch=T !numEQ 373768
new line.CTR844788 bus1=BMT149682664.1.2.3,bus2=BMT170582661.1.2.3,Phases=3,LineCode=tieSwitch,Length=0.001,Units=km,switch=T !numEQ 373767
new line.CTR844796 bus1=BMT170582647.1.2.3,bus2=BMT150975655.1.2.3,Phases=3,LineCode=tieSwitch,Length=0.001,Units=km,switch=T !numEQ 373766
new line.CTR844798 bus1=BMT170582645.1.2.3,bus2=BMT148406789.1.2.3,Phases=3,LineCode=tieSwitch,Length=0.001,Units=km,switch=T !numEQ 374460
open line.CTR844798 term=1
new line.CTR864419 bus1=BMT154051652.1.2.3,bus2=BMT171311978.1.2.3,Phases=3,LineCode=tieSwitch,Length=0.001,Units=km,switch=T !numEQ 234619
new line.CTR149939 bus1=BMT122479130.2,bus2=BMT122479172.2,Phases=1,LineCode=tieSwitch1,Length=0.001,Units=km,switch=T !numEQ 52983
new line.CTR150205 bus1=BMT122473705.2,bus2=BMT148287341.2,Phases=1,LineCode=tieSwitch1,Length=0.001,Units=km,switch=T !numEQ 52644
new line.CTR150240 bus1=BMT122474902.1.2.3,bus2=BMT122474909.1.2.3,Phases=3,LineCode=tieSwitch,Length=0.001,Units=km,switch=T !numEQ 52647
new line.CTR150247 bus1=BMT122471465.3,bus2=BMT164505649.3,Phases=1,LineCode=tieSwitch1,Length=0.001,Units=km,switch=T !numEQ 146153
new line.CTR150527 bus1=BMT122473789.2,bus2=BMT172132573.2,Phases=1,LineCode=tieSwitch1,Length=0.001,Units=km,switch=T !numEQ 52692
new line.CTR151003 bus1=BMT122478633.2,bus2=BMT171296748.2,Phases=1,LineCode=tieSwitch1,Length=0.001,Units=km,switch=T !numEQ 52525
new line.CTR151010 bus1=BMT122478402.2,bus2=BMT165501974.2,Phases=1,LineCode=tieSwitch1,Length=0.001,Units=km,switch=T !numEQ 260058
new line.CTR151017 bus1=BMT122478388.2,bus2=BMT122478395.2,Phases=1,LineCode=tieSwitch1,Length=0.001,Units=km,switch=T !numEQ 52526
new line.CTR151038 bus1=BMT122475483.1,bus2=BMT122475686.1,Phases=1,LineCode=tieSwitch1,Length=0.001,Units=km,switch=T !numEQ 52538
new line.CTR151157 bus1=BMT122478521.2,bus2=BMT122478535.2,Phases=1,LineCode=tieSwitch1,Length=0.001,Units=km,switch=T !numEQ 52542
new line.CTR151164 bus1=BMT122478542.2,bus2=BMT122478920.2,Phases=1,LineCode=tieSwitch1,Length=0.001,Units=km,switch=T !numEQ 52541
new line.CTR151171 bus1=BMT122478479.2,bus2=BMT122478955.2,Phases=1,LineCode=tieSwitch1,Length=0.001,Units=km,switch=T !numEQ 52539
new line.CTR151423 bus1=BMT122478626.2,bus2=BMT122478871.2,Phases=1,LineCode=tieSwitch1,Length=0.001,Units=km,switch=T !numEQ 52276
new line.CTR151472 bus1=BMT122478927.2,bus2=BMT122478941.2,Phases=1,LineCode=tieSwitch1,Length=0.001,Units=km,switch=T !numEQ 52268
new line.CTR165437 bus1=BMT122471752.1,bus2=BMT122480992.1,Phases=1,LineCode=tieSwitch1,Length=0.001,Units=km,switch=T !numEQ 50649
new line.CTR195607 bus1=BMT120621036.3,bus2=BMT161319971.3,Phases=1,LineCode=tieSwitch1,Length=0.001,Units=km,switch=T !numEQ 188048
new line.CTR259657 bus1=BMT122471339.3,bus2=BMT160889798.3,Phases=1,LineCode=tieSwitch1,Length=0.001,Units=km,switch=T !numEQ 53011
new line.CTR260763 bus1=BMT122479459.1,bus2=BMT122479487.1,Phases=1,LineCode=tieSwitch1,Length=0.001,Units=km,switch=T !numEQ 132728
new line.CTR285725 bus1=BMT122472592.1.2.3,bus2=BMT171463476.1.2.3,Phases=3,LineCode=tieSwitch,Length=0.001,Units=km,switch=T !numEQ 108614
new line.CTR285746 bus1=BMT122472781.1.2.3,bus2=BMT157921308.1.2.3,Phases=3,LineCode=tieSwitch,Length=0.001,Units=km,switch=T !numEQ 53416
new line.CTR285781 bus1=BMT122474713.1.2.3,bus2=BMT149810617.1.2.3,Phases=3,LineCode=tieSwitch,Length=0.001,Units=km,switch=T !numEQ 50374
new line.CTR285802 bus1=BMT122472529.1,bus2=BMT122474300.1,Phases=1,LineCode=tieSwitch1,Length=0.001,Units=km,switch=T !numEQ 50365
new line.CTR285809 bus1=BMT122474335.1,bus2=BMT122474349.1,Phases=1,LineCode=tieSwitch1,Length=0.001,Units=km,switch=T !numEQ 51147
new line.CTR285816 bus1=BMT122472536.1.2.3,bus2=BMT150035064.1.2.3,Phases=3,LineCode=tieSwitch,Length=0.001,Units=km,switch=T !numEQ 50364
new line.CTR285977 bus1=BMT122480096.2,bus2=BMT122480131.2,Phases=1,LineCode=tieSwitch1,Length=0.001,Units=km,switch=T !numEQ 108689
new line.CTR285984 bus1=BMT122474790.1,bus2=BMT122479396.1,Phases=1,LineCode=tieSwitch1,Length=0.001,Units=km,switch=T !numEQ 50379
new line.CTR285991 bus1=BMT122474783.1.2.3,bus2=BMT122479410.1.2.3,Phases=3,LineCode=tieSwitch,Length=0.001,Units=km,switch=T !numEQ 50378
new line.CTR286306 bus1=BMT122475035.1.2.3,bus2=BMT170541009.1.2.3,Phases=3,LineCode=tieSwitch,Length=0.001,Units=km,switch=T !numEQ 110391
new line.CTR286670 bus1=BMT122479907.1.2.3,bus2=BMT122479970.1.2.3,Phases=3,LineCode=tieSwitch,Length=0.001,Units=km,switch=T !numEQ 203082
new line.CTR287468 bus1=BMT122478682.2,bus2=BMT122478703.2,Phases=1,LineCode=tieSwitch1,Length=0.001,Units=km,switch=T !numEQ 156149
new line.CTR288231 bus1=BMT122473957.2,bus2=BMT122473971.2,Phases=1,LineCode=tieSwitch1,Length=0.001,Units=km,switch=T !numEQ 192763
new line.CTR334221 bus1=BMT122480194.2,bus2=BMT122480208.2,Phases=1,LineCode=tieSwitch1,Length=0.001,Units=km,switch=T !numEQ 221018
new line.CTR335117 bus1=BMT120620616.1.2.3,bus2=BMT120620623.1.2.3,Phases=3,LineCode=tieSwitch,Length=0.001,Units=km,switch=T !numEQ 225339
new line.CTR336433 bus1=BMT122479781.1,bus2=BMT122479802.1,Phases=1,LineCode=tieSwitch1,Length=0.001,Units=km,switch=T !numEQ 228045
new line.CTR388233 bus1=BMT122481237.1,bus2=BMT171370203.1,Phases=1,LineCode=tieSwitch1,Length=0.001,Units=km,switch=T !numEQ 295697
new line.CTR388345 bus1=BMT122482784.1,bus2=BMT130090293.1,Phases=1,LineCode=tieSwitch1,Length=0.001,Units=km,switch=T !numEQ 295699
new line.CTR388352 bus1=BMT122482819.1,bus2=BMT122482847.1,Phases=1,LineCode=tieSwitch1,Length=0.001,Units=km,switch=T !numEQ 295700
new line.CTR388359 bus1=BMT122482756.1,bus2=BMT122482868.1,Phases=1,LineCode=tieSwitch1,Length=0.001,Units=km,switch=T !numEQ 295701
new line.CTR388940 bus1=BMT122483764.3,bus2=BMT170755849.3,Phases=1,LineCode=tieSwitch1,Length=0.001,Units=km,switch=T !numEQ 221021
new line.CTR389178 bus1=BMT122471493.3,bus2=BMT160086329.3,Phases=1,LineCode=tieSwitch1,Length=0.001,Units=km,switch=T !numEQ 284296
new line.CTR390487 bus1=BMT122475658.2,bus2=BMT122475665.2,Phases=1,LineCode=tieSwitch1,Length=0.001,Units=km,switch=T !numEQ 295879
new line.CTR390613 bus1=BMT122478283.2,bus2=BMT122478297.2,Phases=1,LineCode=tieSwitch1,Length=0.001,Units=km,switch=T !numEQ 298639
new line.CTR390620 bus1=BMT122478339.2,bus2=BMT122479074.2,Phases=1,LineCode=tieSwitch1,Length=0.001,Units=km,switch=T !numEQ 298640
new line.CTR390627 bus1=BMT122476547.2,bus2=BMT122476582.2,Phases=1,LineCode=tieSwitch1,Length=0.001,Units=km,switch=T !numEQ 298641
new line.CTR390683 bus1=BMT122474454.1,bus2=BMT122474475.1,Phases=1,LineCode=tieSwitch1,Length=0.001,Units=km,switch=T !numEQ 298648
new line.CTR390690 bus1=BMT122481377.1,bus2=BMT122481398.1,Phases=1,LineCode=tieSwitch1,Length=0.001,Units=km,switch=T !numEQ 298649
new line.CTR44239 bus1=BMT122476162.3,bus2=BMT122476176.3,Phases=1,LineCode=tieSwitch1,Length=0.001,Units=km,switch=T !numEQ 156881
new line.CTR564950 bus1=BMT161740097.1.2.3,bus2=BMT161739986.1.2.3,Phases=3,LineCode=tieSwitch,Length=0.001,Units=km,switch=T !numEQ 30900
open line.CTR564950 term=1
new line.CTR867012 bus1=BMT161728493.1.2.3,bus2=BMT170581232.1.2.3,Phases=3,LineCode=tieSwitch,Length=0.001,Units=km,switch=T !numEQ 243515
new line.CTR129821 bus1=BMT122481006.1,bus2=BMT122481013.1,Phases=1,LineCode=tieSwitch1,Length=0.001,Units=km,switch=T !numEQ 53012
new line.CTR129828 bus1=BMT122477450.3,bus2=BMT122477485.3,Phases=1,LineCode=tieSwitch1,Length=0.001,Units=km,switch=T !numEQ 108604
new line.CTR130843 bus1=BMT122479417.1.2.3,bus2=BMT122479431.1.2.3,Phases=3,LineCode=tieSwitch,Length=0.001,Units=km,switch=T !numEQ 50854
new line.CTR145053 bus1=BMT122470387.1.2.3,bus2=BMT160101780.1.2.3,Phases=3,LineCode=tieSwitch,Length=0.001,Units=km,switch=T !numEQ 101012
new line.CTR145767 bus1=BMT122475000.1,bus2=BMT122476848.1,Phases=1,LineCode=tieSwitch1,Length=0.001,Units=km,switch=T !numEQ 50813
new line.CTR145788 bus1=BMT122476540.2,bus2=BMT122476603.2,Phases=1,LineCode=tieSwitch1,Length=0.001,Units=km,switch=T !numEQ 53371
new line.CTR159221 bus1=BMT122480061.2,bus2=BMT122480145.2,Phases=1,LineCode=tieSwitch1,Length=0.001,Units=km,switch=T !numEQ 50804
new line.CTR159228 bus1=BMT122474678.2,bus2=BMT122480894.2,Phases=1,LineCode=tieSwitch1,Length=0.001,Units=km,switch=T !numEQ 50805
new line.CTR159235 bus1=BMT122478248.1.2.3,bus2=BMT167005222.1.2.3,Phases=3,LineCode=tieSwitch,Length=0.001,Units=km,switch=T !numEQ 50391
new line.CTR159319 bus1=BMT122481188.1,bus2=BMT171655854.1,Phases=1,LineCode=tieSwitch1,Length=0.001,Units=km,switch=T !numEQ 50815
new line.CTR159326 bus1=BMT122471920.1,bus2=BMT170756085.1,Phases=1,LineCode=tieSwitch1,Length=0.001,Units=km,switch=T !numEQ 50807
new line.CTR159550 bus1=BMT122479319.3,bus2=BMT122479333.3,Phases=1,LineCode=tieSwitch1,Length=0.001,Units=km,switch=T !numEQ 234621
new line.CTR159585 bus1=BMT122473593.2,bus2=BMT122474258.2,Phases=1,LineCode=tieSwitch1,Length=0.001,Units=km,switch=T !numEQ 50614
new line.CTR159620 bus1=BMT122474853.1.2.3,bus2=BMT171312073.1.2.3,Phases=3,LineCode=tieSwitch,Length=0.001,Units=km,switch=T !numEQ 50591
new line.CTR159816 bus1=BMT122479914.2,bus2=BMT165485290.2,Phases=1,LineCode=tieSwitch1,Length=0.001,Units=km,switch=T !numEQ 50659
new line.CTR159886 bus1=BMT122474762.1.2.3,bus2=BMT156981037.1.2.3,Phases=3,LineCode=tieSwitch,Length=0.001,Units=km,switch=T !numEQ 228052
new line.CTR159900 bus1=BMT122472655.2,bus2=BMT122473439.2,Phases=1,LineCode=tieSwitch1,Length=0.001,Units=km,switch=T !numEQ 50676
new line.CTR159970 bus1=BMT122473565.2,bus2=BMT159634110.2,Phases=1,LineCode=tieSwitch1,Length=0.001,Units=km,switch=T !numEQ 50685
new line.CTR159977 bus1=BMT122475490.2,bus2=BMT122475616.2,Phases=1,LineCode=tieSwitch1,Length=0.001,Units=km,switch=T !numEQ 50687
new line.CTR160082 bus1=BMT122474867.3,bus2=BMT152204466.3,Phases=1,LineCode=tieSwitch1,Length=0.001,Units=km,switch=T !numEQ 50712
new line.CTR160194 bus1=BMT122473446.2,bus2=BMT122473474.2,Phases=1,LineCode=tieSwitch1,Length=0.001,Units=km,switch=T !numEQ 50714
new line.CTR160551 bus1=BMT122484086.1,bus2=BMT122484450.1,Phases=1,LineCode=tieSwitch1,Length=0.001,Units=km,switch=T !numEQ 50536
new line.CTR160572 bus1=BMT122480012.2,bus2=BMT122480159.2,Phases=1,LineCode=tieSwitch1,Length=0.001,Units=km,switch=T !numEQ 50544
new line.CTR160705 bus1=BMT122471815.1,bus2=BMT170756144.1,Phases=1,LineCode=tieSwitch1,Length=0.001,Units=km,switch=T !numEQ 50555
new line.CTR160796 bus1=BMT120620679.1.2.3,bus2=BMT161313254.1.2.3,Phases=3,LineCode=tieSwitch,Length=0.001,Units=km,switch=T !numEQ 50582
new line.CTR160859 bus1=BMT122473775.2,bus2=BMT122473915.2,Phases=1,LineCode=tieSwitch1,Length=0.001,Units=km,switch=T !numEQ 50601
new line.CTR160908 bus1=BMT122475476.2,bus2=BMT122475735.2,Phases=1,LineCode=tieSwitch1,Length=0.001,Units=km,switch=T !numEQ 50611
new line.CTR160915 bus1=BMT122472641.1.2.3,bus2=BMT158279551.1.2.3,Phases=3,LineCode=tieSwitch,Length=0.001,Units=km,switch=T !numEQ 101296
new line.CTR160936 bus1=BMT122473936.2,bus2=BMT122473985.2,Phases=1,LineCode=tieSwitch1,Length=0.001,Units=km,switch=T !numEQ 132851
new line.CTR160957 bus1=BMT122475462.1.2.3,bus2=BMT168641366.1.2.3,Phases=3,LineCode=tieSwitch,Length=0.001,Units=km,switch=T !numEQ 50359
new line.CTR160964 bus1=BMT122474650.3,bus2=BMT122480922.3,Phases=1,LineCode=tieSwitch1,Length=0.001,Units=km,switch=T !numEQ 50361
new line.CTR160971 bus1=BMT122483120.3,bus2=BMT170755758.3,Phases=1,LineCode=tieSwitch1,Length=0.001,Units=km,switch=T !numEQ 50351
new line.CTR160999 bus1=BMT122472144.1,bus2=BMT170756129.1,Phases=1,LineCode=tieSwitch1,Length=0.001,Units=km,switch=T !numEQ 50606
new line.CTR161006 bus1=BMT122471717.1,bus2=BMT122481104.1,Phases=1,LineCode=tieSwitch1,Length=0.001,Units=km,switch=T !numEQ 50358
new line.CTR22644 bus1=BMT122474097.2,bus2=BMT122474118.2,Phases=1,LineCode=tieSwitch1,Length=0.001,Units=km,switch=T !numEQ 181546
new line.CTR22742 bus1=BMT122479613.1,bus2=BMT122479634.1,Phases=1,LineCode=tieSwitch1,Length=0.001,Units=km,switch=T !numEQ 181561
new line.CTR25143 bus1=BMT122480446.3,bus2=BMT122480467.3,Phases=1,LineCode=tieSwitch1,Length=0.001,Units=km,switch=T !numEQ 178490
new line.CTR274196 bus1=BMT122475042.1.2.3,bus2=BMT161275087.1.2.3,Phases=3,LineCode=tieSwitch,Length=0.001,Units=km,switch=T !numEQ 50384
new line.CTR2743 bus1=BMT122481223.1,bus2=BMT171222593.1,Phases=1,LineCode=tieSwitch1,Length=0.001,Units=km,switch=T !numEQ 53980
new line.CTR275631 bus1=BMT122480670.3,bus2=BMT122480691.3,Phases=1,LineCode=tieSwitch1,Length=0.001,Units=km,switch=T !numEQ 52573
new line.CTR357783 bus1=BMT122477156.1,bus2=BMT122477170.1,Phases=1,LineCode=tieSwitch1,Length=0.001,Units=km,switch=T !numEQ 284320
new line.CTR357790 bus1=BMT122477177.1,bus2=BMT163607568.1,Phases=1,LineCode=tieSwitch1,Length=0.001,Units=km,switch=T !numEQ 284321
new line.CTR401778 bus1=BMT130090307.1,bus2=BMT169104631.1,Phases=1,LineCode=tieSwitch1,Length=0.001,Units=km,switch=T !numEQ 295370
new line.CTR401855 bus1=BMT130111489.1,bus2=BMT168214263.1,Phases=1,LineCode=tieSwitch1,Length=0.001,Units=km,switch=T !numEQ 295371
new line.CTR44995 bus1=BMT122477107.1,bus2=BMT122477149.1,Phases=1,LineCode=tieSwitch1,Length=0.001,Units=km,switch=T !numEQ 156789
new line.CTR45086 bus1=BMT122477415.3,bus2=BMT171362278.3,Phases=1,LineCode=tieSwitch1,Length=0.001,Units=km,switch=T !numEQ 145487
new line.CTR80345 bus1=BMT122478983.2,bus2=BMT122478997.2,Phases=1,LineCode=tieSwitch1,Length=0.001,Units=km,switch=T !numEQ 114721
new line.CTR855959 bus1=BMT151617999.3,bus2=BMT160886191.3,Phases=1,LineCode=tieSwitch1,Length=0.001,Units=km,switch=T !numEQ 379185
new line.CTR876001 bus1=BMT157518239.1.2.3,bus2=BMT157792087.1.2.3,Phases=3,LineCode=tieSwitch,Length=0.001,Units=km,switch=T !numEQ 248869
new line.CTR141875 bus1=BMT122474041.2,bus2=BMT122474069.2,Phases=1,LineCode=tieSwitch1,Length=0.001,Units=km,switch=T !numEQ 50602
new line.CTR141931 bus1=BMT122474090.2,bus2=BMT122474209.2,Phases=1,LineCode=tieSwitch1,Length=0.001,Units=km,switch=T !numEQ 50600
new line.CTR141938 bus1=BMT122473740.2,bus2=BMT160759963.2,Phases=1,LineCode=tieSwitch1,Length=0.001,Units=km,switch=T !numEQ 51033
new line.CTR156904 bus1=BMT122478227.1,bus2=BMT170715262.1,Phases=1,LineCode=tieSwitch1,Length=0.001,Units=km,switch=T !numEQ 51135
new line.CTR156939 bus1=BMT120620707.2,bus2=BMT162625170.2,Phases=1,LineCode=tieSwitch1,Length=0.001,Units=km,switch=T !numEQ 311336
new line.CTR156960 bus1=BMT120620910.2,bus2=BMT120620952.2,Phases=1,LineCode=tieSwitch1,Length=0.001,Units=km,switch=T !numEQ 311337
new line.CTR156988 bus1=BMT122472137.1,bus2=BMT170756133.1,Phases=1,LineCode=tieSwitch1,Length=0.001,Units=km,switch=T !numEQ 51129
new line.CTR170708 bus1=BMT122474748.3,bus2=BMT166427316.3,Phases=1,LineCode=tieSwitch1,Length=0.001,Units=km,switch=T !numEQ 50375
new line.CTR17100 bus1=BMT122470611.1.2.3,bus2=BMT122470765.1.2.3,Phases=3,LineCode=tieSwitch,Length=0.001,Units=km,switch=T !numEQ 182895
new line.CTR171485 bus1=BMT122478570.2,bus2=BMT122478577.2,Phases=1,LineCode=tieSwitch1,Length=0.001,Units=km,switch=T !numEQ 52275
new line.CTR171947 bus1=BMT122472564.2,bus2=BMT122473558.2,Phases=1,LineCode=tieSwitch1,Length=0.001,Units=km,switch=T !numEQ 50363
new line.CTR172 bus1=BMT170581235.1.2.3,bus2=BMT161751552.1.2.3,Phases=3,LineCode=tieSwitch,Length=0.001,Units=km,switch=T !numEQ 27856
new line.CTR18899 bus1=BMT122484639.3,bus2=BMT167353103.3,Phases=1,LineCode=tieSwitch1,Length=0.001,Units=km,switch=T !numEQ 182166
new line.CTR247029 bus1=BMT122484135.1,bus2=BMT122484352.1,Phases=1,LineCode=tieSwitch1,Length=0.001,Units=km,switch=T !numEQ 50542
new line.CTR247036 bus1=BMT122484569.1,bus2=BMT122484583.1,Phases=1,LineCode=tieSwitch1,Length=0.001,Units=km,switch=T !numEQ 195806
new line.CTR247043 bus1=BMT122471045.3,bus2=BMT160748534.3,Phases=1,LineCode=tieSwitch1,Length=0.001,Units=km,switch=T !numEQ 50337
new line.CTR247050 bus1=BMT122471094.3,bus2=BMT122471556.3,Phases=1,LineCode=tieSwitch1,Length=0.001,Units=km,switch=T !numEQ 50339
new line.CTR247057 bus1=BMT122471115.3,bus2=BMT122471528.3,Phases=1,LineCode=tieSwitch1,Length=0.001,Units=km,switch=T !numEQ 108609
new line.CTR247071 bus1=BMT122471619.3,bus2=BMT170755731.3,Phases=1,LineCode=tieSwitch1,Length=0.001,Units=km,switch=T !numEQ 50347
new line.CTR247078 bus1=BMT122483085.3,bus2=BMT170755860.3,Phases=1,LineCode=tieSwitch1,Length=0.001,Units=km,switch=T !numEQ 50349
new line.CTR247085 bus1=BMT122483092.3,bus2=BMT170755739.3,Phases=1,LineCode=tieSwitch1,Length=0.001,Units=km,switch=T !numEQ 50350
new line.CTR247232 bus1=BMT122483106.3,bus2=BMT170755751.3,Phases=1,LineCode=tieSwitch1,Length=0.001,Units=km,switch=T !numEQ 51043
new line.CTR27082 bus1=BMT122477303.1,bus2=BMT166303711.1,Phases=1,LineCode=tieSwitch1,Length=0.001,Units=km,switch=T !numEQ 178367
new line.CTR271074 bus1=BMT122481363.1,bus2=BMT122481370.1,Phases=1,LineCode=tieSwitch1,Length=0.001,Units=km,switch=T !numEQ 132828
new line.CTR299081 bus1=BMT122483498.3,bus2=BMT170755858.3,Phases=1,LineCode=tieSwitch1,Length=0.001,Units=km,switch=T !numEQ 213502
new line.CTR299361 bus1=BMT122471248.3,bus2=BMT122471262.3,Phases=1,LineCode=tieSwitch1,Length=0.001,Units=km,switch=T !numEQ 192592
new line.CTR319815 bus1=BMT122471185.3,bus2=BMT122471199.3,Phases=1,LineCode=tieSwitch1,Length=0.001,Units=km,switch=T !numEQ 221001
new line.CTR408645 bus1=BMT132681623.2,bus2=BMT132682190.2,Phases=1,LineCode=tieSwitch1,Length=0.001,Units=km,switch=T !numEQ 295669
new line.CTR408932 bus1=BMT132706872.3,bus2=BMT132708286.3,Phases=1,LineCode=tieSwitch1,Length=0.001,Units=km,switch=T !numEQ 298700
new line.CTR435511 bus1=BMT139566095.3,bus2=BMT159879924.3,Phases=1,LineCode=tieSwitch1,Length=0.001,Units=km,switch=T !numEQ 290926
new line.CTR46178 bus1=BMT122474125.2,bus2=BMT122474139.2,Phases=1,LineCode=tieSwitch1,Length=0.001,Units=km,switch=T !numEQ 156473
new line.CTR46185 bus1=BMT122476869.1,bus2=BMT122476883.1,Phases=1,LineCode=tieSwitch1,Length=0.001,Units=km,switch=T !numEQ 156474
new line.CTR46192 bus1=BMT122477541.3,bus2=BMT122477555.3,Phases=1,LineCode=tieSwitch1,Length=0.001,Units=km,switch=T !numEQ 156475
new line.CTR46199 bus1=BMT122479088.2,bus2=BMT122479144.2,Phases=1,LineCode=tieSwitch1,Length=0.001,Units=km,switch=T !numEQ 156476
new line.CTR46206 bus1=BMT122475084.3,bus2=BMT122476281.3,Phases=1,LineCode=tieSwitch1,Length=0.001,Units=km,switch=T !numEQ 156477
new line.CTR46213 bus1=BMT122477765.3,bus2=BMT122477786.3,Phases=1,LineCode=tieSwitch1,Length=0.001,Units=km,switch=T !numEQ 156478
new line.CTR66513 bus1=BMT122475021.2,bus2=BMT164375106.2,Phases=1,LineCode=tieSwitch1,Length=0.001,Units=km,switch=T !numEQ 123617
new line.CTR74878 bus1=BMT122484198.1,bus2=BMT122484233.1,Phases=1,LineCode=tieSwitch1,Length=0.001,Units=km,switch=T !numEQ 40054
new line.CTR81626 bus1=BMT122478199.1.2.3,bus2=BMT155107373.1.2.3,Phases=3,LineCode=tieSwitch,Length=0.001,Units=km,switch=T !numEQ 108745
new line.CTR849799 bus1=BMT149810620.1,bus2=BMT149811503.1,Phases=1,LineCode=tieSwitch1,Length=0.001,Units=km,switch=T !numEQ 304045
new line.CTR850054 bus1=BMT149860706.3,bus2=BMT168264005.3,Phases=1,LineCode=tieSwitch1,Length=0.001,Units=km,switch=T !numEQ 372817
new line.CTR850070 bus1=BMT149863459.3,bus2=BMT160385588.3,Phases=1,LineCode=tieSwitch1,Length=0.001,Units=km,switch=T !numEQ 372818
new line.CTR850078 bus1=BMT149865390.3,bus2=BMT167779195.3,Phases=1,LineCode=tieSwitch1,Length=0.001,Units=km,switch=T !numEQ 316540
new line.CTR858558 bus1=BMT152401011.1.2.3,bus2=BMT153303149.1.2.3,Phases=3,LineCode=tieSwitch,Length=0.001,Units=km,switch=T !numEQ 101024
new line.CTR858586 bus1=BMT152405844.1.2.3,bus2=BMT170582429.1.2.3,Phases=3,LineCode=tieSwitch,Length=0.001,Units=km,switch=T !numEQ 101023
new line.CTR859726 bus1=BMT152713028.3,bus2=BMT171076873.3,Phases=1,LineCode=tieSwitch1,Length=0.001,Units=km,switch=T !numEQ 376350
new line.CTR881087 bus1=BMT170581456.1.2.3,bus2=BMT161728284.1.2.3,Phases=3,LineCode=tieSwitch,Length=0.001,Units=km,switch=T !numEQ 220914
new line.CTR896406 bus1=BMT165293785.3,bus2=BMT170755853.3,Phases=1,LineCode=tieSwitch1,Length=0.001,Units=km,switch=T !numEQ 252985
new line.CTR896499 bus1=BMT165336727.1.2.3,bus2=BMT165336733.1.2.3,Phases=3,LineCode=tieSwitch,Length=0.001,Units=km,switch=T !numEQ 256954
new line.CTR100365 bus1=BMT122474895.1.2.3,bus2=BMT122478178.1.2.3,Phases=3,LineCode=tieSwitch,Length=0.001,Units=km,switch=T !numEQ 50382
new line.CTR100645 bus1=BMT122483113.3,bus2=BMT170755755.3,Phases=1,LineCode=tieSwitch1,Length=0.001,Units=km,switch=T !numEQ 105990
new line.CTR143121 bus1=BMT122470674.1.2.3,bus2=BMT151336056.1.2.3,Phases=3,LineCode=tieSwitch,Length=0.001,Units=km,switch=T !numEQ 53902
new line.CTR157632 bus1=BMT122471990.1,bus2=BMT170756093.1,Phases=1,LineCode=tieSwitch1,Length=0.001,Units=km,switch=T !numEQ 51011
new line.CTR157702 bus1=BMT120620665.1.2.3,bus2=BMT162359328.1.2.3,Phases=3,LineCode=tieSwitch,Length=0.001,Units=km,switch=T !numEQ 311333
new line.CTR157730 bus1=BMT122482693.1,bus2=BMT122482707.1,Phases=1,LineCode=tieSwitch1,Length=0.001,Units=km,switch=T !numEQ 51037
new line.CTR157779 bus1=BMT122472018.1,bus2=BMT170756120.1,Phases=1,LineCode=tieSwitch1,Length=0.001,Units=km,switch=T !numEQ 51044
new line.CTR157800 bus1=BMT2286563.1.2.3,bus2=BMT120620784.1.2.3,Phases=3,LineCode=tieSwitch,Length=0.001,Units=km,switch=T !numEQ 311280
new line.CTR157940 bus1=BMT122471871.1,bus2=BMT170756127.1,Phases=1,LineCode=tieSwitch1,Length=0.001,Units=km,switch=T !numEQ 51051
new line.CTR158227 bus1=BMT122474888.3,bus2=BMT122479235.3,Phases=1,LineCode=tieSwitch1,Length=0.001,Units=km,switch=T !numEQ 50381
new line.CTR158304 bus1=BMT122474706.3,bus2=BMT154136316.3,Phases=1,LineCode=tieSwitch1,Length=0.001,Units=km,switch=T !numEQ 50889
new line.CTR158710 bus1=BMT122483064.3,bus2=BMT170755866.3,Phases=1,LineCode=tieSwitch1,Length=0.001,Units=km,switch=T !numEQ 50348
new line.CTR158850 bus1=BMT122475441.1.2.3,bus2=BMT166051580.1.2.3,Phases=3,LineCode=tieSwitch,Length=0.001,Units=km,switch=T !numEQ 159038
new line.CTR159130 bus1=BMT122473670.2,bus2=BMT122474034.2,Phases=1,LineCode=tieSwitch1,Length=0.001,Units=km,switch=T !numEQ 50777
new line.CTR22574 bus1=BMT122479865.1,bus2=BMT122479942.1,Phases=1,LineCode=tieSwitch1,Length=0.001,Units=km,switch=T !numEQ 181535
new line.CTR24415 bus1=BMT122476001.3,bus2=BMT122476099.3,Phases=1,LineCode=tieSwitch1,Length=0.001,Units=km,switch=T !numEQ 178628
new line.CTR24457 bus1=BMT122475868.3,bus2=BMT160162291.3,Phases=1,LineCode=tieSwitch1,Length=0.001,Units=km,switch=T !numEQ 178639
new line.CTR244586 bus1=BMT122484142.1,bus2=BMT122484338.1,Phases=1,LineCode=tieSwitch1,Length=0.001,Units=km,switch=T !numEQ 50543
new line.CTR24485 bus1=BMT122477926.3,bus2=BMT122477954.3,Phases=1,LineCode=tieSwitch1,Length=0.001,Units=km,switch=T !numEQ 178643
new line.CTR24492 bus1=BMT122477968.3,bus2=BMT122477989.3,Phases=1,LineCode=tieSwitch1,Length=0.001,Units=km,switch=T !numEQ 178644
new line.CTR24499 bus1=BMT122472424.3,bus2=BMT122474538.3,Phases=1,LineCode=tieSwitch1,Length=0.001,Units=km,switch=T !numEQ 178645
new line.CTR245230 bus1=BMT122479522.1,bus2=BMT122479536.1,Phases=1,LineCode=tieSwitch1,Length=0.001,Units=km,switch=T !numEQ 105078
new line.CTR245244 bus1=BMT122474804.1.2.3,bus2=BMT170904475.1.2.3,Phases=3,LineCode=tieSwitch,Length=0.001,Units=km,switch=T !numEQ 50380
new line.CTR245426 bus1=BMT122472697.2,bus2=BMT122472788.2,Phases=1,LineCode=tieSwitch1,Length=0.001,Units=km,switch=T !numEQ 52584
new line.CTR245440 bus1=BMT122472802.2,bus2=BMT122472830.2,Phases=1,LineCode=tieSwitch1,Length=0.001,Units=km,switch=T !numEQ 51045
new line.CTR245503 bus1=BMT122473019.3,bus2=BMT122473026.3,Phases=1,LineCode=tieSwitch1,Length=0.001,Units=km,switch=T !numEQ 53421
new line.CTR245825 bus1=BMT122471654.1.2.3,bus2=BMT171612954.1.2.3,Phases=3,LineCode=tieSwitch,Length=0.001,Units=km,switch=T !numEQ 50355
new line.CTR245832 bus1=BMT122471668.2,bus2=BMT122482945.2,Phases=1,LineCode=tieSwitch1,Length=0.001,Units=km,switch=T !numEQ 50356