new line.RML10033486 bus1=BBT1049467.3.0,bus2=RML1060033486.3.0,Phases=1,Linecode=CABBTG02_4_1,Length=0.017000000,Units=km
new line.RML10033493 bus1=BBT3618789.2.0,bus2=RML1060033493.2.0,Phases=1,Linecode=CABBTG02_4_1,Length=0.017000000,Units=km
new line.RML10040822 bus1=BBT1049908.1.0,bus2=RML1060040822.1.0,Phases=1,Linecode=CABBTG01_4_1,Length=0.017000000,Units=km
new line.RML10040833 bus1=BBT3618775.1.2.0,bus2=RML1060040833.1.2.0,Phases=2,Linecode=CABBTG05_4_2,Length=0.017000000,Units=km
new line.RML10042229 bus1=BBT148287659.1.2.0,bus2=RML1060042229.1.2.0,Phases=2,Linecode=CABBTG05_4_2,Length=0.017000000,Units=km
new line.RML10046903 bus1=BBT148388427.1.2.0,bus2=RML1060046903.1.2.0,Phases=2,Linecode=CABBTG05_4_2,Length=0.017000000,Units=km
new line.RML10048000 bus1=BBT148401378.1.2.0,bus2=RML1060048000.1.2.0,Phases=2,Linecode=CABBTG05_4_2,Length=0.017000000,Units=km
new line.RML10051367 bus1=BBT148480485.1.2.0,bus2=RML1060051367.1.2.0,Phases=2,Linecode=CABBTG05_4_2,Length=0.017000000,Units=km
new line.RML10051426 bus1=BBT148482331.1.2.0,bus2=RML1060051426.1.2.0,Phases=2,Linecode=CABBTG05_4_2,Length=0.017000000,Units=km
new line.RML10051522 bus1=BBT148484917.1.2.0,bus2=RML1060051522.1.2.0,Phases=2,Linecode=CABBTG05_4_2,Length=0.017000000,Units=km
new line.RML10056180 bus1=BBT1050132.3.0,bus2=RML1060056180.3.0,Phases=1,Linecode=CABBTG01_4_1,Length=0.017000000,Units=km
new line.RML10056344 bus1=BBT1048396.1.2.0,bus2=RML1060056344.1.2.0,Phases=2,Linecode=CABBTG05_4_2,Length=0.017000000,Units=km
new line.RML10057731 bus1=BBT3618789.2.0,bus2=RML1060057731.2.0,Phases=1,Linecode=CABBTG01_4_1,Length=0.017000000,Units=km
new line.RML10059733 bus1=BBT146362255.1.2.0,bus2=RML1060059733.1.2.0,Phases=2,Linecode=CABBTG05_4_2,Length=0.017000000,Units=km
new line.RML10067644 bus1=BBT5731914.1.0,bus2=RML1060067644.1.0,Phases=1,Linecode=CABBTG02_4_1,Length=0.017000000,Units=km
new line.RML10067647 bus1=BBT1049768.1.0,bus2=RML1060067647.1.0,Phases=1,Linecode=CABBTG02_4_1,Length=0.017000000,Units=km
new line.RML10067728 bus1=BBT6603295.3.0,bus2=RML1060067728.3.0,Phases=1,Linecode=CABBTG01_4_1,Length=0.017000000,Units=km
new line.RML10067729 bus1=BBT1047381.3.0,bus2=RML1060067729.3.0,Phases=1,Linecode=CABBTG01_4_1,Length=0.017000000,Units=km
new line.RML10067731 bus1=BBT1051322.3.0,bus2=RML1060067731.3.0,Phases=1,Linecode=CABBTG01_4_1,Length=0.017000000,Units=km
new line.RML10067732 bus1=BBT146726549.2.0,bus2=RML1060067732.2.0,Phases=1,Linecode=CABBTG01_4_1,Length=0.017000000,Units=km
new line.RML10067733 bus1=BBT115831524.3.0,bus2=RML1060067733.3.0,Phases=1,Linecode=CABBTG01_4_1,Length=0.017000000,Units=km
new line.RML10067734 bus1=BBT1050321.1.0,bus2=RML1060067734.1.0,Phases=1,Linecode=CABBTG01_4_1,Length=0.017000000,Units=km
new line.RML10067735 bus1=BBT2594626.3.0,bus2=RML1060067735.3.0,Phases=1,Linecode=CABBTG01_4_1,Length=0.017000000,Units=km
new line.RML10067736 bus1=BBT1048368.1.0,bus2=RML1060067736.1.0,Phases=1,Linecode=CABBTG01_4_1,Length=0.017000000,Units=km
new line.RML10067737 bus1=BBT1048053.3.0,bus2=RML1060067737.3.0,Phases=1,Linecode=CABBTG01_4_1,Length=0.017000000,Units=km
new line.RML10067873 bus1=BBT1046268.1.0,bus2=RML1060067873.1.0,Phases=1,Linecode=CABBTG02_4_1,Length=0.017000000,Units=km
new line.RML10067874 bus1=BBT1048270.2.0,bus2=RML1060067874.2.0,Phases=1,Linecode=CABBTG02_4_1,Length=0.017000000,Units=km
new line.RML10067875 bus1=BBT1051021.2.0,bus2=RML1060067875.2.0,Phases=1,Linecode=CABBTG02_4_1,Length=0.017000000,Units=km
new line.RML10067876 bus1=BBT1047717.3.0,bus2=RML1060067876.3.0,Phases=1,Linecode=CABBTG02_4_1,Length=0.017000000,Units=km
new line.RML10072487 bus1=BBT1213428.1.2.0,bus2=RML1060072487.1.2.0,Phases=2,Linecode=CABBTG05_4_2,Length=0.017000000,Units=km
new line.RML10075568 bus1=BBT6345247.1.2.0,bus2=RML1060075568.1.2.0,Phases=2,Linecode=CABBTG05_4_2,Length=0.017000000,Units=km
new line.RML10090260 bus1=BBT1047857.1.0,bus2=RML1060090260.1.0,Phases=1,Linecode=CABBTG01_4_1,Length=0.017000000,Units=km
new line.RML10102852 bus1=BBT1054493.1.2.0,bus2=RML1060102852.1.2.0,Phases=2,Linecode=CABBTG05_4_2,Length=0.017000000,Units=km
new line.RML10102907 bus1=BBT3619041.1.2.0,bus2=RML1060102907.1.2.0,Phases=2,Linecode=CABBTG05_4_2,Length=0.017000000,Units=km
new line.RML10102919 bus1=BBT148674436.1.2.0,bus2=RML1060102919.1.2.0,Phases=2,Linecode=CABBTG05_4_2,Length=0.017000000,Units=km
new line.RML10109030 bus1=BBT3618775.1.2.0,bus2=RML1060109030.1.2.0,Phases=2,Linecode=CABBTG04_4_2,Length=0.017000000,Units=km
new line.RML10114267 bus1=BBT115841863.1.0,bus2=RML1060114267.1.0,Phases=1,Linecode=CABBTG02_4_1,Length=0.010000000,Units=km
new line.RML10121990 bus1=BBT1049404.1.0,bus2=RML1060121990.1.0,Phases=1,Linecode=CABBTG02_4_1,Length=0.017000000,Units=km
new line.RML10121999 bus1=BBT1050377.1.0,bus2=RML1060121999.1.0,Phases=1,Linecode=CABBTG01_4_1,Length=0.017000000,Units=km
new line.RML10123734 bus1=BBT1048361.3.0,bus2=RML1060123734.3.0,Phases=1,Linecode=CABBTG01_4_1,Length=0.017000000,Units=km
new line.RML10128095 bus1=BBT149433186.1.2.0,bus2=RML1060128095.1.2.0,Phases=2,Linecode=CABBTG05_4_2,Length=0.017000000,Units=km
new line.RML10141419 bus1=BBT148482331.1.2.0,bus2=RML1060141419.1.2.0,Phases=2,Linecode=CABBTG05_4_2,Length=0.017000000,Units=km
new line.RML10152677 bus1=BBT1046849.1.0,bus2=RML1060152677.1.0,Phases=1,Linecode=CABBTG01_4_1,Length=0.017000000,Units=km
new line.RML10152906 bus1=BBT1049614.1.2.3.0,bus2=RML1060152906.1.2.3.0,Phases=3,Linecode=CABBTG06_4_3,Length=0.017000000,Units=km
new line.RML10152913 bus1=BBT115830586.1.0,bus2=RML1060152913.1.0,Phases=1,Linecode=CABBTG02_4_1,Length=0.017000000,Units=km
new line.RML10152919 bus1=BBT115834877.2.0,bus2=RML1060152919.2.0,Phases=1,Linecode=CABBTG02_4_1,Length=0.017000000,Units=km
new line.RML10152924 bus1=BBT1046212.1.2.0,bus2=RML1060152924.1.2.0,Phases=2,Linecode=CABBTG05_4_2,Length=0.017000000,Units=km
new line.RML10152925 bus1=BBT3618782.1.2.0,bus2=RML1060152925.1.2.0,Phases=2,Linecode=CABBTG05_4_2,Length=0.017000000,Units=km
new line.RML10152948 bus1=BBT1048277.2.0,bus2=RML1060152948.2.0,Phases=1,Linecode=CABBTG02_4_1,Length=0.017000000,Units=km
new line.RML10168837 bus1=BBT149865043.1.2.0,bus2=RML1060168837.1.2.0,Phases=2,Linecode=CABBTG05_4_2,Length=0.017000000,Units=km
new line.RML10168840 bus1=BBT149865646.1.2.0,bus2=RML1060168840.1.2.0,Phases=2,Linecode=CABBTG05_4_2,Length=0.017000000,Units=km
new line.RML10168860 bus1=BBT149758230.1.2.0,bus2=RML1060168860.1.2.0,Phases=2,Linecode=CABBTG05_4_2,Length=0.017000000,Units=km
new line.RML10168871 bus1=BBT149864586.1.2.0,bus2=RML1060168871.1.2.0,Phases=2,Linecode=CABBTG05_4_2,Length=0.017000000,Units=km
new line.RML10168878 bus1=BBT149862702.1.2.0,bus2=RML1060168878.1.2.0,Phases=2,Linecode=CABBTG05_4_2,Length=0.017000000,Units=km
new line.RML10168881 bus1=BBT149864586.1.2.0,bus2=RML1060168881.1.2.0,Phases=2,Linecode=CABBTG05_4_2,Length=0.017000000,Units=km
new line.RML10168884 bus1=BBT149863103.1.2.0,bus2=RML1060168884.1.2.0,Phases=2,Linecode=CABBTG05_4_2,Length=0.017000000,Units=km
new line.RML10178205 bus1=BBT3618761.1.2.0,bus2=RML1060178205.1.2.0,Phases=2,Linecode=CABBTG05_4_2,Length=0.017000000,Units=km
new line.RML10178209 bus1=BBT3618845.1.2.0,bus2=RML1060178209.1.2.0,Phases=2,Linecode=CABBTG05_4_2,Length=0.017000000,Units=km
new line.RML10178214 bus1=BBT3619027.1.0,bus2=RML1060178214.1.0,Phases=1,Linecode=CABBTG02_4_1,Length=0.017000000,Units=km
new line.RML10178320 bus1=BBT3618047.1.2.3.0,bus2=RML1060178320.1.2.3.0,Phases=3,Linecode=CABBTG06_4_3,Length=0.017000000,Units=km
new line.RML10178327 bus1=BBT1054437.1.2.3.0,bus2=RML1060178327.1.2.3.0,Phases=3,Linecode=CABBTG06_4_3,Length=0.017000000,Units=km
new line.RML10178329 bus1=BBT1054444.1.2.3.0,bus2=RML1060178329.1.2.3.0,Phases=3,Linecode=CABBTG06_4_3,Length=0.017000000,Units=km
new line.RML10178543 bus1=BBT1049579.3.0,bus2=RML1060178543.3.0,Phases=1,Linecode=CABBTG02_4_1,Length=0.017000000,Units=km
new line.RML10178545 bus1=BBT1049432.2.0,bus2=RML1060178545.2.0,Phases=1,Linecode=CABBTG02_4_1,Length=0.017000000,Units=km
new line.RML10178548 bus1=BBT1049390.2.0,bus2=RML1060178548.2.0,Phases=1,Linecode=CABBTG02_4_1,Length=0.017000000,Units=km
new line.RML10178552 bus1=BBT2216598.2.0,bus2=RML1060178552.2.0,Phases=1,Linecode=CABBTG02_4_1,Length=0.017000000,Units=km
new line.RML10178553 bus1=BBT1049775.2.0,bus2=RML1060178553.2.0,Phases=1,Linecode=CABBTG02_4_1,Length=0.017000000,Units=km
new line.RML10178555 bus1=BBT1049663.2.0,bus2=RML1060178555.2.0,Phases=1,Linecode=CABBTG02_4_1,Length=0.017000000,Units=km
new line.RML10178558 bus1=BBT1049908.1.0,bus2=RML1060178558.1.0,Phases=1,Linecode=CABBTG02_4_1,Length=0.017000000,Units=km
new line.RML10178561 bus1=BBT1049929.1.0,bus2=RML1060178561.1.0,Phases=1,Linecode=CABBTG02_4_1,Length=0.017000000,Units=km
new line.RML10178562 bus1=BBT1049985.1.0,bus2=RML1060178562.1.0,Phases=1,Linecode=CABBTG02_4_1,Length=0.017000000,Units=km
new line.RML10178830 bus1=BBT146726556.1.0,bus2=RML1060178830.1.0,Phases=1,Linecode=CABBTG02_4_1,Length=0.017000000,Units=km
new line.RML10178831 bus1=BBT146726556.1.0,bus2=RML1060178831.1.0,Phases=1,Linecode=CABBTG02_4_1,Length=0.017000000,Units=km
new line.RML10178832 bus1=BBT146726556.3.0,bus2=RML1060178832.3.0,Phases=1,Linecode=CABBTG02_4_1,Length=0.017000000,Units=km
new line.RML10178833 bus1=BBT146726549.2.0,bus2=RML1060178833.2.0,Phases=1,Linecode=CABBTG02_4_1,Length=0.017000000,Units=km
new line.RML10178835 bus1=BBT1046289.1.2.3.0,bus2=RML1060178835.1.2.3.0,Phases=3,Linecode=CABBTG06_4_3,Length=0.017000000,Units=km
new line.RML10178846 bus1=BBT1050909.1.2.0,bus2=RML1060178846.1.2.0,Phases=2,Linecode=CABBTG05_4_2,Length=0.017000000,Units=km
new line.RML10178848 bus1=BBT1050909.1.2.0,bus2=RML1060178848.1.2.0,Phases=2,Linecode=CABBTG05_4_2,Length=0.017000000,Units=km
new line.RML10178853 bus1=BBT1046331.1.0,bus2=RML1060178853.1.0,Phases=1,Linecode=CABBTG02_4_1,Length=0.017000000,Units=km
new line.RML10178861 bus1=BBT1051266.1.2.0,bus2=RML1060178861.1.2.0,Phases=2,Linecode=CABBTG05_4_2,Length=0.017000000,Units=km
new line.RML10178865 bus1=BBT1047122.3.0,bus2=RML1060178865.3.0,Phases=1,Linecode=CABBTG02_4_1,Length=0.017000000,Units=km
new line.RML10178869 bus1=BBT1048375.2.3.0,bus2=RML1060178869.2.3.0,Phases=2,Linecode=CABBTG05_4_2,Length=0.017000000,Units=km
new line.RML10178870 bus1=BBT1047934.3.0,bus2=RML1060178870.3.0,Phases=1,Linecode=CABBTG02_4_1,Length=0.017000000,Units=km
new line.RML10178873 bus1=BBT1220057.3.0,bus2=RML1060178873.3.0,Phases=1,Linecode=CABBTG02_4_1,Length=0.017000000,Units=km
new line.RML10178884 bus1=BBT1047941.2.3.0,bus2=RML1060178884.2.3.0,Phases=2,Linecode=CABBTG05_4_2,Length=0.017000000,Units=km
new line.RML10179382 bus1=BBT2623851.2.0,bus2=RML1060179382.2.0,Phases=1,Linecode=CABBTG02_4_1,Length=0.017000000,Units=km
new line.RML10191498 bus1=BBT1174697.1.2.0,bus2=RML1060191498.1.2.0,Phases=2,Linecode=CABBTG05_4_2,Length=0.017000000,Units=km
new line.RML10191504 bus1=BBT1147096.1.2.0,bus2=RML1060191504.1.2.0,Phases=2,Linecode=CABBTG05_4_2,Length=0.017000000,Units=km
new line.RML10195649 bus1=BBT1049754.1.2.3.0,bus2=RML1060195649.1.2.3.0,Phases=3,Linecode=CABBTG06_4_3,Length=0.017000000,Units=km
new line.RML10195657 bus1=BBT1054479.1.2.0,bus2=RML1060195657.1.2.0,Phases=2,Linecode=CABBTG05_4_2,Length=0.017000000,Units=km
new line.RML10195799 bus1=BBT1049656.1.0,bus2=RML1060195799.1.0,Phases=1,Linecode=CABBTG02_4_1,Length=0.017000000,Units=km
new line.RML10195810 bus1=BBT1050909.1.0,bus2=RML1060195810.1.0,Phases=1,Linecode=CABBTG01_4_1,Length=0.017000000,Units=km
new line.RML10196209 bus1=BBT1058203.1.0,bus2=RML1060196209.1.0,Phases=1,Linecode=CABBTG02_4_1,Length=0.017000000,Units=km
new line.RML10196762 bus1=BBT1060464.1.0,bus2=RML1060196762.1.0,Phases=1,Linecode=CABBTG02_4_1,Length=0.017000000,Units=km
new line.RML10196773 bus1=BBT1052470.1.0,bus2=RML1060196773.1.0,Phases=1,Linecode=CABBTG02_4_1,Length=0.017000000,Units=km
new line.RML10196794 bus1=BBT1048333.2.0,bus2=RML1060196794.2.0,Phases=1,Linecode=CABBTG02_4_1,Length=0.017000000,Units=km
new line.RML10197027 bus1=BBT1048536.1.2.3.0,bus2=RML1060197027.1.2.3.0,Phases=3,Linecode=CABBTG06_4_3,Length=0.017000000,Units=km
new line.RML10197175 bus1=BBT1048179.1.0,bus2=RML1060197175.1.0,Phases=1,Linecode=CABBTG02_4_1,Length=0.017000000,Units=km
new line.RML10197295 bus1=BBT3618012.1.2.0,bus2=RML1060197295.1.2.0,Phases=2,Linecode=CABBTG05_4_2,Length=0.017000000,Units=km
new line.RML10197461 bus1=BBT1146690.2.0,bus2=RML1060197461.2.0,Phases=1,Linecode=CABBTG02_4_1,Length=0.017000000,Units=km
new line.RML10204941 bus1=BBT150035078.1.2.0,bus2=RML1060204941.1.2.0,Phases=2,Linecode=CABBTG05_4_2,Length=0.017000000,Units=km
new line.RML10218661 bus1=BBT115835864.1.0,bus2=RML1060218661.1.0,Phases=1,Linecode=CABBTG02_4_1,Length=0.017000000,Units=km
new line.RML10218862 bus1=BBT115824293.1.0,bus2=RML1060218862.1.0,Phases=1,Linecode=CABBTG02_4_1,Length=0.017000000,Units=km
new line.RML10223643 bus1=BBT150889360.1.2.0,bus2=RML1060223643.1.2.0,Phases=2,Linecode=CABBTG05_4_2,Length=0.017000000,Units=km
new line.RML10223645 bus1=BBT150891122.1.2.0,bus2=RML1060223645.1.2.0,Phases=2,Linecode=CABBTG05_4_2,Length=0.017000000,Units=km
new line.RML10223647 bus1=BBT150891228.1.2.0,bus2=RML1060223647.1.2.0,Phases=2,Linecode=CABBTG05_4_2,Length=0.017000000,Units=km
new line.RML10223649 bus1=BBT150889088.1.2.0,bus2=RML1060223649.1.2.0,Phases=2,Linecode=CABBTG05_4_2,Length=0.017000000,Units=km
new line.RML10223653 bus1=BBT150889012.1.2.0,bus2=RML1060223653.1.2.0,Phases=2,Linecode=CABBTG05_4_2,Length=0.017000000,Units=km
new line.RML10223654 bus1=BBT150891678.1.2.0,bus2=RML1060223654.1.2.0,Phases=2,Linecode=CABBTG05_4_2,Length=0.017000000,Units=km
new line.RML10223656 bus1=BBT150888862.1.2.0,bus2=RML1060223656.1.2.0,Phases=2,Linecode=CABBTG05_4_2,Length=0.017000000,Units=km
new line.RML10223658 bus1=BBT150888862.1.2.0,bus2=RML1060223658.1.2.0,Phases=2,Linecode=CABBTG05_4_2,Length=0.017000000,Units=km
new line.RML10223686 bus1=BBT150888828.1.2.0,bus2=RML1060223686.1.2.0,Phases=2,Linecode=CABBTG05_4_2,Length=0.017000000,Units=km
new line.RML10223688 bus1=BBT150888712.1.2.0,bus2=RML1060223688.1.2.0,Phases=2,Linecode=CABBTG05_4_2,Length=0.017000000,Units=km
new line.RML10223690 bus1=BBT150888712.1.2.0,bus2=RML1060223690.1.2.0,Phases=2,Linecode=CABBTG05_4_2,Length=0.017000000,Units=km
new line.RML10224564 bus1=BBT1046394.2.0,bus2=RML1060224564.2.0,Phases=1,Linecode=CABBTG02_4_1,Length=0.017000000,Units=km
new line.RML10224568 bus1=BBT1046394.2.0,bus2=RML1060224568.2.0,Phases=1,Linecode=CABBTG02_4_1,Length=0.017000000,Units=km
new line.RML10224883 bus1=BBT3090338.1.0,bus2=RML1060224883.1.0,Phases=1,Linecode=CABBTG02_4_1,Length=0.017000000,Units=km
new line.RML10225292 bus1=BBT3618796.2.0,bus2=RML1060225292.2.0,Phases=1,Linecode=CABBTG01_4_1,Length=0.017000000,Units=km
new line.RML10237060 bus1=BBT151038093.1.2.0,bus2=RML1060237060.1.2.0,Phases=2,Linecode=CABBTG13_4_2,Length=0.017000000,Units=km
new line.RML10246553 bus1=BBT148673893.1.2.0,bus2=RML1060246553.1.2.0,Phases=2,Linecode=CABBTG04_4_2,Length=0.017000000,Units=km
new line.RML10246747 bus1=BBT1048277.1.0,bus2=RML1060246747.1.0,Phases=1,Linecode=CABBTG02_4_1,Length=0.017000000,Units=km
new line.RML10246775 bus1=BBT3618824.1.2.0,bus2=RML1060246775.1.2.0,Phases=2,Linecode=CABBTG05_4_2,Length=0.017000000,Units=km
new line.RML10250392 bus1=BBT150468398.1.2.0,bus2=RML1060250392.1.2.0,Phases=2,Linecode=CABBTG05_4_2,Length=0.017000000,Units=km
new line.RML10259692 bus1=BBT151316126.1.2.0,bus2=RML1060259692.1.2.0,Phases=2,Linecode=CABBTG05_4_2,Length=0.017000000,Units=km
new line.RML10260120 bus1=BBT5731914.1.2.0,bus2=RML1060260120.1.2.0,Phases=2,Linecode=CABBTG05_4_2,Length=0.017000000,Units=km
new line.RML10260134 bus1=BBT1049446.1.0,bus2=RML1060260134.1.0,Phases=1,Linecode=CABBTG02_4_1,Length=0.017000000,Units=km
new line.RML10260159 bus1=BBT1049432.2.0,bus2=RML1060260159.2.0,Phases=1,Linecode=CABBTG02_4_1,Length=0.017000000,Units=km
new line.RML10263406 bus1=BBT115834877.1.0,bus2=RML1060263406.1.0,Phases=1,Linecode=CABBTG02_4_1,Length=0.017000000,Units=km
new line.RML10263432 bus1=BBT1046968.1.0,bus2=RML1060263432.1.0,Phases=1,Linecode=CABBTG02_4_1,Length=0.017000000,Units=km
new line.RML10263478 bus1=BBT1048179.2.3.0,bus2=RML1060263478.2.3.0,Phases=2,Linecode=CABBTG05_4_2,Length=0.017000000,Units=km
new line.RML10263501 bus1=BBT1048291.3.0,bus2=RML1060263501.3.0,Phases=1,Linecode=CABBTG01_4_1,Length=0.017000000,Units=km
new line.RML10266255 bus1=BBT150972767.1.2.3.0,bus2=RML1060266255.1.2.3.0,Phases=3,Linecode=CABBTG06_4_3,Length=0.017000000,Units=km
new line.RML10266299 bus1=BBT3618138.2.0,bus2=RML1060266299.2.0,Phases=1,Linecode=CABBTG02_4_1,Length=0.017000000,Units=km
new line.RML10266339 bus1=BBT150972088.1.2.0,bus2=RML1060266339.1.2.0,Phases=2,Linecode=CABBTG05_4_2,Length=0.017000000,Units=km
new line.RML10267884 bus1=BBT151334403.2.0,bus2=RML1060267884.2.0,Phases=1,Linecode=CABBTG02_4_1,Length=0.017000000,Units=km
new line.RML10267886 bus1=BBT151334406.3.0,bus2=RML1060267886.3.0,Phases=1,Linecode=CABBTG02_4_1,Length=0.017000000,Units=km
new line.RML10267887 bus1=BBT151334265.1.0,bus2=RML1060267887.1.0,Phases=1,Linecode=CABBTG02_4_1,Length=0.017000000,Units=km
new line.RML10267889 bus1=BBT151336415.1.0,bus2=RML1060267889.1.0,Phases=1,Linecode=CABBTG01_4_1,Length=0.017000000,Units=km
new line.RML10267890 bus1=BBT151332367.1.0,bus2=RML1060267890.1.0,Phases=1,Linecode=CABBTG01_4_1,Length=0.017000000,Units=km
new line.RML10267892 bus1=BBT151336415.2.0,bus2=RML1060267892.2.0,Phases=1,Linecode=CABBTG01_4_1,Length=0.017000000,Units=km
new line.RML10267894 bus1=BBT151334265.3.0,bus2=RML1060267894.3.0,Phases=1,Linecode=CABBTG02_4_1,Length=0.017000000,Units=km
new line.RML10267895 bus1=BBT151332517.1.0,bus2=RML1060267895.1.0,Phases=1,Linecode=CABBTG02_4_1,Length=0.017000000,Units=km
new line.RML10267897 bus1=BBT151334202.3.0,bus2=RML1060267897.3.0,Phases=1,Linecode=CABBTG02_4_1,Length=0.017000000,Units=km
new line.RML10267899 bus1=BBT151334266.1.0,bus2=RML1060267899.1.0,Phases=1,Linecode=CABBTG02_4_1,Length=0.017000000,Units=km
new line.RML10267901 bus1=BBT151330466.3.0,bus2=RML1060267901.3.0,Phases=1,Linecode=CABBTG02_4_1,Length=0.017000000,Units=km
new line.RML10267902 bus1=BBT151332791.1.0,bus2=RML1060267902.1.0,Phases=1,Linecode=CABBTG02_4_1,Length=0.017000000,Units=km
new line.RML10267905 bus1=BBT151332792.2.0,bus2=RML1060267905.2.0,Phases=1,Linecode=CABBTG01_4_1,Length=0.017000000,Units=km
new line.RML10267906 bus1=BBT151332849.3.0,bus2=RML1060267906.3.0,Phases=1,Linecode=CABBTG02_4_1,Length=0.017000000,Units=km
new line.RML10267908 bus1=BBT151336668.2.0,bus2=RML1060267908.2.0,Phases=1,Linecode=CABBTG02_4_1,Length=0.017000000,Units=km
new line.RML10267909 bus1=BBT151336646.1.0,bus2=RML1060267909.1.0,Phases=1,Linecode=CABBTG01_4_1,Length=0.017000000,Units=km
new line.RML10267911 bus1=BBT151336646.2.0,bus2=RML1060267911.2.0,Phases=1,Linecode=CABBTG01_4_1,Length=0.017000000,Units=km
new line.RML10267912 bus1=BBT151336647.2.0,bus2=RML1060267912.2.0,Phases=1,Linecode=CABBTG01_4_1,Length=0.017000000,Units=km
new line.RML10278884 bus1=BBT151619243.1.2.0,bus2=RML1060278884.1.2.0,Phases=2,Linecode=CABBTG05_4_2,Length=0.017000000,Units=km
new line.RML10284592 bus1=BBT6603288.1.0,bus2=RML1060284592.1.0,Phases=1,Linecode=CABBTG02_4_1,Length=0.017000000,Units=km
new line.RML10284620 bus1=BBT151336647.3.0,bus2=RML1060284620.3.0,Phases=1,Linecode=CABBTG02_4_1,Length=0.017000000,Units=km
new line.RML10285201 bus1=BBT149811556.1.2.0,bus2=RML1060285201.1.2.0,Phases=2,Linecode=CABBTG05_4_2,Length=0.017000000,Units=km
new line.RML10285205 bus1=BBT149811019.1.2.0,bus2=RML1060285205.1.2.0,Phases=2,Linecode=CABBTG05_4_2,Length=0.017000000,Units=km
new line.RML10286184 bus1=BBT151683629.1.2.0,bus2=RML1060286184.1.2.0,Phases=2,Linecode=CABBTG05_4_2,Length=0.017000000,Units=km
new line.RML10287382 bus1=BBT115835864.2.0,bus2=RML1060287382.2.0,Phases=1,Linecode=CABBTG01_4_1,Length=0.017000000,Units=km
new line.RML10315095 bus1=BBT151332350.1.0,bus2=RML1060315095.1.0,Phases=1,Linecode=CABBTG02_4_1,Length=0.017000000,Units=km
new line.RML10315138 bus1=BBT151334265.1.0,bus2=RML1060315138.1.0,Phases=1,Linecode=CABBTG02_4_1,Length=0.017000000,Units=km
new line.RML10315145 bus1=BBT151334265.1.0,bus2=RML1060315145.1.0,Phases=1,Linecode=CABBTG02_4_1,Length=0.017000000,Units=km
new line.RML10315152 bus1=BBT1047710.1.0,bus2=RML1060315152.1.0,Phases=1,Linecode=CABBTG02_4_1,Length=0.017000000,Units=km
new line.RML10315153 bus1=BBT151332791.3.0,bus2=RML1060315153.3.0,Phases=1,Linecode=CABBTG02_4_1,Length=0.017000000,Units=km
new line.RML10318190 bus1=BBT151330481.1.0,bus2=RML1060318190.1.0,Phases=1,Linecode=CABBTG02_4_1,Length=0.017000000,Units=km
new line.RML10318264 bus1=BBT151334266.2.0,bus2=RML1060318264.2.0,Phases=1,Linecode=CABBTG02_4_1,Length=0.017000000,Units=km
new line.RML10318309 bus1=BBT151331240.1.0,bus2=RML1060318309.1.0,Phases=1,Linecode=CABBTG02_4_1,Length=0.017000000,Units=km
new line.RML10318313 bus1=BBT151332791.1.0,bus2=RML1060318313.1.0,Phases=1,Linecode=CABBTG02_4_1,Length=0.017000000,Units=km
new line.RML10318315 bus1=BBT151332791.1.0,bus2=RML1060318315.1.0,Phases=1,Linecode=CABBTG02_4_1,Length=0.017000000,Units=km
new line.RML10318319 bus1=BBT151336633.1.0,bus2=RML1060318319.1.0,Phases=1,Linecode=CABBTG02_4_1,Length=0.017000000,Units=km
new line.RML10318322 bus1=BBT151336633.1.0,bus2=RML1060318322.1.0,Phases=1,Linecode=CABBTG02_4_1,Length=0.017000000,Units=km
new line.RML10318338 bus1=BBT151332849.2.0,bus2=RML1060318338.2.0,Phases=1,Linecode=CABBTG02_4_1,Length=0.017000000,Units=km
new line.RML10318346 bus1=BBT151334264.2.0,bus2=RML1060318346.2.0,Phases=1,Linecode=CABBTG02_4_1,Length=0.017000000,Units=km
new line.RML10318351 bus1=BBT151334403.1.0,bus2=RML1060318351.1.0,Phases=1,Linecode=CABBTG02_4_1,Length=0.017000000,Units=km
new line.RML10318360 bus1=BBT151336428.3.0,bus2=RML1060318360.3.0,Phases=1,Linecode=CABBTG02_4_1,Length=0.017000000,Units=km
new line.RML10318366 bus1=BBT151334406.1.0,bus2=RML1060318366.1.0,Phases=1,Linecode=CABBTG02_4_1,Length=0.017000000,Units=km
new line.RML10318377 bus1=BBT151330466.2.0,bus2=RML1060318377.2.0,Phases=1,Linecode=CABBTG02_4_1,Length=0.017000000,Units=km
new line.RML10318388 bus1=BBT151332517.2.0,bus2=RML1060318388.2.0,Phases=1,Linecode=CABBTG02_4_1,Length=0.017000000,Units=km
new line.RML10318407 bus1=BBT151334266.2.0,bus2=RML1060318407.2.0,Phases=1,Linecode=CABBTG02_4_1,Length=0.017000000,Units=km
new line.RML10318531 bus1=BBT1048284.3.0,bus2=RML1060318531.3.0,Phases=1,Linecode=CABBTG02_4_1,Length=0.017000000,Units=km
new line.RML10329651 bus1=BBT151332792.1.0,bus2=RML1060329651.1.0,Phases=1,Linecode=CABBTG02_4_1,Length=0.017000000,Units=km
new line.RML10336457 bus1=BBT1050174.2.0,bus2=RML1060336457.2.0,Phases=1,Linecode=CABBTG02_4_1,Length=0.017000000,Units=km
new line.RML10336474 bus1=BBT3618908.1.2.0,bus2=RML1060336474.1.2.0,Phases=2,Linecode=CABBTG05_4_2,Length=0.017000000,Units=km
new line.RML10336486 bus1=BBT151332519.1.0,bus2=RML1060336486.1.0,Phases=1,Linecode=CABBTG02_4_1,Length=0.017000000,Units=km
new line.RML10337280 bus1=BBT151336440.1.0,bus2=RML1060337280.1.0,Phases=1,Linecode=CABBTG02_4_1,Length=0.017000000,Units=km
new line.RML10337413 bus1=BBT151334264.2.0,bus2=RML1060337413.2.0,Phases=1,Linecode=CABBTG02_4_1,Length=0.017000000,Units=km
new line.RML10337418 bus1=BBT151336433.2.0,bus2=RML1060337418.2.0,Phases=1,Linecode=CABBTG02_4_1,Length=0.017000000,Units=km
new line.RML10337435 bus1=BBT151334406.1.2.0,bus2=RML1060337435.1.2.0,Phases=2,Linecode=CABBTG05_4_2,Length=0.017000000,Units=km
new line.RML10337466 bus1=BBT151332517.3.0,bus2=RML1060337466.3.0,Phases=1,Linecode=CABBTG02_4_1,Length=0.017000000,Units=km
new line.RML10339174 bus1=BBT151332367.3.0,bus2=RML1060339174.3.0,Phases=1,Linecode=CABBTG02_4_1,Length=0.017000000,Units=km
new line.RML10339176 bus1=BBT1046513.2.0,bus2=RML1060339176.2.0,Phases=1,Linecode=CABBTG01_4_1,Length=0.017000000,Units=km
new line.RML10339180 bus1=BBT151330697.3.0,bus2=RML1060339180.3.0,Phases=1,Linecode=CABBTG02_4_1,Length=0.017000000,Units=km
new line.RML10339186 bus1=BBT1048011.1.3.0,bus2=RML1060339186.1.3.0,Phases=2,Linecode=CABBTG05_4_2,Length=0.017000000,Units=km
new line.RML10339204 bus1=BBT151336440.1.0,bus2=RML1060339204.1.0,Phases=1,Linecode=CABBTG02_4_1,Length=0.017000000,Units=km
new line.RML10339241 bus1=BBT146726556.2.0,bus2=RML1060339241.2.0,Phases=1,Linecode=CABBTG02_4_1,Length=0.017000000,Units=km
new line.RML10339471 bus1=BBT152403855.2.3.0,bus2=RML1060339471.2.3.0,Phases=2,Linecode=CABBTG05_4_2,Length=0.017000000,Units=km
new line.RML10340369 bus1=BBT148674373.2.0,bus2=RML1060340369.2.0,Phases=1,Linecode=CABBTG01_4_1,Length=0.017000000,Units=km
new line.RML10340950 bus1=BBT152628304.2.3.0,bus2=RML1060340950.2.3.0,Phases=2,Linecode=CABBTG05_4_2,Length=0.017000000,Units=km
new line.RML10340957 bus1=BBT152402663.2.3.0,bus2=RML1060340957.2.3.0,Phases=2,Linecode=CABBTG05_4_2,Length=0.017000000,Units=km
new line.RML10340961 bus1=BBT152628329.2.0,bus2=RML1060340961.2.0,Phases=1,Linecode=CABBTG02_4_1,Length=0.017000000,Units=km
new line.RML10341956 bus1=BBT152404306.3.0,bus2=RML1060341956.3.0,Phases=1,Linecode=CABBTG01_4_1,Length=0.017000000,Units=km
new line.RML10341986 bus1=BBT5422031.1.0,bus2=RML1060341986.1.0,Phases=1,Linecode=CABBTG02_4_1,Length=0.017000000,Units=km
new line.RML10342039 bus1=BBT151332367.2.0,bus2=RML1060342039.2.0,Phases=1,Linecode=CABBTG02_4_1,Length=0.017000000,Units=km
new line.RML10342059 bus1=BBT115834877.1.0,bus2=RML1060342059.1.0,Phases=1,Linecode=CABBTG02_4_1,Length=0.017000000,Units=km
new line.RML10342168 bus1=BBT151332518.2.0,bus2=RML1060342168.2.0,Phases=1,Linecode=CABBTG02_4_1,Length=0.017000000,Units=km
new line.RML10342173 bus1=BBT151332792.1.0,bus2=RML1060342173.1.0,Phases=1,Linecode=CABBTG01_4_1,Length=0.017000000,Units=km
new line.RML10342191 bus1=BBT151334202.1.0,bus2=RML1060342191.1.0,Phases=1,Linecode=CABBTG01_4_1,Length=0.017000000,Units=km
new line.RML10342231 bus1=BBT152625970.2.0,bus2=RML1060342231.2.0,Phases=1,Linecode=CABBTG02_4_1,Length=0.017000000,Units=km
new line.RML10342237 bus1=BBT152625750.1.0,bus2=RML1060342237.1.0,Phases=1,Linecode=CABBTG01_4_1,Length=0.017000000,Units=km
new line.RML10342238 bus1=BBT152625751.1.0,bus2=RML1060342238.1.0,Phases=1,Linecode=CABBTG02_4_1,Length=0.017000000,Units=km
new line.RML10342242 bus1=BBT152625970.1.0,bus2=RML1060342242.1.0,Phases=1,Linecode=CABBTG02_4_1,Length=0.017000000,Units=km
new line.RML10342247 bus1=BBT151334403.2.0,bus2=RML1060342247.2.0,Phases=1,Linecode=CABBTG01_4_1,Length=0.017000000,Units=km
new line.RML10342314 bus1=BBT153295864.3.0,bus2=RML1060342314.3.0,Phases=1,Linecode=CABBTG02_4_1,Length=0.017000000,Units=km
new line.RML10343601 bus1=BBT2623900.1.0,bus2=RML1060343601.1.0,Phases=1,Linecode=CABBTG02_4_1,Length=0.017000000,Units=km
new line.RML10343800 bus1=BBT151332351.2.0,bus2=RML1060343800.2.0,Phases=1,Linecode=CABBTG02_4_1,Length=0.017000000,Units=km
new line.RML10343887 bus1=BBT5724494.2.0,bus2=RML1060343887.2.0,Phases=1,Linecode=CABBTG02_4_1,Length=0.017000000,Units=km
new line.RML10343922 bus1=BBT151334403.1.0,bus2=RML1060343922.1.0,Phases=1,Linecode=CABBTG02_4_1,Length=0.017000000,Units=km
new line.RML10343945 bus1=BBT1050258.1.3.0,bus2=RML1060343945.1.3.0,Phases=2,Linecode=CABBTG05_4_2,Length=0.017000000,Units=km
new line.RML10343948 bus1=BBT151334264.3.0,bus2=RML1060343948.3.0,Phases=1,Linecode=CABBTG02_4_1,Length=0.017000000,Units=km
new line.RML10343950 bus1=BBT3619006.1.2.0,bus2=RML1060343950.1.2.0,Phases=2,Linecode=CABBTG05_4_2,Length=0.017000000,Units=km
new line.RML10344536 bus1=BBT151332335.2.0,bus2=RML1060344536.2.0,Phases=1,Linecode=CABBTG02_4_1,Length=0.017000000,Units=km
new line.RML10344603 bus1=BBT151334202.2.0,bus2=RML1060344603.2.0,Phases=1,Linecode=CABBTG02_4_1,Length=0.017000000,Units=km
new line.RML10354333 bus1=BBT151330698.1.0,bus2=RML1060354333.1.0,Phases=1,Linecode=CABBTG02_4_1,Length=0.017000000,Units=km
new line.RML10356007 bus1=BBT151334265.1.0,bus2=RML1060356007.1.0,Phases=1,Linecode=CABBTG02_4_1,Length=0.017000000,Units=km
new line.RML10356009 bus1=BBT151334266.1.0,bus2=RML1060356009.1.0,Phases=1,Linecode=CABBTG02_4_1,Length=0.017000000,Units=km
new line.RML10356230 bus1=BBT151336213.3.0,bus2=RML1060356230.3.0,Phases=1,Linecode=CABBTG02_4_1,Length=0.017000000,Units=km
new line.RML10356234 bus1=BBT151330698.2.0,bus2=RML1060356234.2.0,Phases=1,Linecode=CABBTG02_4_1,Length=0.017000000,Units=km
new line.RML10356380 bus1=BBT1049600.1.0,bus2=RML1060356380.1.0,Phases=1,Linecode=CABBTG02_4_1,Length=0.017000000,Units=km
new line.RML10356771 bus1=BBT151333447.1.0,bus2=RML1060356771.1.0,Phases=1,Linecode=CABBTG02_4_1,Length=0.017000000,Units=km
new line.RML10356836 bus1=BBT1054416.1.0,bus2=RML1060356836.1.0,Phases=1,Linecode=CABBTG02_4_1,Length=0.017000000,Units=km
new line.RML10357356 bus1=BBT1049446.3.0,bus2=RML1060357356.3.0,Phases=1,Linecode=CABBTG02_4_1,Length=0.017000000,Units=km
new line.RML10357843 bus1=BBT151332518.1.2.0,bus2=RML1060357843.1.2.0,Phases=2,Linecode=CABBTG05_4_2,Length=0.017000000,Units=km
new line.RML10358239 bus1=BBT2595102.2.3.0,bus2=RML1060358239.2.3.0,Phases=2,Linecode=CABBTG05_4_2,Length=0.017000000,Units=km
new line.RML10359241 bus1=BBT151332335.2.0,bus2=RML1060359241.2.0,Phases=1,Linecode=CABBTG02_4_1,Length=0.017000000,Units=km
new line.RML10361064 bus1=BBT1050006.2.0,bus2=RML1060361064.2.0,Phases=1,Linecode=CABBTG02_4_1,Length=0.017000000,Units=km
new line.RML10361561 bus1=BBT1043307.2.3.0,bus2=RML1060361561.2.3.0,Phases=2,Linecode=CABBTG05_4_2,Length=0.017000000,Units=km
new line.RML10361894 bus1=BBT1049670.1.0,bus2=RML1060361894.1.0,Phases=1,Linecode=CABBTG02_4_1,Length=0.017000000,Units=km
new line.RML10366406 bus1=BBT151332335.2.0,bus2=RML1060366406.2.0,Phases=1,Linecode=CABBTG02_4_1,Length=0.017000000,Units=km