new line.TR1213505 bus1=BMT171612955.1.2.3,bus2=BMT5290284B.1.2.3,Phases=3,Linecode=CAB203_3_3,Length=0.138609000,Units=km
new line.TR1213512 bus1=BMT171612957.1,bus2=BMT5290501B.1,Phases=1,Linecode=CAB202_3_1,Length=0.106537000,Units=km
new line.TR1213519 bus1=BMT171612957.1.2.3,bus2=BMT5292517B.1.2.3,Phases=3,Linecode=CAB203_3_3,Length=0.147087000,Units=km
new line.TR1213526 bus1=BMT122471815.1,bus2=BMT170756072.1,Phases=1,Linecode=CAB202_3_1,Length=0.320023000,Units=km
new line.TR1213533 bus1=BMT170756144.1,bus2=BMT5290998B.1,Phases=1,Linecode=CAB202_3_1,Length=0.105100000,Units=km
new line.TR1213540 bus1=BMT171612958.3,bus2=BMT171612959.3,Phases=1,Linecode=CAB102_3_1,Length=0.046968000,Units=km
new line.TR1213547 bus1=BMT171612958.1.2.3,bus2=BMT1890405B.1.2.3,Phases=3,Linecode=CAB203_3_3,Length=0.114262000,Units=km
new line.TR1213554 bus1=BMT1890405B.1.2.3,bus2=BMT122471717.1.2.3,Phases=3,Linecode=CAB203_3_3,Length=0.129478000,Units=km
new line.TR1213561 bus1=BMT122481104.1,bus2=BMT122481111.1,Phases=1,Linecode=CAB202_3_1,Length=0.112186000,Units=km
new line.TR1213568 bus1=BMT122471717.1.2.3,bus2=BMT5331514B.1.2.3,Phases=3,Linecode=CAB203_3_3,Length=0.129478000,Units=km
new line.TR1213575 bus1=BMT122481125.1,bus2=BMT122481132.1,Phases=1,Linecode=CAB202_3_1,Length=0.121486000,Units=km
new line.TR1213582 bus1=BMT122481125.1,bus2=BMT5294204B.1,Phases=1,Linecode=CAB202_3_1,Length=0.118404000,Units=km
new line.TR1213589 bus1=BMT171612960.3,bus2=BMT171612961.3,Phases=1,Linecode=CAB202_3_1,Length=0.101413000,Units=km
new line.TR1213596 bus1=BMT171612960.1.2.3,bus2=BMT5331647B.1.2.3,Phases=3,Linecode=CAB203_3_3,Length=0.129798000,Units=km
new line.TR1213603 bus1=BMT171612962.1,bus2=BMT171612963.1,Phases=1,Linecode=CAB202_3_1,Length=0.075290000,Units=km
new line.TR1213610 bus1=BMT171612962.1.2.3,bus2=BMT1890440B.1.2.3,Phases=3,Linecode=CAB203_3_3,Length=0.149379000,Units=km
new line.TR1213617 bus1=BMT1890440B.1.2.3,bus2=BMT1890447B.1.2.3,Phases=3,Linecode=CAB203_3_3,Length=0.273850000,Units=km
new line.TR1213624 bus1=BMT1890447B.1.2.3,bus2=BMT122471752.1.2.3,Phases=3,Linecode=CAB203_3_3,Length=0.106917000,Units=km
new line.TR1213631 bus1=BMT122471752.3,bus2=BMT5333222B.3,Phases=1,Linecode=CAB202_3_1,Length=0.004474000,Units=km
new line.TR1213638 bus1=BMT122480992.1,bus2=BMT5333362B.1,Phases=1,Linecode=CAB202_3_1,Length=0.113043000,Units=km
new line.TR1213645 bus1=BMT122471752.1.2.3,bus2=BMT5336309B.1.2.3,Phases=3,Linecode=CAB203_3_3,Length=0.117713000,Units=km
new line.TR1213652 bus1=BMT1890461B.1,bus2=BMT5333453B.1,Phases=1,Linecode=CAB202_3_1,Length=0.156051000,Units=km
new line.TR1213659 bus1=BMT171612965.3,bus2=BMT3916226B.3,Phases=1,Linecode=CAB202_3_1,Length=0.172112000,Units=km
new line.TR1213666 bus1=BMT171612965.1.2.3,bus2=BMT5336540B.1.2.3,Phases=3,Linecode=CAB203_3_3,Length=0.086784000,Units=km
new line.TR1213673 bus1=BMT171612967.3,bus2=BMT171612968.3,Phases=1,Linecode=CAB202_3_1,Length=0.147282000,Units=km
new line.TR1213680 bus1=BMT171612967.1.2.3,bus2=BMT122471794.1.2.3,Phases=3,Linecode=CAB203_3_3,Length=0.142654000,Units=km
new line.TR1213687 bus1=BMT122471794.1.2.3,bus2=BMT4901350B.1.2.3,Phases=3,Linecode=CAB203_3_3,Length=0.109588000,Units=km
new line.TR1213694 bus1=BMT122480964.1,bus2=BMT5337128B.1,Phases=1,Linecode=CAB202_3_1,Length=0.085167000,Units=km
new line.TR1213701 bus1=BMT122474636.1.2.3,bus2=BMT2485643B.1.2.3,Phases=3,Linecode=CAB203_3_3,Length=0.114066000,Units=km
new line.TR1213708 bus1=BMT122472284.1.2.3,bus2=BMT5337387B.1.2.3,Phases=3,Linecode=CAB203_3_3,Length=0.126678000,Units=km
new line.TR1213715 bus1=BMT162983216.1.2.3,bus2=BMT5337513B.1.2.3,Phases=3,Linecode=CAB202_3_3,Length=0.116719000,Units=km
new line.TR1213722 bus1=BMT122474643.1.2.3,bus2=BMT5369797B.1.2.3,Phases=3,Linecode=CAB203_3_3,Length=0.104043000,Units=km
new line.TR1213729 bus1=BMT122474643.1,bus2=BMT5378806B.1,Phases=1,Linecode=CAB202_3_1,Length=0.128906000,Units=km
new line.TR1213736 bus1=BMT122480922.3,bus2=BMT122480929.3,Phases=1,Linecode=CAB202_3_1,Length=0.220217000,Units=km
new line.TR1213743 bus1=BMT122474650.1.2.3,bus2=BMT5369986B.1.2.3,Phases=3,Linecode=CAB203_3_3,Length=0.145378000,Units=km
new line.TR1213750 bus1=BMT122480929.3,bus2=BMT122480936.3,Phases=1,Linecode=CAB102_3_1,Length=0.059697000,Units=km
new line.TR1213757 bus1=BMT122480929.3,bus2=BMT5378862B.3,Phases=1,Linecode=CAB202_3_1,Length=0.149517000,Units=km
new line.TR1213764 bus1=BMT122474664.1,bus2=BMT122474671.1,Phases=1,Linecode=CAB102_3_1,Length=0.030421000,Units=km
new line.TR1213771 bus1=BMT122474664.1.2.3,bus2=BMT122474678.1.2.3,Phases=3,Linecode=CAB203_3_3,Length=0.108067000,Units=km
new line.TR1213778 bus1=BMT122480894.2,bus2=BMT122480901.2,Phases=1,Linecode=CAB202_3_1,Length=0.219398000,Units=km
new line.TR1213785 bus1=BMT122474678.1.2.3,bus2=BMT5370105B.1.2.3,Phases=3,Linecode=CAB203_3_3,Length=0.074261000,Units=km
new line.TR1213792 bus1=BMT122480901.2,bus2=BMT5380766B.2,Phases=1,Linecode=CAB202_3_1,Length=0.075609000,Units=km
new line.TR1213799 bus1=BMT122480901.2,bus2=BMT5380836B.2,Phases=1,Linecode=CAB202_3_1,Length=0.065323000,Units=km
new line.TR1213806 bus1=BMT122474685.1.2.3,bus2=BMT5370189B.1.2.3,Phases=3,Linecode=CAB203_3_3,Length=0.206594000,Units=km
new line.TR1213813 bus1=BMT162957006.3,bus2=BMT5370273B.3,Phases=1,Linecode=CAB202_3_1,Length=0.405656000,Units=km
new line.TR1213820 bus1=BMT1890552B.3,bus2=BMT162957007.3,Phases=1,Linecode=CAB202_3_1,Length=0.066867000,Units=km
new line.TR1213827 bus1=BMT168594863.1.2.3,bus2=BMT1890566B.1.2.3,Phases=3,Linecode=CAB203_3_3,Length=0.133167000,Units=km
new line.TR1213834 bus1=BMT1890566B.1.2.3,bus2=BMT5370413B.1.2.3,Phases=3,Linecode=CAB203_3_3,Length=0.027025000,Units=km
new line.TR1213841 bus1=BMT1890573B.1.2.3,bus2=BMT1890580B.1.2.3,Phases=3,Linecode=CAB203_3_3,Length=0.282281000,Units=km
new line.TR1213848 bus1=BMT1890580B.1.2.3,bus2=BMT1890587B.1.2.3,Phases=3,Linecode=CAB203_3_3,Length=0.070231000,Units=km
new line.TR1213862 bus1=BMT1890594B.1.2.3,bus2=BMT5370560B.1.2.3,Phases=3,Linecode=CAB203_3_3,Length=0.128592000,Units=km
new line.TR1213869 bus1=BMT154136316.3,bus2=BMT154136317.3,Phases=1,Linecode=CAB202_3_1,Length=0.108369000,Units=km
new line.TR1213876 bus1=BMT122474706.1.2.3,bus2=BMT1890615B.1.2.3,Phases=3,Linecode=CAB203_3_3,Length=0.227487000,Units=km
new line.TR1213883 bus1=BMT154136317.3,bus2=BMT154136318.3,Phases=1,Linecode=CAB202_3_1,Length=0.097441000,Units=km
new line.TR1213890 bus1=BMT154136317.3,bus2=BMT5380948B.3,Phases=1,Linecode=CAB202_3_1,Length=0.117417000,Units=km
new line.TR1213897 bus1=BMT1890615B.1.2.3,bus2=BMT122474713.1.2.3,Phases=3,Linecode=CAB203_3_3,Length=0.104112000,Units=km
new line.TR1213974 bus1=BMT166427317.3,bus2=BMT5375201B.3,Phases=1,Linecode=CAB202_3_1,Length=0.227327000,Units=km
new line.TR1213981 bus1=BMT149810620.1.2.3,bus2=BMT5368075B.1.2.3,Phases=3,Linecode=CAB203_3_3,Length=0.119901000,Units=km
new line.TR1213988 bus1=BMT156981037.1.2.3,bus2=BMT5368383B.1.2.3,Phases=3,Linecode=CAB202_3_3,Length=0.119396000,Units=km
new line.TR1213995 bus1=BMT122474762.1.2.3,bus2=BMT5378218B.1.2.3,Phases=3,Linecode=CAB203_3_3,Length=0.122122000,Units=km
new line.TR1214009 bus1=BMT165485290.2,bus2=BMT1897237B.2,Phases=1,Linecode=CAB202_3_1,Length=0.126658000,Units=km
new line.TR1214016 bus1=BMT149810621.1.2.3,bus2=BMT149810622.1.2.3,Phases=3,Linecode=CAB102_3_3,Length=0.046186000,Units=km
new line.TR1214023 bus1=BMT149810621.1.2.3,bus2=BMT5378575B.1.2.3,Phases=3,Linecode=CAB203_3_3,Length=0.115199000,Units=km
new line.TR1214030 bus1=BMT1890692B.1.2.3,bus2=BMT5378603B.1.2.3,Phases=3,Linecode=CAB203_3_3,Length=0.126354000,Units=km
new line.TR1214037 bus1=BMT122474783.1.2.3,bus2=BMT122474790.1.2.3,Phases=3,Linecode=CAB203_3_3,Length=0.117240000,Units=km
new line.TR1214044 bus1=BMT122479410.1.2.3,bus2=BMT5371806B.1.2.3,Phases=3,Linecode=CAB202_3_3,Length=0.162045000,Units=km
new line.TR1214051 bus1=BMT1890706B.1.2.3,bus2=BMT5371813B.1.2.3,Phases=3,Linecode=CAB202_3_3,Length=0.103473000,Units=km
new line.TR1214058 bus1=BMT122474790.1.2.3,bus2=BMT5371701B.1.2.3,Phases=3,Linecode=CAB203_3_3,Length=0.124435000,Units=km
new line.TR1214065 bus1=BMT122479396.1,bus2=BMT5371722B.1,Phases=1,Linecode=CAB202_3_1,Length=0.143041000,Units=km
new line.TR1214072 bus1=BMT1890720B.1,bus2=BMT122479403.1,Phases=1,Linecode=CAB102_3_1,Length=0.079179000,Units=km
new line.TR1214079 bus1=BMT170904475.1.2.3,bus2=BMT5383594B.1.2.3,Phases=3,Linecode=CAB202_3_3,Length=0.105565000,Units=km
new line.TR1214086 bus1=BMT170904476.3,bus2=BMT170904477.3,Phases=1,Linecode=CAB102_3_1,Length=0.074907000,Units=km
new line.TR1214093 bus1=BMT170904476.1.2.3,bus2=BMT5391861B.1.2.3,Phases=3,Linecode=CAB203_3_3,Length=0.085533000,Units=km
new line.TR1214100 bus1=BMT170904478.2,bus2=BMT2667363B.2,Phases=1,Linecode=CAB202_3_1,Length=0.176195000,Units=km
new line.TR1214107 bus1=BMT170904478.1.2.3,bus2=BMT5391875B.1.2.3,Phases=3,Linecode=CAB203_3_3,Length=0.107899000,Units=km
new line.TR1214114 bus1=BMT170904478.2,bus2=BMT5391924B.2,Phases=1,Linecode=CAB202_3_1,Length=0.108933000,Units=km
new line.TR1214121 bus1=BMT171312073.1.2.3,bus2=BMT5383727B.1.2.3,Phases=3,Linecode=CAB202_3_3,Length=0.137128000,Units=km
new line.TR1214128 bus1=BMT122474853.1.2.3,bus2=BMT5393674B.1.2.3,Phases=3,Linecode=CAB203_3_3,Length=0.128584000,Units=km
new line.TR1214142 bus1=BMT1890755B.2,bus2=BMT5391973B.2,Phases=1,Linecode=CAB202_3_1,Length=0.104589000,Units=km
new line.TR1214149 bus1=BMT122474867.1.2.3,bus2=BMT170904481.1.2.3,Phases=3,Linecode=CAB203_3_3,Length=0.071406000,Units=km
new line.TR1214156 bus1=BMT152204466.3,bus2=BMT5384672B.3,Phases=1,Linecode=CAB202_3_1,Length=0.103474000,Units=km
new line.TR1214163 bus1=BMT1890769B.3,bus2=BMT5384903B.3,Phases=1,Linecode=CAB202_3_1,Length=0.099636000,Units=km
new line.TR1214170 bus1=BMT170904482.1.2.3,bus2=BMT5393779B.1.2.3,Phases=3,Linecode=CAB203_3_3,Length=0.053165000,Units=km
new line.TR1214177 bus1=BMT170904484.1,bus2=BMT170904486.1,Phases=1,Linecode=CAB202_3_1,Length=0.120914000,Units=km
new line.TR1214184 bus1=BMT170904484.1.2.3,bus2=BMT5394108B.1.2.3,Phases=3,Linecode=CAB203_3_3,Length=0.101665000,Units=km
new line.TR1214191 bus1=BMT122479235.3,bus2=BMT5384980B.3,Phases=1,Linecode=CAB202_3_1,Length=0.105505000,Units=km
new line.TR1214198 bus1=BMT122474888.1.2.3,bus2=BMT5389159B.1.2.3,Phases=3,Linecode=CAB203_3_3,Length=0.103397000,Units=km
new line.TR1214205 bus1=BMT1890797B.3,bus2=BMT5385015B.3,Phases=1,Linecode=CAB202_3_1,Length=0.094074000,Units=km
new line.TR1214212 bus1=BMT122474895.1.2.3,bus2=BMT122474902.1.2.3,Phases=3,Linecode=CAB203_3_3,Length=0.134384000,Units=km
new line.TR1214219 bus1=BMT122478178.1.2.3,bus2=BMT5385029B.1.2.3,Phases=3,Linecode=CAB203_3_3,Length=0.121529000,Units=km
new line.TR1214226 bus1=BMT1890811B.1.2.3,bus2=BMT5385260B.1.2.3,Phases=3,Linecode=CAB203_3_3,Length=0.164985000,Units=km
new line.TR1214233 bus1=BMT122474909.1.2.3,bus2=BMT122474916.1.2.3,Phases=3,Linecode=CAB203_3_3,Length=0.147720000,Units=km
new line.TR1214240 bus1=BMT136959337.1.2.3,bus2=BMT136959344.1.2.3,Phases=3,Linecode=CAB202_3_3,Length=0.162920000,Units=km
new line.TR1214247 bus1=BMT122474944.1.2.3,bus2=BMT5415654B.1.2.3,Phases=3,Linecode=CAB202_3_3,Length=0.075021000,Units=km
new line.TR1214254 bus1=BMT136959344.1.2.3,bus2=BMT136959351.1.2.3,Phases=3,Linecode=CAB102_3_3,Length=0.057723000,Units=km
new line.TR1214261 bus1=BMT122474958.1,bus2=BMT5414583B.1,Phases=1,Linecode=CAB202_3_1,Length=0.155508000,Units=km
new line.TR1214268 bus1=BMT122474958.1.2.3,bus2=BMT5415696B.1.2.3,Phases=3,Linecode=CAB202_3_3,Length=0.127524000,Units=km
new line.TR1214275 bus1=BMT122476897.2,bus2=BMT5414723B.2,Phases=1,Linecode=CAB202_3_1,Length=0.101548000,Units=km
new line.TR1214282 bus1=BMT122474979.1.2.3,bus2=BMT5415717B.1.2.3,Phases=3,Linecode=CAB202_3_3,Length=0.126278000,Units=km
new line.TR1214289 bus1=BMT122476911.2,bus2=BMT122476918.2,Phases=1,Linecode=CAB202_3_1,Length=0.088485000,Units=km
new line.TR1214296 bus1=BMT122476911.2,bus2=BMT5414842B.2,Phases=1,Linecode=CAB202_3_1,Length=0.125136000,Units=km
new line.TR1214303 bus1=BMT122474986.2,bus2=BMT122474993.2,Phases=1,Linecode=CAB202_3_1,Length=0.115203000,Units=km
new line.TR1214310 bus1=BMT122474986.1.2.3,bus2=BMT5415724B.1.2.3,Phases=3,Linecode=CAB202_3_3,Length=0.149308000,Units=km
new line.TR1214317 bus1=BMT122476848.1,bus2=BMT5414989B.1,Phases=1,Linecode=CAB202_3_1,Length=0.117038000,Units=km
new line.TR1214324 bus1=BMT122475000.1.2.3,bus2=BMT5415731B.1.2.3,Phases=3,Linecode=CAB202_3_3,Length=0.126847000,Units=km
new line.TR1214331 bus1=BMT1890874B.1,bus2=BMT5414912B.1,Phases=1,Linecode=CAB202_3_1,Length=0.125639000,Units=km
new line.TR1214338 bus1=BMT122475007.3,bus2=BMT5415787B.3,Phases=1,Linecode=CAB202_3_1,Length=0.087123000,Units=km
new line.TR1214345 bus1=BMT122475007.1.2.3,bus2=BMT5415794B.1.2.3,Phases=3,Linecode=CAB202_3_3,Length=0.165123000,Units=km
new line.TR1214352 bus1=BMT122475028.1.2.3,bus2=BMT122475021.1.2.3,Phases=3,Linecode=CAB202_3_3,Length=0.101863000,Units=km
new line.TR1214359 bus1=BMT122475028.1.2.3,bus2=BMT2476739B.1.2.3,Phases=3,Linecode=CAB202_3_3,Length=0.092049000,Units=km
new line.TR1214366 bus1=BMT122475028.1.2.3,bus2=BMT122475042.1.2.3,Phases=3,Linecode=CAB202_3_3,Length=0.124024000,Units=km
new line.TR1214373 bus1=BMT172478317.3,bus2=BMT5418643B.3,Phases=1,Linecode=CAB203_3_1,Length=0.104203000,Units=km
new line.TR12116596 bus1=BMT168447482.3,bus2=BMT8709443B.3,Phases=1,Linecode=CAB202_3_1,Length=0.129522000,Units=km
new line.TR12116597 bus1=BMT8709443B.3,bus2=BMT8709444B.3,Phases=1,Linecode=CAB202_3_1,Length=0.065870000,Units=km
new line.TR12116598 bus1=BMT8709444B.3,bus2=BMT8709445B.3,Phases=1,Linecode=CAB202_3_1,Length=0.111041000,Units=km
new line.TR12116599 bus1=BMT8709445B.3,bus2=BMT168447484.3,Phases=1,Linecode=CAB202_3_1,Length=0.109261000,Units=km
new line.TR12116924 bus1=BMT160925345.3,bus2=BMT8709663B.3,Phases=1,Linecode=CAB202_3_1,Length=0.070275000,Units=km
new line.TR12116925 bus1=BMT8709663B.3,bus2=BMT8709664B.3,Phases=1,Linecode=CAB202_3_1,Length=0.183373000,Units=km
new line.TR12116926 bus1=BMT8709664B.3,bus2=BMT8709666B.3,Phases=1,Linecode=CAB202_3_1,Length=0.150306000,Units=km
new line.TR12116927 bus1=BMT8709666B.3,bus2=BMT8709668B.3,Phases=1,Linecode=CAB202_3_1,Length=0.155234000,Units=km
new line.TR12116928 bus1=BMT8709668B.3,bus2=BMT8709669B.3,Phases=1,Linecode=CAB202_3_1,Length=0.103352000,Units=km
new line.TR12116929 bus1=BMT8709669B.3,bus2=BMT8709670B.3,Phases=1,Linecode=CAB202_3_1,Length=0.109911000,Units=km
new line.TR12116930 bus1=BMT8709670B.3,bus2=BMT8709671B.3,Phases=1,Linecode=CAB202_3_1,Length=0.132096000,Units=km
new line.TR12116931 bus1=BMT8709671B.3,bus2=BMT160925346.3,Phases=1,Linecode=CAB202_3_1,Length=0.126097000,Units=km
new line.TR12119109 bus1=BMT166988851.3,bus2=BMT8711644B.3,Phases=1,Linecode=CAB202_3_1,Length=0.092472000,Units=km
new line.TR12119111 bus1=BMT8711644B.3,bus2=BMT166988852.3,Phases=1,Linecode=CAB202_3_1,Length=0.104578000,Units=km
new line.TR12119114 bus1=BMT166988852.3,bus2=BMT166988853.3,Phases=1,Linecode=CAB202_3_1,Length=0.311385000,Units=km
new line.TR12119143 bus1=BMT148482327.3,bus2=BMT8711704B.3,Phases=1,Linecode=CAB202_3_1,Length=0.067898000,Units=km
new line.TR12119146 bus1=BMT8711704B.3,bus2=BMT8711703B.3,Phases=1,Linecode=CAB202_3_1,Length=0.116753000,Units=km
new line.TR12119150 bus1=BMT8711703B.3,bus2=BMT148482329.3,Phases=1,Linecode=CAB202_3_1,Length=0.276648000,Units=km
new line.TR12119217 bus1=BMT5422038B.3,bus2=BMT168818888.3,Phases=1,Linecode=CAB202_3_1,Length=0.110672000,Units=km
new line.TR12119218 bus1=BMT169994356.3,bus2=BMT8711751B.3,Phases=1,Linecode=CAB202_3_1,Length=0.078611000,Units=km
new line.TR12119219 bus1=BMT8711751B.3,bus2=BMT8711753B.3,Phases=1,Linecode=CAB202_3_1,Length=0.119852000,Units=km
new line.TR12119220 bus1=BMT8711753B.3,bus2=BMT169994357.3,Phases=1,Linecode=CAB202_3_1,Length=0.101903000,Units=km
new line.TR12119221 bus1=BMT169994357.3,bus2=BMT169994358.3,Phases=1,Linecode=CAB202_3_1,Length=0.247719000,Units=km
new line.TR12119231 bus1=BMT168818888.3,bus2=BMT168818889.3,Phases=1,Linecode=CAB202_3_1,Length=0.044735000,Units=km
new line.TR12158037 bus1=BMT149811504.1,bus2=BMT149811505.1,Phases=1,Linecode=CAB103_3_1,Length=0.046531000,Units=km
new line.TR12158052 bus1=BMT149811504.1,bus2=BMT149811506.1,Phases=1,Linecode=CAB202_3_1,Length=0.128021000,Units=km
new line.TR12160028 bus1=BMT168264005.3,bus2=BMT8756582B.3,Phases=1,Linecode=CAB202_3_1,Length=0.199507000,Units=km
new line.TR12160035 bus1=BMT8756582B.3,bus2=BMT8756590B.3,Phases=1,Linecode=CAB202_3_1,Length=0.064861000,Units=km
new line.TR12160042 bus1=BMT8756590B.3,bus2=BMT8756595B.3,Phases=1,Linecode=CAB202_3_1,Length=0.143622000,Units=km
new line.TR12160046 bus1=BMT8756595B.3,bus2=BMT8756596B.3,Phases=1,Linecode=CAB202_3_1,Length=0.137163000,Units=km
new line.TR12160052 bus1=BMT8756596B.3,bus2=BMT8756597B.3,Phases=1,Linecode=CAB202_3_1,Length=0.126350000,Units=km
new line.TR12160056 bus1=BMT8756597B.3,bus2=BMT8756600B.3,Phases=1,Linecode=CAB202_3_1,Length=0.131579000,Units=km
new line.TR12160057 bus1=BMT8756600B.3,bus2=BMT8756601B.3,Phases=1,Linecode=CAB202_3_1,Length=0.132409000,Units=km
new line.TR12160063 bus1=BMT8756601B.3,bus2=BMT168264006.3,Phases=1,Linecode=CAB202_3_1,Length=0.166628000,Units=km
new line.TR12160066 bus1=BMT168264006.3,bus2=BMT8756607B.3,Phases=1,Linecode=CAB202_3_1,Length=0.150248000,Units=km
new line.TR12160078 bus1=BMT8756607B.3,bus2=BMT8756610B.3,Phases=1,Linecode=CAB202_3_1,Length=0.131168000,Units=km
new line.TR12160089 bus1=BMT8756610B.3,bus2=BMT8756615B.3,Phases=1,Linecode=CAB202_3_1,Length=0.129169000,Units=km
new line.TR12160092 bus1=BMT8756615B.3,bus2=BMT8756617B.3,Phases=1,Linecode=CAB202_3_1,Length=0.136164000,Units=km
new line.TR12160094 bus1=BMT8756617B.3,bus2=BMT149863459.3,Phases=1,Linecode=CAB202_3_1,Length=0.172231000,Units=km
new line.TR12160101 bus1=BMT149863459.3,bus2=BMT8756624B.3,Phases=1,Linecode=CAB202_3_1,Length=0.134482000,Units=km
new line.TR12160107 bus1=BMT8756624B.3,bus2=BMT8756628B.3,Phases=1,Linecode=CAB202_3_1,Length=0.129899000,Units=km
new line.TR12160117 bus1=BMT8756628B.3,bus2=BMT8756633B.3,Phases=1,Linecode=CAB202_3_1,Length=0.152983000,Units=km
new line.TR12160120 bus1=BMT8756633B.3,bus2=BMT8756637B.3,Phases=1,Linecode=CAB202_3_1,Length=0.130583000,Units=km
new line.TR12160123 bus1=BMT8756637B.3,bus2=BMT149865390.3,Phases=1,Linecode=CAB202_3_1,Length=0.267531000,Units=km
new line.TR12160135 bus1=BMT149865390.3,bus2=BMT168264008.3,Phases=1,Linecode=CAB202_3_1,Length=0.161561000,Units=km
new line.TR12160151 bus1=BMT168264008.3,bus2=BMT168264009.3,Phases=1,Linecode=CAB202_3_1,Length=0.090575000,Units=km
new line.TR12160158 bus1=BMT168264009.3,bus2=BMT8756664B.3,Phases=1,Linecode=CAB202_3_1,Length=0.214891000,Units=km
new line.TR12160160 bus1=BMT8756664B.3,bus2=BMT8756673B.3,Phases=1,Linecode=CAB202_3_1,Length=0.167012000,Units=km
new line.TR12160163 bus1=BMT8756673B.3,bus2=BMT168264010.3,Phases=1,Linecode=CAB202_3_1,Length=0.143536000,Units=km
new line.TR12160171 bus1=BMT160385588.3,bus2=BMT8756702B.3,Phases=1,Linecode=CAB202_3_1,Length=0.129799000,Units=km
new line.TR12160193 bus1=BMT8756702B.3,bus2=BMT8756714B.3,Phases=1,Linecode=CAB202_3_1,Length=0.110520000,Units=km
new line.TR12160195 bus1=BMT8756714B.3,bus2=BMT8756716B.3,Phases=1,Linecode=CAB202_3_1,Length=0.125201000,Units=km
new line.TR12160196 bus1=BMT8756716B.3,bus2=BMT8756719B.3,Phases=1,Linecode=CAB202_3_1,Length=0.088316000,Units=km
new line.TR12160201 bus1=BMT8756719B.3,bus2=BMT160385589.3,Phases=1,Linecode=CAB202_3_1,Length=0.080796000,Units=km
new line.TR12160223 bus1=BMT168264006.3,bus2=BMT8756783B.3,Phases=1,Linecode=CAB202_3_1,Length=0.137064000,Units=km
new line.TR12160225 bus1=BMT8756783B.3,bus2=BMT8756792B.3,Phases=1,Linecode=CAB202_3_1,Length=0.117134000,Units=km
new line.TR12124129 bus1=BMT170581690.1.2.3,bus2=BMT8716973B.1.2.3,Phases=3,Linecode=CABA06_3_3,Length=0.038427000,Units=km
new line.TR12124130 bus1=BMT8716973B.1.2.3,bus2=BMT8716974B.1.2.3,Phases=3,Linecode=CABA06_3_3,Length=0.033023000,Units=km
new line.TR12124131 bus1=BMT8716974B.1.2.3,bus2=BMT152405844.1.2.3,Phases=3,Linecode=CABA06_3_3,Length=0.037811000,Units=km
new line.TR12124132 bus1=BMT170582429.1.2.3,bus2=BMT170582430.1.2.3,Phases=3,Linecode=CABA06_3_3,Length=0.020523000,Units=km
new line.TR12124133 bus1=BMT170582430.1.2.3,bus2=BMT8716955B.1.2.3,Phases=3,Linecode=CABA06_3_3,Length=0.042459000,Units=km
new line.TR12124134 bus1=BMT8716955B.1.2.3,bus2=BMT8716956B.1.2.3,Phases=3,Linecode=CABA06_3_3,Length=0.041021000,Units=km
new line.TR12124135 bus1=BMT8716956B.1.2.3,bus2=BMT8716958B.1.2.3,Phases=3,Linecode=CABA06_3_3,Length=0.039607000,Units=km
new line.TR12124136 bus1=BMT8716958B.1.2.3,bus2=BMT170582431.1.2.3,Phases=3,Linecode=CABA06_3_3,Length=0.037492000,Units=km
new line.TR12124143 bus1=BMT170582430.1.2.3,bus2=BMT8716977B.1.2.3,Phases=3,Linecode=CABA06_3_3,Length=0.018443000,Units=km
new line.TR12124144 bus1=BMT8716977B.1.2.3,bus2=BMT8716978B.1.2.3,Phases=3,Linecode=CABA06_3_3,Length=0.043850000,Units=km
new line.TR12124145 bus1=BMT8716978B.1.2.3,bus2=BMT8716979B.1.2.3,Phases=3,Linecode=CABA06_3_3,Length=0.038906000,Units=km
new line.TR12124146 bus1=BMT8716979B.1.2.3,bus2=BMT8716981B.1.2.3,Phases=3,Linecode=CABA06_3_3,Length=0.041021000,Units=km
new line.TR12124147 bus1=BMT8716981B.1.2.3,bus2=BMT170582432.1.2.3,Phases=3,Linecode=CABA06_3_3,Length=0.038218000,Units=km
new line.TR12124236 bus1=BMT152405844.1.2.3,bus2=BMT8716976B.1.2.3,Phases=3,Linecode=CABA06_3_3,Length=0.020620000,Units=km
new line.TR12124237 bus1=BMT8716976B.1.2.3,bus2=BMT8717165B.1.2.3,Phases=3,Linecode=CABA06_3_3,Length=0.031408000,Units=km
new line.TR12124238 bus1=BMT8717165B.1.2.3,bus2=BMT8717166B.1.2.3,Phases=3,Linecode=CABA06_3_3,Length=0.025813000,Units=km
new line.TR12124239 bus1=BMT8717166B.1.2.3,bus2=BMT8717167B.1.2.3,Phases=3,Linecode=CABA06_3_3,Length=0.042021000,Units=km
new line.TR12124240 bus1=BMT8717167B.1.2.3,bus2=BMT8717168B.1.2.3,Phases=3,Linecode=CABA06_3_3,Length=0.031408000,Units=km
new line.TR12124241 bus1=BMT8717168B.1.2.3,bus2=BMT170581691.1.2.3,Phases=3,Linecode=CABA06_3_3,Length=0.040009000,Units=km
new line.TR12124348 bus1=BMT170581538.1.2.3,bus2=BMT170581537.1.2.3,Phases=3,Linecode=CAB203_3_3,Length=0.047518000,Units=km
new line.TR12124349 bus1=BMT170581537.1.2.3,bus2=BMT8706077B.1.2.3,Phases=3,Linecode=CABA06_3_3,Length=0.070726000,Units=km
new line.TR12124422 bus1=BMT8706077B.1.2.3,bus2=BMT8717362B.1.2.3,Phases=3,Linecode=CABA06_3_3,Length=0.042436000,Units=km
new line.TR12124423 bus1=BMT8717362B.1.2.3,bus2=BMT8717361B.1.2.3,Phases=3,Linecode=CABA06_3_3,Length=0.038192000,Units=km
new line.TR12124424 bus1=BMT8717361B.1.2.3,bus2=BMT170581536.1.2.3,Phases=3,Linecode=CABA06_3_3,Length=0.041021000,Units=km
new line.TR12124425 bus1=BMT170581536.1.2.3,bus2=BMT170581534.1.2.3,Phases=3,Linecode=CABA06_3_3,Length=0.043149000,Units=km
new line.TR12124426 bus1=BMT170581534.1.2.3,bus2=BMT8717399B.1.2.3,Phases=3,Linecode=CABA06_3_3,Length=0.035363000,Units=km
new line.TR12124427 bus1=BMT8717399B.1.2.3,bus2=BMT170581531.1.2.3,Phases=3,Linecode=CABA06_3_3,Length=0.033249000,Units=km
new line.TR12124428 bus1=BMT170581531.1.2.3,bus2=BMT170581535.1.2.3,Phases=3,Linecode=CABA06_3_3,Length=0.037492000,Units=km
new line.TR12124430 bus1=BMT8717407B.1.2.3,bus2=BMT8717410B.1.2.3,Phases=3,Linecode=CABA06_3_3,Length=0.036778000,Units=km
new line.TR12124431 bus1=BMT8717410B.1.2.3,bus2=BMT8717412B.1.2.3,Phases=3,Linecode=CABA06_3_3,Length=0.041021000,Units=km
new line.TR12124432 bus1=BMT8717412B.1.2.3,bus2=BMT170581233.1.2.3,Phases=3,Linecode=CABA06_3_3,Length=0.033249000,Units=km
new line.TR12124433 bus1=BMT170581233.1.2.3,bus2=BMT170581234.1.2.3,Phases=3,Linecode=CAB203_3_3,Length=0.035391000,Units=km
new line.TR12124525 bus1=BMT170581534.1.2.3,bus2=BMT8717359B.1.2.3,Phases=3,Linecode=CABA06_3_3,Length=0.037492000,Units=km
new line.TR12124526 bus1=BMT8717359B.1.2.3,bus2=BMT8717355B.1.2.3,Phases=3,Linecode=CABA06_3_3,Length=0.038192000,Units=km
new line.TR12124527 bus1=BMT8717355B.1.2.3,bus2=BMT8717352B.1.2.3,Phases=3,Linecode=CABA06_3_3,Length=0.038906000,Units=km
new line.TR12124529 bus1=BMT8717352B.1.2.3,bus2=BMT148267968.1.2.3,Phases=3,Linecode=CABA06_3_3,Length=0.039632000,Units=km
new line.TR12124531 bus1=BMT170581531.1.2.3,bus2=BMT8706055B.1.2.3,Phases=3,Linecode=CABA06_3_3,Length=0.034663000,Units=km
new line.TR12124553 bus1=BMT161727689.1.2.3,bus2=BMT170581532.1.2.3,Phases=3,Linecode=CABA06_3_3,Length=0.019109000,Units=km
new line.TR12124554 bus1=BMT170581532.1.2.3,bus2=BMT170581533.1.2.3,Phases=3,Linecode=CABA06_3_3,Length=0.026876000,Units=km
new line.TR12124560 bus1=BMT170581360.1.2.3,bus2=BMT170581359.1.2.3,Phases=3,Linecode=CABA06_3_3,Length=0.041021000,Units=km
new line.TR12124761 bus1=BMT170581532.1.2.3,bus2=BMT161727517.1.2.3,Phases=3,Linecode=CABA06_3_3,Length=0.026913000,Units=km
new line.TR12124762 bus1=BMT170581587.1.2.3,bus2=BMT170581588.1.2.3,Phases=3,Linecode=CABA06_3_3,Length=0.030421000,Units=km
new line.TR12124763 bus1=BMT170581588.1.2.3,bus2=BMT170581589.1.2.3,Phases=3,Linecode=CABA06_3_3,Length=0.045977000,Units=km
new line.TR12124941 bus1=BMT170581588.1.2.3,bus2=BMT8717754B.1.2.3,Phases=3,Linecode=CABA06_3_3,Length=0.036805000,Units=km
new line.TR12124942 bus1=BMT8717754B.1.2.3,bus2=BMT8717755B.1.2.3,Phases=3,Linecode=CABA06_3_3,Length=0.036778000,Units=km
new line.TR12124943 bus1=BMT8717755B.1.2.3,bus2=BMT170581590.1.2.3,Phases=3,Linecode=CABA06_3_3,Length=0.048094000,Units=km
new line.TR12165342 bus1=BMT150035070.1,bus2=BMT150035071.1,Phases=1,Linecode=CAB103_3_1,Length=0.011665000,Units=km
new line.TR1219546 bus1=BMT122477471.3,bus2=BMT122477478.3,Phases=1,Linecode=CAB103_3_1,Length=0.029077000,Units=km
new line.TR1219553 bus1=BMT155107374.3,bus2=BMT155107375.3,Phases=1,Linecode=CAB102_3_1,Length=0.033848000,Units=km
new line.TR1219560 bus1=BMT155107374.1.2.3,bus2=BMT5385323B.1.2.3,Phases=3,Linecode=CAB203_3_3,Length=0.128071000,Units=km
new line.TR1219567 bus1=BMT1894423B.1.2.3,bus2=BMT5385421B.1.2.3,Phases=3,Linecode=CAB203_3_3,Length=0.141549000,Units=km
new line.TR1219574 bus1=BMT170715262.1,bus2=BMT170715263.1,Phases=1,Linecode=CAB102_3_1,Length=0.044700000,Units=km
new line.TR1219581 bus1=BMT122478227.1.2.3,bus2=BMT5386198B.1.2.3,Phases=3,Linecode=CAB203_3_3,Length=0.148044000,Units=km
new line.TR1219588 bus1=BMT170715263.1,bus2=BMT5389607B.1,Phases=1,Linecode=CAB202_3_1,Length=0.166674000,Units=km
new line.TR1219595 bus1=BMT155107376.1,bus2=BMT5386275B.1,Phases=1,Linecode=CAB202_3_1,Length=0.109232000,Units=km
new line.TR12113332 bus1=BMT170582642.1.2.3,bus2=BMT170582641.1.2.3,Phases=3,Linecode=CABA06_3_3,Length=0.041878000,Units=km
new line.TR12113333 bus1=BMT148676646.1.2.3,bus2=BMT148267968.1.2.3,Phases=3,Linecode=CABA06_3_3,Length=0.051412000,Units=km
new line.TR12113334 bus1=BMT170581689.1.2.3,bus2=BMT170581690.1.2.3,Phases=3,Linecode=CABA06_3_3,Length=0.032810000,Units=km
new line.TR12113338 bus1=BMT8706055B.1.2.3,bus2=BMT161727689.1.2.3,Phases=3,Linecode=CABA06_3_3,Length=0.036778000,Units=km
new line.TR12113848 bus1=BMT122473705.2,bus2=BMT148287651.2,Phases=1,Linecode=CAB202_3_1,Length=0.050371000,Units=km
new line.TR12113849 bus1=BMT1899764B.2,bus2=BMT148287651.2,Phases=1,Linecode=CAB202_3_1,Length=0.055023000,Units=km
new line.TR12115883 bus1=BMT164888208.1,bus2=BMT164888209.1,Phases=1,Linecode=CAB202_3_1,Length=0.063047000,Units=km
new line.TR12115885 bus1=BMT164888209.1,bus2=BMT8708796B.1,Phases=1,Linecode=CAB202_3_1,Length=0.073017000,Units=km
new line.TR12115886 bus1=BMT8708796B.1,bus2=BMT8708797B.1,Phases=1,Linecode=CAB202_3_1,Length=0.119309000,Units=km
new line.TR12115887 bus1=BMT8708797B.1,bus2=BMT8708798B.1,Phases=1,Linecode=CAB202_3_1,Length=0.104886000,Units=km
new line.TR12115888 bus1=BMT8708798B.1,bus2=BMT8708799B.1,Phases=1,Linecode=CAB202_3_1,Length=0.066303000,Units=km
new line.TR12115889 bus1=BMT8708799B.1,bus2=BMT8708800B.1,Phases=1,Linecode=CAB202_3_1,Length=0.136773000,Units=km
new line.TR12115890 bus1=BMT8708800B.1,bus2=BMT8708801B.1,Phases=1,Linecode=CAB202_3_1,Length=0.176750000,Units=km
new line.TR12115891 bus1=BMT8708801B.1,bus2=BMT164888210.1,Phases=1,Linecode=CAB202_3_1,Length=0.193387000,Units=km
new line.TR12115892 bus1=BMT164888210.1,bus2=BMT8708803B.1,Phases=1,Linecode=CAB202_3_1,Length=0.159238000,Units=km
new line.TR12115893 bus1=BMT8708803B.1,bus2=BMT8708804B.1,Phases=1,Linecode=CAB202_3_1,Length=0.168669000,Units=km
new line.TR12115894 bus1=BMT8708804B.1,bus2=BMT8708805B.1,Phases=1,Linecode=CAB202_3_1,Length=0.137091000,Units=km
new line.TR12115895 bus1=BMT8708805B.1,bus2=BMT164888212.1,Phases=1,Linecode=CAB202_3_1,Length=0.066904000,Units=km
new line.TR12154111 bus1=BMT170582662.1.2.3,bus2=BMT8749783B.1.2.3,Phases=3,Linecode=CABA06_3_3,Length=0.036778000,Units=km
new line.TR12154129 bus1=BMT170582661.1.2.3,bus2=BMT8749792B.1.2.3,Phases=3,Linecode=CABA06_3_3,Length=0.031835000,Units=km
new line.TR12154130 bus1=BMT8749792B.1.2.3,bus2=BMT8749783B.1.2.3,Phases=3,Linecode=CABA06_3_3,Length=0.031120000,Units=km
new line.TR12156253 bus1=BMT122471143.3,bus2=BMT160748540.3,Phases=1,Linecode=CAB202_3_1,Length=0.147087000,Units=km
new line.TR12156258 bus1=BMT160748540.3,bus2=BMT160748541.3,Phases=1,Linecode=CAB103_3_1,Length=0.065817000,Units=km
new line.TR12158029 bus1=BMT149811503.1,bus2=BMT8754525B.1,Phases=1,Linecode=CAB202_3_1,Length=0.165647000,Units=km
new line.TR12158033 bus1=BMT8754525B.1,bus2=BMT149811504.1,Phases=1,Linecode=CAB202_3_1,Length=0.121838000,Units=km
new line.TR1219077 bus1=BMT167788325.1,bus2=BMT2785999B.1,Phases=1,Linecode=CAB202_3_1,Length=0.072132000,Units=km
new line.TR1219084 bus1=BMT122477359.3,bus2=BMT122477366.3,Phases=1,Linecode=CAB103_3_1,Length=0.028169000,Units=km
new line.TR12190867 bus1=BMT2507168B.2,bus2=BMT151038913.2,Phases=1,Linecode=CAB203_3_1,Length=0.122222000,Units=km