new load.3000829531M1 bus1=RML1051457147.3.0,Phases=1,kv=0.127,kW=0.3755,pf=0.92,Vminpu=0.92,Vmaxpu=1.5,model=1,daily=RES2_17,status=variable
new load.3000829532M1 bus1=RML1061022813.1.2.0,Phases=2,kv=0.22,kW=0.56806,pf=0.92,Vminpu=0.92,Vmaxpu=1.5,model=1,daily=RES2_17,status=variable
new load.3000829533M1 bus1=RML1051440095.2.0,Phases=1,kv=0.127,kW=0.8327,pf=0.92,Vminpu=0.92,Vmaxpu=1.5,model=1,daily=RES4_17,status=variable
new load.3000829534M1 bus1=RML1051440053.1.0,Phases=1,kv=0.127,kW=0.25172,pf=0.92,Vminpu=0.92,Vmaxpu=1.5,model=1,daily=RES1_17,status=variable
new load.3000829536M1 bus1=RML1051440067.2.0,Phases=1,kv=0.127,kW=0.52474,pf=0.92,Vminpu=0.92,Vmaxpu=1.5,model=1,daily=RES2_17,status=variable
new load.3000829537M1 bus1=RML1051440074.1.2.3.0,Phases=3,kv=0.22,kW=0.375,pf=0.92,Vminpu=0.92,Vmaxpu=1.5,model=1,daily=RES1_17,status=variable
new load.3000829538M1 bus1=RML1051440046.2.0,Phases=1,kv=0.127,kW=1.02482,pf=0.92,Vminpu=0.92,Vmaxpu=1.5,model=1,daily=RES3_15,status=variable
new load.3000829539M1 bus1=RML1051440039.2.0,Phases=1,kv=0.127,kW=0.46696,pf=0.92,Vminpu=0.92,Vmaxpu=1.5,model=1,daily=RES2_17,status=variable
new load.3000829540M1 bus1=RML1051440032.2.0,Phases=1,kv=0.127,kW=0.6836,pf=0.92,Vminpu=0.92,Vmaxpu=1.5,model=1,daily=RES2_17,status=variable
new load.3000829541M1 bus1=RML1051440025.1.0,Phases=1,kv=0.127,kW=0.52474,pf=0.92,Vminpu=0.92,Vmaxpu=1.5,model=1,daily=RES2_17,status=variable
new load.3000829542M1 bus1=RML1051440018.3.0,Phases=1,kv=0.127,kW=0.36586,pf=0.92,Vminpu=0.92,Vmaxpu=1.5,model=1,daily=RES2_17,status=variable
new load.3000829543M1 bus1=RML1051440011.2.0,Phases=1,kv=0.127,kW=0.45252,pf=0.92,Vminpu=0.92,Vmaxpu=1.5,model=1,daily=RES2_17,status=variable
new load.3000829545M1 bus1=RML1060102852.1.2.0,Phases=2,kv=0.22,kW=0.70286,pf=0.92,Vminpu=0.92,Vmaxpu=1.5,model=1,daily=RES2_17,status=variable
new load.3000829547M1 bus1=RML1051440081.2.0,Phases=1,kv=0.127,kW=0.32364,pf=0.92,Vminpu=0.92,Vmaxpu=1.5,model=1,daily=RES1_17,status=variable
new load.3000829548M1 bus1=RML1051439969.3.0,Phases=1,kv=0.127,kW=0.28254,pf=0.92,Vminpu=0.92,Vmaxpu=1.5,model=1,daily=RES1_17,status=variable
new load.3000829549M1 bus1=RML1051440088.1.0,Phases=1,kv=0.127,kW=0.7221,pf=0.92,Vminpu=0.92,Vmaxpu=1.5,model=1,daily=RES2_17,status=variable
new load.3000829550M1 bus1=RML1051457161.1.0,Phases=1,kv=0.127,kW=1.31054,pf=0.92,Vminpu=0.92,Vmaxpu=1.5,model=1,daily=RES3_15,status=variable
new load.3000829564M1 bus1=RML1051439962.3.0,Phases=1,kv=0.127,kW=0.14898,pf=0.92,Vminpu=0.92,Vmaxpu=1.5,model=1,daily=RES1_17,status=variable
new load.3000829598M1 bus1=RML1051436609.1.0,Phases=1,kv=0.127,kW=0.59694,pf=0.92,Vminpu=0.92,Vmaxpu=1.5,model=1,daily=RES2_17,status=variable
new load.3000829680M1 bus1=RML1060808155.2.0,Phases=1,kv=0.127,kW=1.65214,pf=0.92,Vminpu=0.92,Vmaxpu=1.5,model=1,daily=RES3_15,status=variable
new load.3000829681M1 bus1=RML1051436539.3.0,Phases=1,kv=0.127,kW=0.751,pf=0.92,Vminpu=0.92,Vmaxpu=1.5,model=1,daily=RES2_17,status=variable
new load.3000829682M1 bus1=RML1051436546.1.0,Phases=1,kv=0.127,kW=0.34932,pf=0.92,Vminpu=0.92,Vmaxpu=1.5,model=1,daily=RES1_17,status=variable
new load.3000829683M1 bus1=RML1051436553.1.3.0,Phases=2,kv=0.22,kW=0.69322,pf=0.92,Vminpu=0.92,Vmaxpu=1.5,model=1,daily=RES2_17,status=variable
new load.3000829684M1 bus1=RML1051436553.1.3.0,Phases=2,kv=0.22,kW=0.31336,pf=0.92,Vminpu=0.92,Vmaxpu=1.5,model=1,daily=RES1_17,status=variable
new load.3000829685M1 bus1=RML1051436560.1.0,Phases=1,kv=0.127,kW=0.4477,pf=0.92,Vminpu=0.92,Vmaxpu=1.5,model=1,daily=RES2_17,status=variable
new load.3000829686M1 bus1=RML1051436581.3.0,Phases=1,kv=0.127,kW=0.26958,pf=0.92,Vminpu=0.92,Vmaxpu=1.5,model=1,daily=RES2_17,status=variable
new load.3000829687M1 bus1=RML1051436588.1.2.0,Phases=2,kv=0.22,kW=0.99378,pf=0.92,Vminpu=0.92,Vmaxpu=1.5,model=1,daily=RES3_15,status=variable
new load.3000829688M1 bus1=RML1051436595.2.0,Phases=1,kv=0.127,kW=0.70286,pf=0.92,Vminpu=0.92,Vmaxpu=1.5,model=1,daily=RES2_17,status=variable
new load.3000829689M1 bus1=RML1051436483.1.0,Phases=1,kv=0.127,kW=0.51028,pf=0.92,Vminpu=0.92,Vmaxpu=1.5,model=1,daily=RES2_17,status=variable
new load.3000829690M1 bus1=RML1051436490.2.0,Phases=1,kv=0.127,kW=0.60176,pf=0.92,Vminpu=0.92,Vmaxpu=1.5,model=1,daily=RES2_17,status=variable
new load.3000829691M1 bus1=RML1051436497.3.0,Phases=1,kv=0.127,kW=0.66916,pf=0.92,Vminpu=0.92,Vmaxpu=1.5,model=1,daily=RES2_17,status=variable
new load.3000829692M1 bus1=RML1051436504.1.0,Phases=1,kv=0.127,kW=0.49584,pf=0.92,Vminpu=0.92,Vmaxpu=1.5,model=1,daily=RES2_17,status=variable
new load.3000829693M1 bus1=RML1060809106.1.2.0,Phases=2,kv=0.22,kW=0.2209,pf=0.92,Vminpu=0.92,Vmaxpu=1.5,model=1,daily=RES1_17,status=variable
new load.3000829694M1 bus1=RML1051436357.1.0,Phases=1,kv=0.127,kW=0.2407,pf=0.92,Vminpu=0.92,Vmaxpu=1.5,model=1,daily=RES2_17,status=variable
new load.3000829695M1 bus1=RML1051436364.2.0,Phases=1,kv=0.127,kW=0.4007,pf=0.92,Vminpu=0.92,Vmaxpu=1.5,model=1,daily=RES1_17,status=variable
new load.3000829696M1 bus1=RML1051436371.1.0,Phases=1,kv=0.127,kW=0.91924,pf=0.92,Vminpu=0.92,Vmaxpu=1.5,model=1,daily=RES3_15,status=variable
new load.3000829697M1 bus1=RML1051436378.2.3.0,Phases=2,kv=0.22,kW=0.10788,pf=0.92,Vminpu=0.92,Vmaxpu=1.5,model=1,daily=RES1_17,status=variable
new load.3000829698M1 bus1=RML1051436287.2.0,Phases=1,kv=0.127,kW=0.60658,pf=0.92,Vminpu=0.92,Vmaxpu=1.5,model=1,daily=RES2_17,status=variable
new load.3000829699M1 bus1=RML1051436294.1.0,Phases=1,kv=0.127,kW=0.38528,pf=0.92,Vminpu=0.92,Vmaxpu=1.5,model=1,daily=RES1_17,status=variable
new load.3000829700M1 bus1=RML1051436301.3.0,Phases=1,kv=0.127,kW=0.43326,pf=0.92,Vminpu=0.92,Vmaxpu=1.5,model=1,daily=RES2_17,status=variable
new load.3000829701M1 bus1=RML1051436308.2.0,Phases=1,kv=0.127,kW=0.26478,pf=0.92,Vminpu=0.92,Vmaxpu=1.5,model=1,daily=RES2_17,status=variable
new load.3000829702M1 bus1=RML1051436315.3.0,Phases=1,kv=0.127,kW=0.58732,pf=0.92,Vminpu=0.92,Vmaxpu=1.5,model=1,daily=RES2_17,status=variable
new load.3000829703M1 bus1=RML1051436175.1.0,Phases=1,kv=0.127,kW=0.5488,pf=0.92,Vminpu=0.92,Vmaxpu=1.5,model=1,daily=RES2_17,status=variable
new load.3000829704M1 bus1=RML1051436182.3.0,Phases=1,kv=0.127,kW=0.4766,pf=0.92,Vminpu=0.92,Vmaxpu=1.5,model=1,daily=RES2_17,status=variable
new load.3000829705M1 bus1=RML1051436189.1.0,Phases=1,kv=0.127,kW=0.01542,pf=0.92,Vminpu=0.92,Vmaxpu=1.5,model=1,daily=RES1_17,status=variable
new load.3000829706M1 bus1=RML1051436245.3.0,Phases=1,kv=0.127,kW=0.4472,pf=0.92,Vminpu=0.92,Vmaxpu=1.5,model=1,daily=RES3_15,status=variable
new load.3000829707M1 bus1=RML1051436238.1.0,Phases=1,kv=0.127,kW=0.25686,pf=0.92,Vminpu=0.92,Vmaxpu=1.5,model=1,daily=RES1_17,status=variable
new load.3000829708M1 bus1=RML1051436350.1.2.0,Phases=2,kv=0.22,kW=0.83284,pf=0.92,Vminpu=0.92,Vmaxpu=1.5,model=1,daily=RES2_17,status=variable
new load.3000829710M1 bus1=RML1051436343.1.2.0,Phases=2,kv=0.22,kW=0.38032,pf=0.92,Vminpu=0.92,Vmaxpu=1.5,model=1,daily=RES2_17,status=variable
new load.3000829712M1 bus1=RML1051436427.2.3.0,Phases=2,kv=0.22,kW=0.18494,pf=0.92,Vminpu=0.92,Vmaxpu=1.5,model=1,daily=RES1_17,status=variable
new load.3000829713M1 bus1=RML1051436434.1.0,Phases=1,kv=0.127,kW=0.29796,pf=0.92,Vminpu=0.92,Vmaxpu=1.5,model=1,daily=RES1_17,status=variable
new load.3000829714M1 bus1=RML1051436532.2.0,Phases=1,kv=0.127,kW=2.25748,pf=0.92,Vminpu=0.92,Vmaxpu=1.5,model=1,daily=COM2_19,status=variable
new load.3000829715M1 bus1=RML1051436525.1.2.0,Phases=2,kv=0.22,kW=0.77024,pf=0.92,Vminpu=0.92,Vmaxpu=1.5,model=1,daily=RES2_17,status=variable
new load.3000829716M1 bus1=RML1051436525.1.2.0,Phases=2,kv=0.22,kW=1.93814,pf=0.92,Vminpu=0.92,Vmaxpu=1.5,model=1,daily=COM1_21,status=variable
new load.3000829719M1 bus1=RML1051439654.1.0,Phases=1,kv=0.127,kW=0.97514,pf=0.92,Vminpu=0.92,Vmaxpu=1.5,model=1,daily=RES3_15,status=variable
new load.3000829722M1 bus1=RML1051439934.2.0,Phases=1,kv=0.127,kW=0.8944,pf=0.92,Vminpu=0.92,Vmaxpu=1.5,model=1,daily=RES3_15,status=variable
new load.3000829723M1 bus1=RML1051439927.2.0,Phases=1,kv=0.127,kW=0.97514,pf=0.92,Vminpu=0.92,Vmaxpu=1.5,model=1,daily=RES3_15,status=variable
new load.3000829724M1 bus1=RML1051439941.1.0,Phases=1,kv=0.127,kW=0.4572,pf=0.92,Vminpu=0.92,Vmaxpu=1.5,model=1,daily=RES1_17,status=variable
new load.3000829725M1 bus1=RML1051439948.2.0,Phases=1,kv=0.127,kW=0.28768,pf=0.92,Vminpu=0.92,Vmaxpu=1.5,model=1,daily=RES1_17,status=variable
new load.3000829726M1 bus1=RML1051439920.2.0,Phases=1,kv=0.127,kW=0.64026,pf=0.92,Vminpu=0.92,Vmaxpu=1.5,model=1,daily=RES2_17,status=variable
new load.3000829727M1 bus1=RML1051439913.1.2.0,Phases=2,kv=0.22,kW=0.20548,pf=0.92,Vminpu=0.92,Vmaxpu=1.5,model=1,daily=RES1_17,status=variable
new load.3000829728M1 bus1=RML1051439759.1.0,Phases=1,kv=0.127,kW=0.10274,pf=0.92,Vminpu=0.92,Vmaxpu=1.5,model=1,daily=RES1_17,status=variable
new load.3000829729M1 bus1=RML1051439752.1.0,Phases=1,kv=0.127,kW=0.61138,pf=0.92,Vminpu=0.92,Vmaxpu=1.5,model=1,daily=RES2_17,status=variable
new load.3000829730M1 bus1=RML1051439794.1.0,Phases=1,kv=0.127,kW=0.3418,pf=0.92,Vminpu=0.92,Vmaxpu=1.5,model=1,daily=RES2_17,status=variable
new load.3000829731M1 bus1=RML1051439787.1.0,Phases=1,kv=0.127,kW=0.21062,pf=0.92,Vminpu=0.92,Vmaxpu=1.5,model=1,daily=RES1_17,status=variable
new load.3000829732M1 bus1=RML1051439780.3.0,Phases=1,kv=0.127,kW=0.01926,pf=0.92,Vminpu=0.92,Vmaxpu=1.5,model=1,daily=RES2_17,status=variable
new load.3000829733M1 bus1=RML1051439801.1.0,Phases=1,kv=0.127,kW=0.2209,pf=0.92,Vminpu=0.92,Vmaxpu=1.5,model=1,daily=RES1_17,status=variable
new load.3000829734M1 bus1=RML1051439808.2.0,Phases=1,kv=0.127,kW=0.5488,pf=0.92,Vminpu=0.92,Vmaxpu=1.5,model=1,daily=RES2_17,status=variable
new load.3000829735M1 bus1=RML1051439871.1.0,Phases=1,kv=0.127,kW=0.4429,pf=0.92,Vminpu=0.92,Vmaxpu=1.5,model=1,daily=RES2_17,status=variable
new load.3000829736M1 bus1=RML1051439864.1.0,Phases=1,kv=0.127,kW=0.73174,pf=0.92,Vminpu=0.92,Vmaxpu=1.5,model=1,daily=RES2_17,status=variable
new load.3000829737M1 bus1=RML1051439857.2.0,Phases=1,kv=0.127,kW=0.45734,pf=0.92,Vminpu=0.92,Vmaxpu=1.5,model=1,daily=RES2_17,status=variable
new load.3000829738M1 bus1=RML1051439850.3.0,Phases=1,kv=0.127,kW=0.67396,pf=0.92,Vminpu=0.92,Vmaxpu=1.5,model=1,daily=RES2_17,status=variable
new load.3000829740M1 bus1=RML1051439829.1.0,Phases=1,kv=0.127,kW=0.45252,pf=0.92,Vminpu=0.92,Vmaxpu=1.5,model=1,daily=RES2_17,status=variable
new load.3000829741M1 bus1=RML1051439836.3.0,Phases=1,kv=0.127,kW=0.751,pf=0.92,Vminpu=0.92,Vmaxpu=1.5,model=1,daily=RES2_17,status=variable
new load.3000829742M1 bus1=RML1051439843.2.0,Phases=1,kv=0.127,kW=1.15526,pf=0.92,Vminpu=0.92,Vmaxpu=1.5,model=1,daily=RES3_15,status=variable
new load.3000829743M1 bus1=RML1051439766.1.2.3.0,Phases=3,kv=0.22,kW=0.35624,pf=0.92,Vminpu=0.92,Vmaxpu=1.5,model=1,daily=RES2_17,status=variable
new load.3000829744M1 bus1=RML1051439773.1.0,Phases=1,kv=0.127,kW=0.30308,pf=0.92,Vminpu=0.92,Vmaxpu=1.5,model=1,daily=RES1_17,status=variable
new load.3000829745M1 bus1=RML1051439738.3.0,Phases=1,kv=0.127,kW=0.53436,pf=0.92,Vminpu=0.92,Vmaxpu=1.5,model=1,daily=RES2_17,status=variable
new load.3000829746M1 bus1=RML1051439731.2.3.0,Phases=2,kv=0.22,kW=0.4766,pf=0.92,Vminpu=0.92,Vmaxpu=1.5,model=1,daily=RES2_17,status=variable
new load.3000829747M1 bus1=RML1051439724.2.3.0,Phases=2,kv=0.22,kW=0.38994,pf=0.92,Vminpu=0.92,Vmaxpu=1.5,model=1,daily=RES2_17,status=variable
new load.3000829748M1 bus1=RML1051439696.1.2.0,Phases=2,kv=0.22,kW=0.1798,pf=0.92,Vminpu=0.92,Vmaxpu=1.5,model=1,daily=RES1_17,status=variable
new load.3000829749M1 bus1=RML1051435965.2.0,Phases=1,kv=0.127,kW=0.50066,pf=0.92,Vminpu=0.92,Vmaxpu=1.5,model=1,daily=RES2_17,status=variable
new load.3000829750M1 bus1=RML1051435958.3.0,Phases=1,kv=0.127,kW=1.42234,pf=0.92,Vminpu=0.92,Vmaxpu=1.5,model=1,daily=RES3_15,status=variable
new load.3000829751M1 bus1=RML1051435951.2.0,Phases=1,kv=0.127,kW=0.46696,pf=0.92,Vminpu=0.92,Vmaxpu=1.5,model=1,daily=RES2_17,status=variable
new load.3000829753M1 bus1=RML1051435937.2.0,Phases=1,kv=0.127,kW=1.1315,pf=0.92,Vminpu=0.92,Vmaxpu=1.5,model=1,daily=RES4_17,status=variable
new load.3000829754M1 bus1=RML1051435993.1.0,Phases=1,kv=0.127,kW=0.30308,pf=0.92,Vminpu=0.92,Vmaxpu=1.5,model=1,daily=RES1_17,status=variable
new load.3000829757M1 bus1=RML1051439682.3.0,Phases=1,kv=0.127,kW=0.56324,pf=0.92,Vminpu=0.92,Vmaxpu=1.5,model=1,daily=RES2_17,status=variable
new load.3000829758M1 bus1=RML1051439661.1.0,Phases=1,kv=0.127,kW=0.56806,pf=0.92,Vminpu=0.92,Vmaxpu=1.5,model=1,daily=RES2_17,status=variable
new load.3000829762M1 bus1=RML1051435923.1.2.0,Phases=2,kv=0.22,kW=0.6884,pf=0.92,Vminpu=0.92,Vmaxpu=1.5,model=1,daily=RES2_17,status=variable
new load.3000829763M1 bus1=RML1051435916.1.2.0,Phases=2,kv=0.22,kW=0.45252,pf=0.92,Vminpu=0.92,Vmaxpu=1.5,model=1,daily=RES2_17,status=variable
new load.3000829764M1 bus1=RML1051435909.2.3.0,Phases=2,kv=0.22,kW=0.0565,pf=0.92,Vminpu=0.92,Vmaxpu=1.5,model=1,daily=RES1_17,status=variable
new load.3000829765M1 bus1=RML1051435902.1.2.0,Phases=2,kv=0.22,kW=0.88198,pf=0.92,Vminpu=0.92,Vmaxpu=1.5,model=1,daily=RES3_15,status=variable
new load.3000829766M1 bus1=RML1051435895.1.0,Phases=1,kv=0.127,kW=1.19874,pf=0.92,Vminpu=0.92,Vmaxpu=1.5,model=1,daily=RES3_15,status=variable
new load.3000829767M1 bus1=RML1051435888.3.0,Phases=1,kv=0.127,kW=0.24552,pf=0.92,Vminpu=0.92,Vmaxpu=1.5,model=1,daily=RES2_17,status=variable
new load.3000829768M1 bus1=RML1051435629.2.3.0,Phases=2,kv=0.22,kW=0.80744,pf=0.92,Vminpu=0.92,Vmaxpu=1.5,model=1,daily=RES3_15,status=variable
new load.3000829769M1 bus1=RML1051435615.1.2.0,Phases=2,kv=0.22,kW=0.52474,pf=0.92,Vminpu=0.92,Vmaxpu=1.5,model=1,daily=RES2_17,status=variable
new load.3000829770M1 bus1=RML1051435692.3.0,Phases=1,kv=0.127,kW=0.90986,pf=0.92,Vminpu=0.92,Vmaxpu=1.5,model=1,daily=RES2_17,status=variable
new load.3000829771M1 bus1=RML1051435720.1.0,Phases=1,kv=0.127,kW=0.33698,pf=0.92,Vminpu=0.92,Vmaxpu=1.5,model=1,daily=RES2_17,status=variable
new load.3000829772M1 bus1=RML1060621024.1.2.0,Phases=2,kv=0.22,kW=0.36986,pf=0.92,Vminpu=0.92,Vmaxpu=1.5,model=1,daily=RES1_17,status=variable
new load.3000829774M1 bus1=RML1051435706.1.2.3.0,Phases=3,kv=0.22,kW=7.94476,pf=0.92,Vminpu=0.92,Vmaxpu=1.5,model=1,daily=COM3_19,status=variable
new load.3000829777M1 bus1=RML1051435762.1.0,Phases=1,kv=0.127,kW=0.12036,pf=0.92,Vminpu=0.92,Vmaxpu=1.5,model=1,daily=RES2_17,status=variable
new load.3000829779M1 bus1=RML1051435776.1.0,Phases=1,kv=0.127,kW=0.15924,pf=0.92,Vminpu=0.92,Vmaxpu=1.5,model=1,daily=RES1_17,status=variable
new load.3000829780M1 bus1=RML1051435755.2.3.0,Phases=2,kv=0.22,kW=1.19252,pf=0.92,Vminpu=0.92,Vmaxpu=1.5,model=1,daily=RES3_15,status=variable
new load.3000829781M1 bus1=RML1051435783.2.0,Phases=1,kv=0.127,kW=0.43326,pf=0.92,Vminpu=0.92,Vmaxpu=1.5,model=1,daily=RES2_17,status=variable
new load.3000829782M1 bus1=RML1051435790.2.0,Phases=1,kv=0.127,kW=0.4477,pf=0.92,Vminpu=0.92,Vmaxpu=1.5,model=1,daily=RES2_17,status=variable
new load.3000829783M1 bus1=RML1051435531.1.0,Phases=1,kv=0.127,kW=0.50548,pf=0.92,Vminpu=0.92,Vmaxpu=1.5,model=1,daily=RES2_17,status=variable
new load.3000829784M1 bus1=RML1051435461.1.3.0,Phases=2,kv=0.22,kW=0.28402,pf=0.92,Vminpu=0.92,Vmaxpu=1.5,model=1,daily=RES2_17,status=variable
new load.3000829785M1 bus1=RML1051720193.1.0,Phases=1,kv=0.127,kW=0.41882,pf=0.92,Vminpu=0.92,Vmaxpu=1.5,model=1,daily=RES2_17,status=variable
new load.3000829786M1 bus1=RML1051435468.2.3.0,Phases=2,kv=0.22,kW=0.59694,pf=0.92,Vminpu=0.92,Vmaxpu=1.5,model=1,daily=RES2_17,status=variable
new load.3000829787M1 bus1=RML1051435475.2.3.0,Phases=2,kv=0.22,kW=0.42364,pf=0.92,Vminpu=0.92,Vmaxpu=1.5,model=1,daily=RES2_17,status=variable
new load.3000829788M1 bus1=RML1051435482.2.3.0,Phases=2,kv=0.22,kW=0.8232,pf=0.92,Vminpu=0.92,Vmaxpu=1.5,model=1,daily=RES2_17,status=variable
new load.3000829789M1 bus1=RML1051435517.1.0,Phases=1,kv=0.127,kW=0.60658,pf=0.92,Vminpu=0.92,Vmaxpu=1.5,model=1,daily=RES2_17,status=variable
new load.3000829791M1 bus1=RML1061039820.1.2.3.0,Phases=3,kv=0.22,kW=21.88994,pf=0.92,Vminpu=0.92,Vmaxpu=1.5,model=1,daily=COM4_18,status=variable
new load.3000829792M1 bus1=RML1051435664.2.0,Phases=1,kv=0.127,kW=1.08694,pf=0.92,Vminpu=0.92,Vmaxpu=1.5,model=1,daily=RES3_15,status=variable
new load.3000829793M1 bus1=RML1051435657.2.0,Phases=1,kv=0.127,kW=0.54398,pf=0.92,Vminpu=0.92,Vmaxpu=1.5,model=1,daily=RES2_17,status=variable
new load.3000829794M1 bus1=RML1051435650.2.3.0,Phases=2,kv=0.22,kW=0.58754,pf=0.92,Vminpu=0.92,Vmaxpu=1.5,model=1,daily=COM1_21,status=variable
new load.3000829795M1 bus1=RML1051435650.2.3.0,Phases=2,kv=0.22,kW=1.02482,pf=0.92,Vminpu=0.92,Vmaxpu=1.5,model=1,daily=RES3_15,status=variable
new load.3000829796M1 bus1=RML1051435489.1.0,Phases=1,kv=0.127,kW=0.90986,pf=0.92,Vminpu=0.92,Vmaxpu=1.5,model=1,daily=RES2_17,status=variable
new load.3000829797M1 bus1=RML1051720263.2.0,Phases=1,kv=0.127,kW=0.14924,pf=0.92,Vminpu=0.92,Vmaxpu=1.5,model=1,daily=RES2_17,status=variable
new load.3000829798M1 bus1=RML1051720347.2.0,Phases=1,kv=0.127,kW=0.2209,pf=0.92,Vminpu=0.92,Vmaxpu=1.5,model=1,daily=RES1_17,status=variable
new load.3000829799M1 bus1=RML1051720340.2.0,Phases=1,kv=0.127,kW=0.23116,pf=0.92,Vminpu=0.92,Vmaxpu=1.5,model=1,daily=RES1_17,status=variable
new load.3000829800M1 bus1=RML1051720333.1.0,Phases=1,kv=0.127,kW=0.6499,pf=0.92,Vminpu=0.92,Vmaxpu=1.5,model=1,daily=RES2_17,status=variable
new load.3000829801M1 bus1=RML1051720319.3.0,Phases=1,kv=0.127,kW=0.54036,pf=0.92,Vminpu=0.92,Vmaxpu=1.5,model=1,daily=RES3_15,status=variable
new load.3000829802M1 bus1=RML1051720298.2.0,Phases=1,kv=0.127,kW=0.42846,pf=0.92,Vminpu=0.92,Vmaxpu=1.5,model=1,daily=RES2_17,status=variable
new load.3000829803M1 bus1=RML1051720312.2.0,Phases=1,kv=0.127,kW=0.26478,pf=0.92,Vminpu=0.92,Vmaxpu=1.5,model=1,daily=RES2_17,status=variable
new load.3000829804M1 bus1=RML1051720354.1.2.3.0,Phases=3,kv=0.22,kW=0.45734,pf=0.92,Vminpu=0.92,Vmaxpu=1.5,model=1,daily=RES2_17,status=variable
new load.3000829805M1 bus1=RML1051720249.2.0,Phases=1,kv=0.127,kW=0.36586,pf=0.92,Vminpu=0.92,Vmaxpu=1.5,model=1,daily=RES2_17,status=variable
new load.3000829807M1 bus1=RML1051435601.2.0,Phases=1,kv=0.127,kW=0.01542,pf=0.92,Vminpu=0.92,Vmaxpu=1.5,model=1,daily=RES1_17,status=variable
new load.3000829808M1 bus1=RML1051435594.1.0,Phases=1,kv=0.127,kW=0.20034,pf=0.92,Vminpu=0.92,Vmaxpu=1.5,model=1,daily=RES1_17,status=variable
new load.3000829809M1 bus1=RML1051435587.1.0,Phases=1,kv=0.127,kW=0.34662,pf=0.92,Vminpu=0.92,Vmaxpu=1.5,model=1,daily=RES2_17,status=variable
new load.3000829810M1 bus1=RML1051433921.1.2.0,Phases=2,kv=0.22,kW=0.71428,pf=0.92,Vminpu=0.92,Vmaxpu=1.5,model=1,daily=RES3_15,status=variable
new load.3000829811M1 bus1=RML1051433928.1.2.0,Phases=2,kv=0.22,kW=0.38528,pf=0.92,Vminpu=0.92,Vmaxpu=1.5,model=1,daily=RES1_17,status=variable
new load.3000829812M1 bus1=RML1051433893.1.2.0,Phases=2,kv=0.22,kW=0.1952,pf=0.92,Vminpu=0.92,Vmaxpu=1.5,model=1,daily=RES1_17,status=variable
new load.3000829813M1 bus1=RML1051433886.2.0,Phases=1,kv=0.127,kW=0.64508,pf=0.92,Vminpu=0.92,Vmaxpu=1.5,model=1,daily=RES2_17,status=variable
new load.3000829814M1 bus1=RML1051433886.2.0,Phases=1,kv=0.127,kW=0.36586,pf=0.92,Vminpu=0.92,Vmaxpu=1.5,model=1,daily=RES2_17,status=variable
new load.3000829815M1 bus1=RML1051433879.2.3.0,Phases=2,kv=0.22,kW=0.36106,pf=0.92,Vminpu=0.92,Vmaxpu=1.5,model=1,daily=RES2_17,status=variable
new load.3000829816M1 bus1=RML1051433823.2.0,Phases=1,kv=0.127,kW=0.1685,pf=0.92,Vminpu=0.92,Vmaxpu=1.5,model=1,daily=RES2_17,status=variable
new load.3000829817M1 bus1=RML1051433760.3.0,Phases=1,kv=0.127,kW=0.21062,pf=0.92,Vminpu=0.92,Vmaxpu=1.5,model=1,daily=RES1_17,status=variable
new load.3000829818M1 bus1=RML1051433767.3.0,Phases=1,kv=0.127,kW=0.44178,pf=0.92,Vminpu=0.92,Vmaxpu=1.5,model=1,daily=RES1_17,status=variable
new load.3000829819M1 bus1=RML1051433725.1.2.3.0,Phases=3,kv=0.22,kW=1.49392,pf=0.92,Vminpu=0.92,Vmaxpu=1.5,model=1,daily=IND1_21,status=variable
new load.3000829820M1 bus1=RML1051433718.1.2.0,Phases=2,kv=0.22,kW=0.85092,pf=0.92,Vminpu=0.92,Vmaxpu=1.5,model=1,daily=RES3_15,status=variable
new load.3000829821M1 bus1=RML1051433746.1.0,Phases=1,kv=0.127,kW=1.36644,pf=0.92,Vminpu=0.92,Vmaxpu=1.5,model=1,daily=RES3_15,status=variable
new load.3000829822M1 bus1=RML1051433802.1.2.3.0,Phases=3,kv=0.22,kW=0.23116,pf=0.92,Vminpu=0.92,Vmaxpu=1.5,model=1,daily=RES1_17,status=variable
new load.3000829823M1 bus1=RML1051433830.3.0,Phases=1,kv=0.127,kW=0.2363,pf=0.92,Vminpu=0.92,Vmaxpu=1.5,model=1,daily=RES1_17,status=variable
new load.3000829824M1 bus1=RML1051433795.1.0,Phases=1,kv=0.127,kW=0.54398,pf=0.92,Vminpu=0.92,Vmaxpu=1.5,model=1,daily=RES2_17,status=variable
new load.3000829825M1 bus1=RML1051433788.1.0,Phases=1,kv=0.127,kW=0.66434,pf=0.92,Vminpu=0.92,Vmaxpu=1.5,model=1,daily=RES2_17,status=variable
new load.3000829826M1 bus1=RML1051433851.2.0,Phases=1,kv=0.127,kW=0.23116,pf=0.92,Vminpu=0.92,Vmaxpu=1.5,model=1,daily=RES1_17,status=variable
new load.3000829827M1 bus1=RML1051433858.1.0,Phases=1,kv=0.127,kW=0.55362,pf=0.92,Vminpu=0.92,Vmaxpu=1.5,model=1,daily=RES2_17,status=variable
new load.3000829829M1 bus1=RML1051417947.1.0,Phases=1,kv=0.127,kW=1.09316,pf=0.92,Vminpu=0.92,Vmaxpu=1.5,model=1,daily=RES3_15,status=variable
new load.3000829831M1 bus1=RML1051418017.3.0,Phases=1,kv=0.127,kW=1.11178,pf=0.92,Vminpu=0.92,Vmaxpu=1.5,model=1,daily=RES3_15,status=variable
new load.3000829832M1 bus1=RML1051418024.2.0,Phases=1,kv=0.127,kW=0.39476,pf=0.92,Vminpu=0.92,Vmaxpu=1.5,model=1,daily=RES2_17,status=variable
new load.3000829833M1 bus1=RML1051418031.3.0,Phases=1,kv=0.127,kW=0.56806,pf=0.92,Vminpu=0.92,Vmaxpu=1.5,model=1,daily=RES2_17,status=variable
new load.3000829835M1 bus1=RML1051433872.3.0,Phases=1,kv=0.127,kW=0.09246,pf=0.92,Vminpu=0.92,Vmaxpu=1.5,model=1,daily=RES1_17,status=variable
new load.3000829836M1 bus1=RML1051433865.1.0,Phases=1,kv=0.127,kW=0.54398,pf=0.92,Vminpu=0.92,Vmaxpu=1.5,model=1,daily=RES2_17,status=variable
new load.3000829837M1 bus1=RML1051433935.3.0,Phases=1,kv=0.127,kW=0.46696,pf=0.92,Vminpu=0.92,Vmaxpu=1.5,model=1,daily=RES2_17,status=variable
new load.3000829838M1 bus1=RML1051435538.3.0,Phases=1,kv=0.127,kW=0.54398,pf=0.92,Vminpu=0.92,Vmaxpu=1.5,model=1,daily=RES2_17,status=variable
new load.3000829839M1 bus1=RML1051435545.1.0,Phases=1,kv=0.127,kW=0.4766,pf=0.92,Vminpu=0.92,Vmaxpu=1.5,model=1,daily=RES2_17,status=variable
new load.3000829840M1 bus1=RML1051435552.2.0,Phases=1,kv=0.127,kW=1.0683,pf=0.92,Vminpu=0.92,Vmaxpu=1.5,model=1,daily=RES3_15,status=variable
new load.3000829841M1 bus1=RML1051435580.3.0,Phases=1,kv=0.127,kW=0.45734,pf=0.92,Vminpu=0.92,Vmaxpu=1.5,model=1,daily=RES2_17,status=variable
new load.3000829842M1 bus1=RML1051435573.2.0,Phases=1,kv=0.127,kW=0.40438,pf=0.92,Vminpu=0.92,Vmaxpu=1.5,model=1,daily=RES2_17,status=variable
new load.3000829843M1 bus1=RML1051435559.3.0,Phases=1,kv=0.127,kW=0.0565,pf=0.92,Vminpu=0.92,Vmaxpu=1.5,model=1,daily=RES1_17,status=variable
new load.3000829844M1 bus1=RML1051435643.1.2.3.0,Phases=3,kv=0.22,kW=2.54996,pf=0.92,Vminpu=0.92,Vmaxpu=1.5,model=1,daily=IND1_21,status=variable
new load.3000829845M1 bus1=RML1051435867.3.0,Phases=1,kv=0.127,kW=0.37068,pf=0.92,Vminpu=0.92,Vmaxpu=1.5,model=1,daily=RES2_17,status=variable
new load.3000829846M1 bus1=RML1051435860.1.2.3.0,Phases=3,kv=0.22,kW=0.04578,pf=0.92,Vminpu=0.92,Vmaxpu=1.5,model=1,daily=COM1_21,status=variable
new load.3000829847M1 bus1=RML1051435881.3.0,Phases=1,kv=0.127,kW=0.22626,pf=0.92,Vminpu=0.92,Vmaxpu=1.5,model=1,daily=RES2_17,status=variable
new load.3000829849M1 bus1=RML1051435979.1.0,Phases=1,kv=0.127,kW=0.2363,pf=0.92,Vminpu=0.92,Vmaxpu=1.5,model=1,daily=RES1_17,status=variable
new load.3000829855M1 bus1=RML1051436280.1.2.3.0,Phases=3,kv=0.22,kW=0.71248,pf=0.92,Vminpu=0.92,Vmaxpu=1.5,model=1,daily=RES2_17,status=variable
new load.3000829856M1 bus1=RML1051436280.1.2.3.0,Phases=3,kv=0.22,kW=0.31336,pf=0.92,Vminpu=0.92,Vmaxpu=1.5,model=1,daily=RES1_17,status=variable
new load.3000829857M1 bus1=RML1051436280.1.2.3.0,Phases=3,kv=0.22,kW=0.28884,pf=0.92,Vminpu=0.92,Vmaxpu=1.5,model=1,daily=RES2_17,status=variable
new load.3000829858M1 bus1=RML1051436280.1.2.3.0,Phases=3,kv=0.22,kW=0.4477,pf=0.92,Vminpu=0.92,Vmaxpu=1.5,model=1,daily=RES2_17,status=variable
new load.3000829859M1 bus1=RML1051436266.1.0,Phases=1,kv=0.127,kW=0.32298,pf=0.92,Vminpu=0.92,Vmaxpu=1.5,model=1,daily=RES3_15,status=variable
new load.3000829860M1 bus1=RML1051436273.2.0,Phases=1,kv=0.127,kW=0.36106,pf=0.92,Vminpu=0.92,Vmaxpu=1.5,model=1,daily=RES2_17,status=variable
new load.3000829861M1 bus1=RML1051436070.2.0,Phases=1,kv=0.127,kW=0.21576,pf=0.92,Vminpu=0.92,Vmaxpu=1.5,model=1,daily=RES1_17,status=variable
new load.3000829862M1 bus1=RML1051436077.1.0,Phases=1,kv=0.127,kW=0.7558,pf=0.92,Vminpu=0.92,Vmaxpu=1.5,model=1,daily=RES2_17,status=variable
new load.3000829863M1 bus1=RML1051433942.3.0,Phases=1,kv=0.127,kW=0.04814,pf=0.92,Vminpu=0.92,Vmaxpu=1.5,model=1,daily=RES2_17,status=variable
new load.3000829864M1 bus1=RML1051433900.2.0,Phases=1,kv=0.127,kW=0.93874,pf=0.92,Vminpu=0.92,Vmaxpu=1.5,model=1,daily=RES2_17,status=variable
new load.3000829865M1 bus1=RML1051433907.3.0,Phases=1,kv=0.127,kW=0.86334,pf=0.92,Vminpu=0.92,Vmaxpu=1.5,model=1,daily=RES3_15,status=variable
new load.3000829866M1 bus1=RML1051433914.1.0,Phases=1,kv=0.127,kW=0.59212,pf=0.92,Vminpu=0.92,Vmaxpu=1.5,model=1,daily=RES2_17,status=variable
new load.3000829867M1 bus1=RML1051433949.1.0,Phases=1,kv=0.127,kW=0.32364,pf=0.92,Vminpu=0.92,Vmaxpu=1.5,model=1,daily=RES1_17,status=variable
new load.3000829868M1 bus1=RML1051433956.2.3.0,Phases=2,kv=0.22,kW=1.31274,pf=0.92,Vminpu=0.92,Vmaxpu=1.5,model=1,daily=RES4_17,status=variable
new load.3000829869M1 bus1=RML1051436084.3.0,Phases=1,kv=0.127,kW=0.34932,pf=0.92,Vminpu=0.92,Vmaxpu=1.5,model=1,daily=RES1_17,status=variable
new load.3001004186M1 bus1=RML1051614444.1.0,Phases=1,kv=0.127,kW=0.58254,pf=0.92,Vminpu=0.92,Vmaxpu=1.5,model=1,daily=RES2_24,status=variable
new load.3001004187M1 bus1=RML1051614451.3.0,Phases=1,kv=0.127,kW=0.44356,pf=0.92,Vminpu=0.92,Vmaxpu=1.5,model=1,daily=RES1_23,status=variable
new load.3001004188M1 bus1=RML1051614479.2.0,Phases=1,kv=0.127,kW=0.25714,pf=0.92,Vminpu=0.92,Vmaxpu=1.5,model=1,daily=RES1_23,status=variable
new load.3001004189M1 bus1=RML1051614486.1.0,Phases=1,kv=0.127,kW=0.515,pf=0.92,Vminpu=0.92,Vmaxpu=1.5,model=1,daily=RES2_24,status=variable
new load.3001004191M1 bus1=RML1051614430.1.0,Phases=1,kv=0.127,kW=0.32784,pf=0.92,Vminpu=0.92,Vmaxpu=1.5,model=1,daily=RES1_23,status=variable
new load.3001004192M1 bus1=RML1051614381.2.0,Phases=1,kv=0.127,kW=0.44746,pf=0.92,Vminpu=0.92,Vmaxpu=1.5,model=1,daily=RES2_24,status=variable
new load.3001004194M1 bus1=RML1051614395.3.0,Phases=1,kv=0.127,kW=0.43712,pf=0.92,Vminpu=0.92,Vmaxpu=1.5,model=1,daily=RES1_23,status=variable
new load.3001004195M1 bus1=RML1051614318.3.0,Phases=1,kv=0.127,kW=0.6107,pf=0.92,Vminpu=0.92,Vmaxpu=1.5,model=1,daily=RES1_23,status=variable
new load.3001004196M1 bus1=RML1051614325.1.0,Phases=1,kv=0.127,kW=0.53188,pf=0.92,Vminpu=0.92,Vmaxpu=1.5,model=1,daily=RES2_24,status=variable
new load.3001004197M1 bus1=RML1051614332.3.0,Phases=1,kv=0.127,kW=0.29972,pf=0.92,Vminpu=0.92,Vmaxpu=1.5,model=1,daily=RES2_24,status=variable
new load.3001004198M1 bus1=RML1051614339.1.3.0,Phases=2,kv=0.22,kW=0.045,pf=0.92,Vminpu=0.92,Vmaxpu=1.5,model=1,daily=RES1_23,status=variable
new load.3001004199M1 bus1=RML1051614346.1.3.0,Phases=2,kv=0.22,kW=0.09642,pf=0.92,Vminpu=0.92,Vmaxpu=1.5,model=1,daily=RES1_23,status=variable
new load.3001004200M1 bus1=RML1051614374.1.0,Phases=1,kv=0.127,kW=0.15196,pf=0.92,Vminpu=0.92,Vmaxpu=1.5,model=1,daily=RES2_24,status=variable
new load.3001004201M1 bus1=RML1051657844.2.0,Phases=1,kv=0.127,kW=0.68808,pf=0.92,Vminpu=0.92,Vmaxpu=1.5,model=1,daily=RES2_24,status=variable
new load.3001004202M1 bus1=RML1051657858.2.0,Phases=1,kv=0.127,kW=0.54034,pf=0.92,Vminpu=0.92,Vmaxpu=1.5,model=1,daily=RES2_24,status=variable
new load.3001004204M1 bus1=RML1051657781.1.0,Phases=1,kv=0.127,kW=0.225,pf=0.92,Vminpu=0.92,Vmaxpu=1.5,model=1,daily=RES1_23,status=variable
new load.3001004205M1 bus1=RML1051657774.2.0,Phases=1,kv=0.127,kW=0.41142,pf=0.92,Vminpu=0.92,Vmaxpu=1.5,model=1,daily=RES1_23,status=variable
new load.3001004206M1 bus1=RML1051657760.3.0,Phases=1,kv=0.127,kW=0.27642,pf=0.92,Vminpu=0.92,Vmaxpu=1.5,model=1,daily=RES1_23,status=variable
new load.3001004208M1 bus1=RML1051657795.2.0,Phases=1,kv=0.127,kW=0.47018,pf=0.92,Vminpu=0.92,Vmaxpu=1.5,model=1,daily=RES3_19,status=variable
new load.3001004210M1 bus1=RML1051657809.1.2.3.0,Phases=3,kv=0.22,kW=0.39886,pf=0.92,Vminpu=0.92,Vmaxpu=1.5,model=1,daily=COM2_26,status=variable
new load.3001004211M1 bus1=RML1051657816.1.2.3.0,Phases=3,kv=0.22,kW=4.15814,pf=0.92,Vminpu=0.92,Vmaxpu=1.5,model=1,daily=RES5_18,status=variable
new load.3001004214M1 bus1=RML1051657599.3.0,Phases=1,kv=0.127,kW=1.42372,pf=0.92,Vminpu=0.92,Vmaxpu=1.5,model=1,daily=RES4_19,status=variable
new load.3001004215M1 bus1=RML1051657592.1.0,Phases=1,kv=0.127,kW=0.3166,pf=0.92,Vminpu=0.92,Vmaxpu=1.5,model=1,daily=RES2_24,status=variable
new load.3001004216M1 bus1=RML1051657585.2.3.0,Phases=2,kv=0.22,kW=0.01928,pf=0.92,Vminpu=0.92,Vmaxpu=1.5,model=1,daily=RES1_23,status=variable
new load.3001004218M1 bus1=RML1051657466.1.0,Phases=1,kv=0.127,kW=0.27438,pf=0.92,Vminpu=0.92,Vmaxpu=1.5,model=1,daily=RES2_24,status=variable
new load.3001004221M1 bus1=RML1053156215.2.0,Phases=1,kv=0.127,kW=0.4137,pf=0.92,Vminpu=0.92,Vmaxpu=1.5,model=1,daily=RES2_24,status=variable
new load.3001004222M1 bus1=RML1051657536.2.3.0,Phases=2,kv=0.22,kW=0.50656,pf=0.92,Vminpu=0.92,Vmaxpu=1.5,model=1,daily=RES2_24,status=variable
new load.3001004223M1 bus1=RML1056317714.1.0,Phases=1,kv=0.127,kW=0.44998,pf=0.92,Vminpu=0.92,Vmaxpu=1.5,model=1,daily=RES1_23,status=variable