new line.10045608 bus1=BBT146362248.1.2.0,bus2=BBT146362255.1.2.0,Phases=2,Linecode=BT521_BT521_7_2_1,Length=0.000501000,Units=km
new line.10048408 bus1=BBT3291567.1.2.0,bus2=BBT146443042.1.2.0,Phases=2,Linecode=BT803_BT803_4_2_4,Length=0.038612000,Units=km
new line.10048415 bus1=BBT3291567.1.2.0,bus2=BBT146443049.1.2.0,Phases=2,Linecode=BT803_BT803_4_2_4,Length=0.041497000,Units=km
new line.1034081 bus1=BBT1110178.1.2.0,bus2=BBT1110185.1.2.0,Phases=2,Linecode=BT304_BT304_7_2_1,Length=0.000501000,Units=km
new line.1067506 bus1=BBT1144562.1.2.0,bus2=BBT1144569.1.2.0,Phases=2,Linecode=BT508_BT508_7_2_1,Length=0.000501000,Units=km
new line.1067513 bus1=BBT1144569.1.2.0,bus2=BBT1144576.1.2.0,Phases=2,Linecode=BT108_BT107_7_2_1,Length=0.033311000,Units=km
new line.1067520 bus1=BBT1144569.1.2.0,bus2=BBT1144639.1.2.0,Phases=2,Linecode=BT108_BT107_7_2_1,Length=0.031121000,Units=km
new line.1067527 bus1=BBT1144576.1.2.0,bus2=BBT1144583.1.2.0,Phases=2,Linecode=BT106_BT106_7_2_1,Length=0.026180000,Units=km
new line.1067541 bus1=BBT1144590.1.2.0,bus2=BBT2261965.1.2.0,Phases=2,Linecode=BT807_BT807_4_2_3,Length=0.034665000,Units=km
new line.1067548 bus1=BBT1144597.1.2.0,bus2=BBT1144590.1.2.0,Phases=2,Linecode=BT807_BT807_4_2_3,Length=0.034665000,Units=km
new line.1067555 bus1=BBT1144604.1.2.0,bus2=BBT1144597.1.2.0,Phases=2,Linecode=BT807_BT807_4_2_3,Length=0.036079000,Units=km
new line.1067562 bus1=BBT2261944.1.2.0,bus2=BBT1144604.1.2.0,Phases=2,Linecode=BT508_BT508_7_2_1,Length=0.000501000,Units=km
new line.1067569 bus1=BBT1144604.1.2.0,bus2=BBT1144611.1.2.0,Phases=2,Linecode=BT807_BT807_4_2_3,Length=0.036079000,Units=km
new line.1067576 bus1=BBT1144611.1.2.0,bus2=BBT1144618.1.2.0,Phases=2,Linecode=BT807_BT807_4_2_3,Length=0.039634000,Units=km
new line.1067583 bus1=BBT1144618.1.2.0,bus2=BBT1144625.1.2.0,Phases=2,Linecode=BT808_BT808_4_2_3,Length=0.055051000,Units=km
new line.1067597 bus1=BBT1144625.1.2.0,bus2=BBT1144632.1.2.0,Phases=2,Linecode=BT106_BT106_7_2_1,Length=0.023607000,Units=km
new line.1067611 bus1=BBT1144639.1.2.0,bus2=BBT1144646.1.2.0,Phases=2,Linecode=BT108_BT107_7_2_1,Length=0.030422000,Units=km
new line.1067989 bus1=BBT1144982.1.2.0,bus2=BBT1144989.1.2.0,Phases=2,Linecode=BT508_BT508_7_2_1,Length=0.000501000,Units=km
new line.1067996 bus1=BBT1144989.1.2.0,bus2=BBT1144996.1.2.0,Phases=2,Linecode=BT108_BT107_7_2_1,Length=0.041023000,Units=km
new line.1068003 bus1=BBT1144989.1.2.0,bus2=BBT1145038.1.2.0,Phases=2,Linecode=BT108_BT107_7_2_1,Length=0.033250000,Units=km
new line.1068010 bus1=BBT1144996.1.2.0,bus2=BBT1145003.1.2.0,Phases=2,Linecode=BT108_BT107_7_2_1,Length=0.033950000,Units=km
new line.1068017 bus1=BBT1145003.1.2.0,bus2=BBT1145010.1.2.0,Phases=2,Linecode=BT106_BT106_7_2_1,Length=0.036079000,Units=km
new line.1068031 bus1=BBT1145010.1.2.0,bus2=BBT1145017.1.2.0,Phases=2,Linecode=BT106_BT106_7_2_1,Length=0.037493000,Units=km
new line.1068038 bus1=BBT1145017.1.2.0,bus2=BBT1145024.1.2.0,Phases=2,Linecode=BT106_BT106_7_2_1,Length=0.035618000,Units=km
new line.1068045 bus1=BBT1145024.1.2.0,bus2=BBT1145031.1.2.0,Phases=2,Linecode=BT106_BT106_7_2_1,Length=0.030008000,Units=km
new line.1068052 bus1=BBT1145038.1.2.0,bus2=BBT1145045.1.2.0,Phases=2,Linecode=BT108_BT107_7_2_1,Length=0.035365000,Units=km
new line.1068059 bus1=BBT1145045.1.2.0,bus2=BBT1145052.1.2.0,Phases=2,Linecode=BT106_BT106_7_2_1,Length=0.028327000,Units=km
new line.1068066 bus1=BBT1145045.1.2.0,bus2=BBT1145073.1.2.0,Phases=2,Linecode=BT107_BT106_7_2_1,Length=0.033250000,Units=km
new line.1068073 bus1=BBT1145052.1.2.0,bus2=BBT1145059.1.2.0,Phases=2,Linecode=BT106_BT106_7_2_1,Length=0.031153000,Units=km
new line.1068080 bus1=BBT1145059.1.2.0,bus2=BBT1145066.1.2.0,Phases=2,Linecode=BT106_BT106_7_2_1,Length=0.031249000,Units=km
new line.1068248 bus1=BBT1145220.1.2.0,bus2=BBT1145227.1.2.0,Phases=2,Linecode=BT513_BT513_7_2_1,Length=0.000501000,Units=km
new line.1068255 bus1=BBT1145227.1.2.0,bus2=BBT1145234.1.2.0,Phases=2,Linecode=BT108_BT107_7_2_1,Length=0.031836000,Units=km
new line.1068262 bus1=BBT1145227.1.2.0,bus2=BBT1145290.1.2.0,Phases=2,Linecode=BT108_BT107_7_2_1,Length=0.038194000,Units=km
new line.1068269 bus1=BBT1145234.1.2.0,bus2=BBT1145241.1.2.0,Phases=2,Linecode=BT108_BT107_7_2_1,Length=0.045267000,Units=km
new line.1068276 bus1=BBT1145234.1.2.0,bus2=BBT1145255.1.2.0,Phases=2,Linecode=BT106_BT106_7_2_1,Length=0.039608000,Units=km
new line.1068283 bus1=BBT1145241.1.2.0,bus2=BBT1145248.1.2.0,Phases=2,Linecode=BT108_BT107_7_2_1,Length=0.032536000,Units=km
new line.1068290 bus1=BBT1145255.1.2.0,bus2=BBT1145262.1.2.0,Phases=2,Linecode=BT106_BT106_7_2_1,Length=0.038611000,Units=km
new line.1068297 bus1=BBT1145262.1.2.0,bus2=BBT1145269.1.2.0,Phases=2,Linecode=BT106_BT106_7_2_1,Length=0.036079000,Units=km
new line.1068304 bus1=BBT1145269.1.2.0,bus2=BBT1145276.1.2.0,Phases=2,Linecode=BT106_BT106_7_2_1,Length=0.032536000,Units=km
new line.1068311 bus1=BBT1145276.1.2.0,bus2=BBT1145283.1.2.0,Phases=2,Linecode=BT106_BT106_7_2_1,Length=0.033610000,Units=km
new line.1068318 bus1=BBT1145290.1.2.0,bus2=BBT1145297.1.2.0,Phases=2,Linecode=BT107_BT106_7_2_1,Length=0.038908000,Units=km
new line.1068325 bus1=BBT1145297.1.2.0,bus2=BBT1145304.1.2.0,Phases=2,Linecode=BT106_BT106_7_2_1,Length=0.039215000,Units=km
new line.1068332 bus1=BBT1145304.1.2.0,bus2=BBT1145311.1.2.0,Phases=2,Linecode=BT106_BT106_7_2_1,Length=0.047023000,Units=km
new line.1068339 bus1=BBT1145311.1.2.0,bus2=BBT1145318.1.2.0,Phases=2,Linecode=BT106_BT106_7_2_1,Length=0.037225000,Units=km
new line.1068346 bus1=BBT1145318.1.2.0,bus2=BBT1145325.1.2.0,Phases=2,Linecode=BT106_BT106_7_2_1,Length=0.035856000,Units=km
new line.1068353 bus1=BBT1145325.1.2.0,bus2=BBT1145332.1.2.0,Phases=2,Linecode=BT106_BT106_7_2_1,Length=0.034679000,Units=km
new line.1068822 bus1=BBT1145794.1.2.0,bus2=BBT1145801.1.2.0,Phases=2,Linecode=BT508_BT508_7_2_1,Length=0.000501000,Units=km
new line.1068829 bus1=BBT1145801.1.2.0,bus2=BBT1145808.1.2.0,Phases=2,Linecode=BT108_BT108_7_2_1,Length=0.039062000,Units=km
new line.1068836 bus1=BBT1145801.1.2.0,bus2=BBT1145850.1.2.0,Phases=2,Linecode=BT108_BT108_7_2_1,Length=0.041242000,Units=km
new line.1068843 bus1=BBT1145808.1.2.0,bus2=BBT1145815.1.2.0,Phases=2,Linecode=BT108_BT108_7_2_1,Length=0.036245000,Units=km
new line.1068850 bus1=BBT1145815.1.2.0,bus2=BBT1145822.1.2.0,Phases=2,Linecode=BT108_BT108_7_2_1,Length=0.030814000,Units=km
new line.1068857 bus1=BBT1145822.1.2.0,bus2=BBT1145829.1.2.0,Phases=2,Linecode=BT106_BT106_7_2_1,Length=0.029077000,Units=km
new line.1068864 bus1=BBT1145829.1.2.0,bus2=BBT1145836.1.2.0,Phases=2,Linecode=BT106_BT106_7_2_1,Length=0.030241000,Units=km
new line.1068871 bus1=BBT1145836.1.2.0,bus2=BBT1145843.1.2.0,Phases=2,Linecode=BT106_BT106_7_2_1,Length=0.029740000,Units=km
new line.1068878 bus1=BBT1145850.1.2.0,bus2=BBT1145857.1.2.0,Phases=2,Linecode=BT106_BT106_7_2_1,Length=0.033430000,Units=km
new line.1068885 bus1=BBT1145850.1.2.0,bus2=BBT1145878.1.2.0,Phases=2,Linecode=BT108_BT108_7_2_1,Length=0.026256000,Units=km
new line.1068892 bus1=BBT1145857.1.2.0,bus2=BBT1145864.1.2.0,Phases=2,Linecode=BT107_BT107_7_2_1,Length=0.031153000,Units=km
new line.1068899 bus1=BBT1145864.1.2.0,bus2=BBT1145871.1.2.0,Phases=2,Linecode=BT106_BT106_7_2_1,Length=0.031121000,Units=km
new line.1068906 bus1=BBT1145878.1.2.0,bus2=BBT1145885.1.2.0,Phases=2,Linecode=BT107_BT107_7_2_1,Length=0.029841000,Units=km
new line.1008384 bus1=BBT1081639.1.2.0,bus2=BBT1081646.1.2.0,Phases=2,Linecode=BT307_BT307_7_2_1,Length=0.000501000,Units=km
new line.1021894 bus1=BBT1096283.1.2.3.0,bus2=BBT1096290.1.2.3.0,Phases=3,Linecode=BT514_BT514_7_3_1,Length=0.000501000,Units=km
new line.1022573 bus1=BBT1097011.1.2.0,bus2=BBT1097018.1.2.0,Phases=2,Linecode=BT304_BT304_7_2_1,Length=0.000501000,Units=km
new line.1022951 bus1=BBT1097410.1.2.0,bus2=BBT1097417.1.2.0,Phases=2,Linecode=BT307_BT307_7_2_1,Length=0.000501000,Units=km
new line.1023301 bus1=BBT1097795.1.2.0,bus2=BBT1097802.1.2.0,Phases=2,Linecode=BT304_BT304_7_2_1,Length=0.000501000,Units=km
new line.1023854 bus1=BBT1098327.1.2.0,bus2=BBT1098334.1.2.0,Phases=2,Linecode=BT304_BT304_7_2_1,Length=0.000501000,Units=km
new line.1024148 bus1=BBT1098670.1.2.0,bus2=BBT1098677.1.2.0,Phases=2,Linecode=BT307_BT307_7_2_1,Length=0.000501000,Units=km
new line.1050097 bus1=BBT1126537.1.2.0,bus2=BBT1126544.1.2.0,Phases=2,Linecode=BT306_BT306_7_2_1,Length=0.000501000,Units=km
new line.1050202 bus1=BBT1126663.1.2.0,bus2=BBT1126670.1.2.0,Phases=2,Linecode=BT306_BT306_7_2_1,Length=0.000501000,Units=km
new line.1050440 bus1=BBT1126915.1.2.0,bus2=BBT1126922.1.2.0,Phases=2,Linecode=BT307_BT307_7_2_1,Length=0.000501000,Units=km
new line.1050489 bus1=BBT1126957.1.2.0,bus2=BBT1126964.1.2.0,Phases=2,Linecode=BT306_BT306_7_2_1,Length=0.000501000,Units=km
new line.1050517 bus1=BBT1126999.1.2.0,bus2=BBT1127006.1.2.0,Phases=2,Linecode=BT306_BT306_7_2_1,Length=0.000501000,Units=km
new line.1050622 bus1=BBT1127118.1.2.0,bus2=BBT1127125.1.2.0,Phases=2,Linecode=BT307_BT307_7_2_1,Length=0.000501000,Units=km
new line.1050811 bus1=BBT1127321.1.2.0,bus2=BBT1127328.1.2.0,Phases=2,Linecode=BT306_BT306_7_2_1,Length=0.000501000,Units=km
new line.1050986 bus1=BBT1127503.1.2.0,bus2=BBT1127510.1.2.0,Phases=2,Linecode=BT306_BT306_7_2_1,Length=0.000501000,Units=km
new line.1051042 bus1=BBT1127580.1.2.0,bus2=BBT1127587.1.2.0,Phases=2,Linecode=BT307_BT307_7_2_1,Length=0.000501000,Units=km
new line.1053058 bus1=BBT1129666.1.2.0,bus2=BBT1129673.1.2.0,Phases=2,Linecode=BT306_BT306_7_2_1,Length=0.000501000,Units=km
new line.1053142 bus1=BBT1129771.1.2.0,bus2=BBT1129778.1.2.0,Phases=2,Linecode=BT306_BT306_7_2_1,Length=0.000501000,Units=km
new line.1096640 bus1=BBT1173584.1.2.0,bus2=BBT1173591.1.2.0,Phases=2,Linecode=BT306_BT306_7_2_1,Length=0.000501000,Units=km
new line.1096647 bus1=BBT1173598.1.2.0,bus2=BBT1173605.1.2.0,Phases=2,Linecode=BT513_BT513_7_2_1,Length=0.000501000,Units=km
new line.1097228 bus1=BBT1174200.1.2.0,bus2=BBT1174207.1.2.0,Phases=2,Linecode=BT307_BT307_7_2_1,Length=0.000501000,Units=km
new line.1097235 bus1=BBT1174214.1.2.0,bus2=BBT1174221.1.2.0,Phases=2,Linecode=BT316_BT316_7_2_1,Length=0.000501000,Units=km
new line.1097585 bus1=BBT1174585.1.2.3.0,bus2=BBT1174760.1.2.3.0,Phases=3,Linecode=BT810_BT810_4_3_4,Length=0.040817000,Units=km
new line.1097592 bus1=BBT1174585.1.2.3.0,bus2=BBT1174599.1.2.3.0,Phases=3,Linecode=BT810_BT810_4_3_4,Length=0.042733000,Units=km
new line.1097599 bus1=BBT1174585.1.2.3.0,bus2=BBT1174620.1.2.3.0,Phases=3,Linecode=BT810_BT810_4_3_4,Length=0.035451000,Units=km
new line.1097606 bus1=BBT1174592.1.2.3.0,bus2=BBT1174753.1.2.3.0,Phases=3,Linecode=BT810_BT810_4_3_4,Length=0.041774000,Units=km
new line.1097613 bus1=BBT1174592.1.2.3.0,bus2=BBT1174634.1.2.3.0,Phases=3,Linecode=BT810_BT810_4_3_4,Length=0.034216000,Units=km
new line.1097620 bus1=BBT1174599.1.2.3.0,bus2=BBT1174592.1.2.3.0,Phases=3,Linecode=BT810_BT810_4_3_4,Length=0.039306000,Units=km
new line.1097627 bus1=BBT1174606.1.2.3.0,bus2=BBT1174613.1.2.3.0,Phases=3,Linecode=BT810_BT810_4_3_4,Length=0.035182000,Units=km
new line.1097634 bus1=BBT1174627.1.2.3.0,bus2=BBT1174585.1.2.3.0,Phases=3,Linecode=BT803_BT803_4_3_4,Length=0.039306000,Units=km
new line.1097641 bus1=BBT1174634.1.2.3.0,bus2=BBT1174606.1.2.3.0,Phases=3,Linecode=BT810_BT810_4_3_4,Length=0.032025000,Units=km
new line.1097648 bus1=BBT1174641.1.2.3.0,bus2=BBT1174746.1.2.3.0,Phases=3,Linecode=BT810_BT810_4_3_4,Length=0.033966000,Units=km
new line.1097655 bus1=BBT1174648.1.2.3.0,bus2=BBT1174655.1.2.3.0,Phases=3,Linecode=BT810_BT810_4_3_4,Length=0.046587000,Units=km
new line.1097662 bus1=BBT1174648.1.2.3.0,bus2=BBT1174641.1.2.3.0,Phases=3,Linecode=BT810_BT810_4_3_4,Length=0.032583000,Units=km
new line.1097669 bus1=BBT1174648.1.2.3.0,bus2=BBT1174662.1.2.3.0,Phases=3,Linecode=BT810_BT810_4_3_4,Length=0.039063000,Units=km
new line.1097676 bus1=BBT1174662.1.2.3.0,bus2=BBT2229086.1.2.3.0,Phases=3,Linecode=BT810_BT810_4_3_4,Length=0.043979000,Units=km
new line.1097683 bus1=BBT1174669.1.2.3.0,bus2=BBT1174676.1.2.3.0,Phases=3,Linecode=BT810_BT810_4_3_4,Length=0.043842000,Units=km
new line.1097690 bus1=BBT1174683.1.2.3.0,bus2=BBT1174725.1.2.3.0,Phases=3,Linecode=BT803_BT803_4_3_4,Length=0.033848000,Units=km
new line.1097697 bus1=BBT1174683.1.2.3.0,bus2=BBT1174648.1.2.3.0,Phases=3,Linecode=BT803_BT803_4_3_4,Length=0.033536000,Units=km
new line.1097704 bus1=BBT1174683.1.2.3.0,bus2=BBT1174732.1.2.3.0,Phases=3,Linecode=BT810_BT810_4_3_4,Length=0.036150000,Units=km
new line.1097711 bus1=BBT1174690.1.2.3.0,bus2=BBT1174739.1.2.3.0,Phases=3,Linecode=BT810_BT810_4_3_4,Length=0.036150000,Units=km
new line.1097718 bus1=BBT1174704.1.2.3.0,bus2=BBT1174683.1.2.3.0,Phases=3,Linecode=BT803_BT803_4_3_4,Length=0.033966000,Units=km
new line.1097725 bus1=BBT1174711.1.2.3.0,bus2=BBT1174704.1.2.3.0,Phases=3,Linecode=BT803_BT803_4_3_4,Length=0.025970000,Units=km
new line.1097732 bus1=BBT1174578.1.2.3.0,bus2=BBT1174711.1.2.3.0,Phases=3,Linecode=BT509_BT509_7_3_1,Length=0.000501000,Units=km
new line.1097739 bus1=BBT1174711.1.2.3.0,bus2=BBT1174718.1.2.3.0,Phases=3,Linecode=BT803_BT803_4_3_4,Length=0.029842000,Units=km
new line.1097746 bus1=BBT1174718.1.2.3.0,bus2=BBT1174627.1.2.3.0,Phases=3,Linecode=BT803_BT803_4_3_4,Length=0.048098000,Units=km
new line.1097753 bus1=BBT1174718.1.2.3.0,bus2=BBT1174669.1.2.3.0,Phases=3,Linecode=BT810_BT810_4_3_4,Length=0.036246000,Units=km
new line.1097760 bus1=BBT1174732.1.2.3.0,bus2=BBT1174690.1.2.3.0,Phases=3,Linecode=BT810_BT810_4_3_4,Length=0.035451000,Units=km
new line.1097767 bus1=BBT1174739.1.2.3.0,bus2=BBT1174697.1.2.3.0,Phases=3,Linecode=BT810_BT810_4_3_4,Length=0.034492000,Units=km
new line.1097970 bus1=BBT1174984.1.2.0,bus2=BBT1174991.1.2.0,Phases=2,Linecode=BT304_BT304_7_2_1,Length=0.000501000,Units=km
new line.1098152 bus1=BBT1175201.1.2.0,bus2=BBT1175208.1.2.0,Phases=2,Linecode=BT307_BT307_7_2_1,Length=0.000501000,Units=km
new line.1098516 bus1=BBT1175607.1.2.0,bus2=BBT1175614.1.2.0,Phases=2,Linecode=BT304_BT304_7_2_1,Length=0.000501000,Units=km
new line.1098873 bus1=BBT1175985.1.2.0,bus2=BBT1175992.1.2.0,Phases=2,Linecode=BT307_BT307_7_2_1,Length=0.000501000,Units=km
new line.1116681 bus1=BBT1193940.1.2.0,bus2=BBT1193947.1.2.0,Phases=2,Linecode=BT307_BT307_7_2_1,Length=0.000501000,Units=km
new line.1116835 bus1=BBT1194108.1.2.0,bus2=BBT1194115.1.2.0,Phases=2,Linecode=BT306_BT306_7_2_1,Length=0.000501000,Units=km
new line.1117171 bus1=BBT1194465.1.2.0,bus2=BBT1194472.1.2.0,Phases=2,Linecode=BT306_BT306_7_2_1,Length=0.000501000,Units=km
new line.1117262 bus1=BBT1194549.1.2.0,bus2=BBT1194556.1.2.0,Phases=2,Linecode=BT307_BT307_7_2_1,Length=0.000501000,Units=km
new line.1135861 bus1=BBT1214051.1.2.0,bus2=BBT1214058.1.2.0,Phases=2,Linecode=BT508_BT508_7_2_1,Length=0.000501000,Units=km
new line.1135868 bus1=BBT1214065.1.2.0,bus2=BBT1214072.1.2.0,Phases=2,Linecode=BT513_BT513_7_2_1,Length=0.000501000,Units=km
new line.1011450 bus1=BBT1084908.1.2.0,bus2=BBT1084915.1.2.0,Phases=2,Linecode=BT307_BT307_7_2_1,Length=0.000501000,Units=km
new line.1069788 bus1=BBT1146648.1.2.3.0,bus2=BBT1146683.1.2.3.0,Phases=3,Linecode=BT108_BT107_7_3_1,Length=0.031790000,Units=km
new line.1069795 bus1=BBT1146655.1.2.0,bus2=BBT1146662.1.2.0,Phases=2,Linecode=BT106_BT106_7_2_1,Length=0.031632000,Units=km
new line.1069802 bus1=BBT1146655.1.2.3.0,bus2=BBT1146669.1.2.3.0,Phases=3,Linecode=BT108_BT107_7_3_1,Length=0.038339000,Units=km
new line.1069809 bus1=BBT1146655.1.2.3.0,bus2=BBT1146676.1.2.3.0,Phases=3,Linecode=BT106_BT106_7_3_1,Length=0.051881000,Units=km
new line.1069816 bus1=BBT1146683.1.2.0,bus2=BBT1146690.1.2.0,Phases=2,Linecode=BT106_BT106_7_2_1,Length=0.042733000,Units=km
new line.1069823 bus1=BBT1146683.1.2.3.0,bus2=BBT1146704.1.2.3.0,Phases=3,Linecode=BT107_BT106_7_3_1,Length=0.045894000,Units=km
new line.1069830 bus1=BBT1146683.1.2.3.0,bus2=BBT1146711.1.2.3.0,Phases=3,Linecode=BT108_BT107_7_3_1,Length=0.032025000,Units=km
new line.1069837 bus1=BBT1146690.1.2.0,bus2=BBT1146697.1.2.0,Phases=2,Linecode=BT106_BT106_7_2_1,Length=0.040534000,Units=km
new line.1069844 bus1=BBT1146711.1.2.3.0,bus2=BBT1146718.1.2.3.0,Phases=3,Linecode=BT106_BT106_7_3_1,Length=0.031058000,Units=km
new line.1069851 bus1=BBT1146718.1.2.3.0,bus2=BBT1146725.1.2.3.0,Phases=3,Linecode=BT106_BT106_7_3_1,Length=0.037374000,Units=km
new line.1069858 bus1=BBT1146718.1.2.3.0,bus2=BBT1146739.1.2.3.0,Phases=3,Linecode=BT106_BT106_7_3_1,Length=0.050135000,Units=km
new line.1069865 bus1=BBT1146718.1.2.3.0,bus2=BBT1146746.1.2.3.0,Phases=3,Linecode=BT106_BT106_7_3_1,Length=0.047025000,Units=km
new line.1069872 bus1=BBT1146725.1.2.3.0,bus2=BBT1146732.1.2.3.0,Phases=3,Linecode=BT106_BT106_7_3_1,Length=0.036412000,Units=km
new line.1069879 bus1=BBT1146746.1.2.3.0,bus2=BBT1146753.1.2.3.0,Phases=3,Linecode=BT106_BT106_7_3_1,Length=0.039824000,Units=km
new line.1069886 bus1=BBT1146753.1.2.0,bus2=BBT1146760.1.2.0,Phases=2,Linecode=BT106_BT106_7_2_1,Length=0.044936000,Units=km
new line.1070173 bus1=BBT1147068.1.2.3.0,bus2=BBT1147075.1.2.3.0,Phases=3,Linecode=BT508_BT508_7_3_1,Length=0.000501000,Units=km
new line.1070180 bus1=BBT1147075.1.2.3.0,bus2=BBT1147082.1.2.3.0,Phases=3,Linecode=BT108_BT107_7_3_1,Length=0.042463000,Units=km
new line.1070187 bus1=BBT1147075.1.2.3.0,bus2=BBT1147103.1.2.3.0,Phases=3,Linecode=BT108_BT107_7_3_1,Length=0.041774000,Units=km
new line.1070194 bus1=BBT1147082.1.2.3.0,bus2=BBT1147089.1.2.3.0,Phases=3,Linecode=BT108_BT107_7_3_1,Length=0.038339000,Units=km
new line.1070201 bus1=BBT1147082.1.2.3.0,bus2=BBT1147096.1.2.3.0,Phases=3,Linecode=BT107_BT107_7_3_1,Length=0.048098000,Units=km
new line.1070208 bus1=BBT1147082.1.2.3.0,bus2=BBT1147173.1.2.3.0,Phases=3,Linecode=BT107_BT106_7_3_1,Length=0.042733000,Units=km
new line.1070215 bus1=BBT1147096.1.2.3.0,bus2=BBT1147131.1.2.3.0,Phases=3,Linecode=BT107_BT107_7_3_1,Length=0.040817000,Units=km
new line.1070229 bus1=BBT1147103.1.2.3.0,bus2=BBT2228729.1.2.3.0,Phases=3,Linecode=BT107_BT106_7_3_1,Length=0.045621000,Units=km
new line.1070236 bus1=BBT1147103.1.2.3.0,bus2=BBT1147159.1.2.3.0,Phases=3,Linecode=BT107_BT106_7_3_1,Length=0.056337000,Units=km
new line.1070250 bus1=BBT1147117.1.2.3.0,bus2=BBT1147110.1.2.3.0,Phases=3,Linecode=BT107_BT106_7_3_1,Length=0.042733000,Units=km
new line.1070264 bus1=BBT3291560.1.2.0,bus2=BBT3291567.1.2.0,Phases=2,Linecode=BT508_BT508_7_2_1,Length=0.000501000,Units=km
new line.1070278 bus1=BBT1147124.1.2.3.0,bus2=BBT1147117.1.2.3.0,Phases=3,Linecode=BT107_BT107_7_3_1,Length=0.044398000,Units=km
new line.1070285 bus1=BBT1147131.1.2.3.0,bus2=BBT1147124.1.2.3.0,Phases=3,Linecode=BT107_BT107_7_3_1,Length=0.041774000,Units=km
new line.1070292 bus1=BBT1147131.1.2.3.0,bus2=BBT1147138.1.2.3.0,Phases=3,Linecode=BT107_BT107_7_3_1,Length=0.039862000,Units=km
new line.1070299 bus1=BBT1147131.1.2.3.0,bus2=BBT1147145.1.2.3.0,Phases=3,Linecode=BT107_BT107_7_3_1,Length=0.039862000,Units=km
new line.1070306 bus1=BBT1147145.1.2.3.0,bus2=BBT1147152.1.2.3.0,Phases=3,Linecode=BT107_BT107_7_3_1,Length=0.043025000,Units=km
new line.1070313 bus1=BBT1147159.1.2.3.0,bus2=BBT1147166.1.2.3.0,Phases=3,Linecode=BT107_BT106_7_3_1,Length=0.028871000,Units=km
new line.1070320 bus1=BBT1147173.1.2.3.0,bus2=BBT1147180.1.2.3.0,Phases=3,Linecode=BT107_BT106_7_3_1,Length=0.043025000,Units=km
new line.1070544 bus1=BBT1147411.1.2.3.0,bus2=BBT1147418.1.2.3.0,Phases=3,Linecode=BT509_BT509_7_3_1,Length=0.000501000,Units=km
new line.1070551 bus1=BBT1147418.1.2.3.0,bus2=BBT1147425.1.2.3.0,Phases=3,Linecode=BT803_BT803_4_3_4,Length=0.039862000,Units=km
new line.1070558 bus1=BBT1147418.1.2.3.0,bus2=BBT1147453.1.2.3.0,Phases=3,Linecode=BT803_BT803_4_3_4,Length=0.039824000,Units=km
new line.1070565 bus1=BBT1147425.1.2.3.0,bus2=BBT1147432.1.2.3.0,Phases=3,Linecode=BT810_BT810_4_3_4,Length=0.034550000,Units=km
new line.1070572 bus1=BBT1147425.1.2.3.0,bus2=BBT1147446.1.2.3.0,Phases=3,Linecode=BT803_BT803_4_3_4,Length=0.029842000,Units=km
new line.1070579 bus1=BBT1147432.1.2.3.0,bus2=BBT1147439.1.2.3.0,Phases=3,Linecode=BT810_BT810_4_3_4,Length=0.043025000,Units=km
new line.1070586 bus1=BBT1147453.1.2.3.0,bus2=BBT1147460.1.2.3.0,Phases=3,Linecode=BT810_BT810_4_3_4,Length=0.030092000,Units=km
new line.1070593 bus1=BBT1147453.1.2.3.0,bus2=BBT1147467.1.2.3.0,Phases=3,Linecode=BT803_BT803_4_3_4,Length=0.037374000,Units=km
new line.1070600 bus1=BBT1147467.1.2.3.0,bus2=BBT1147488.1.2.3.0,Phases=3,Linecode=BT810_BT810_4_3_4,Length=0.040534000,Units=km
new line.1070607 bus1=BBT1147474.1.2.3.0,bus2=BBT1147495.1.2.3.0,Phases=3,Linecode=BT810_BT810_4_3_4,Length=0.038339000,Units=km
new line.1070614 bus1=BBT1147481.1.2.3.0,bus2=BBT2690022.1.2.3.0,Phases=3,Linecode=BT810_BT810_4_3_4,Length=0.033966000,Units=km
new line.1070621 bus1=BBT1147488.1.2.3.0,bus2=BBT1147474.1.2.3.0,Phases=3,Linecode=BT810_BT810_4_3_4,Length=0.039306000,Units=km
new line.1070628 bus1=BBT1147495.1.2.3.0,bus2=BBT1147481.1.2.3.0,Phases=3,Linecode=BT810_BT810_4_3_4,Length=0.037654000,Units=km
new line.1071062 bus1=BBT1147950.1.2.0,bus2=BBT1147957.1.2.0,Phases=2,Linecode=BT508_BT508_7_2_1,Length=0.000501000,Units=km
new line.1071069 bus1=BBT1147957.1.2.0,bus2=BBT1147964.1.2.0,Phases=2,Linecode=BT108_BT107_7_2_1,Length=0.036412000,Units=km
new line.1071076 bus1=BBT1147957.1.2.0,bus2=BBT1147971.1.2.0,Phases=2,Linecode=BT108_BT107_7_2_1,Length=0.033432000,Units=km
new line.1071083 bus1=BBT1147964.1.2.0,bus2=BBT1147985.1.2.0,Phases=2,Linecode=BT106_BT106_7_2_1,Length=0.041244000,Units=km
new line.1071090 bus1=BBT1147971.1.2.0,bus2=BBT1147978.1.2.0,Phases=2,Linecode=BT106_BT106_7_2_1,Length=0.052447000,Units=km
new line.1099356 bus1=BBT1176475.1.2.0,bus2=BBT1176482.1.2.0,Phases=2,Linecode=BT304_BT304_7_2_1,Length=0.000501000,Units=km
new line.1100266 bus1=BBT1177441.1.2.0,bus2=BBT1177448.1.2.0,Phases=2,Linecode=BT307_BT307_7_2_1,Length=0.000501000,Units=km
new line.1100574 bus1=BBT1177756.1.2.0,bus2=BBT1177763.1.2.0,Phases=2,Linecode=BT307_BT307_7_2_1,Length=0.000501000,Units=km
new line.1101071 bus1=BBT1178358.1.2.0,bus2=BBT1178365.1.2.0,Phases=2,Linecode=BT304_BT304_7_2_1,Length=0.000501000,Units=km
new line.1101274 bus1=BBT1178582.1.2.0,bus2=BBT1178589.1.2.0,Phases=2,Linecode=BT304_BT304_7_2_1,Length=0.000501000,Units=km
new line.1128091 bus1=BBT1205595.1.2.0,bus2=BBT1205602.1.2.0,Phases=2,Linecode=BT307_BT307_7_2_1,Length=0.000501000,Units=km
new line.1028929 bus1=BBT1104431.1.2.0,bus2=BBT1104438.1.2.0,Phases=2,Linecode=BT307_BT307_7_2_1,Length=0.000501000,Units=km
new line.1029475 bus1=BBT1105047.1.2.0,bus2=BBT1105054.1.2.0,Phases=2,Linecode=BT307_BT307_7_2_1,Length=0.000501000,Units=km
new line.1029853 bus1=BBT1105460.1.2.0,bus2=BBT1105467.1.2.0,Phases=2,Linecode=BT307_BT307_7_2_1,Length=0.000501000,Units=km
new line.1030525 bus1=BBT1106153.1.2.0,bus2=BBT1106160.1.2.0,Phases=2,Linecode=BT304_BT304_7_2_1,Length=0.000501000,Units=km
new line.1030574 bus1=BBT1106223.1.2.0,bus2=BBT1106230.1.2.0,Phases=2,Linecode=BT508_BT508_7_2_1,Length=0.000501000,Units=km
new line.1030581 bus1=BBT1106230.1.2.0,bus2=BBT1106237.1.2.0,Phases=2,Linecode=BT107_BT107_7_2_1,Length=0.034023000,Units=km
new line.1030588 bus1=BBT1106230.1.2.0,bus2=BBT1106251.1.2.0,Phases=2,Linecode=BT107_BT107_7_2_1,Length=0.038023000,Units=km
new line.1030595 bus1=BBT1106237.1.2.0,bus2=BBT1106244.1.2.0,Phases=2,Linecode=BT107_BT107_7_2_1,Length=0.035066000,Units=km
new line.1030623 bus1=BBT1106251.1.2.0,bus2=BBT1106258.1.2.0,Phases=2,Linecode=BT107_BT107_7_2_1,Length=0.036065000,Units=km
new line.1053226 bus1=BBT1129869.1.2.0,bus2=BBT1129876.1.2.0,Phases=2,Linecode=BT307_BT307_7_2_1,Length=0.000501000,Units=km
new line.1053303 bus1=BBT1129967.1.2.0,bus2=BBT1129974.1.2.0,Phases=2,Linecode=BT307_BT307_7_2_1,Length=0.000501000,Units=km
new line.1053324 bus1=BBT1130009.1.2.0,bus2=BBT1130016.1.2.0,Phases=2,Linecode=BT306_BT306_7_2_1,Length=0.000501000,Units=km
new line.1053415 bus1=BBT1130107.1.2.0,bus2=BBT1130114.1.2.0,Phases=2,Linecode=BT306_BT306_7_2_1,Length=0.000501000,Units=km
new line.1053485 bus1=BBT1130184.1.2.0,bus2=BBT1130191.1.2.0,Phases=2,Linecode=BT307_BT307_7_2_1,Length=0.000501000,Units=km
new line.1053919 bus1=BBT1130611.1.2.0,bus2=BBT1130618.1.2.0,Phases=2,Linecode=BT307_BT307_7_2_1,Length=0.000501000,Units=km
new line.1054080 bus1=BBT1130786.1.2.0,bus2=BBT1130793.1.2.0,Phases=2,Linecode=BT307_BT307_7_2_1,Length=0.000501000,Units=km
new line.1054423 bus1=BBT1131129.1.2.0,bus2=BBT1131136.1.2.0,Phases=2,Linecode=BT307_BT307_7_2_1,Length=0.000501000,Units=km
new line.1055221 bus1=BBT1132046.1.2.0,bus2=BBT1132053.1.2.0,Phases=2,Linecode=BT508_BT508_7_2_1,Length=0.000501000,Units=km
new line.1055326 bus1=BBT1132179.1.2.0,bus2=BBT1132186.1.2.0,Phases=2,Linecode=BT306_BT306_7_2_1,Length=0.000501000,Units=km
new line.1086273 bus1=BBT1162370.1.2.0,bus2=BBT1162377.1.2.0,Phases=2,Linecode=BT508_BT508_7_2_1,Length=0.000501000,Units=km
new line.1086280 bus1=BBT1162377.1.2.0,bus2=BBT1162384.1.2.0,Phases=2,Linecode=BT108_BT108_7_2_1,Length=0.028643000,Units=km
new line.1086287 bus1=BBT1162377.1.2.0,bus2=BBT1162419.1.2.0,Phases=2,Linecode=BT108_BT108_7_2_1,Length=0.033965000,Units=km
new line.1086294 bus1=BBT1162384.1.2.0,bus2=BBT1162391.1.2.0,Phases=2,Linecode=BT108_BT108_7_2_1,Length=0.029841000,Units=km
new line.1086301 bus1=BBT1162391.1.2.0,bus2=BBT1162398.1.2.0,Phases=2,Linecode=BT107_BT107_7_2_1,Length=0.025717000,Units=km
new line.1086315 bus1=BBT1162398.1.2.0,bus2=BBT1162405.1.2.0,Phases=2,Linecode=BT107_BT107_7_2_1,Length=0.025717000,Units=km
new line.1086322 bus1=BBT1162405.1.2.0,bus2=BBT1162412.1.2.0,Phases=2,Linecode=BT107_BT107_7_2_1,Length=0.023776000,Units=km
new line.1086329 bus1=BBT1162419.1.2.0,bus2=BBT1162426.1.2.0,Phases=2,Linecode=BT108_BT108_7_2_1,Length=0.029436000,Units=km
new line.1086336 bus1=BBT1162426.1.2.0,bus2=BBT1162433.1.2.0,Phases=2,Linecode=BT107_BT107_7_2_1,Length=0.030373000,Units=km
new line.1086483 bus1=BBT1162580.1.2.0,bus2=BBT1162587.1.2.0,Phases=2,Linecode=BT306_BT306_7_2_1,Length=0.000501000,Units=km
new line.1086546 bus1=BBT1162657.1.2.0,bus2=BBT1162664.1.2.0,Phases=2,Linecode=BT307_BT307_7_2_1,Length=0.000501000,Units=km
new line.1086630 bus1=BBT1162769.1.2.0,bus2=BBT1162776.1.2.0,Phases=2,Linecode=BT306_BT306_7_2_1,Length=0.000501000,Units=km
new line.1087043 bus1=BBT1163182.1.2.0,bus2=BBT1163189.1.2.0,Phases=2,Linecode=BT307_BT307_7_2_1,Length=0.000501000,Units=km
new line.1087176 bus1=BBT1163336.1.2.0,bus2=BBT1163343.1.2.0,Phases=2,Linecode=BT306_BT306_7_2_1,Length=0.000501000,Units=km
new line.1087288 bus1=BBT1163476.1.2.0,bus2=BBT1163483.1.2.0,Phases=2,Linecode=BT316_BT316_7_2_1,Length=0.000501000,Units=km
new line.1087414 bus1=BBT1163609.1.2.0,bus2=BBT1163616.1.2.0,Phases=2,Linecode=BT307_BT307_7_2_1,Length=0.000501000,Units=km
new line.1087547 bus1=BBT1163749.1.2.0,bus2=BBT1163756.1.2.0,Phases=2,Linecode=BT307_BT307_7_2_1,Length=0.000501000,Units=km
new line.1087561 bus1=BBT1163777.1.2.0,bus2=BBT1163784.1.2.0,Phases=2,Linecode=BT313_BT313_7_2_1,Length=0.000501000,Units=km
new line.1087701 bus1=BBT1163924.1.2.0,bus2=BBT1163931.1.2.0,Phases=2,Linecode=BT307_BT307_7_2_1,Length=0.000501000,Units=km
new line.1088149 bus1=BBT1164428.1.2.0,bus2=BBT1164435.1.2.0,Phases=2,Linecode=BT521_BT521_7_2_1,Length=0.000501000,Units=km
new line.1109807 bus1=BBT1187192.1.2.0,bus2=BBT1187199.1.2.0,Phases=2,Linecode=BT306_BT306_7_2_1,Length=0.000501000,Units=km
new line.1109961 bus1=BBT1187346.1.2.0,bus2=BBT1187353.1.2.0,Phases=2,Linecode=BT307_BT307_7_2_1,Length=0.000501000,Units=km
new line.1110038 bus1=BBT1187430.1.2.0,bus2=BBT1187437.1.2.0,Phases=2,Linecode=BT306_BT306_7_2_1,Length=0.000501000,Units=km
new line.1110115 bus1=BBT1187514.1.2.0,bus2=BBT1187521.1.2.0,Phases=2,Linecode=BT307_BT307_7_2_1,Length=0.000501000,Units=km
new line.1110213 bus1=BBT1187626.1.2.0,bus2=BBT1187633.1.2.0,Phases=2,Linecode=BT313_BT313_7_2_1,Length=0.000501000,Units=km
new line.1110675 bus1=BBT1188109.1.2.0,bus2=BBT1188116.1.2.0,Phases=2,Linecode=BT518_BT518_7_2_1,Length=0.000501000,Units=km
new line.1111221 bus1=BBT1188620.1.2.0,bus2=BBT1188627.1.2.0,Phases=2,Linecode=BT307_BT307_7_2_1,Length=0.000501000,Units=km
new line.1111361 bus1=BBT1188767.1.2.0,bus2=BBT1188774.1.2.0,Phases=2,Linecode=BT307_BT307_7_2_1,Length=0.000501000,Units=km
new line.1122589 bus1=BBT1200065.1.2.0,bus2=BBT1200072.1.2.0,Phases=2,Linecode=BT306_BT306_7_2_1,Length=0.000501000,Units=km
new line.1122652 bus1=BBT1200107.1.2.0,bus2=BBT1200114.1.2.0,Phases=2,Linecode=BT306_BT306_7_2_1,Length=0.000501000,Units=km
new line.1122771 bus1=BBT1200233.1.2.0,bus2=BBT1200240.1.2.0,Phases=2,Linecode=BT306_BT306_7_2_1,Length=0.000501000,Units=km
new line.1123044 bus1=BBT1200506.1.2.0,bus2=BBT1200513.1.2.0,Phases=2,Linecode=BT307_BT307_7_2_1,Length=0.000501000,Units=km
new line.1123051 bus1=BBT1200520.1.2.0,bus2=BBT1200527.1.2.0,Phases=2,Linecode=BT307_BT307_7_2_1,Length=0.000501000,Units=km
new line.1123457 bus1=BBT1200912.1.2.0,bus2=BBT1200919.1.2.0,Phases=2,Linecode=BT316_BT316_7_2_1,Length=0.000501000,Units=km
new line.1123541 bus1=BBT1201010.1.2.0,bus2=BBT1201017.1.2.0,Phases=2,Linecode=BT307_BT307_7_2_1,Length=0.000501000,Units=km
new line.1124185 bus1=BBT1201675.1.2.0,bus2=BBT1201682.1.2.0,Phases=2,Linecode=BT306_BT306_7_2_1,Length=0.000501000,Units=km
new line.1124192 bus1=BBT1201689.1.2.0,bus2=BBT1201696.1.2.0,Phases=2,Linecode=BT306_BT306_7_2_1,Length=0.000501000,Units=km
new line.1124360 bus1=BBT1201836.1.2.0,bus2=BBT1201843.1.2.0,Phases=2,Linecode=BT307_BT307_7_2_1,Length=0.000501000,Units=km
new line.1124367 bus1=BBT1201850.1.2.0,bus2=BBT1201857.1.2.0,Phases=2,Linecode=BT307_BT307_7_2_1,Length=0.000501000,Units=km
new line.1124738 bus1=BBT1202228.1.2.0,bus2=BBT1202235.1.2.0,Phases=2,Linecode=BT513_BT513_7_2_1,Length=0.000501000,Units=km
new line.1069256 bus1=BBT1146116.1.2.0,bus2=BBT1146123.1.2.0,Phases=2,Linecode=BT508_BT508_7_2_1,Length=0.000501000,Units=km
new line.1069774 bus1=BBT1146641.1.2.3.0,bus2=BBT1146648.1.2.3.0,Phases=3,Linecode=BT508_BT508_7_3_1,Length=0.000501000,Units=km