new load.BT_3002374505_M1 bus1=RML1001014263.1.0,Phases=1,kv=0.127,kW=0.60652,pf=0.92,Vminpu=0.92,Vmaxpu=1.5,model=1,daily=RES1_14,status=variable
new load.BT_3002374506_M1 bus1=RML1001014270.1.2.3.0,Phases=3,kv=0.22,kW=3.3703,pf=0.92,Vminpu=0.92,Vmaxpu=1.5,model=1,daily=RES1_14,status=variable
new load.BT_3002374507_M1 bus1=RML1001014270.1.2.3.0,Phases=3,kv=0.22,kW=0.51282,pf=0.92,Vminpu=0.92,Vmaxpu=1.5,model=1,daily=RES1_14,status=variable
new load.BT_3002374508_M1 bus1=RML1001014270.1.2.3.0,Phases=3,kv=0.22,kW=1.08668,pf=0.92,Vminpu=0.92,Vmaxpu=1.5,model=1,daily=RES1_14,status=variable
new load.BT_3002374509_M1 bus1=RML1001014270.1.2.3.0,Phases=3,kv=0.22,kW=1.0457,pf=0.92,Vminpu=0.92,Vmaxpu=1.5,model=1,daily=RES1_14,status=variable
new load.BT_3002374510_M1 bus1=RML1001015390.1.2.3.0,Phases=3,kv=0.22,kW=4.63826,pf=0.92,Vminpu=0.92,Vmaxpu=1.5,model=1,daily=RES1_14,status=variable
new load.BT_3002374511_M1 bus1=RML1001015397.1.2.3.0,Phases=3,kv=0.22,kW=0.01086,pf=0.92,Vminpu=0.92,Vmaxpu=1.5,model=1,daily=RES1_14,status=variable
new load.BT_3002374512_M1 bus1=RML1001015383.1.2.0,Phases=2,kv=0.22,kW=0.01086,pf=0.92,Vminpu=0.92,Vmaxpu=1.5,model=1,daily=RES1_14,status=variable
new load.BT_3002374513_M1 bus1=RML1001015362.1.2.3.0,Phases=3,kv=0.22,kW=0.01086,pf=0.92,Vminpu=0.92,Vmaxpu=1.5,model=1,daily=RES1_14,status=variable
new load.BT_3002374514_M1 bus1=RML1001015369.1.0,Phases=1,kv=0.127,kW=0.01086,pf=0.92,Vminpu=0.92,Vmaxpu=1.5,model=1,daily=RES1_14,status=variable
new load.BT_3002374515_M1 bus1=RML1001015355.1.2.0,Phases=2,kv=0.22,kW=0.01086,pf=0.92,Vminpu=0.92,Vmaxpu=1.5,model=1,daily=RES1_14,status=variable
new load.BT_3002374516_M1 bus1=RML1001007060.1.2.3.0,Phases=3,kv=0.22,kW=0.01086,pf=0.92,Vminpu=0.92,Vmaxpu=1.5,model=1,daily=RES1_14,status=variable
new load.BT_3002374517_M1 bus1=RML1001004218.1.2.3.0,Phases=3,kv=0.22,kW=6.19266,pf=0.92,Vminpu=0.92,Vmaxpu=1.5,model=1,daily=COM1_13,status=variable
new load.BT_3002374518_M1 bus1=RML1001004232.1.2.3.0,Phases=3,kv=0.22,kW=7.92702,pf=0.92,Vminpu=0.92,Vmaxpu=1.5,model=1,daily=RES1_14,status=variable
new load.BT_3002374520_M1 bus1=RML1001004211.1.2.0,Phases=2,kv=0.22,kW=0.01086,pf=0.92,Vminpu=0.92,Vmaxpu=1.5,model=1,daily=RES1_14,status=variable
new load.BT_3002374522_M1 bus1=RML1000998149.1.2.3.0,Phases=3,kv=0.22,kW=0.01086,pf=0.92,Vminpu=0.92,Vmaxpu=1.5,model=1,daily=RES1_14,status=variable
new load.BT_3002374524_M1 bus1=RML1003336345.1.2.3.0,Phases=3,kv=0.22,kW=1.363,pf=0.92,Vminpu=0.92,Vmaxpu=1.5,model=1,daily=COM1_13,status=variable
new load.BT_3002374525_M1 bus1=RML1002910801.1.2.0,Phases=2,kv=0.24,kW=5.57704,pf=0.92,Vminpu=0.92,Vmaxpu=1.5,model=1,daily=RES1_14,status=variable
new load.BT_3002374528_M1 bus1=RML1000952166.1.2.0,Phases=2,kv=0.24,kW=2.25166,pf=0.92,Vminpu=0.92,Vmaxpu=1.5,model=1,daily=RES1_14,status=variable
new load.BT_3002374529_M1 bus1=RML1002848333.1.2.3.0,Phases=3,kv=0.22,kW=0.00356,pf=0.92,Vminpu=0.92,Vmaxpu=1.5,model=1,daily=COM1_13,status=variable
new load.BT_3002374530_M1 bus1=RML1000967384.1.2.0,Phases=2,kv=0.24,kW=2.7604,pf=0.92,Vminpu=0.92,Vmaxpu=1.5,model=1,daily=COM1_13,status=variable
new load.BT_3002374531_M1 bus1=RML1006134790.1.2.3.0,Phases=3,kv=0.22,kW=24.44366,pf=0.92,Vminpu=0.92,Vmaxpu=1.5,model=1,daily=RES1_14,status=variable
new load.BT_3002374533_M1 bus1=RML1002785963.1.2.0,Phases=2,kv=0.24,kW=0.01086,pf=0.92,Vminpu=0.92,Vmaxpu=1.5,model=1,daily=RES1_14,status=variable
new load.BT_3002374535_M1 bus1=RML1000995496.1.2.0,Phases=2,kv=0.22,kW=2.90372,pf=0.92,Vminpu=0.92,Vmaxpu=1.5,model=1,daily=RES1_14,status=variable
new load.BT_3002374536_M1 bus1=RML1006588439.1.2.0,Phases=2,kv=0.24,kW=0.68148,pf=0.92,Vminpu=0.92,Vmaxpu=1.5,model=1,daily=RES1_14,status=variable
new load.BT_3002374537_M1 bus1=RML1000995489.1.2.0,Phases=2,kv=0.22,kW=0.00356,pf=0.92,Vminpu=0.92,Vmaxpu=1.5,model=1,daily=COM1_13,status=variable
new load.BT_3002374538_M1 bus1=RML1000998044.1.2.3.0,Phases=3,kv=0.22,kW=0.01086,pf=0.92,Vminpu=0.92,Vmaxpu=1.5,model=1,daily=RES1_14,status=variable
new load.BT_3002374539_M1 bus1=RML1000998030.1.2.3.0,Phases=3,kv=0.22,kW=43.28164,pf=0.92,Vminpu=0.92,Vmaxpu=1.5,model=1,daily=RES1_14,status=variable
new load.BT_3002374540_M1 bus1=RML1000995160.1.2.3.0,Phases=3,kv=0.22,kW=32.93634,pf=0.92,Vminpu=0.92,Vmaxpu=1.5,model=1,daily=COM1_13,status=variable
new load.BT_3002374544_M1 bus1=RML1001000018.1.2.0,Phases=2,kv=0.24,kW=3.09126,pf=0.92,Vminpu=0.92,Vmaxpu=1.5,model=1,daily=RUR1_12,status=variable
new load.BT_3002374545_M1 bus1=RML1000998051.1.2.3.0,Phases=3,kv=0.22,kW=6.81632,pf=0.92,Vminpu=0.92,Vmaxpu=1.5,model=1,daily=COM1_13,status=variable
new load.BT_3002374546_M1 bus1=RML1002910815.1.2.3.0,Phases=3,kv=0.22,kW=30.13236,pf=0.92,Vminpu=0.92,Vmaxpu=1.5,model=1,daily=RUR1_12,status=variable
new load.BT_3002374547_M1 bus1=RML1001006808.1.2.0,Phases=2,kv=0.22,kW=1.9288,pf=0.92,Vminpu=0.92,Vmaxpu=1.5,model=1,daily=COM1_13,status=variable
new load.BT_3002374548_M1 bus1=RML1005866928.1.2.0,Phases=2,kv=0.24,kW=3.1932,pf=0.92,Vminpu=0.92,Vmaxpu=1.5,model=1,daily=RES1_14,status=variable
new load.BT_3002374549_M1 bus1=RML1001006801.1.2.0,Phases=2,kv=0.22,kW=0.01086,pf=0.92,Vminpu=0.92,Vmaxpu=1.5,model=1,daily=RES1_14,status=variable
new load.BT_3002374550_M1 bus1=RML1001006822.1.2.0,Phases=2,kv=0.24,kW=0.20326,pf=0.92,Vminpu=0.92,Vmaxpu=1.5,model=1,daily=COM1_13,status=variable
new load.BT_3002374551_M1 bus1=RML1001006829.1.2.0,Phases=2,kv=0.24,kW=1.06766,pf=0.92,Vminpu=0.92,Vmaxpu=1.5,model=1,daily=RUR1_12,status=variable
new load.BT_3002374552_M1 bus1=RML1001006836.1.2.0,Phases=2,kv=0.24,kW=0.7985,pf=0.92,Vminpu=0.92,Vmaxpu=1.5,model=1,daily=RUR1_12,status=variable
new load.BT_3002374553_M1 bus1=RML1001006843.1.2.0,Phases=2,kv=0.24,kW=0.10272,pf=0.92,Vminpu=0.92,Vmaxpu=1.5,model=1,daily=RUR1_12,status=variable
new load.BT_3002374555_M1 bus1=RML1001006850.1.2.0,Phases=2,kv=0.24,kW=0.34354,pf=0.92,Vminpu=0.92,Vmaxpu=1.5,model=1,daily=COM1_13,status=variable
new load.BT_3002374556_M1 bus1=RML1001006857.1.2.0,Phases=2,kv=0.24,kW=0.2601,pf=0.92,Vminpu=0.92,Vmaxpu=1.5,model=1,daily=RUR1_12,status=variable
new load.BT_3002374557_M1 bus1=RML1001006535.2.0,Phases=1,kv=0.127,kW=0.01086,pf=0.92,Vminpu=0.92,Vmaxpu=1.5,model=1,daily=RES1_14,status=variable
new load.BT_3002374558_M1 bus1=RML1001004225.1.2.3.0,Phases=3,kv=0.22,kW=13.94958,pf=0.92,Vminpu=0.92,Vmaxpu=1.5,model=1,daily=COM1_13,status=variable
new load.BT_3002374559_M1 bus1=RML1001009692.1.2.0,Phases=2,kv=0.22,kW=0.00356,pf=0.92,Vminpu=0.92,Vmaxpu=1.5,model=1,daily=COM1_13,status=variable
new load.BT_3002374567_M1 bus1=RML1001014291.1.2.3.0,Phases=3,kv=0.22,kW=0.00356,pf=0.92,Vminpu=0.92,Vmaxpu=1.5,model=1,daily=COM1_13,status=variable
new load.BT_3002374575_M1 bus1=RML1011223399.1.2.0,Phases=2,kv=0.24,kW=0.3629,pf=0.92,Vminpu=0.92,Vmaxpu=1.5,model=1,daily=COM1_13,status=variable
new load.BT_3002374581_M1 bus1=RML1000906617.1.2.0,Phases=2,kv=0.24,kW=0.87004,pf=0.92,Vminpu=0.92,Vmaxpu=1.5,model=1,daily=COM1_13,status=variable
new load.BT_3002374583_M1 bus1=RML1000883678.1.2.0,Phases=2,kv=0.24,kW=0.38616,pf=0.92,Vminpu=0.92,Vmaxpu=1.5,model=1,daily=COM1_13,status=variable
new load.BT_3002374584_M1 bus1=RML1003342274.1.2.0,Phases=2,kv=0.24,kW=0.1999,pf=0.92,Vminpu=0.92,Vmaxpu=1.5,model=1,daily=COM1_13,status=variable
new load.BT_3002374618_M1 bus1=RML1000894171.1.2.0,Phases=2,kv=0.24,kW=1.32128,pf=0.92,Vminpu=0.92,Vmaxpu=1.5,model=1,daily=COM1_13,status=variable
new load.BT_3002374619_M1 bus1=RML1011126712.1.2.0,Phases=2,kv=0.24,kW=7.25378,pf=0.92,Vminpu=0.92,Vmaxpu=1.5,model=1,daily=RES1_14,status=variable
new load.BT_3002374620_M1 bus1=RML1000975735.1.2.0,Phases=2,kv=0.24,kW=0.77626,pf=0.92,Vminpu=0.92,Vmaxpu=1.5,model=1,daily=COM1_13,status=variable
new load.BT_3002374621_M1 bus1=RML1000920799.1.2.3.0,Phases=3,kv=0.22,kW=9.39558,pf=0.92,Vminpu=0.92,Vmaxpu=1.5,model=1,daily=RUR1_12,status=variable
new load.BT_3002374622_M1 bus1=RML1002785074.1.2.0,Phases=2,kv=0.22,kW=2.26422,pf=0.92,Vminpu=0.92,Vmaxpu=1.5,model=1,daily=COM1_13,status=variable
new load.BT_3002374623_M1 bus1=RML1002910752.1.2.0,Phases=2,kv=0.24,kW=12.80076,pf=0.92,Vminpu=0.92,Vmaxpu=1.5,model=1,daily=RUR1_12,status=variable
new load.BT_3002374624_M1 bus1=RML1002853331.1.2.0,Phases=2,kv=0.24,kW=1.3169,pf=0.92,Vminpu=0.92,Vmaxpu=1.5,model=1,daily=COM1_13,status=variable
new load.BT_3002923130_M1 bus1=RML1000981524.1.2.0,Phases=2,kv=0.22,kW=1.67932,pf=0.92,Vminpu=0.92,Vmaxpu=1.5,model=1,daily=RES1_8,status=variable
new load.BT_3002923131_M1 bus1=RML1000978024.1.2.3.0,Phases=3,kv=0.22,kW=6.36642,pf=0.92,Vminpu=0.92,Vmaxpu=1.5,model=1,daily=RES1_8,status=variable
new load.BT_3002923135_M1 bus1=RML1000978003.1.2.3.0,Phases=3,kv=0.22,kW=4.10244,pf=0.92,Vminpu=0.92,Vmaxpu=1.5,model=1,daily=RES1_8,status=variable
new load.BT_3002923136_M1 bus1=RML1000978010.1.2.3.0,Phases=3,kv=0.22,kW=0.01306,pf=0.92,Vminpu=0.92,Vmaxpu=1.5,model=1,daily=RES1_8,status=variable
new load.BT_3002923137_M1 bus1=RML1000977989.1.2.3.0,Phases=3,kv=0.22,kW=3.5145,pf=0.92,Vminpu=0.92,Vmaxpu=1.5,model=1,daily=RES1_8,status=variable
new load.BT_3002923138_M1 bus1=RML1000977975.1.2.3.0,Phases=3,kv=0.22,kW=0.01306,pf=0.92,Vminpu=0.92,Vmaxpu=1.5,model=1,daily=RES1_8,status=variable
new load.BT_3002923139_M1 bus1=RML1000977968.1.2.3.0,Phases=3,kv=0.22,kW=4.60964,pf=0.92,Vminpu=0.92,Vmaxpu=1.5,model=1,daily=RES1_8,status=variable
new load.BT_3002923140_M1 bus1=RML1000977968.1.2.3.0,Phases=3,kv=0.22,kW=0.01306,pf=0.92,Vminpu=0.92,Vmaxpu=1.5,model=1,daily=RES1_8,status=variable
new load.BT_3002923141_M1 bus1=RML1000977968.1.2.3.0,Phases=3,kv=0.22,kW=1.5524,pf=0.92,Vminpu=0.92,Vmaxpu=1.5,model=1,daily=RES1_8,status=variable
new load.BT_3002923142_M1 bus1=RML1000977961.1.2.0,Phases=2,kv=0.22,kW=3.40812,pf=0.92,Vminpu=0.92,Vmaxpu=1.5,model=1,daily=RES1_8,status=variable
new load.BT_3002923143_M1 bus1=RML1000977933.1.2.3.0,Phases=3,kv=0.22,kW=1.07974,pf=0.92,Vminpu=0.92,Vmaxpu=1.5,model=1,daily=RES1_8,status=variable
new load.BT_3002923144_M1 bus1=RML1010769074.1.0,Phases=1,kv=0.127,kW=1.36204,pf=0.92,Vminpu=0.92,Vmaxpu=1.5,model=1,daily=RES1_8,status=variable
new load.BT_3002923145_M1 bus1=RML1002918543.1.2.3.0,Phases=3,kv=0.22,kW=3.5313,pf=0.92,Vminpu=0.92,Vmaxpu=1.5,model=1,daily=RES1_8,status=variable
new load.BT_3002923146_M1 bus1=RML1002918543.1.2.3.0,Phases=3,kv=0.22,kW=0.01306,pf=0.92,Vminpu=0.92,Vmaxpu=1.5,model=1,daily=RES1_8,status=variable
new load.BT_3002923147_M1 bus1=RML1002918543.1.2.3.0,Phases=3,kv=0.22,kW=0.01306,pf=0.92,Vminpu=0.92,Vmaxpu=1.5,model=1,daily=RES1_8,status=variable
new load.BT_3002923148_M1 bus1=RML1000977898.1.2.0,Phases=2,kv=0.22,kW=0.01306,pf=0.92,Vminpu=0.92,Vmaxpu=1.5,model=1,daily=RES1_8,status=variable
new load.BT_3002923149_M1 bus1=RML1000977919.3.0,Phases=1,kv=0.127,kW=2.84492,pf=0.92,Vminpu=0.92,Vmaxpu=1.5,model=1,daily=RES1_8,status=variable
new load.BT_3002923150_M1 bus1=RML1000977877.3.0,Phases=1,kv=0.127,kW=0.01646,pf=0.92,Vminpu=0.92,Vmaxpu=1.5,model=1,daily=COM1_10,status=variable
new load.BT_3002923151_M1 bus1=RML1000977849.1.2.0,Phases=2,kv=0.22,kW=1.67186,pf=0.92,Vminpu=0.92,Vmaxpu=1.5,model=1,daily=RES1_8,status=variable
new load.BT_3002923152_M1 bus1=RML1000977870.1.2.3.0,Phases=3,kv=0.22,kW=2.3685,pf=0.92,Vminpu=0.92,Vmaxpu=1.5,model=1,daily=RES1_8,status=variable
new load.BT_3002923153_M1 bus1=RML1000977863.1.2.0,Phases=2,kv=0.22,kW=1.63034,pf=0.92,Vminpu=0.92,Vmaxpu=1.5,model=1,daily=RES1_8,status=variable
new load.BT_3002923154_M1 bus1=RML1000977835.1.2.3.0,Phases=3,kv=0.22,kW=0.01306,pf=0.92,Vminpu=0.92,Vmaxpu=1.5,model=1,daily=RES1_8,status=variable
new load.BT_3002923155_M1 bus1=RML1000977842.1.2.0,Phases=2,kv=0.22,kW=0.50674,pf=0.92,Vminpu=0.92,Vmaxpu=1.5,model=1,daily=RES1_8,status=variable
new load.BT_3002923156_M1 bus1=RML1000977884.2.3.0,Phases=2,kv=0.22,kW=1.36904,pf=0.92,Vminpu=0.92,Vmaxpu=1.5,model=1,daily=RES1_8,status=variable
new load.BT_3002923157_M1 bus1=RML1000977905.3.0,Phases=1,kv=0.127,kW=1.89116,pf=0.92,Vminpu=0.92,Vmaxpu=1.5,model=1,daily=RES1_8,status=variable
new load.BT_3002923158_M1 bus1=RML1000977912.1.2.3.0,Phases=3,kv=0.22,kW=2.86684,pf=0.92,Vminpu=0.92,Vmaxpu=1.5,model=1,daily=RES1_8,status=variable
new load.BT_3002923159_M1 bus1=RML1000975665.2.3.0,Phases=2,kv=0.22,kW=2.7656,pf=0.92,Vminpu=0.92,Vmaxpu=1.5,model=1,daily=RES1_8,status=variable
new load.BT_3002923160_M1 bus1=RML1000975672.1.2.3.0,Phases=3,kv=0.22,kW=0.01306,pf=0.92,Vminpu=0.92,Vmaxpu=1.5,model=1,daily=RES1_8,status=variable
new load.BT_3002923161_M1 bus1=RML1000975658.1.0,Phases=1,kv=0.127,kW=3.2042,pf=0.92,Vminpu=0.92,Vmaxpu=1.5,model=1,daily=RES1_8,status=variable
new load.BT_3002923162_M1 bus1=RML1000975644.2.3.0,Phases=2,kv=0.22,kW=0.5604,pf=0.92,Vminpu=0.92,Vmaxpu=1.5,model=1,daily=RES1_8,status=variable
new load.BT_3002923163_M1 bus1=RML1000975651.1.2.3.0,Phases=3,kv=0.22,kW=1.90842,pf=0.92,Vminpu=0.92,Vmaxpu=1.5,model=1,daily=COM1_10,status=variable
new load.BT_3002923164_M1 bus1=RML1000975651.1.2.3.0,Phases=3,kv=0.22,kW=2.14314,pf=0.92,Vminpu=0.92,Vmaxpu=1.5,model=1,daily=RES1_8,status=variable
new load.BT_3002923166_M1 bus1=RML1000975763.1.2.0,Phases=2,kv=0.22,kW=2.72454,pf=0.92,Vminpu=0.92,Vmaxpu=1.5,model=1,daily=RES1_8,status=variable
new load.BT_3002923167_M1 bus1=RML1000975791.1.2.3.0,Phases=3,kv=0.22,kW=2.39978,pf=0.92,Vminpu=0.92,Vmaxpu=1.5,model=1,daily=RES1_8,status=variable
new load.BT_3002923168_M1 bus1=RML1000975812.1.2.3.0,Phases=3,kv=0.22,kW=2.22526,pf=0.92,Vminpu=0.92,Vmaxpu=1.5,model=1,daily=RES1_8,status=variable
new load.BT_3002923169_M1 bus1=RML1000975819.1.2.3.0,Phases=3,kv=0.22,kW=1.0074,pf=0.92,Vminpu=0.92,Vmaxpu=1.5,model=1,daily=RES1_8,status=variable
new load.BT_3002923170_M1 bus1=RML1000975798.1.2.3.0,Phases=3,kv=0.22,kW=1.24212,pf=0.92,Vminpu=0.92,Vmaxpu=1.5,model=1,daily=RES1_8,status=variable
new load.BT_3002923171_M1 bus1=RML1000975798.1.2.3.0,Phases=3,kv=0.22,kW=0.63972,pf=0.92,Vminpu=0.92,Vmaxpu=1.5,model=1,daily=RES1_8,status=variable
new load.BT_3002923172_M1 bus1=RML1000975798.1.2.3.0,Phases=3,kv=0.22,kW=2.30086,pf=0.92,Vminpu=0.92,Vmaxpu=1.5,model=1,daily=RES1_8,status=variable
new load.BT_3002923173_M1 bus1=RML1000975798.1.2.3.0,Phases=3,kv=0.22,kW=0.08772,pf=0.92,Vminpu=0.92,Vmaxpu=1.5,model=1,daily=RES1_8,status=variable
new load.BT_3002923174_M1 bus1=RML1000975805.1.2.3.0,Phases=3,kv=0.22,kW=1.1278,pf=0.92,Vminpu=0.92,Vmaxpu=1.5,model=1,daily=RES1_8,status=variable
new load.BT_3002923175_M1 bus1=RML1000975847.1.2.3.0,Phases=3,kv=0.22,kW=0.01306,pf=0.92,Vminpu=0.92,Vmaxpu=1.5,model=1,daily=RES1_8,status=variable
new load.BT_3002923176_M1 bus1=RML1000975833.1.2.3.0,Phases=3,kv=0.22,kW=0.01306,pf=0.92,Vminpu=0.92,Vmaxpu=1.5,model=1,daily=RES1_8,status=variable
new load.BT_3002923177_M1 bus1=RML1000975917.1.2.3.0,Phases=3,kv=0.22,kW=0.01306,pf=0.92,Vminpu=0.92,Vmaxpu=1.5,model=1,daily=RES1_8,status=variable
new load.BT_3002923178_M1 bus1=RML1000975917.1.2.3.0,Phases=3,kv=0.22,kW=2.9429,pf=0.92,Vminpu=0.92,Vmaxpu=1.5,model=1,daily=RES1_8,status=variable
new load.BT_3002923179_M1 bus1=RML1000975952.1.2.3.0,Phases=3,kv=0.22,kW=0.76478,pf=0.92,Vminpu=0.92,Vmaxpu=1.5,model=1,daily=RES1_8,status=variable
new load.BT_3002923180_M1 bus1=RML1000975938.2.3.0,Phases=2,kv=0.22,kW=0.01306,pf=0.92,Vminpu=0.92,Vmaxpu=1.5,model=1,daily=RES1_8,status=variable
new load.BT_3002923181_M1 bus1=RML1001665410.1.2.3.0,Phases=3,kv=0.22,kW=1.82444,pf=0.92,Vminpu=0.92,Vmaxpu=1.5,model=1,daily=RES1_8,status=variable
new load.BT_3002923182_M1 bus1=RML1001665389.3.1.0,Phases=2,kv=0.22,kW=2.5001,pf=0.92,Vminpu=0.92,Vmaxpu=1.5,model=1,daily=RES1_8,status=variable
new load.BT_3002923183_M1 bus1=RML1000974363.1.2.0,Phases=2,kv=0.22,kW=0.40084,pf=0.92,Vminpu=0.92,Vmaxpu=1.5,model=1,daily=RES1_8,status=variable
new load.BT_3002923185_M1 bus1=RML1000972984.1.2.3.0,Phases=3,kv=0.22,kW=2.40678,pf=0.92,Vminpu=0.92,Vmaxpu=1.5,model=1,daily=RES1_8,status=variable
new load.BT_3002923186_M1 bus1=RML1000973005.1.2.3.0,Phases=3,kv=0.22,kW=0.59914,pf=0.92,Vminpu=0.92,Vmaxpu=1.5,model=1,daily=RES1_8,status=variable
new load.BT_3002923187_M1 bus1=RML1000973005.1.2.3.0,Phases=3,kv=0.22,kW=0.55778,pf=0.92,Vminpu=0.92,Vmaxpu=1.5,model=1,daily=RES1_8,status=variable
new load.BT_3002923188_M1 bus1=RML1000973005.1.2.3.0,Phases=3,kv=0.22,kW=1.08922,pf=0.92,Vminpu=0.92,Vmaxpu=1.5,model=1,daily=RES1_8,status=variable
new load.BT_3002923190_M1 bus1=RML1000973082.3.0,Phases=1,kv=0.127,kW=0.85678,pf=0.92,Vminpu=0.92,Vmaxpu=1.5,model=1,daily=RES1_8,status=variable
new load.BT_3002923191_M1 bus1=RML1000973075.1.2.3.0,Phases=3,kv=0.22,kW=0.91188,pf=0.92,Vminpu=0.92,Vmaxpu=1.5,model=1,daily=RES1_8,status=variable
new load.BT_3002923192_M1 bus1=RML1000973019.1.2.3.0,Phases=3,kv=0.22,kW=1.46426,pf=0.92,Vminpu=0.92,Vmaxpu=1.5,model=1,daily=RES1_8,status=variable
new load.BT_3002923193_M1 bus1=RML1000973047.2.3.0,Phases=2,kv=0.22,kW=1.51224,pf=0.92,Vminpu=0.92,Vmaxpu=1.5,model=1,daily=RES1_8,status=variable
new load.BT_3002923194_M1 bus1=RML1000972837.1.2.3.0,Phases=3,kv=0.22,kW=1.98126,pf=0.92,Vminpu=0.92,Vmaxpu=1.5,model=1,daily=RES1_8,status=variable
new load.BT_3002923195_M1 bus1=RML1000972851.1.2.0,Phases=2,kv=0.22,kW=1.03288,pf=0.92,Vminpu=0.92,Vmaxpu=1.5,model=1,daily=RES1_8,status=variable
new load.BT_3002923196_M1 bus1=RML1000972788.1.0,Phases=1,kv=0.127,kW=4.22096,pf=0.92,Vminpu=0.92,Vmaxpu=1.5,model=1,daily=RES1_8,status=variable
new load.BT_3002923197_M1 bus1=RML1000972823.1.2.3.0,Phases=3,kv=0.22,kW=2.14486,pf=0.92,Vminpu=0.92,Vmaxpu=1.5,model=1,daily=RES1_8,status=variable
new load.BT_3002923198_M1 bus1=RML1000972858.3.1.0,Phases=2,kv=0.22,kW=1.37616,pf=0.92,Vminpu=0.92,Vmaxpu=1.5,model=1,daily=RES1_8,status=variable
new load.BT_3002923199_M1 bus1=RML1000972900.1.2.3.0,Phases=3,kv=0.22,kW=0.85736,pf=0.92,Vminpu=0.92,Vmaxpu=1.5,model=1,daily=RES1_8,status=variable
new load.BT_3002923200_M1 bus1=RML1000972865.2.3.0,Phases=2,kv=0.22,kW=1.93698,pf=0.92,Vminpu=0.92,Vmaxpu=1.5,model=1,daily=RES1_8,status=variable
new load.BT_3002923201_M1 bus1=RML1000972872.1.2.3.0,Phases=3,kv=0.22,kW=1.26238,pf=0.92,Vminpu=0.92,Vmaxpu=1.5,model=1,daily=RES1_8,status=variable
new load.BT_3002923202_M1 bus1=RML1000972872.1.2.3.0,Phases=3,kv=0.22,kW=1.68036,pf=0.92,Vminpu=0.92,Vmaxpu=1.5,model=1,daily=RES1_8,status=variable
new load.BT_3002923203_M1 bus1=RML1000972942.1.2.0,Phases=2,kv=0.22,kW=2.67174,pf=0.92,Vminpu=0.92,Vmaxpu=1.5,model=1,daily=RES1_8,status=variable
new load.BT_3002923205_M1 bus1=RML1000972977.1.2.0,Phases=2,kv=0.22,kW=7.57128,pf=0.92,Vminpu=0.92,Vmaxpu=1.5,model=1,daily=RES1_8,status=variable
new load.BT_3002923206_M1 bus1=RML1000972949.3.0,Phases=1,kv=0.127,kW=1.42416,pf=0.92,Vminpu=0.92,Vmaxpu=1.5,model=1,daily=RES1_8,status=variable
new load.BT_3002923207_M1 bus1=RML1000972956.3.1.0,Phases=2,kv=0.22,kW=1.62718,pf=0.92,Vminpu=0.92,Vmaxpu=1.5,model=1,daily=RES1_8,status=variable
new load.BT_3002923208_M1 bus1=RML1000972963.1.2.3.0,Phases=3,kv=0.22,kW=0.01306,pf=0.92,Vminpu=0.92,Vmaxpu=1.5,model=1,daily=RES1_8,status=variable
new load.BT_3002923209_M1 bus1=RML1000972935.1.0,Phases=1,kv=0.127,kW=3.20532,pf=0.92,Vminpu=0.92,Vmaxpu=1.5,model=1,daily=RES1_8,status=variable
new load.BT_3002923210_M1 bus1=RML1000972893.1.2.3.0,Phases=3,kv=0.22,kW=0.88346,pf=0.92,Vminpu=0.92,Vmaxpu=1.5,model=1,daily=RES1_8,status=variable
new load.BT_3002923211_M1 bus1=RML1000972893.1.2.3.0,Phases=3,kv=0.22,kW=7.7577,pf=0.92,Vminpu=0.92,Vmaxpu=1.5,model=1,daily=RES1_8,status=variable
new load.BT_3002923212_M1 bus1=RML1000972879.1.2.3.0,Phases=3,kv=0.22,kW=0.85262,pf=0.92,Vminpu=0.92,Vmaxpu=1.5,model=1,daily=RES1_8,status=variable
new load.BT_3002923213_M1 bus1=RML1000972879.1.2.3.0,Phases=3,kv=0.22,kW=3.6017,pf=0.92,Vminpu=0.92,Vmaxpu=1.5,model=1,daily=RES1_8,status=variable
new load.BT_3002923214_M1 bus1=RML1000972886.2.3.0,Phases=2,kv=0.22,kW=0.99818,pf=0.92,Vminpu=0.92,Vmaxpu=1.5,model=1,daily=RES1_8,status=variable
new load.BT_3002923215_M1 bus1=RML1000972816.1.2.0,Phases=2,kv=0.22,kW=3.46838,pf=0.92,Vminpu=0.92,Vmaxpu=1.5,model=1,daily=RES1_8,status=variable
new load.BT_3002923217_M1 bus1=RML1000967510.1.2.3.0,Phases=3,kv=0.22,kW=2.88852,pf=0.92,Vminpu=0.92,Vmaxpu=1.5,model=1,daily=RES1_8,status=variable
new load.BT_3002923218_M1 bus1=RML1000967517.1.2.3.0,Phases=3,kv=0.22,kW=0.01306,pf=0.92,Vminpu=0.92,Vmaxpu=1.5,model=1,daily=RES1_8,status=variable
new load.BT_3002923219_M1 bus1=RML1000967517.1.2.3.0,Phases=3,kv=0.22,kW=0.01306,pf=0.92,Vminpu=0.92,Vmaxpu=1.5,model=1,daily=RES1_8,status=variable
new load.BT_3002923220_M1 bus1=RML1000967475.1.2.3.0,Phases=3,kv=0.22,kW=3.93942,pf=0.92,Vminpu=0.92,Vmaxpu=1.5,model=1,daily=RES1_8,status=variable
new load.BT_3002923221_M1 bus1=RML1000967475.1.2.3.0,Phases=3,kv=0.22,kW=0.33314,pf=0.92,Vminpu=0.92,Vmaxpu=1.5,model=1,daily=RES1_8,status=variable
new load.BT_3002923222_M1 bus1=RML1000967475.1.2.3.0,Phases=3,kv=0.22,kW=0.27026,pf=0.92,Vminpu=0.92,Vmaxpu=1.5,model=1,daily=RES1_8,status=variable
new load.BT_3002923223_M1 bus1=RML1000967475.1.2.3.0,Phases=3,kv=0.22,kW=1.44568,pf=0.92,Vminpu=0.92,Vmaxpu=1.5,model=1,daily=RES1_8,status=variable
new load.BT_3002923224_M1 bus1=RML1000967468.1.2.3.0,Phases=3,kv=0.22,kW=0.01306,pf=0.92,Vminpu=0.92,Vmaxpu=1.5,model=1,daily=RES1_8,status=variable
new load.BT_3002923230_M1 bus1=RML1001646146.1.2.3.0,Phases=3,kv=0.22,kW=1.20604,pf=0.92,Vminpu=0.92,Vmaxpu=1.5,model=1,daily=RES1_8,status=variable
new load.BT_3002923231_M1 bus1=RML1001646167.1.0,Phases=1,kv=0.127,kW=4.96746,pf=0.92,Vminpu=0.92,Vmaxpu=1.5,model=1,daily=RES1_8,status=variable
new load.BT_3002923232_M1 bus1=RML1001646160.3.0,Phases=1,kv=0.127,kW=1.91546,pf=0.92,Vminpu=0.92,Vmaxpu=1.5,model=1,daily=RES1_8,status=variable
new load.BT_3002923233_M1 bus1=RML1002918669.1.2.3.0,Phases=3,kv=0.22,kW=2.64394,pf=0.92,Vminpu=0.92,Vmaxpu=1.5,model=1,daily=RES1_8,status=variable
new load.BT_3002923234_M1 bus1=RML1001646258.1.2.3.0,Phases=3,kv=0.22,kW=5.44616,pf=0.92,Vminpu=0.92,Vmaxpu=1.5,model=1,daily=RES1_8,status=variable
new load.BT_3002923235_M1 bus1=RML1001646293.1.2.3.0,Phases=3,kv=0.22,kW=0.45774,pf=0.92,Vminpu=0.92,Vmaxpu=1.5,model=1,daily=RES1_8,status=variable
new load.BT_3002923236_M1 bus1=RML1001646279.3.0,Phases=1,kv=0.127,kW=2.10834,pf=0.92,Vminpu=0.92,Vmaxpu=1.5,model=1,daily=RES1_8,status=variable
new load.BT_3002923237_M1 bus1=RML1001646377.1.2.3.0,Phases=3,kv=0.22,kW=0.19716,pf=0.92,Vminpu=0.92,Vmaxpu=1.5,model=1,daily=RES1_8,status=variable
new load.BT_3002923238_M1 bus1=RML1000967391.1.2.3.0,Phases=3,kv=0.22,kW=1.234,pf=0.92,Vminpu=0.92,Vmaxpu=1.5,model=1,daily=RES1_8,status=variable
new load.BT_3002923239_M1 bus1=RML1000967419.2.3.0,Phases=2,kv=0.22,kW=0.76092,pf=0.92,Vminpu=0.92,Vmaxpu=1.5,model=1,daily=RES1_8,status=variable
new load.BT_3002923240_M1 bus1=RML1010175695.3.1.0,Phases=2,kv=0.22,kW=0.01306,pf=0.92,Vminpu=0.92,Vmaxpu=1.5,model=1,daily=RES1_8,status=variable
new load.BT_3002923241_M1 bus1=RML1000967433.1.0,Phases=1,kv=0.127,kW=1.9239,pf=0.92,Vminpu=0.92,Vmaxpu=1.5,model=1,daily=RES1_8,status=variable
new load.BT_3002923242_M1 bus1=RML1000967440.2.3.0,Phases=2,kv=0.22,kW=2.93402,pf=0.92,Vminpu=0.92,Vmaxpu=1.5,model=1,daily=RES1_8,status=variable
new load.BT_3002923243_M1 bus1=RML1000967447.1.0,Phases=1,kv=0.127,kW=5.152,pf=0.92,Vminpu=0.92,Vmaxpu=1.5,model=1,daily=RES1_8,status=variable
new load.BT_3002923244_M1 bus1=RML1000967454.2.0,Phases=1,kv=0.127,kW=0.9886,pf=0.92,Vminpu=0.92,Vmaxpu=1.5,model=1,daily=RES1_8,status=variable
new load.BT_3002923245_M1 bus1=RML1000967482.1.2.3.0,Phases=3,kv=0.22,kW=0.12194,pf=0.92,Vminpu=0.92,Vmaxpu=1.5,model=1,daily=RES1_8,status=variable
new load.BT_3002923246_M1 bus1=RML1000967489.1.2.3.0,Phases=3,kv=0.22,kW=1.22406,pf=0.92,Vminpu=0.92,Vmaxpu=1.5,model=1,daily=RES1_8,status=variable
new load.BT_3002923248_M1 bus1=RML1000967531.1.2.3.0,Phases=3,kv=0.22,kW=1.84776,pf=0.92,Vminpu=0.92,Vmaxpu=1.5,model=1,daily=RES1_8,status=variable
new load.BT_3002923249_M1 bus1=RML1000967524.3.1.0,Phases=2,kv=0.22,kW=2.81956,pf=0.92,Vminpu=0.92,Vmaxpu=1.5,model=1,daily=RES1_8,status=variable
new load.BT_3002923250_M1 bus1=RML1000972774.3.1.0,Phases=2,kv=0.22,kW=2.05032,pf=0.92,Vminpu=0.92,Vmaxpu=1.5,model=1,daily=RES1_8,status=variable
new load.BT_3002923251_M1 bus1=RML1000972781.1.2.3.0,Phases=3,kv=0.22,kW=1.28456,pf=0.92,Vminpu=0.92,Vmaxpu=1.5,model=1,daily=RES1_8,status=variable
new load.BT_3002923252_M1 bus1=RML1000972781.1.2.3.0,Phases=3,kv=0.22,kW=0.88912,pf=0.92,Vminpu=0.92,Vmaxpu=1.5,model=1,daily=RES1_8,status=variable
new load.BT_3002923253_M1 bus1=RML1000972781.1.2.3.0,Phases=3,kv=0.22,kW=0.13598,pf=0.92,Vminpu=0.92,Vmaxpu=1.5,model=1,daily=RES1_8,status=variable
new load.BT_3002923254_M1 bus1=RML1000972781.1.2.3.0,Phases=3,kv=0.22,kW=1.4158,pf=0.92,Vminpu=0.92,Vmaxpu=1.5,model=1,daily=RES1_8,status=variable
new load.BT_3002923255_M1 bus1=RML1000972802.1.0,Phases=1,kv=0.127,kW=1.08854,pf=0.92,Vminpu=0.92,Vmaxpu=1.5,model=1,daily=RES1_8,status=variable
new load.BT_3002923256_M1 bus1=RML1000972802.1.0,Phases=1,kv=0.127,kW=3.34708,pf=0.92,Vminpu=0.92,Vmaxpu=1.5,model=1,daily=RES1_8,status=variable
new load.BT_3002923257_M1 bus1=RML1000972795.3.0,Phases=1,kv=0.127,kW=1.65184,pf=0.92,Vminpu=0.92,Vmaxpu=1.5,model=1,daily=RES1_8,status=variable
new load.BT_3002923258_M1 bus1=RML1000972844.1.2.3.0,Phases=3,kv=0.22,kW=0.01306,pf=0.92,Vminpu=0.92,Vmaxpu=1.5,model=1,daily=RES1_8,status=variable
new load.BT_3002923259_M1 bus1=RML1000972830.1.2.3.0,Phases=3,kv=0.22,kW=4.44324,pf=0.92,Vminpu=0.92,Vmaxpu=1.5,model=1,daily=RES1_8,status=variable
new load.BT_3002923260_M1 bus1=RML1000972921.1.2.3.0,Phases=3,kv=0.22,kW=0.01306,pf=0.92,Vminpu=0.92,Vmaxpu=1.5,model=1,daily=RES1_8,status=variable
new load.BT_3002923261_M1 bus1=RML1000972921.1.2.3.0,Phases=3,kv=0.22,kW=3.44052,pf=0.92,Vminpu=0.92,Vmaxpu=1.5,model=1,daily=RES1_8,status=variable
new load.BT_3002923262_M1 bus1=RML1000972914.1.2.3.0,Phases=3,kv=0.22,kW=2.95508,pf=0.92,Vminpu=0.92,Vmaxpu=1.5,model=1,daily=RES1_8,status=variable
new load.BT_3002923263_M1 bus1=RML1000972907.1.2.3.0,Phases=3,kv=0.22,kW=2.52834,pf=0.92,Vminpu=0.92,Vmaxpu=1.5,model=1,daily=RES1_8,status=variable
new load.BT_3002923264_M1 bus1=RML1000972991.1.2.0,Phases=2,kv=0.22,kW=1.82804,pf=0.92,Vminpu=0.92,Vmaxpu=1.5,model=1,daily=RES1_8,status=variable
new load.BT_3002923265_M1 bus1=RML1000973054.1.2.3.0,Phases=3,kv=0.22,kW=1.84698,pf=0.92,Vminpu=0.92,Vmaxpu=1.5,model=1,daily=RES1_8,status=variable
new load.BT_3002923267_M1 bus1=RML1000973061.1.2.3.0,Phases=3,kv=0.22,kW=2.98608,pf=0.92,Vminpu=0.92,Vmaxpu=1.5,model=1,daily=RES1_8,status=variable
new load.BT_3002923268_M1 bus1=RML1000973061.1.2.3.0,Phases=3,kv=0.22,kW=0.42264,pf=0.92,Vminpu=0.92,Vmaxpu=1.5,model=1,daily=COM1_10,status=variable
new load.BT_3002923269_M1 bus1=RML1000974349.3.1.0,Phases=2,kv=0.22,kW=1.4673,pf=0.92,Vminpu=0.92,Vmaxpu=1.5,model=1,daily=RES1_8,status=variable
new load.BT_3002923270_M1 bus1=RML1000974342.1.2.3.0,Phases=3,kv=0.22,kW=3.74834,pf=0.92,Vminpu=0.92,Vmaxpu=1.5,model=1,daily=RES1_8,status=variable
new load.BT_3002923271_M1 bus1=RML1000974342.1.2.3.0,Phases=3,kv=0.22,kW=2.24376,pf=0.92,Vminpu=0.92,Vmaxpu=1.5,model=1,daily=RES1_8,status=variable
new load.BT_3002923272_M1 bus1=RML1000974370.3.1.0,Phases=2,kv=0.22,kW=0.28818,pf=0.92,Vminpu=0.92,Vmaxpu=1.5,model=1,daily=RES1_8,status=variable
new load.BT_3002923273_M1 bus1=RML1000974370.3.1.0,Phases=2,kv=0.22,kW=2.24794,pf=0.92,Vminpu=0.92,Vmaxpu=1.5,model=1,daily=RES1_8,status=variable
new load.BT_3002923274_M1 bus1=RML1000974377.1.2.3.0,Phases=3,kv=0.22,kW=1.17134,pf=0.92,Vminpu=0.92,Vmaxpu=1.5,model=1,daily=RES1_8,status=variable
new load.BT_3002923275_M1 bus1=RML1000974384.1.2.3.0,Phases=3,kv=0.22,kW=0.0018,pf=0.92,Vminpu=0.92,Vmaxpu=1.5,model=1,daily=RES1_8,status=variable
new load.BT_3002923276_M1 bus1=RML1000975070.1.2.3.0,Phases=3,kv=0.22,kW=0.5482,pf=0.92,Vminpu=0.92,Vmaxpu=1.5,model=1,daily=RES1_8,status=variable
new load.BT_3002923277_M1 bus1=RML1000975070.1.2.3.0,Phases=3,kv=0.22,kW=0.53502,pf=0.92,Vminpu=0.92,Vmaxpu=1.5,model=1,daily=RES1_8,status=variable
new load.BT_3002923278_M1 bus1=RML1000975084.3.1.0,Phases=2,kv=0.22,kW=0.84958,pf=0.92,Vminpu=0.92,Vmaxpu=1.5,model=1,daily=RES1_8,status=variable
new load.BT_3002923279_M1 bus1=RML1000975091.1.2.3.0,Phases=3,kv=0.22,kW=1.02634,pf=0.92,Vminpu=0.92,Vmaxpu=1.5,model=1,daily=RES1_8,status=variable
new load.BT_3002923281_M1 bus1=RML1000975119.1.2.3.0,Phases=3,kv=0.22,kW=2.3989,pf=0.92,Vminpu=0.92,Vmaxpu=1.5,model=1,daily=RES1_8,status=variable
new load.BT_3002923282_M1 bus1=RML1000975119.1.2.3.0,Phases=3,kv=0.22,kW=3.81908,pf=0.92,Vminpu=0.92,Vmaxpu=1.5,model=1,daily=RES1_8,status=variable
new load.BT_3002923283_M1 bus1=RML1000975119.1.2.3.0,Phases=3,kv=0.22,kW=3.66714,pf=0.92,Vminpu=0.92,Vmaxpu=1.5,model=1,daily=RES1_8,status=variable
new load.BT_3002923284_M1 bus1=RML1000975140.1.2.3.0,Phases=3,kv=0.22,kW=0.00412,pf=0.92,Vminpu=0.92,Vmaxpu=1.5,model=1,daily=COM1_10,status=variable
new load.BT_3002923285_M1 bus1=RML1000972417.1.0,Phases=1,kv=0.127,kW=2.22744,pf=0.92,Vminpu=0.92,Vmaxpu=1.5,model=1,daily=RES1_8,status=variable
new load.BT_3002923286_M1 bus1=RML1000972389.3.1.0,Phases=2,kv=0.22,kW=2.05866,pf=0.92,Vminpu=0.92,Vmaxpu=1.5,model=1,daily=RES1_8,status=variable
new load.BT_3002923287_M1 bus1=RML1000972368.1.2.3.0,Phases=3,kv=0.22,kW=0.90174,pf=0.92,Vminpu=0.92,Vmaxpu=1.5,model=1,daily=RES1_8,status=variable
new load.BT_3002923288_M1 bus1=RML1000972368.1.2.3.0,Phases=3,kv=0.22,kW=1.57512,pf=0.92,Vminpu=0.92,Vmaxpu=1.5,model=1,daily=RES1_8,status=variable
new load.BT_3002923289_M1 bus1=RML1000972361.1.2.0,Phases=2,kv=0.22,kW=1.39058,pf=0.92,Vminpu=0.92,Vmaxpu=1.5,model=1,daily=RES1_8,status=variable
new load.BT_3002923290_M1 bus1=RML1000972361.1.2.0,Phases=2,kv=0.22,kW=2.02746,pf=0.92,Vminpu=0.92,Vmaxpu=1.5,model=1,daily=RES1_8,status=variable
new load.BT_3002923291_M1 bus1=RML1000972340.1.2.3.0,Phases=3,kv=0.22,kW=2.8723,pf=0.92,Vminpu=0.92,Vmaxpu=1.5,model=1,daily=RES1_8,status=variable