new transformer.TRF_1050216 Phases=3,Windings=2,Buses=[BMT175929517.1.2.3 BBT115862926.1.2.3.0],Conns=[delta wye],kvs=[22.000000000 0.22],kvas=[75.000000000 75.000000000],Taps=[1,1.000000000],XHL=3.650000000,%loadloss=1.650000000,%noloadloss=0.420000000
new transformer.TRF_1108855 Phases=3,Windings=2,Buses=[BMT175929301.1.2.3 BBT144003969.1.2.3.0],Conns=[delta wye],kvs=[22.000000000 0.22],kvas=[45.000000000 45.000000000],Taps=[1,1.000000000],XHL=3.540000000,%loadloss=1.870000000,%noloadloss=0.477000000
new transformer.TRF_1124878A Phases=1,Windings=3,Buses=[BMT179988684.1 BBT148008732.1.0 BBT148008732.0.2],Conns=[wye wye wye],kvs=[12.70 0.12 0.12],kvas=[5.000000000 5.000000000 5.000000000],Taps=[1,1.000000000,1.000000000],XHL=0.980000000,XHT=0.980000000,XLT=0.784000000,%loadloss=2.300000000,%noloadloss=0.800000000
new transformer.TRF_1393228 Phases=3,Windings=2,Buses=[BMT175929177.1.2.3 BBT148780645.1.2.3.0],Conns=[delta wye],kvs=[22.000000000 0.22],kvas=[45.000000000 45.000000000],Taps=[1,1.000000000],XHL=3.540000000,%loadloss=1.870000000,%noloadloss=0.477000000
new transformer.TRF_1393230 Phases=3,Windings=2,Buses=[BMT175929172.1.2.3 BBT148781292.1.2.3.0],Conns=[delta wye],kvs=[22.000000000 0.22],kvas=[45.000000000 45.000000000],Taps=[1,1.000000000],XHL=3.540000000,%loadloss=1.870000000,%noloadloss=0.477000000
new transformer.TRF_1393235 Phases=3,Windings=2,Buses=[BMT175929173.1.2.3 BBT148781848.1.2.3.0],Conns=[delta wye],kvs=[22.000000000 0.22],kvas=[75.000000000 75.000000000],Taps=[1,1.000000000],XHL=3.650000000,%loadloss=1.650000000,%noloadloss=0.420000000
new transformer.TRF_1393254 Phases=3,Windings=2,Buses=[BMT175929169.1.2.3 BBT148786609.1.2.3.0],Conns=[delta wye],kvs=[22.000000000 0.22],kvas=[75.000000000 75.000000000],Taps=[1,1.000000000],XHL=3.650000000,%loadloss=1.650000000,%noloadloss=0.420000000
new transformer.TRF_1393258 Phases=3,Windings=2,Buses=[BMT175929168.1.2.3 BBT148787808.1.2.3.0],Conns=[delta wye],kvs=[22.000000000 0.22],kvas=[45.000000000 45.000000000],Taps=[1,1.000000000],XHL=3.540000000,%loadloss=1.870000000,%noloadloss=0.477000000
new transformer.TRF_1393267 Phases=3,Windings=2,Buses=[BMT175929159.1.2.3 BBT148788481.1.2.3.0],Conns=[delta wye],kvs=[22.000000000 0.22],kvas=[45.000000000 45.000000000],Taps=[1,1.000000000],XHL=3.540000000,%loadloss=1.870000000,%noloadloss=0.477000000
new transformer.TRF_1393274 Phases=3,Windings=2,Buses=[BMT175929158.1.2.3 BBT148789921.1.2.3.0],Conns=[delta wye],kvs=[22.000000000 0.22],kvas=[45.000000000 45.000000000],Taps=[1,1.000000000],XHL=3.540000000,%loadloss=1.870000000,%noloadloss=0.477000000
new transformer.TRF_1393275 Phases=3,Windings=2,Buses=[BMT175929157.1.2.3 BBT148790589.1.2.3.0],Conns=[delta wye],kvs=[22.000000000 0.22],kvas=[45.000000000 45.000000000],Taps=[1,1.000000000],XHL=3.540000000,%loadloss=1.870000000,%noloadloss=0.477000000
new transformer.TRF_1393286 Phases=3,Windings=2,Buses=[BMT175929181.1.2.3 BBT148792371.1.2.3.0],Conns=[delta wye],kvs=[22.000000000 0.22],kvas=[45.000000000 45.000000000],Taps=[1,1.000000000],XHL=3.540000000,%loadloss=1.870000000,%noloadloss=0.477000000
new transformer.TRF_1393293 Phases=3,Windings=2,Buses=[BMT175929185.1.2.3 BBT148793661.1.2.3.0],Conns=[delta wye],kvs=[22.000000000 0.22],kvas=[45.000000000 45.000000000],Taps=[1,1.000000000],XHL=3.540000000,%loadloss=1.870000000,%noloadloss=0.477000000
new transformer.TRF_1393299 Phases=3,Windings=2,Buses=[BMT175929194.1.2.3 BBT148794762.1.2.3.0],Conns=[delta wye],kvs=[22.000000000 0.22],kvas=[75.000000000 75.000000000],Taps=[1,1.000000000],XHL=3.650000000,%loadloss=1.650000000,%noloadloss=0.420000000
new transformer.TRF_1393319 Phases=3,Windings=2,Buses=[BMT175929186.1.2.3 BBT148803873.1.2.3.0],Conns=[delta wye],kvs=[22.000000000 0.22],kvas=[45.000000000 45.000000000],Taps=[1,1.000000000],XHL=3.540000000,%loadloss=1.870000000,%noloadloss=0.477000000
new transformer.TRF_1393322 Phases=3,Windings=2,Buses=[BMT175929187.1.2.3 BBT148804756.1.2.3.0],Conns=[delta wye],kvs=[22.000000000 0.22],kvas=[45.000000000 45.000000000],Taps=[1,1.000000000],XHL=3.540000000,%loadloss=1.870000000,%noloadloss=0.477000000
new transformer.TRF_1393328 Phases=3,Windings=2,Buses=[BMT175929188.1.2.3 BBT148805390.1.2.3.0],Conns=[delta wye],kvs=[22.000000000 0.22],kvas=[45.000000000 45.000000000],Taps=[1,1.000000000],XHL=3.540000000,%loadloss=1.870000000,%noloadloss=0.477000000
new transformer.TRF_1393335 Phases=3,Windings=2,Buses=[BMT175929189.1.2.3 BBT148806573.1.2.3.0],Conns=[delta wye],kvs=[22.000000000 0.22],kvas=[45.000000000 45.000000000],Taps=[1,1.000000000],XHL=3.540000000,%loadloss=1.870000000,%noloadloss=0.477000000
new transformer.TRF_1393336 Phases=3,Windings=2,Buses=[BMT175929190.1.2.3 BBT148806667.1.2.3.0],Conns=[delta wye],kvs=[22.000000000 0.22],kvas=[45.000000000 45.000000000],Taps=[1,1.000000000],XHL=3.540000000,%loadloss=1.870000000,%noloadloss=0.477000000
new transformer.TRF_1393338 Phases=3,Windings=2,Buses=[BMT175929191.1.2.3 BBT148807429.1.2.3.0],Conns=[delta wye],kvs=[22.000000000 0.22],kvas=[75.000000000 75.000000000],Taps=[1,1.000000000],XHL=3.650000000,%loadloss=1.650000000,%noloadloss=0.420000000
new transformer.TRF_1393347 Phases=3,Windings=2,Buses=[BMT175929196.1.2.3 BBT148816174.1.2.3.0],Conns=[delta wye],kvs=[22.000000000 0.22],kvas=[75.000000000 75.000000000],Taps=[1,1.000000000],XHL=3.650000000,%loadloss=1.650000000,%noloadloss=0.420000000
new transformer.TRF_1393349 Phases=3,Windings=2,Buses=[BMT175929197.1.2.3 BBT148816705.1.2.3.0],Conns=[delta wye],kvs=[22.000000000 0.22],kvas=[45.000000000 45.000000000],Taps=[1,1.000000000],XHL=3.540000000,%loadloss=1.870000000,%noloadloss=0.477000000
new transformer.TRF_1393354 Phases=3,Windings=2,Buses=[BMT175929205.1.2.3 BBT148817564.1.2.3.0],Conns=[delta wye],kvs=[22.000000000 0.22],kvas=[45.000000000 45.000000000],Taps=[1,1.000000000],XHL=3.540000000,%loadloss=1.870000000,%noloadloss=0.477000000
new transformer.TRF_1393360 Phases=3,Windings=2,Buses=[BMT175929210.1.2.3 BBT148818700.1.2.3.0],Conns=[delta wye],kvs=[22.000000000 0.22],kvas=[75.000000000 75.000000000],Taps=[1,1.000000000],XHL=3.650000000,%loadloss=1.650000000,%noloadloss=0.420000000
new transformer.TRF_1393370 Phases=3,Windings=2,Buses=[BMT175929198.1.2.3 BBT148820246.1.2.3.0],Conns=[delta wye],kvs=[22.000000000 0.22],kvas=[45.000000000 45.000000000],Taps=[1,1.000000000],XHL=3.540000000,%loadloss=1.870000000,%noloadloss=0.477000000
new transformer.TRF_1393373 Phases=3,Windings=2,Buses=[BMT175929199.1.2.3 BBT148820443.1.2.3.0],Conns=[delta wye],kvs=[22.000000000 0.22],kvas=[45.000000000 45.000000000],Taps=[1,1.000000000],XHL=3.540000000,%loadloss=1.870000000,%noloadloss=0.477000000
new transformer.TRF_1393375 Phases=3,Windings=2,Buses=[BMT175929213.1.2.3 BBT148820830.1.2.3.0],Conns=[delta wye],kvs=[22.000000000 0.22],kvas=[45.000000000 45.000000000],Taps=[1,1.000000000],XHL=3.540000000,%loadloss=1.870000000,%noloadloss=0.477000000
new transformer.TRF_1393376 Phases=3,Windings=2,Buses=[BMT175929212.1.2.3 BBT148820879.1.2.3.0],Conns=[delta wye],kvs=[22.000000000 0.22],kvas=[45.000000000 45.000000000],Taps=[1,1.000000000],XHL=3.540000000,%loadloss=1.870000000,%noloadloss=0.477000000
new transformer.TRF_1393382 Phases=3,Windings=2,Buses=[BMT175929208.1.2.3 BBT148821839.1.2.3.0],Conns=[delta wye],kvs=[22.000000000 0.22],kvas=[75.000000000 75.000000000],Taps=[1,1.000000000],XHL=3.650000000,%loadloss=1.650000000,%noloadloss=0.420000000
new transformer.TRF_1393396 Phases=3,Windings=2,Buses=[BMT175929211.1.2.3 BBT148825394.1.2.3.0],Conns=[delta wye],kvs=[22.000000000 0.22],kvas=[45.000000000 45.000000000],Taps=[1,1.000000000],XHL=3.540000000,%loadloss=1.870000000,%noloadloss=0.477000000
new transformer.TRF_1393399 Phases=3,Windings=2,Buses=[BMT175929155.1.2.3 BBT148826327.1.2.3.0],Conns=[delta wye],kvs=[22.000000000 0.22],kvas=[45.000000000 45.000000000],Taps=[1,1.000000000],XHL=3.540000000,%loadloss=1.870000000,%noloadloss=0.477000000
new transformer.TRF_1393409 Phases=3,Windings=2,Buses=[BMT175929140.1.2.3 BBT148829260.1.2.3.0],Conns=[delta wye],kvs=[22.000000000 0.22],kvas=[45.000000000 45.000000000],Taps=[1,1.000000000],XHL=3.540000000,%loadloss=1.870000000,%noloadloss=0.477000000
new transformer.TRF_1393413 Phases=3,Windings=2,Buses=[BMT175929135.1.2.3 BBT148830945.1.2.3.0],Conns=[delta wye],kvs=[22.000000000 0.22],kvas=[45.000000000 45.000000000],Taps=[1,1.000000000],XHL=3.540000000,%loadloss=1.870000000,%noloadloss=0.477000000
new transformer.TRF_1393416 Phases=3,Windings=2,Buses=[BMT175929131.1.2.3 BBT148831507.1.2.3.0],Conns=[delta wye],kvs=[22.000000000 0.22],kvas=[45.000000000 45.000000000],Taps=[1,1.000000000],XHL=3.540000000,%loadloss=1.870000000,%noloadloss=0.477000000
new transformer.TRF_1393419 Phases=3,Windings=2,Buses=[BMT175929129.1.2.3 BBT148832182.1.2.3.0],Conns=[delta wye],kvs=[22.000000000 0.22],kvas=[45.000000000 45.000000000],Taps=[1,1.000000000],XHL=3.540000000,%loadloss=1.870000000,%noloadloss=0.477000000
new transformer.TRF_1393420 Phases=3,Windings=2,Buses=[BMT175929128.1.2.3 BBT148832661.1.2.3.0],Conns=[delta wye],kvs=[22.000000000 0.22],kvas=[45.000000000 45.000000000],Taps=[1,1.000000000],XHL=3.540000000,%loadloss=1.870000000,%noloadloss=0.477000000
new transformer.TRF_1393426A Phases=1,Windings=3,Buses=[BMT175929123.1 BBT148833586.1.0 BBT148833586.0.2],Conns=[wye wye wye],kvs=[12.70 0.12 0.12],kvas=[5.000000000 5.000000000 5.000000000],Taps=[1,1.000000000,1.000000000],XHL=0.980000000,XHT=0.980000000,XLT=0.784000000,%loadloss=2.300000000,%noloadloss=0.800000000
new transformer.TRF_1393439 Phases=3,Windings=2,Buses=[BMT175929264.1.2.3 BBT148835705.1.2.3.0],Conns=[delta wye],kvs=[22.000000000 0.22],kvas=[45.000000000 45.000000000],Taps=[1,1.000000000],XHL=3.540000000,%loadloss=1.870000000,%noloadloss=0.477000000
new transformer.TRF_1393449 Phases=3,Windings=2,Buses=[BMT175929267.1.2.3 BBT148837466.1.2.3.0],Conns=[delta wye],kvs=[22.000000000 0.22],kvas=[45.000000000 45.000000000],Taps=[1,1.000000000],XHL=3.540000000,%loadloss=1.870000000,%noloadloss=0.477000000
new transformer.TRF_1393459 Phases=3,Windings=2,Buses=[BMT175929142.1.2.3 BBT148838347.1.2.3.0],Conns=[delta wye],kvs=[22.000000000 0.22],kvas=[45.000000000 45.000000000],Taps=[1,1.000000000],XHL=3.540000000,%loadloss=1.870000000,%noloadloss=0.477000000
new transformer.TRF_1393466 Phases=3,Windings=2,Buses=[BMT178836418.1.2.3 BBT148839394.1.2.3.0],Conns=[delta wye],kvs=[22.000000000 0.22],kvas=[45.000000000 45.000000000],Taps=[1,1.000000000],XHL=3.540000000,%loadloss=1.870000000,%noloadloss=0.477000000
new transformer.TRF_1393486 Phases=3,Windings=2,Buses=[BMT175929254.1.2.3 BBT148841143.1.2.3.0],Conns=[delta wye],kvs=[22.000000000 0.22],kvas=[45.000000000 45.000000000],Taps=[1,1.000000000],XHL=3.540000000,%loadloss=1.870000000,%noloadloss=0.477000000
new transformer.TRF_1393487 Phases=3,Windings=2,Buses=[BMT175929251.1.2.3 BBT148841212.1.2.3.0],Conns=[delta wye],kvs=[22.000000000 0.22],kvas=[45.000000000 45.000000000],Taps=[1,1.000000000],XHL=3.540000000,%loadloss=1.870000000,%noloadloss=0.477000000
new transformer.TRF_1393488 Phases=3,Windings=2,Buses=[BMT178836422.1.2.3 BBT148841262.1.2.3.0],Conns=[delta wye],kvs=[22.000000000 0.22],kvas=[75.000000000 75.000000000],Taps=[1,1.000000000],XHL=3.650000000,%loadloss=1.650000000,%noloadloss=0.420000000
new transformer.TRF_1052827 Phases=3,Windings=2,Buses=[BMT178677738.1.2.3 BBT117817214.1.2.3.0],Conns=[delta wye],kvs=[22.000000000 0.22],kvas=[45.000000000 45.000000000],Taps=[1,1.000000000],XHL=3.540000000,%loadloss=1.870000000,%noloadloss=0.477000000
new transformer.TRF_1054297 Phases=3,Windings=2,Buses=[BMT179879385.1.2.3 BBT119110772.1.2.3.0],Conns=[delta wye],kvs=[22.000000000 0.22],kvas=[45.000000000 45.000000000],Taps=[1,1.000000000],XHL=3.540000000,%loadloss=1.870000000,%noloadloss=0.477000000
new transformer.TRF_1107819 Phases=3,Windings=2,Buses=[BMT175930947.1.2.3 BBT143707785.1.2.3.0],Conns=[delta wye],kvs=[22.000000000 0.22],kvas=[150.000000000 150.000000000],Taps=[1,1.000000000],XHL=3.750000000,%loadloss=1.390000000,%noloadloss=0.346000000
new transformer.TRF_1400070A Phases=1,Windings=3,Buses=[BMT175930119.3 BBT150434478.1.0 BBT150434478.0.2],Conns=[wye wye wye],kvs=[12.70 0.12 0.12],kvas=[15.000000000 15.000000000 15.000000000],Taps=[1,1.000000000,1.000000000],XHL=1.580000000,XHT=1.580000000,XLT=1.264000000,%loadloss=1.930000000,%noloadloss=0.500000000
new transformer.TRF_1400162A Phases=1,Windings=3,Buses=[BMT175930815.2 BBT150462020.1.0 BBT150462020.0.2],Conns=[wye wye wye],kvs=[12.70 0.12 0.12],kvas=[15.000000000 15.000000000 15.000000000],Taps=[1,1.000000000,1.000000000],XHL=1.580000000,XHT=1.580000000,XLT=1.264000000,%loadloss=1.930000000,%noloadloss=0.500000000
new transformer.TRF_1422950A Phases=1,Windings=3,Buses=[BMT175930189.2 BBT155707696.1.0 BBT155707696.0.2],Conns=[wye wye wye],kvs=[12.70 0.12 0.12],kvas=[10.000000000 10.000000000 10.000000000],Taps=[1,1.000000000,1.000000000],XHL=1.360000000,XHT=1.360000000,XLT=1.088000000,%loadloss=2.100000000,%noloadloss=0.550000000
new transformer.TRF_1434345 Phases=3,Windings=2,Buses=[BMT175929081.1.2.3 BBT158060517.1.2.3.0],Conns=[delta wye],kvs=[22.000000000 0.22],kvas=[75.000000000 75.000000000],Taps=[1,1.000000000],XHL=3.650000000,%loadloss=1.650000000,%noloadloss=0.420000000
new transformer.TRF_1450279 Phases=3,Windings=2,Buses=[BMT175930371.1.2.3 BBT161720627.1.2.3.0],Conns=[delta wye],kvs=[22.000000000 0.22],kvas=[45.000000000 45.000000000],Taps=[1,1.000000000],XHL=3.540000000,%loadloss=1.870000000,%noloadloss=0.477000000
new transformer.TRF_1450296 Phases=3,Windings=2,Buses=[BMT175930372.1.2.3 BBT161723023.1.2.3.0],Conns=[delta wye],kvs=[22.000000000 0.22],kvas=[45.000000000 45.000000000],Taps=[1,1.000000000],XHL=3.540000000,%loadloss=1.870000000,%noloadloss=0.477000000
new transformer.TRF_1450302 Phases=3,Windings=2,Buses=[BMT175930375.1.2.3 BBT161724103.1.2.3.0],Conns=[delta wye],kvs=[22.000000000 0.22],kvas=[45.000000000 45.000000000],Taps=[1,1.000000000],XHL=3.540000000,%loadloss=1.870000000,%noloadloss=0.477000000
new transformer.TRF_1450305 Phases=3,Windings=2,Buses=[BMT175930374.1.2.3 BBT161725042.1.2.3.0],Conns=[delta wye],kvs=[22.000000000 0.22],kvas=[45.000000000 45.000000000],Taps=[1,1.000000000],XHL=3.540000000,%loadloss=1.870000000,%noloadloss=0.477000000
new transformer.TRF_1455994 Phases=3,Windings=2,Buses=[BMT175930582.1.2.3 BBT163380430.1.2.3.0],Conns=[delta wye],kvs=[22.000000000 0.22],kvas=[75.000000000 75.000000000],Taps=[1,1.000000000],XHL=3.650000000,%loadloss=1.650000000,%noloadloss=0.420000000
new transformer.TRF_1466594 Phases=3,Windings=2,Buses=[BMT175929772.1.2.3 BBT165836900.1.2.3.0],Conns=[delta wye],kvs=[22.000000000 0.22],kvas=[45.000000000 45.000000000],Taps=[1,1.000000000],XHL=3.540000000,%loadloss=1.870000000,%noloadloss=0.477000000
new transformer.TRF_1466595 Phases=3,Windings=2,Buses=[BMT175929780.1.2.3 BBT165836969.1.2.3.0],Conns=[delta wye],kvs=[22.000000000 0.22],kvas=[45.000000000 45.000000000],Taps=[1,1.000000000],XHL=3.540000000,%loadloss=1.870000000,%noloadloss=0.477000000
new transformer.TRF_1466596 Phases=3,Windings=2,Buses=[BMT175929782.1.2.3 BBT165836993.1.2.3.0],Conns=[delta wye],kvs=[22.000000000 0.22],kvas=[45.000000000 45.000000000],Taps=[1,1.000000000],XHL=3.540000000,%loadloss=1.870000000,%noloadloss=0.477000000
new transformer.TRF_1466597 Phases=3,Windings=2,Buses=[BMT175929784.1.2.3 BBT165837007.1.2.3.0],Conns=[delta wye],kvs=[22.000000000 0.22],kvas=[45.000000000 45.000000000],Taps=[1,1.000000000],XHL=3.540000000,%loadloss=1.870000000,%noloadloss=0.477000000
new transformer.TRF_1466598 Phases=3,Windings=2,Buses=[BMT175929783.1.2.3 BBT165837026.1.2.3.0],Conns=[delta wye],kvs=[22.000000000 0.22],kvas=[45.000000000 45.000000000],Taps=[1,1.000000000],XHL=3.540000000,%loadloss=1.870000000,%noloadloss=0.477000000
new transformer.TRF_1466803A Phases=1,Windings=3,Buses=[BMT179731658.1 BBT165886135.1.0 BBT165886135.0.2],Conns=[wye wye wye],kvs=[12.70 0.12 0.12],kvas=[5.000000000 5.000000000 5.000000000],Taps=[1,1.000000000,1.000000000],XHL=1.360000000,XHT=1.360000000,XLT=1.088000000,%loadloss=2.100000000,%noloadloss=0.700000000
new transformer.TRF_1478026 Phases=3,Windings=2,Buses=[BMT175930921.1.2.3 BBT167782361.1.2.3.0],Conns=[delta wye],kvs=[22.000000000 0.22],kvas=[150.000000000 150.000000000],Taps=[1,1.000000000],XHL=3.750000000,%loadloss=1.390000000,%noloadloss=0.346000000
new transformer.TRF_1487414 Phases=3,Windings=2,Buses=[BMT175929115.1.2.3 BBT169425982.1.2.3.0],Conns=[delta wye],kvs=[22.000000000 0.22],kvas=[45.000000000 45.000000000],Taps=[1,1.000000000],XHL=3.540000000,%loadloss=1.870000000,%noloadloss=0.477000000
new transformer.TRF_148755 Phases=3,Windings=2,Buses=[BMT180150065.1.2.3 BBT623887.1.2.3.0],Conns=[delta wye],kvs=[22.000000000 0.22],kvas=[75.000000000 75.000000000],Taps=[1,1.000000000],XHL=3.650000000,%loadloss=1.650000000,%noloadloss=0.420000000
new transformer.TRF_149224A Phases=1,Windings=3,Buses=[BMT175930144.2 BBT625399.1.0 BBT625399.0.2],Conns=[wye wye wye],kvs=[12.70 0.12 0.12],kvas=[10.000000000 10.000000000 10.000000000],Taps=[1,1.000000000,1.000000000],XHL=1.360000000,XHT=1.360000000,XLT=1.088000000,%loadloss=2.100000000,%noloadloss=0.550000000
new transformer.TRF_1393531 Phases=3,Windings=2,Buses=[BMT178836420.1.2.3 BBT148847512.1.2.3.0],Conns=[delta wye],kvs=[22.000000000 0.22],kvas=[45.000000000 45.000000000],Taps=[1,1.000000000],XHL=3.540000000,%loadloss=1.870000000,%noloadloss=0.477000000
new transformer.TRF_1393534 Phases=3,Windings=2,Buses=[BMT178836424.1.2.3 BBT148847979.1.2.3.0],Conns=[delta wye],kvs=[22.000000000 0.22],kvas=[45.000000000 45.000000000],Taps=[1,1.000000000],XHL=3.540000000,%loadloss=1.870000000,%noloadloss=0.477000000
new transformer.TRF_1393541 Phases=3,Windings=2,Buses=[BMT178836437.1.2.3 BBT148849145.1.2.3.0],Conns=[delta wye],kvs=[22.000000000 0.22],kvas=[45.000000000 45.000000000],Taps=[1,1.000000000],XHL=3.540000000,%loadloss=1.870000000,%noloadloss=0.477000000
new transformer.TRF_1393551 Phases=3,Windings=2,Buses=[BMT178836438.1.2.3 BBT148852285.1.2.3.0],Conns=[delta wye],kvs=[22.000000000 0.22],kvas=[45.000000000 45.000000000],Taps=[1,1.000000000],XHL=3.540000000,%loadloss=1.870000000,%noloadloss=0.477000000
new transformer.TRF_1393554 Phases=3,Windings=2,Buses=[BMT178836440.1.2.3 BBT148853227.1.2.3.0],Conns=[delta wye],kvs=[22.000000000 0.22],kvas=[75.000000000 75.000000000],Taps=[1,1.000000000],XHL=3.650000000,%loadloss=1.650000000,%noloadloss=0.420000000
new transformer.TRF_1393560 Phases=3,Windings=2,Buses=[BMT178836442.1.2.3 BBT148854240.1.2.3.0],Conns=[delta wye],kvs=[22.000000000 0.22],kvas=[45.000000000 45.000000000],Taps=[1,1.000000000],XHL=3.540000000,%loadloss=1.870000000,%noloadloss=0.477000000
new transformer.TRF_1393563 Phases=3,Windings=2,Buses=[BMT178836443.1.2.3 BBT148854504.1.2.3.0],Conns=[delta wye],kvs=[22.000000000 0.22],kvas=[45.000000000 45.000000000],Taps=[1,1.000000000],XHL=3.540000000,%loadloss=1.870000000,%noloadloss=0.477000000
new transformer.TRF_1393579 Phases=3,Windings=2,Buses=[BMT178836430.1.2.3 BBT148856859.1.2.3.0],Conns=[delta wye],kvs=[22.000000000 0.22],kvas=[75.000000000 75.000000000],Taps=[1,1.000000000],XHL=3.650000000,%loadloss=1.650000000,%noloadloss=0.420000000
new transformer.TRF_1393588 Phases=3,Windings=2,Buses=[BMT178836432.1.2.3 BBT148858380.1.2.3.0],Conns=[delta wye],kvs=[22.000000000 0.22],kvas=[45.000000000 45.000000000],Taps=[1,1.000000000],XHL=3.540000000,%loadloss=1.870000000,%noloadloss=0.477000000
new transformer.TRF_1393589 Phases=3,Windings=2,Buses=[BMT178836434.1.2.3 BBT148858677.1.2.3.0],Conns=[delta wye],kvs=[22.000000000 0.22],kvas=[45.000000000 45.000000000],Taps=[1,1.000000000],XHL=3.540000000,%loadloss=1.870000000,%noloadloss=0.477000000
new transformer.TRF_1393597 Phases=3,Windings=2,Buses=[BMT175929256.1.2.3 BBT148860491.1.2.3.0],Conns=[delta wye],kvs=[22.000000000 0.22],kvas=[45.000000000 45.000000000],Taps=[1,1.000000000],XHL=3.540000000,%loadloss=1.870000000,%noloadloss=0.477000000
new transformer.TRF_1393599 Phases=3,Windings=2,Buses=[BMT175929259.1.2.3 BBT148860871.1.2.3.0],Conns=[delta wye],kvs=[22.000000000 0.22],kvas=[45.000000000 45.000000000],Taps=[1,1.000000000],XHL=3.540000000,%loadloss=1.870000000,%noloadloss=0.477000000
new transformer.TRF_1401128 Phases=3,Windings=2,Buses=[BMT178929864.1.2.3 BBT150711845.1.2.3.0],Conns=[delta wye],kvs=[22.000000000 0.22],kvas=[45.000000000 45.000000000],Taps=[1,1.000000000],XHL=3.540000000,%loadloss=1.870000000,%noloadloss=0.477000000
new transformer.TRF_1406500 Phases=3,Windings=2,Buses=[BMT175929684.1.2.3 BBT151990174.1.2.3.0],Conns=[delta wye],kvs=[22.000000000 0.22],kvas=[75.000000000 75.000000000],Taps=[1,1.000000000],XHL=3.650000000,%loadloss=1.650000000,%noloadloss=0.420000000
new transformer.TRF_1434762 Phases=3,Windings=2,Buses=[BMT158138824.1.2.3 BBT158138825.1.2.3.0],Conns=[delta wye],kvs=[22.000000000 0.22],kvas=[45.000000000 45.000000000],Taps=[1,1.000000000],XHL=3.540000000,%loadloss=1.870000000,%noloadloss=0.477000000
new transformer.TRF_1434822 Phases=3,Windings=2,Buses=[BMT178135728.1.2.3 BBT158148816.1.2.3.0],Conns=[delta wye],kvs=[22.000000000 0.22],kvas=[75.000000000 75.000000000],Taps=[1,1.000000000],XHL=3.650000000,%loadloss=1.650000000,%noloadloss=0.420000000
new transformer.TRF_1434953 Phases=3,Windings=2,Buses=[BMT178101323.1.2.3 BBT158178791.1.2.3.0],Conns=[delta wye],kvs=[22.000000000 0.22],kvas=[45.000000000 45.000000000],Taps=[1,1.000000000],XHL=3.540000000,%loadloss=1.870000000,%noloadloss=0.477000000
new transformer.TRF_1461746 Phases=3,Windings=2,Buses=[BMT175930760.1.2.3 BBT164689633.1.2.3.0],Conns=[delta wye],kvs=[22.000000000 0.22],kvas=[150.000000000 150.000000000],Taps=[1,1.000000000],XHL=3.750000000,%loadloss=1.390000000,%noloadloss=0.346000000
new transformer.TRF_1485646A Phases=1,Windings=3,Buses=[BMT175930647.3 BBT169148219.1.0 BBT169148219.0.2],Conns=[wye wye wye],kvs=[12.70 0.12 0.12],kvas=[15.000000000 15.000000000 15.000000000],Taps=[1,1.000000000,1.000000000],XHL=1.580000000,XHT=1.580000000,XLT=1.264000000,%loadloss=1.930000000,%noloadloss=0.500000000
new transformer.TRF_1485690 Phases=3,Windings=2,Buses=[BMT175929736.1.2.3 BBT169153620.1.2.3.0],Conns=[delta wye],kvs=[22.000000000 0.22],kvas=[75.000000000 75.000000000],Taps=[1,1.000000000],XHL=3.650000000,%loadloss=1.650000000,%noloadloss=0.420000000
new transformer.TRF_1496438 Phases=3,Windings=2,Buses=[BMT175930609.1.2.3 BBT171295653.1.2.3.0],Conns=[delta wye],kvs=[22.000000000 0.22],kvas=[45.000000000 45.000000000],Taps=[1,1.000000000],XHL=3.540000000,%loadloss=1.870000000,%noloadloss=0.477000000
new transformer.TRF_1496439 Phases=3,Windings=2,Buses=[BMT175930599.1.2.3 BBT171295680.1.2.3.0],Conns=[delta wye],kvs=[22.000000000 0.22],kvas=[45.000000000 45.000000000],Taps=[1,1.000000000],XHL=3.540000000,%loadloss=1.870000000,%noloadloss=0.477000000
new transformer.TRF_1496442 Phases=3,Windings=2,Buses=[BMT175930601.1.2.3 BBT171296035.1.2.3.0],Conns=[delta wye],kvs=[22.000000000 0.22],kvas=[45.000000000 45.000000000],Taps=[1,1.000000000],XHL=3.540000000,%loadloss=1.870000000,%noloadloss=0.477000000
new transformer.TRF_1089437A Phases=1,Windings=3,Buses=[BMT180150062.3 BBT138715112.1.0 BBT138715112.0.2],Conns=[wye wye wye],kvs=[12.70 0.12 0.12],kvas=[5.000000000 5.000000000 5.000000000],Taps=[1,1.000000000,1.000000000],XHL=0.980000000,XHT=0.980000000,XLT=0.784000000,%loadloss=2.300000000,%noloadloss=0.800000000
new transformer.TRF_1089570 Phases=3,Windings=2,Buses=[BMT175928996.1.2.3 BBT138743119.1.2.3.0],Conns=[delta wye],kvs=[22.000000000 0.22],kvas=[45.000000000 45.000000000],Taps=[1,1.000000000],XHL=3.540000000,%loadloss=1.870000000,%noloadloss=0.477000000
new transformer.TRF_1393796 Phases=3,Windings=2,Buses=[BMT179172059.1.2.3 BBT148903602.1.2.3.0],Conns=[delta wye],kvs=[22.000000000 0.22],kvas=[75.000000000 75.000000000],Taps=[1,1.000000000],XHL=3.650000000,%loadloss=1.650000000,%noloadloss=0.420000000
new transformer.TRF_1394410 Phases=3,Windings=2,Buses=[BMT176529247.1.2.3 BBT149069917.1.2.3.0],Conns=[delta wye],kvs=[22.000000000 0.22],kvas=[75.000000000 75.000000000],Taps=[1,1.000000000],XHL=3.650000000,%loadloss=1.650000000,%noloadloss=0.420000000
new transformer.TRF_1404558 Phases=3,Windings=2,Buses=[BMT175929057.1.2.3 BBT151547110.1.2.3.0],Conns=[delta wye],kvs=[22.000000000 0.22],kvas=[75.000000000 75.000000000],Taps=[1,1.000000000],XHL=3.650000000,%loadloss=1.650000000,%noloadloss=0.420000000
new transformer.TRF_1415263 Phases=3,Windings=2,Buses=[BMT176636013.1.2.3 BBT153947730.1.2.3.0],Conns=[delta wye],kvs=[22.000000000 0.22],kvas=[75.000000000 75.000000000],Taps=[1,1.000000000],XHL=3.650000000,%loadloss=1.650000000,%noloadloss=0.420000000
new transformer.TRF_1431491A Phases=1,Windings=3,Buses=[BMT175930013.2 BBT157545557.1.0 BBT157545557.0.2],Conns=[wye wye wye],kvs=[12.70 0.12 0.12],kvas=[35.000000000 35.000000000 35.000000000],Taps=[1,1.000000000,1.000000000],XHL=1.930000000,XHT=1.930000000,XLT=1.544000000,%loadloss=1.590000000,%noloadloss=0.414000000
new transformer.TRF_1437625 Phases=3,Windings=2,Buses=[BMT175930554.1.2.3 BBT158675519.1.2.3.0],Conns=[delta wye],kvs=[22.000000000 0.22],kvas=[45.000000000 45.000000000],Taps=[1,1.000000000],XHL=3.540000000,%loadloss=1.870000000,%noloadloss=0.477000000
new transformer.TRF_1447992 Phases=3,Windings=2,Buses=[BMT178890750.1.2.3 BBT161209645.1.2.3.0],Conns=[delta wye],kvs=[22.000000000 0.22],kvas=[300.000000000 300.000000000],Taps=[1,1.000000000],XHL=4.860000000,%loadloss=1.180000000,%noloadloss=0.283000000
new transformer.TRF_1454880A Phases=1,Windings=3,Buses=[BMT175930112.3 BBT163042692.1.0 BBT163042692.0.2],Conns=[wye wye wye],kvs=[12.70 0.12 0.12],kvas=[10.000000000 10.000000000 10.000000000],Taps=[1,1.000000000,1.000000000],XHL=1.360000000,XHT=1.360000000,XLT=1.088000000,%loadloss=2.100000000,%noloadloss=0.550000000
new transformer.TRF_1476450A Phases=1,Windings=3,Buses=[BMT175930123.1 BBT167510555.1.0 BBT167510555.0.2],Conns=[wye wye wye],kvs=[12.70 0.12 0.12],kvas=[10.000000000 10.000000000 10.000000000],Taps=[1,1.000000000,1.000000000],XHL=1.360000000,XHT=1.360000000,XLT=1.088000000,%loadloss=2.100000000,%noloadloss=0.550000000
new transformer.TRF_1491719A Phases=1,Windings=3,Buses=[BMT175930471.2 BBT170277134.1.0 BBT170277134.0.2],Conns=[wye wye wye],kvs=[12.70 0.12 0.12],kvas=[35.000000000 35.000000000 35.000000000],Taps=[1,1.000000000,1.000000000],XHL=1.930000000,XHT=1.930000000,XLT=1.544000000,%loadloss=1.590000000,%noloadloss=0.414000000
new transformer.TRF_1491884A Phases=1,Windings=3,Buses=[BMT175929443.2 BBT170317452.1.0 BBT170317452.0.2],Conns=[wye wye wye],kvs=[12.70 0.12 0.12],kvas=[35.000000000 35.000000000 35.000000000],Taps=[1,1.000000000,1.000000000],XHL=2.060000000,XHT=2.060000000,XLT=1.648000000,%loadloss=1.410000000,%noloadloss=0.385000000
new transformer.TRF_1491944 Phases=3,Windings=2,Buses=[BMT175930762.1.2.3 BBT170336449.1.2.3.0],Conns=[delta wye],kvs=[22.000000000 0.22],kvas=[45.000000000 45.000000000],Taps=[1,1.000000000],XHL=3.540000000,%loadloss=1.870000000,%noloadloss=0.477000000
new transformer.TRF_1497180 Phases=3,Windings=2,Buses=[BMT176636018.1.2.3 BBT171436004.1.2.3.0],Conns=[delta wye],kvs=[22.000000000 0.22],kvas=[75.000000000 75.000000000],Taps=[1,1.000000000],XHL=3.650000000,%loadloss=1.650000000,%noloadloss=0.420000000
new transformer.TRF_1497341 Phases=3,Windings=2,Buses=[BMT175930767.1.2.3 BBT171461899.1.2.3.0],Conns=[delta wye],kvs=[22.000000000 0.22],kvas=[150.000000000 150.000000000],Taps=[1,1.000000000],XHL=3.750000000,%loadloss=1.390000000,%noloadloss=0.346000000
new transformer.TRF_1497342 Phases=3,Windings=2,Buses=[BMT175930768.1.2.3 BBT171461907.1.2.3.0],Conns=[delta wye],kvs=[22.000000000 0.22],kvas=[150.000000000 150.000000000],Taps=[1,1.000000000],XHL=3.750000000,%loadloss=1.390000000,%noloadloss=0.346000000
new transformer.TRF_1497343 Phases=3,Windings=2,Buses=[BMT175930769.1.2.3 BBT171461915.1.2.3.0],Conns=[delta wye],kvs=[22.000000000 0.22],kvas=[150.000000000 150.000000000],Taps=[1,1.000000000],XHL=3.750000000,%loadloss=1.390000000,%noloadloss=0.346000000
new transformer.TRF_1497344 Phases=3,Windings=2,Buses=[BMT175930770.1.2.3 BBT171461923.1.2.3.0],Conns=[delta wye],kvs=[22.000000000 0.22],kvas=[150.000000000 150.000000000],Taps=[1,1.000000000],XHL=3.750000000,%loadloss=1.390000000,%noloadloss=0.346000000
new transformer.TRF_1081212A Phases=1,Windings=3,Buses=[BMT178762277.1 BBT136430312.1.0 BBT136430312.0.2],Conns=[wye wye wye],kvs=[12.70 0.12 0.12],kvas=[15.000000000 15.000000000 15.000000000],Taps=[1,1.000000000,1.000000000],XHL=1.580000000,XHT=1.580000000,XLT=1.264000000,%loadloss=1.930000000,%noloadloss=0.500000000
new transformer.TRF_1097032 Phases=3,Windings=2,Buses=[BMT175929454.1.2.3 BBT140683785.1.2.3.0],Conns=[delta wye],kvs=[22.000000000 0.22],kvas=[75.000000000 75.000000000],Taps=[1,1.000000000],XHL=3.650000000,%loadloss=1.650000000,%noloadloss=0.420000000
new transformer.TRF_1097046 Phases=3,Windings=2,Buses=[BMT175929455.1.2.3 BBT140688790.1.2.3.0],Conns=[delta wye],kvs=[22.000000000 0.22],kvas=[75.000000000 75.000000000],Taps=[1,1.000000000],XHL=3.650000000,%loadloss=1.650000000,%noloadloss=0.420000000
new transformer.TRF_1097074 Phases=3,Windings=2,Buses=[BMT175929456.1.2.3 BBT140693725.1.2.3.0],Conns=[delta wye],kvs=[22.000000000 0.22],kvas=[75.000000000 75.000000000],Taps=[1,1.000000000],XHL=3.650000000,%loadloss=1.650000000,%noloadloss=0.420000000
new transformer.TRF_1097291 Phases=3,Windings=2,Buses=[BMT178704286.1.2.3 BBT140726107.1.2.3.0],Conns=[delta wye],kvs=[22.000000000 0.22],kvas=[45.000000000 45.000000000],Taps=[1,1.000000000],XHL=3.540000000,%loadloss=1.870000000,%noloadloss=0.477000000
new transformer.TRF_1098327 Phases=3,Windings=2,Buses=[BMT160142868.1.2.3 BBT140945571.1.2.3.0],Conns=[delta wye],kvs=[22.000000000 0.22],kvas=[150.000000000 150.000000000],Taps=[1,1.000000000],XHL=3.750000000,%loadloss=1.390000000,%noloadloss=0.346000000