new loadshape.c3013572754 npts=24,interval=1.0,mult=(0.001 0.001 0.001 0.001 0.001 0.001 0.001 0.244 0.942 1.906 2.743 3.216 3.279 3.33 3.03 2.397 1.767 0.908 0.228 0.001 0.001 0.001 0.001 0.001 0.001)
new generator.3013572754 bus1=BMT175930126.1.2.3,Phases=3,kv=13.800000000,kW=232.258064516,pf=0.92,model=1,daily=c3013572754,status=Variable
new loadshape.c3014102139 npts=24,interval=1.0,mult=(0.001 0.001 0.001 0.001 0.001 0.001 0.001 0.244 0.942 1.906 2.743 3.216 3.279 3.33 3.03 2.397 1.767 0.908 0.228 0.001 0.001 0.001 0.001 0.001 0.001)
new generator.3014102139 bus1=BMT178168387.1.2.3,Phases=3,kv=13.800000000,kW=441.935483871,pf=0.92,model=1,daily=c3014102139,status=Variable
