new load.3006028431M1 bus1=BMT175930506.1.2.3.0,Phases=3,kv=22.000000000,kW=0.74352,pf=0.92,Vminpu=0.93,Vmaxpu=1.5,model=1,daily=MT1_1,status=variable
new load.3006554740M1 bus1=BMT149233444.1.2.3.0,Phases=3,kv=22.000000000,kW=6.6565,pf=0.92,Vminpu=0.93,Vmaxpu=1.5,model=1,daily=MT1_1,status=variable
new load.3009000589M1 bus1=BMT175929088.1.2.3.0,Phases=3,kv=22.000000000,kW=157.87502,pf=0.92,Vminpu=0.93,Vmaxpu=1.5,model=1,daily=MT3_1,status=variable
new load.3009009916M1 bus1=BMT122298796.1.2.3.0,Phases=3,kv=22.000000000,kW=45.23482,pf=0.92,Vminpu=0.93,Vmaxpu=1.5,model=1,daily=MT2_1,status=variable
new load.3009011395M1 bus1=BMT175929352.1.2.3.0,Phases=3,kv=22.000000000,kW=0.42348,pf=0.92,Vminpu=0.93,Vmaxpu=1.5,model=1,daily=MT1_1,status=variable
new load.3009014368M1 bus1=BMT175930418.1.2.3.0,Phases=3,kv=22.000000000,kW=7.25964,pf=0.92,Vminpu=0.93,Vmaxpu=1.5,model=1,daily=MT1_1,status=variable
new load.3009017904M1 bus1=BMT175929074.1.2.3.0,Phases=3,kv=22.000000000,kW=5.32374,pf=0.92,Vminpu=0.93,Vmaxpu=1.5,model=1,daily=MT1_1,status=variable
new load.3009019343M1 bus1=BMT122298873.1.2.3.0,Phases=3,kv=22.000000000,kW=73.38634,pf=0.92,Vminpu=0.93,Vmaxpu=1.5,model=1,daily=MT3_1,status=variable
new load.3009019488M1 bus1=BMT179731571.1.2.3.0,Phases=3,kv=22.000000000,kW=37.63688,pf=0.92,Vminpu=0.93,Vmaxpu=1.5,model=1,daily=MT3_1,status=variable
new load.3009019496M1 bus1=BMT175930296.1.2.3.0,Phases=3,kv=22.000000000,kW=24.00698,pf=0.92,Vminpu=0.93,Vmaxpu=1.5,model=1,daily=MT2_1,status=variable
new load.3009019746M1 bus1=BMT175930265.1.2.3.0,Phases=3,kv=22.000000000,kW=4.83976,pf=0.92,Vminpu=0.93,Vmaxpu=1.5,model=1,daily=MT1_1,status=variable
new load.3009019853M1 bus1=BMT175929079.1.2.3.0,Phases=3,kv=22.000000000,kW=0.00152,pf=0.92,Vminpu=0.93,Vmaxpu=1.5,model=1,daily=MT1_1,status=variable
new load.3009020499M1 bus1=BMT122298859.1.2.3.0,Phases=3,kv=22.000000000,kW=181.01552,pf=0.92,Vminpu=0.93,Vmaxpu=1.5,model=1,daily=MT4_1,status=variable
new load.3009020796M1 bus1=BMT175929167.1.2.3.0,Phases=3,kv=22.000000000,kW=0.00152,pf=0.92,Vminpu=0.93,Vmaxpu=1.5,model=1,daily=MT1_1,status=variable
new load.3009021045M1 bus1=BMT175929079.1.2.3.0,Phases=3,kv=22.000000000,kW=49.19656,pf=0.92,Vminpu=0.93,Vmaxpu=1.5,model=1,daily=MT2_1,status=variable
new load.3009021701M1 bus1=BMT175929167.1.2.3.0,Phases=3,kv=22.000000000,kW=29.2696,pf=0.92,Vminpu=0.93,Vmaxpu=1.5,model=1,daily=MT2_1,status=variable
new load.3009022245M1 bus1=BMT175930303.1.2.3.0,Phases=3,kv=22.000000000,kW=22.9263,pf=0.92,Vminpu=0.93,Vmaxpu=1.5,model=1,daily=MT3_1,status=variable
new load.3010001471M1 bus1=BMT175929090.1.2.3.0,Phases=3,kv=22.000000000,kW=9.67952,pf=0.92,Vminpu=0.93,Vmaxpu=1.5,model=1,daily=MT1_1,status=variable
new load.3010134574M1 bus1=BMT175930267.1.2.3.0,Phases=3,kv=22.000000000,kW=0.00152,pf=0.92,Vminpu=0.93,Vmaxpu=1.5,model=1,daily=MT1_1,status=variable
new load.3010243807M1 bus1=BMT175930298.1.2.3.0,Phases=3,kv=22.000000000,kW=3.15992,pf=0.92,Vminpu=0.93,Vmaxpu=1.5,model=1,daily=MT1_1,status=variable
new load.3010379576M1 bus1=BMT122298782.1.2.3.0,Phases=3,kv=22.000000000,kW=16.33418,pf=0.92,Vminpu=0.93,Vmaxpu=1.5,model=1,daily=MT1_1,status=variable
new load.3010417727M1 bus1=BMT175930927.1.2.3.0,Phases=3,kv=22.000000000,kW=0.00152,pf=0.92,Vminpu=0.93,Vmaxpu=1.5,model=1,daily=MT1_1,status=variable
new load.3011182082M1 bus1=BMT175930938.1.2.3.0,Phases=3,kv=22.000000000,kW=35.83308,pf=0.92,Vminpu=0.93,Vmaxpu=1.5,model=1,daily=MT2_1,status=variable
new load.3011868646M1 bus1=BMT175930526.1.2.3.0,Phases=3,kv=22.000000000,kW=60.66788,pf=0.92,Vminpu=0.93,Vmaxpu=1.5,model=1,daily=MT2_1,status=variable
new load.3012119434M1 bus1=BMT175929217.1.2.3.0,Phases=3,kv=22.000000000,kW=11.17566,pf=0.92,Vminpu=0.93,Vmaxpu=1.5,model=1,daily=MT2_1,status=variable
new load.3012329859M1 bus1=BMT175929072.1.2.3.0,Phases=3,kv=22.000000000,kW=6.0313,pf=0.92,Vminpu=0.93,Vmaxpu=1.5,model=1,daily=MT2_1,status=variable
new load.3012408201M1 bus1=BMT175930889.1.2.3.0,Phases=3,kv=22.000000000,kW=5.44472,pf=0.92,Vminpu=0.93,Vmaxpu=1.5,model=1,daily=MT1_1,status=variable
new load.3012713550M1 bus1=BMT175930933.1.2.3.0,Phases=3,kv=22.000000000,kW=27.79132,pf=0.92,Vminpu=0.93,Vmaxpu=1.5,model=1,daily=MT2_1,status=variable
new load.3012812484M1 bus1=BMT178144169.1.2.3.0,Phases=3,kv=22.000000000,kW=0.00152,pf=0.92,Vminpu=0.93,Vmaxpu=1.5,model=1,daily=MT1_1,status=variable
new load.3012850372M1 bus1=BMT175930779.1.2.3.0,Phases=3,kv=22.000000000,kW=22.94262,pf=0.92,Vminpu=0.93,Vmaxpu=1.5,model=1,daily=MT2_1,status=variable
new load.3012931019M1 bus1=BMT175929469.1.2.0,Phases=2,kv=22.000000000,kW=4.9694,pf=0.92,Vminpu=0.93,Vmaxpu=1.5,model=1,daily=MT1_1,status=variable
new load.3012932201M1 bus1=BMT157956433.1.2.3.0,Phases=3,kv=22.000000000,kW=4.23478,pf=0.92,Vminpu=0.93,Vmaxpu=1.5,model=1,daily=MT1_1,status=variable
new load.3013074433M1 bus1=BMT175930267.1.2.3.0,Phases=3,kv=22.000000000,kW=0.00152,pf=0.92,Vminpu=0.93,Vmaxpu=1.5,model=1,daily=MT1_1,status=variable
new load.3013077851M1 bus1=BMT175930267.1.2.3.0,Phases=3,kv=22.000000000,kW=183.2119,pf=0.92,Vminpu=0.93,Vmaxpu=1.5,model=1,daily=MT3_1,status=variable
new load.3013086842M1 bus1=BMT175930949.1.2.3.0,Phases=3,kv=22.000000000,kW=50.8172,pf=0.92,Vminpu=0.93,Vmaxpu=1.5,model=1,daily=MT4_1,status=variable
new load.3013432616M1 bus1=BMT175929109.1.2.3.0,Phases=3,kv=22.000000000,kW=5.9287,pf=0.92,Vminpu=0.93,Vmaxpu=1.5,model=1,daily=MT1_1,status=variable
new load.3013535822M1 bus1=BMT175930956.1.2.3.0,Phases=3,kv=22.000000000,kW=121.42192,pf=0.92,Vminpu=0.93,Vmaxpu=1.5,model=1,daily=MT3_1,status=variable
new load.3013572754M1 bus1=BMT175930128.1.2.3.0,Phases=3,kv=22.000000000,kW=0.00152,pf=0.92,Vminpu=0.93,Vmaxpu=1.5,model=1,daily=MT1_1,status=variable
new load.3013599266M1 bus1=BMT175930873.1.2.3.0,Phases=3,kv=22.000000000,kW=428.45874,pf=0.92,Vminpu=0.93,Vmaxpu=1.5,model=1,daily=MT4_1,status=variable
new load.3014102139M1 bus1=BMT178155849.1.2.3.0,Phases=3,kv=22.000000000,kW=1.8149,pf=0.92,Vminpu=0.93,Vmaxpu=1.5,model=1,daily=MT1_1,status=variable
new load.3014319432M1 bus1=BMT177177727.1.2.3.0,Phases=3,kv=22.000000000,kW=166.87762,pf=0.92,Vminpu=0.93,Vmaxpu=1.5,model=1,daily=MT3_1,status=variable
new load.3014460348M1 bus1=BMT178144169.1.2.3.0,Phases=3,kv=22.000000000,kW=89.8497,pf=0.92,Vminpu=0.93,Vmaxpu=1.5,model=1,daily=MT3_1,status=variable
new load.3014482331M1 bus1=BMT175930956.1.2.3.0,Phases=3,kv=22.000000000,kW=0.00152,pf=0.92,Vminpu=0.93,Vmaxpu=1.5,model=1,daily=MT1_1,status=variable
new load.3014760955M1 bus1=BMT175930267.1.2.3.0,Phases=3,kv=22.000000000,kW=0.00152,pf=0.92,Vminpu=0.93,Vmaxpu=1.5,model=1,daily=MT1_1,status=variable
new load.3014760988M1 bus1=BMT175930956.1.2.3.0,Phases=3,kv=22.000000000,kW=0.00152,pf=0.92,Vminpu=0.93,Vmaxpu=1.5,model=1,daily=MT1_1,status=variable
