new line.SBT_1005849 bus1=BBT1037104.1.2.3.0,bus2=BBT1037160.1.2.3.0,Phases=3,Linecode=BT108_BT107_7_3_1_3,Length=0.037003000,Units=km
new line.SBT_1005856 bus1=BBT1037111.1.2.3.0,bus2=BBT1037104.1.2.3.0,Phases=3,Linecode=BT108_BT107_7_3_1_3,Length=0.037950000,Units=km
new line.SBT_1005863 bus1=BBT1037118.1.2.3.0,bus2=BBT1037111.1.2.3.0,Phases=3,Linecode=BT108_BT107_7_3_1_3,Length=0.041764000,Units=km
new line.SBT_1005870 bus1=BBT1037125.1.2.3.0,bus2=BBT1037118.1.2.3.0,Phases=3,Linecode=BT108_BT107_7_3_1_3,Length=0.038629000,Units=km
new line.SBT_1005877 bus1=BBT1037097.1.2.3.0,bus2=BBT1037125.1.2.3.0,Phases=3,Linecode=BT308_BT308_7_3_1_3,Length=0.000501000,Units=km
new line.SBT_1005884 bus1=BBT1037125.1.2.3.0,bus2=BBT1037132.1.2.3.0,Phases=3,Linecode=BT108_BT107_7_3_1_3,Length=0.036403000,Units=km
new line.SBT_1005891 bus1=BBT1037132.1.2.3.0,bus2=BBT1037146.1.2.3.0,Phases=3,Linecode=BT108_BT107_7_3_1_3,Length=0.033529000,Units=km
new line.SBT_1005898 bus1=BBT1037146.1.2.3.0,bus2=BBT1037153.1.2.3.0,Phases=3,Linecode=BT108_BT107_7_3_1_3,Length=0.035174000,Units=km
new line.SBT_1005905 bus1=BBT1037153.1.2.3.0,bus2=BBT1037139.1.2.3.0,Phases=3,Linecode=BT108_BT107_7_3_1_3,Length=0.036403000,Units=km
new line.SBT_1019933 bus1=BBT1055122.1.2.3.0,bus2=BBT3206173.1.2.3.0,Phases=3,Linecode=BT803_BT803_4_3_4_3,Length=0.034716000,Units=km
new line.SBT_1019940 bus1=BBT1055143.1.2.3.0,bus2=BBT1055136.1.2.3.0,Phases=3,Linecode=BT805_BT805_4_3_4_3,Length=0.037218000,Units=km
new line.SBT_1019947 bus1=BBT1055115.1.2.3.0,bus2=BBT1055213.1.2.3.0,Phases=3,Linecode=BT513_BT513_7_3_1_3,Length=0.000501000,Units=km
new line.SBT_1019954 bus1=BBT1055136.1.2.3.0,bus2=BBT179423488.1.2.3.0,Phases=3,Linecode=BT805_BT805_4_3_4_3,Length=0.033063000,Units=km
new line.SBT_1019961 bus1=BBT1055157.1.2.3.0,bus2=BBT1055150.1.2.3.0,Phases=3,Linecode=BT805_BT805_4_3_4_3,Length=0.021933000,Units=km
new line.SBT_1019968 bus1=BBT1055157.1.2.3.0,bus2=BBT1055164.1.2.3.0,Phases=3,Linecode=BT805_BT805_4_3_4_3,Length=0.025062000,Units=km
new line.SBT_1019975 bus1=BBT1055164.1.2.3.0,bus2=BBT1055171.1.2.3.0,Phases=3,Linecode=BT803_BT803_4_3_4_3,Length=0.034528000,Units=km
new line.SBT_1019982 bus1=BBT1055164.1.2.3.0,bus2=BBT1055178.1.2.3.0,Phases=3,Linecode=BT803_BT803_4_3_4_3,Length=0.035344000,Units=km
new line.SBT_1019989 bus1=BBT1055171.1.2.3.0,bus2=BBT1055122.1.2.3.0,Phases=3,Linecode=BT803_BT803_4_3_4_3,Length=0.042193000,Units=km
new line.SBT_1019996 bus1=BBT1055178.1.2.3.0,bus2=BBT1055185.1.2.3.0,Phases=3,Linecode=BT803_BT803_4_3_4_3,Length=0.030808000,Units=km
new line.SBT_1020003 bus1=BBT1055185.1.2.3.0,bus2=BBT1055192.1.2.3.0,Phases=3,Linecode=BT803_BT803_4_3_4_3,Length=0.040364000,Units=km
new line.SBT_1020010 bus1=BBT1055185.1.2.3.0,bus2=BBT2957351.1.2.3.0,Phases=3,Linecode=BT803_BT803_4_3_4_3,Length=0.034135000,Units=km
new line.SBT_1020017 bus1=BBT1055206.1.2.3.0,bus2=BBT1055199.1.2.3.0,Phases=3,Linecode=BT805_BT805_4_3_4_3,Length=0.015266000,Units=km
new line.SBT_1020024 bus1=BBT179422895.1.2.3.0,bus2=BBT1055206.1.2.3.0,Phases=3,Linecode=BT805_BT805_4_3_4_3,Length=0.017089000,Units=km
new line.SBT_1020031 bus1=BBT1055206.1.2.3.0,bus2=BBT3206187.1.2.3.0,Phases=3,Linecode=BT803_BT803_4_3_4_3,Length=0.025002000,Units=km
new line.SBT_1020038 bus1=BBT1055213.1.2.3.0,bus2=BBT67142492.1.2.3.0,Phases=3,Linecode=BT805_BT805_4_3_4_3,Length=0.017722000,Units=km
new line.SBT_1020045 bus1=BBT1055220.1.2.3.0,bus2=BBT1055227.1.2.3.0,Phases=3,Linecode=BT803_BT803_4_3_4_3,Length=0.034528000,Units=km
new line.SBT_1020052 bus1=BBT1055227.1.2.3.0,bus2=BBT1055129.1.2.3.0,Phases=3,Linecode=BT803_BT803_4_3_4_3,Length=0.042582000,Units=km
new line.SBT_1020094 bus1=BBT1055283.1.2.3.0,bus2=BBT1055297.1.2.3.0,Phases=3,Linecode=BT108_BT107_7_3_1_3,Length=0.035230000,Units=km
new line.SBT_1020101 bus1=BBT1055290.1.2.3.0,bus2=BBT1055283.1.2.3.0,Phases=3,Linecode=BT108_BT107_7_3_1_3,Length=0.035230000,Units=km
new line.SBT_1020108 bus1=BBT1055304.1.2.3.0,bus2=BBT1055311.1.2.3.0,Phases=3,Linecode=BT108_BT107_7_3_1_3,Length=0.035358000,Units=km
new line.SBT_1020115 bus1=BBT1055311.1.2.3.0,bus2=BBT1055318.1.2.3.0,Phases=3,Linecode=BT108_BT107_7_3_1_3,Length=0.034368000,Units=km
new line.SBT_1020122 bus1=BBT1055325.1.2.3.0,bus2=BBT1055290.1.2.3.0,Phases=3,Linecode=BT108_BT107_7_3_1_3,Length=0.033244000,Units=km
new line.SBT_1020129 bus1=BBT1055325.1.2.3.0,bus2=BBT1055304.1.2.3.0,Phases=3,Linecode=BT108_BT107_7_3_1_3,Length=0.036348000,Units=km
new line.SBT_1020136 bus1=BBT1055276.1.2.3.0,bus2=BBT1055325.1.2.3.0,Phases=3,Linecode=BT508_BT508_7_3_1_3,Length=0.000501000,Units=km
new line.SBT_1039155 bus1=BBT1081708.1.2.0,bus2=BBT1081715.1.2.0,Phases=2,Linecode=BT513_BT513_7_2_1_2,Length=0.000501000,Units=km
new line.SBT_1039162 bus1=BBT1081715.1.2.0,bus2=BBT1081722.1.2.0,Phases=2,Linecode=BT807_BT807_4_2_3_2,Length=0.035471000,Units=km
new line.SBT_1039169 bus1=BBT1081715.1.2.0,bus2=BBT1081764.1.2.0,Phases=2,Linecode=BT807_BT807_4_2_3_2,Length=0.034673000,Units=km
new line.SBT_1039176 bus1=BBT1081722.1.2.0,bus2=BBT1081729.1.2.0,Phases=2,Linecode=BT807_BT807_4_2_3_2,Length=0.034441000,Units=km
new line.SBT_1039183 bus1=BBT1081729.1.2.0,bus2=BBT1081736.1.2.0,Phases=2,Linecode=BT807_BT807_4_2_3_2,Length=0.036058000,Units=km
new line.SBT_1039190 bus1=BBT1081736.1.2.0,bus2=BBT1081743.1.2.0,Phases=2,Linecode=BT807_BT807_4_2_3_2,Length=0.036017000,Units=km
new line.SBT_1039197 bus1=BBT1081743.1.2.0,bus2=BBT1081750.1.2.0,Phases=2,Linecode=BT803_BT803_4_2_4_2,Length=0.035060000,Units=km
new line.SBT_1039204 bus1=BBT1081750.1.2.0,bus2=BBT1081757.1.2.0,Phases=2,Linecode=BT807_BT807_4_2_3_2,Length=0.035060000,Units=km
new line.SBT_1039211 bus1=BBT1081764.1.2.0,bus2=BBT1081771.1.2.0,Phases=2,Linecode=BT807_BT807_4_2_3_2,Length=0.034528000,Units=km
new line.SBT_1039218 bus1=BBT1081771.1.2.0,bus2=BBT1081778.1.2.0,Phases=2,Linecode=BT807_BT807_4_2_3_2,Length=0.035174000,Units=km
new line.SBT_1039225 bus1=BBT1081778.1.2.0,bus2=BBT1081785.1.2.0,Phases=2,Linecode=BT807_BT807_4_2_3_2,Length=0.029969000,Units=km
new line.SBT_1039232 bus1=BBT1081792.1.2.0,bus2=BBT1081799.1.2.0,Phases=2,Linecode=BT513_BT513_7_2_1_2,Length=0.000501000,Units=km
new line.SBT_1039239 bus1=BBT1081799.1.2.0,bus2=BBT1081806.1.2.0,Phases=2,Linecode=BT807_BT807_4_2_3_2,Length=0.034788000,Units=km
new line.SBT_1039246 bus1=BBT1081799.1.2.0,bus2=BBT1081841.1.2.0,Phases=2,Linecode=BT807_BT807_4_2_3_2,Length=0.037003000,Units=km
new line.SBT_1039253 bus1=BBT1081806.1.2.0,bus2=BBT1081813.1.2.0,Phases=2,Linecode=BT807_BT807_4_2_3_2,Length=0.033841000,Units=km
new line.SBT_1039260 bus1=BBT1081813.1.2.0,bus2=BBT1081820.1.2.0,Phases=2,Linecode=BT807_BT807_4_2_3_2,Length=0.034931000,Units=km
new line.SBT_1039267 bus1=BBT1081820.1.2.0,bus2=BBT1081827.1.2.0,Phases=2,Linecode=BT807_BT807_4_2_3_2,Length=0.022849000,Units=km
new line.SBT_1039274 bus1=BBT1081827.1.2.0,bus2=BBT1081834.1.2.0,Phases=2,Linecode=BT807_BT807_4_2_3_2,Length=0.045192000,Units=km
new line.SBT_1039281 bus1=BBT1081841.1.2.0,bus2=BBT1081848.1.2.0,Phases=2,Linecode=BT807_BT807_4_2_3_2,Length=0.031767000,Units=km
new line.SBT_1039288 bus1=BBT1081848.1.2.0,bus2=BBT1081855.1.2.0,Phases=2,Linecode=BT807_BT807_4_2_3_2,Length=0.033973000,Units=km
new line.SBT_1039295 bus1=BBT1081855.1.2.0,bus2=BBT1081862.1.2.0,Phases=2,Linecode=BT807_BT807_4_2_3_2,Length=0.036800000,Units=km
new line.SBT_1039302 bus1=BBT1081862.1.2.0,bus2=BBT1081869.1.2.0,Phases=2,Linecode=BT807_BT807_4_2_3_2,Length=0.035386000,Units=km
new line.SBT_1039309 bus1=BBT1081869.1.2.0,bus2=BBT1081876.1.2.0,Phases=2,Linecode=BT807_BT807_4_2_3_2,Length=0.033973000,Units=km
new line.SBT_1040254 bus1=BBT1082912.1.2.0,bus2=BBT1082919.1.2.0,Phases=2,Linecode=BT508_BT508_7_2_1_2,Length=0.000501000,Units=km
new line.SBT_1032155 bus1=BBT1072657.1.2.3.0,bus2=BBT1072643.1.2.3.0,Phases=3,Linecode=BT803_BT803_4_3_4_3,Length=0.028846000,Units=km
new line.SBT_1032162 bus1=BBT1072664.1.2.3.0,bus2=BBT1072657.1.2.3.0,Phases=3,Linecode=BT803_BT803_4_3_4_3,Length=0.026928000,Units=km
new line.SBT_1032169 bus1=BBT1072664.1.2.3.0,bus2=BBT1072741.1.2.3.0,Phases=3,Linecode=BT803_BT803_4_3_4_3,Length=0.043832000,Units=km
new line.SBT_1032176 bus1=BBT1072671.1.2.3.0,bus2=BBT1072664.1.2.3.0,Phases=3,Linecode=BT805_BT805_4_3_4_3,Length=0.032205000,Units=km
new line.SBT_1032183 bus1=BBT1072678.1.2.3.0,bus2=BBT1072671.1.2.3.0,Phases=3,Linecode=BT805_BT805_4_3_4_3,Length=0.032575000,Units=km
new line.SBT_1032190 bus1=BBT1072636.1.2.3.0,bus2=BBT1072678.1.2.3.0,Phases=3,Linecode=BT508_BT508_7_3_1_3,Length=0.000501000,Units=km
new line.SBT_1032197 bus1=BBT1072678.1.2.3.0,bus2=BBT1072685.1.2.3.0,Phases=3,Linecode=BT805_BT805_4_3_4_3,Length=0.040807000,Units=km
new line.SBT_1032204 bus1=BBT1072685.1.2.3.0,bus2=BBT1072692.1.2.3.0,Phases=3,Linecode=BT805_BT805_4_3_4_3,Length=0.033528000,Units=km
new line.SBT_1032211 bus1=BBT1072692.1.2.3.0,bus2=BBT1072699.1.2.3.0,Phases=3,Linecode=BT805_BT805_4_3_4_3,Length=0.032896000,Units=km
new line.SBT_1032218 bus1=BBT1072699.1.2.3.0,bus2=BBT1072706.1.2.3.0,Phases=3,Linecode=BT805_BT805_4_3_4_3,Length=0.019418000,Units=km
new line.SBT_1032225 bus1=BBT1072713.1.2.3.0,bus2=BBT150712768.1.2.3.0,Phases=3,Linecode=BT805_BT805_4_3_4_3,Length=0.025062000,Units=km
new line.SBT_1032239 bus1=BBT1072720.1.2.3.0,bus2=BBT1072713.1.2.3.0,Phases=3,Linecode=BT805_BT805_4_3_4_3,Length=0.032896000,Units=km
new line.SBT_1032246 bus1=BBT1072727.1.2.3.0,bus2=BBT1072720.1.2.3.0,Phases=3,Linecode=BT805_BT805_4_3_4_3,Length=0.033244000,Units=km
new line.SBT_1032253 bus1=BBT116903714.1.2.3.0,bus2=BBT1072727.1.2.3.0,Phases=3,Linecode=BT805_BT805_4_3_4_3,Length=0.015813000,Units=km
new line.SBT_1032260 bus1=BBT116903931.1.2.3.0,bus2=BBT1979024.1.2.3.0,Phases=3,Linecode=BT803_BT803_4_3_4_3,Length=0.019106000,Units=km
new line.SBT_1032267 bus1=BBT3481511.1.2.3.0,bus2=BBT1072734.1.2.3.0,Phases=3,Linecode=BT805_BT805_4_3_4_3,Length=0.023347000,Units=km
new line.SBT_1032274 bus1=BBT1072741.1.2.3.0,bus2=BBT1072748.1.2.3.0,Phases=3,Linecode=BT803_BT803_4_3_4_3,Length=0.038081000,Units=km
new line.SBT_1032281 bus1=BBT1072748.1.2.3.0,bus2=BBT1978926.1.2.3.0,Phases=3,Linecode=BT803_BT803_4_3_4_3,Length=0.043866000,Units=km
new line.SBT_1032288 bus1=BBT1072748.1.2.3.0,bus2=BBT2210899.1.2.3.0,Phases=3,Linecode=BT810_BT810_4_3_4_3,Length=0.031387000,Units=km
new line.SBT_1032295 bus1=BBT1072762.1.2.3.0,bus2=BBT178637109.1.2.3.0,Phases=3,Linecode=BT803_BT803_4_3_4_3,Length=0.022474000,Units=km
new line.SBT_1032302 bus1=BBT1072755.1.2.3.0,bus2=BBT1072769.1.2.3.0,Phases=3,Linecode=BT509_BT509_7_3_1_3,Length=0.000501000,Units=km
new line.SBT_1032309 bus1=BBT1072769.1.2.3.0,bus2=BBT1072776.1.2.3.0,Phases=3,Linecode=BT805_BT805_4_3_4_3,Length=0.041632000,Units=km
new line.SBT_1032316 bus1=BBT1072769.1.2.3.0,bus2=BBT1072797.1.2.3.0,Phases=3,Linecode=BT805_BT805_4_3_4_3,Length=0.014766000,Units=km
new line.SBT_1032323 bus1=BBT1072776.1.2.3.0,bus2=BBT1072783.1.2.3.0,Phases=3,Linecode=BT805_BT805_4_3_4_3,Length=0.029969000,Units=km
new line.SBT_1032330 bus1=BBT1072776.1.2.3.0,bus2=BBT1072839.1.2.3.0,Phases=3,Linecode=BT803_BT803_4_3_4_3,Length=0.009056000,Units=km
new line.SBT_1032337 bus1=BBT1072783.1.2.3.0,bus2=BBT1072790.1.2.3.0,Phases=3,Linecode=BT803_BT803_4_3_4_3,Length=0.042956000,Units=km
new line.SBT_1032344 bus1=BBT1072797.1.2.3.0,bus2=BBT1072804.1.2.3.0,Phases=3,Linecode=BT805_BT805_4_3_4_3,Length=0.024700000,Units=km
new line.SBT_1032351 bus1=BBT1072804.1.2.3.0,bus2=BBT1072811.1.2.3.0,Phases=3,Linecode=BT803_BT803_4_3_4_3,Length=0.032560000,Units=km
new line.SBT_1032358 bus1=BBT1072804.1.2.3.0,bus2=BBT1072832.1.2.3.0,Phases=3,Linecode=BT805_BT805_4_3_4_3,Length=0.034528000,Units=km
new line.SBT_1032365 bus1=BBT1072811.1.2.3.0,bus2=BBT1072818.1.2.3.0,Phases=3,Linecode=BT803_BT803_4_3_4_3,Length=0.022205000,Units=km
new line.SBT_1032372 bus1=BBT1072818.1.2.3.0,bus2=BBT1072825.1.2.3.0,Phases=3,Linecode=BT803_BT803_4_3_4_3,Length=0.033603000,Units=km
new line.SBT_1032379 bus1=BBT1072832.1.2.3.0,bus2=BBT1072762.1.2.3.0,Phases=3,Linecode=BT803_BT803_4_3_4_3,Length=0.030069000,Units=km
new line.SBT_1032386 bus1=BBT1072839.1.2.3.0,bus2=BBT1072846.1.2.3.0,Phases=3,Linecode=BT803_BT803_4_3_4_3,Length=0.036362000,Units=km
new line.SBT_1032393 bus1=BBT1072846.1.2.3.0,bus2=BBT1072853.1.2.3.0,Phases=3,Linecode=BT803_BT803_4_3_4_3,Length=0.032759000,Units=km
new line.SBT_1032400 bus1=BBT1072860.1.2.3.0,bus2=BBT2211571.1.2.3.0,Phases=3,Linecode=BT810_BT810_4_3_4_3,Length=0.035358000,Units=km
new line.SBT_1032407 bus1=BBT2211571.1.2.3.0,bus2=BBT2211578.1.2.3.0,Phases=3,Linecode=BT810_BT810_4_3_4_3,Length=0.029157000,Units=km
new line.SBT_1033611 bus1=BBT1074638.1.2.0,bus2=BBT1074645.1.2.0,Phases=2,Linecode=BT507_BT507_7_2_1_2,Length=0.000501000,Units=km
new line.SBT_1033618 bus1=BBT1074645.1.2.0,bus2=BBT3691245.1.2.0,Phases=2,Linecode=BT808_BT808_4_2_3_2,Length=0.015001000,Units=km
new line.SBT_1058237 bus1=BBT1104773.1.2.0,bus2=BBT1104780.1.2.0,Phases=2,Linecode=BT507_BT507_7_2_1_2,Length=0.000501000,Units=km
new line.SBT_1059357 bus1=BBT1106187.1.2.3.0,bus2=BBT1106215.1.2.3.0,Phases=3,Linecode=BT803_BT803_4_3_4_3,Length=0.028847000,Units=km
new line.SBT_1059364 bus1=BBT1106194.1.2.3.0,bus2=BBT1106201.1.2.3.0,Phases=3,Linecode=BT803_BT803_4_3_4_3,Length=0.031767000,Units=km
new line.SBT_1059371 bus1=BBT1106194.1.2.3.0,bus2=BBT1106187.1.2.3.0,Phases=3,Linecode=BT803_BT803_4_3_4_3,Length=0.028655000,Units=km
new line.SBT_1059378 bus1=BBT1106180.1.2.3.0,bus2=BBT1106194.1.2.3.0,Phases=3,Linecode=BT521_BT521_7_3_1_3,Length=0.000501000,Units=km
new line.SBT_1059518 bus1=BBT1106390.1.2.3.0,bus2=BBT1106397.1.2.3.0,Phases=3,Linecode=BT521_BT521_7_3_1_3,Length=0.000501000,Units=km
new line.SBT_1059525 bus1=BBT1106397.1.2.3.0,bus2=BBT1106404.1.2.3.0,Phases=3,Linecode=BT803_BT803_4_3_4_3,Length=0.034441000,Units=km
new line.SBT_1059532 bus1=BBT1106397.1.2.3.0,bus2=BBT1106411.1.2.3.0,Phases=3,Linecode=BT803_BT803_4_3_4_3,Length=0.034441000,Units=km
new line.SBT_1059539 bus1=BBT1106404.1.2.3.0,bus2=BBT1106425.1.2.3.0,Phases=3,Linecode=BT803_BT803_4_3_4_3,Length=0.030873000,Units=km
new line.SBT_1059546 bus1=BBT1106411.1.2.3.0,bus2=BBT1106418.1.2.3.0,Phases=3,Linecode=BT803_BT803_4_3_4_3,Length=0.035779000,Units=km
new line.SBT_1059553 bus1=BBT3664869.1.2.3.0,bus2=BBT71626643.1.2.3.0,Phases=3,Linecode=BT803_BT803_4_3_4_3,Length=0.012531000,Units=km
new line.SBT_1059560 bus1=BBT2211354.1.2.3.0,bus2=BBT2211347.1.2.3.0,Phases=3,Linecode=BT803_BT803_4_3_4_3,Length=0.041149000,Units=km
new line.SBT_1059567 bus1=BBT1106425.1.2.3.0,bus2=BBT1106432.1.2.3.0,Phases=3,Linecode=BT803_BT803_4_3_4_3,Length=0.009850000,Units=km
new line.SBT_1059574 bus1=BBT1106425.1.2.3.0,bus2=BBT1106446.1.2.3.0,Phases=3,Linecode=BT803_BT803_4_3_4_3,Length=0.015558000,Units=km
new line.SBT_1059581 bus1=BBT1106425.1.2.3.0,bus2=BBT1106453.1.2.3.0,Phases=3,Linecode=BT803_BT803_4_3_4_3,Length=0.017806000,Units=km
new line.SBT_1059588 bus1=BBT1106432.1.2.3.0,bus2=BBT1106439.1.2.3.0,Phases=3,Linecode=BT803_BT803_4_3_4_3,Length=0.033958000,Units=km
new line.SBT_1059595 bus1=BBT1106439.1.2.3.0,bus2=BBT2211501.1.2.3.0,Phases=3,Linecode=BT810_BT810_4_3_4_3,Length=0.035905000,Units=km
new line.SBT_1059602 bus1=BBT2211501.1.2.3.0,bus2=BBT2211508.1.2.3.0,Phases=3,Linecode=BT810_BT810_4_3_4_3,Length=0.038330000,Units=km
new line.SBT_1059609 bus1=BBT2211382.1.2.3.0,bus2=BBT2211389.1.2.3.0,Phases=3,Linecode=BT810_BT810_4_3_4_3,Length=0.029071000,Units=km
new line.SBT_1059616 bus1=BBT1106453.1.2.3.0,bus2=BBT1106460.1.2.3.0,Phases=3,Linecode=BT803_BT803_4_3_4_3,Length=0.031147000,Units=km
new line.SBT_1008775 bus1=BBT1040737.1.2.0,bus2=BBT1040744.1.2.0,Phases=2,Linecode=BT512_BT512_7_2_1_2,Length=0.000501000,Units=km
new line.SBT_1025526 bus1=BBT1062255.1.2.0,bus2=BBT1062262.1.2.0,Phases=2,Linecode=BT509_BT509_7_2_1_2,Length=0.000501000,Units=km
new line.SBT_1025652 bus1=BBT1062402.1.2.3.0,bus2=BBT1062451.1.2.3.0,Phases=3,Linecode=BT514_BT514_7_3_1_3,Length=0.000501000,Units=km
new line.SBT_1025659 bus1=BBT1062409.1.2.3.0,bus2=BBT1062416.1.2.3.0,Phases=3,Linecode=BT805_BT805_4_3_4_3,Length=0.034988000,Units=km
new line.SBT_1025666 bus1=BBT1062451.1.2.3.0,bus2=BBT1062409.1.2.3.0,Phases=3,Linecode=BT805_BT805_4_3_4_3,Length=0.037218000,Units=km
new line.SBT_1025673 bus1=BBT1062416.1.2.3.0,bus2=BBT1062423.1.2.3.0,Phases=3,Linecode=BT805_BT805_4_3_4_3,Length=0.038590000,Units=km
new line.SBT_1025680 bus1=BBT1062430.1.2.3.0,bus2=BBT116862183.1.2.3.0,Phases=3,Linecode=BT803_BT803_4_3_4_3,Length=0.030531000,Units=km
new line.SBT_1025687 bus1=BBT1062423.1.2.3.0,bus2=BBT2211305.1.2.3.0,Phases=3,Linecode=BT805_BT805_4_3_4_3,Length=0.029684000,Units=km
new line.SBT_1025694 bus1=BBT1062437.1.2.3.0,bus2=BBT1062430.1.2.3.0,Phases=3,Linecode=BT803_BT803_4_3_4_3,Length=0.038081000,Units=km
new line.SBT_1025701 bus1=BBT1062444.1.2.3.0,bus2=BBT1062437.1.2.3.0,Phases=3,Linecode=BT803_BT803_4_3_4_3,Length=0.025497000,Units=km
new line.SBT_1025708 bus1=BBT1062437.1.2.3.0,bus2=BBT2018658.1.2.3.0,Phases=3,Linecode=BT803_BT803_4_3_4_3,Length=0.039827000,Units=km
new line.SBT_1025715 bus1=BBT2210927.1.2.3.0,bus2=BBT1062444.1.2.3.0,Phases=3,Linecode=BT805_BT805_4_3_4_3,Length=0.045621000,Units=km
new line.SBT_1025722 bus1=BBT1062451.1.2.3.0,bus2=BBT1062458.1.2.3.0,Phases=3,Linecode=BT805_BT805_4_3_4_3,Length=0.036362000,Units=km
new line.SBT_1025729 bus1=BBT1062458.1.2.3.0,bus2=BBT1062465.1.2.3.0,Phases=3,Linecode=BT805_BT805_4_3_4_3,Length=0.035849000,Units=km
new line.SBT_1025736 bus1=BBT1062465.1.2.3.0,bus2=BBT1062472.1.2.3.0,Phases=3,Linecode=BT805_BT805_4_3_4_3,Length=0.035849000,Units=km
new line.SBT_1025743 bus1=BBT1062472.1.2.3.0,bus2=BBT1062479.1.2.3.0,Phases=3,Linecode=BT805_BT805_4_3_4_3,Length=0.040819000,Units=km
new line.SBT_1025750 bus1=BBT1072643.1.2.3.0,bus2=BBT1072650.1.2.3.0,Phases=3,Linecode=BT803_BT803_4_3_4_3,Length=0.028304000,Units=km
new line.SBT_1043614 bus1=BBT1087147.1.2.0,bus2=BBT1087154.1.2.0,Phases=2,Linecode=BT507_BT507_7_2_1_2,Length=0.000501000,Units=km
new line.SBT_1043691 bus1=BBT2188919.1.2.0,bus2=BBT2188926.1.2.0,Phases=2,Linecode=BT508_BT508_7_2_1_2,Length=0.000501000,Units=km
new line.SBT_1043719 bus1=BBT1087189.1.2.0,bus2=BBT1087196.1.2.0,Phases=2,Linecode=BT107_BT107_7_2_1_2,Length=0.000501000,Units=km
new line.SBT_1043726 bus1=BBT1087196.1.2.0,bus2=BBT3377708.1.2.0,Phases=2,Linecode=BT808_BT808_4_2_3_2,Length=0.037699000,Units=km
new line.SBT_1043733 bus1=BBT3377708.1.2.0,bus2=BBT3377715.1.2.0,Phases=2,Linecode=BT808_BT808_4_2_3_2,Length=0.035808000,Units=km
new line.SBT_1043740 bus1=BBT3377715.1.2.0,bus2=BBT3377722.1.2.0,Phases=2,Linecode=BT808_BT808_4_2_3_2,Length=0.046533000,Units=km
new line.SBT_1043775 bus1=BBT2311685.1.2.0,bus2=BBT2311692.1.2.0,Phases=2,Linecode=BT508_BT508_7_2_1_2,Length=0.000501000,Units=km
new line.SBT_1043838 bus1=BBT2263924.1.2.0,bus2=BBT2263931.1.2.0,Phases=2,Linecode=BT508_BT508_7_2_1_2,Length=0.000501000,Units=km
new line.SBT_1043908 bus1=BBT1087203.1.2.0,bus2=BBT1087210.1.2.0,Phases=2,Linecode=BT507_BT507_7_2_1_2,Length=0.000501000,Units=km
new line.SBT_1043936 bus1=BBT3187147.1.2.0,bus2=BBT3187154.1.2.0,Phases=2,Linecode=BT508_BT508_7_2_1_2,Length=0.000501000,Units=km
new line.SBT_1043964 bus1=BBT1104710.1.2.0,bus2=BBT1104717.1.2.0,Phases=2,Linecode=BT507_BT507_7_2_1_2,Length=0.000501000,Units=km
new line.SBT_1044076 bus1=BBT1087322.1.2.0,bus2=BBT1087343.1.2.0,Phases=2,Linecode=BT803_BT803_4_2_4_2,Length=0.032897000,Units=km
new line.SBT_1044083 bus1=BBT1087329.1.2.0,bus2=BBT1087357.1.2.0,Phases=2,Linecode=BT803_BT803_4_2_4_2,Length=0.035471000,Units=km
new line.SBT_1044097 bus1=BBT1087343.1.2.0,bus2=BBT1087336.1.2.0,Phases=2,Linecode=BT803_BT803_4_2_4_2,Length=0.036128000,Units=km
new line.SBT_1044104 bus1=BBT1087350.1.2.0,bus2=BBT1087329.1.2.0,Phases=2,Linecode=BT803_BT803_4_2_4_2,Length=0.034716000,Units=km
new line.SBT_1044118 bus1=BBT1087364.1.2.0,bus2=BBT1087322.1.2.0,Phases=2,Linecode=BT803_BT803_4_2_4_2,Length=0.034788000,Units=km
new line.SBT_1044125 bus1=BBT1087364.1.2.0,bus2=BBT1087350.1.2.0,Phases=2,Linecode=BT803_BT803_4_2_4_2,Length=0.035358000,Units=km
new line.SBT_1044132 bus1=BBT1087315.1.2.0,bus2=BBT1087364.1.2.0,Phases=2,Linecode=BT513_BT513_7_2_1_2,Length=0.000501000,Units=km
new line.SBT_1044671 bus1=BBT1088036.1.2.0,bus2=BBT1088043.1.2.0,Phases=2,Linecode=BT507_BT507_7_2_1_2,Length=0.000501000,Units=km
new line.SBT_1045084 bus1=BBT1088582.1.2.0,bus2=BBT1088589.1.2.0,Phases=2,Linecode=BT507_BT507_7_2_1_2,Length=0.000501000,Units=km
new line.SBT_1045091 bus1=BBT1088589.1.2.0,bus2=BBT2704413.1.2.0,Phases=2,Linecode=BT808_BT808_4_2_3_2,Length=0.039563000,Units=km
new line.SBT_1061114 bus1=BBT1107993.1.2.0,bus2=BBT1108000.1.2.0,Phases=2,Linecode=BT521_BT521_7_2_1_2,Length=0.000501000,Units=km
new line.SBT_1061604 bus1=BBT1108504.1.2.0,bus2=BBT1108511.1.2.0,Phases=2,Linecode=BT507_BT507_7_2_1_2,Length=0.000501000,Units=km
new line.SBT_1076521 bus1=BBT1127327.1.2.3.0,bus2=BBT1127334.1.2.3.0,Phases=3,Linecode=BT513_BT513_7_3_1_3,Length=0.000501000,Units=km
new line.SBT_1076528 bus1=BBT1127334.1.2.3.0,bus2=BBT1127341.1.2.3.0,Phases=3,Linecode=BT805_BT805_4_3_4_3,Length=0.028020000,Units=km
new line.SBT_1076535 bus1=BBT1127334.1.2.3.0,bus2=BBT1127390.1.2.3.0,Phases=3,Linecode=BT805_BT805_4_3_4_3,Length=0.031259000,Units=km
new line.SBT_1076542 bus1=BBT1127341.1.2.3.0,bus2=BBT1127348.1.2.3.0,Phases=3,Linecode=BT805_BT805_4_3_4_3,Length=0.025082000,Units=km
new line.SBT_1076549 bus1=BBT1127341.1.2.3.0,bus2=BBT1127355.1.2.3.0,Phases=3,Linecode=BT803_BT803_4_3_4_3,Length=0.027021000,Units=km
new line.SBT_1076556 bus1=BBT1127355.1.2.3.0,bus2=BBT1127362.1.2.3.0,Phases=3,Linecode=BT803_BT803_4_3_4_3,Length=0.029616000,Units=km
new line.SBT_1076563 bus1=BBT1127362.1.2.3.0,bus2=BBT1127369.1.2.3.0,Phases=3,Linecode=BT803_BT803_4_3_4_3,Length=0.029616000,Units=km
new line.SBT_1076570 bus1=BBT1127369.1.2.3.0,bus2=BBT1127376.1.2.3.0,Phases=3,Linecode=BT803_BT803_4_3_4_3,Length=0.025809000,Units=km
new line.SBT_1076577 bus1=BBT1127376.1.2.3.0,bus2=BBT1127383.1.2.3.0,Phases=3,Linecode=BT803_BT803_4_3_4_3,Length=0.028020000,Units=km
new line.SBT_1076584 bus1=BBT1127390.1.2.3.0,bus2=BBT1127397.1.2.3.0,Phases=3,Linecode=BT805_BT805_4_3_4_3,Length=0.030268000,Units=km
new line.SBT_1076591 bus1=BBT1127397.1.2.3.0,bus2=BBT1127404.1.2.3.0,Phases=3,Linecode=BT803_BT803_4_3_4_3,Length=0.030152000,Units=km
new line.SBT_1076598 bus1=BBT1127404.1.2.3.0,bus2=BBT1127411.1.2.3.0,Phases=3,Linecode=BT803_BT803_4_3_4_3,Length=0.033244000,Units=km
new line.SBT_1076605 bus1=BBT1127411.1.2.3.0,bus2=BBT1127418.1.2.3.0,Phases=3,Linecode=BT803_BT803_4_3_4_3,Length=0.035358000,Units=km
new line.SBT_1076612 bus1=BBT1127425.1.2.3.0,bus2=BBT1127432.1.2.3.0,Phases=3,Linecode=BT513_BT513_7_3_1_3,Length=0.000501000,Units=km
new line.SBT_1076619 bus1=BBT1127432.1.2.3.0,bus2=BBT1127439.1.2.3.0,Phases=3,Linecode=BT805_BT805_4_3_4_3,Length=0.034003000,Units=km
new line.SBT_1076626 bus1=BBT1127432.1.2.3.0,bus2=BBT1127481.1.2.3.0,Phases=3,Linecode=BT803_BT803_4_3_4_3,Length=0.033544000,Units=km
new line.SBT_1076633 bus1=BBT1127439.1.2.3.0,bus2=BBT1127446.1.2.3.0,Phases=3,Linecode=BT805_BT805_4_3_4_3,Length=0.033123000,Units=km
new line.SBT_1076640 bus1=BBT1127446.1.2.3.0,bus2=BBT1127453.1.2.3.0,Phases=3,Linecode=BT803_BT803_4_3_4_3,Length=0.032652000,Units=km
new line.SBT_1076647 bus1=BBT1127453.1.2.3.0,bus2=BBT1127460.1.2.3.0,Phases=3,Linecode=BT803_BT803_4_3_4_3,Length=0.021379000,Units=km
new line.SBT_1076654 bus1=BBT1127453.1.2.3.0,bus2=BBT1127467.1.2.3.0,Phases=3,Linecode=BT803_BT803_4_3_4_3,Length=0.024044000,Units=km
new line.SBT_1076661 bus1=BBT1127467.1.2.3.0,bus2=BBT1127474.1.2.3.0,Phases=3,Linecode=BT803_BT803_4_3_4_3,Length=0.030086000,Units=km
new line.SBT_1076668 bus1=BBT1127481.1.2.3.0,bus2=BBT1127488.1.2.3.0,Phases=3,Linecode=BT803_BT803_4_3_4_3,Length=0.034003000,Units=km
new line.SBT_1076675 bus1=BBT1127488.1.2.3.0,bus2=BBT1127495.1.2.3.0,Phases=3,Linecode=BT803_BT803_4_3_4_3,Length=0.033544000,Units=km
new line.SBT_1076682 bus1=BBT1127495.1.2.3.0,bus2=BBT1127502.1.2.3.0,Phases=3,Linecode=BT803_BT803_4_3_4_3,Length=0.033123000,Units=km
new line.SBT_1076689 bus1=BBT1127502.1.2.3.0,bus2=BBT1127509.1.2.3.0,Phases=3,Linecode=BT803_BT803_4_3_4_3,Length=0.033123000,Units=km
new line.SBT_1076696 bus1=BBT1127509.1.2.3.0,bus2=BBT1127516.1.2.3.0,Phases=3,Linecode=BT803_BT803_4_3_4_3,Length=0.030268000,Units=km
new line.SBT_1076703 bus1=BBT1127523.1.2.3.0,bus2=BBT1127530.1.2.3.0,Phases=3,Linecode=BT513_BT513_7_3_1_3,Length=0.000501000,Units=km
new line.SBT_1076710 bus1=BBT1127530.1.2.3.0,bus2=BBT1127537.1.2.3.0,Phases=3,Linecode=BT805_BT805_4_3_4_3,Length=0.031767000,Units=km
new line.SBT_1076717 bus1=BBT1127530.1.2.3.0,bus2=BBT1127544.1.2.3.0,Phases=3,Linecode=BT805_BT805_4_3_4_3,Length=0.030889000,Units=km
new line.SBT_1076724 bus1=BBT1127537.1.2.3.0,bus2=BBT1127586.1.2.3.0,Phases=3,Linecode=BT805_BT805_4_3_4_3,Length=0.028180000,Units=km
new line.SBT_1076731 bus1=BBT1127544.1.2.3.0,bus2=BBT1127551.1.2.3.0,Phases=3,Linecode=BT805_BT805_4_3_4_3,Length=0.029071000,Units=km
new line.SBT_1076738 bus1=BBT1127551.1.2.3.0,bus2=BBT1127558.1.2.3.0,Phases=3,Linecode=BT803_BT803_4_3_4_3,Length=0.029532000,Units=km
new line.SBT_1076745 bus1=BBT1127558.1.2.3.0,bus2=BBT1127565.1.2.3.0,Phases=3,Linecode=BT803_BT803_4_3_4_3,Length=0.030889000,Units=km
new line.SBT_1076752 bus1=BBT1127565.1.2.3.0,bus2=BBT1127572.1.2.3.0,Phases=3,Linecode=BT803_BT803_4_3_4_3,Length=0.031783000,Units=km
new line.SBT_1076759 bus1=BBT1127572.1.2.3.0,bus2=BBT1127579.1.2.3.0,Phases=3,Linecode=BT803_BT803_4_3_4_3,Length=0.030678000,Units=km
new line.SBT_1076766 bus1=BBT1127586.1.2.3.0,bus2=BBT1127593.1.2.3.0,Phases=3,Linecode=BT803_BT803_4_3_4_3,Length=0.027297000,Units=km
new line.SBT_1076773 bus1=BBT1127593.1.2.3.0,bus2=BBT1127600.1.2.3.0,Phases=3,Linecode=BT803_BT803_4_3_4_3,Length=0.033123000,Units=km
new line.SBT_1076780 bus1=BBT1127600.1.2.3.0,bus2=BBT1127607.1.2.3.0,Phases=3,Linecode=BT803_BT803_4_3_4_3,Length=0.029532000,Units=km
new line.SBT_1076787 bus1=BBT1127607.1.2.3.0,bus2=BBT1127614.1.2.3.0,Phases=3,Linecode=BT803_BT803_4_3_4_3,Length=0.033544000,Units=km
new line.SBT_1076794 bus1=BBT1127635.1.2.3.0,bus2=BBT1127628.1.2.3.0,Phases=3,Linecode=BT805_BT805_4_3_4_3,Length=0.029019000,Units=km
new line.SBT_1076801 bus1=BBT1127635.1.2.3.0,bus2=BBT1127642.1.2.3.0,Phases=3,Linecode=BT805_BT805_4_3_4_3,Length=0.020101000,Units=km
new line.SBT_1076808 bus1=BBT1127642.1.2.3.0,bus2=BBT1127705.1.2.3.0,Phases=3,Linecode=BT805_BT805_4_3_4_3,Length=0.029413000,Units=km
new line.SBT_1076815 bus1=BBT1127649.1.2.3.0,bus2=BBT1127635.1.2.3.0,Phases=3,Linecode=BT805_BT805_4_3_4_3,Length=0.030019000,Units=km
new line.SBT_1076822 bus1=BBT1127621.1.2.3.0,bus2=BBT1127649.1.2.3.0,Phases=3,Linecode=BT513_BT513_7_3_1_3,Length=0.000501000,Units=km
new line.SBT_1076829 bus1=BBT1127649.1.2.3.0,bus2=BBT1127656.1.2.3.0,Phases=3,Linecode=BT805_BT805_4_3_4_3,Length=0.031002000,Units=km
new line.SBT_1076836 bus1=BBT1127656.1.2.3.0,bus2=BBT1127663.1.2.3.0,Phases=3,Linecode=BT805_BT805_4_3_4_3,Length=0.031018000,Units=km
new line.SBT_1076843 bus1=BBT1127663.1.2.3.0,bus2=BBT1127670.1.2.3.0,Phases=3,Linecode=BT803_BT803_4_3_4_3,Length=0.032529000,Units=km
new line.SBT_1076850 bus1=BBT1127663.1.2.3.0,bus2=BBT1127677.1.2.3.0,Phases=3,Linecode=BT803_BT803_4_3_4_3,Length=0.032002000,Units=km
new line.SBT_1076857 bus1=BBT1127677.1.2.3.0,bus2=BBT1127684.1.2.3.0,Phases=3,Linecode=BT803_BT803_4_3_4_3,Length=0.032391000,Units=km
new line.SBT_1076864 bus1=BBT1127684.1.2.3.0,bus2=BBT1127691.1.2.3.0,Phases=3,Linecode=BT803_BT803_4_3_4_3,Length=0.031259000,Units=km
new line.SBT_1076871 bus1=BBT1127691.1.2.3.0,bus2=BBT1127698.1.2.3.0,Phases=3,Linecode=BT803_BT803_4_3_4_3,Length=0.033379000,Units=km
new line.SBT_1076878 bus1=BBT1127705.1.2.3.0,bus2=BBT1127712.1.2.3.0,Phases=3,Linecode=BT805_BT805_4_3_4_3,Length=0.031067000,Units=km
new line.SBT_1076885 bus1=BBT1127712.1.2.3.0,bus2=BBT1127719.1.2.3.0,Phases=3,Linecode=BT805_BT805_4_3_4_3,Length=0.027461000,Units=km
new line.SBT_1076892 bus1=BBT1127719.1.2.3.0,bus2=BBT1127726.1.2.3.0,Phases=3,Linecode=BT803_BT803_4_3_4_3,Length=0.031323000,Units=km
new line.SBT_1076962IP bus1=BBT940763.1.2.0,bus2=BBT5001076962.1.2.0,Phases=2,Linecode=IP_2,Length=0.002840000,Units=km
new line.SBT_1077116 bus1=BBT1127957.1.2.3.0,bus2=BBT1127964.1.2.3.0,Phases=3,Linecode=BT508_BT508_7_3_1_3,Length=0.000501000,Units=km
new line.SBT_1077123 bus1=BBT1127964.1.2.3.0,bus2=BBT1127971.1.2.3.0,Phases=3,Linecode=BT805_BT805_4_3_4_3,Length=0.032205000,Units=km
new line.SBT_1077130 bus1=BBT1127964.1.2.3.0,bus2=BBT1128013.1.2.3.0,Phases=3,Linecode=BT805_BT805_4_3_4_3,Length=0.029969000,Units=km
new line.SBT_1077137 bus1=BBT1127971.1.2.3.0,bus2=BBT1127978.1.2.3.0,Phases=3,Linecode=BT805_BT805_4_3_4_3,Length=0.030085000,Units=km
new line.SBT_1077144 bus1=BBT1127978.1.2.3.0,bus2=BBT1127985.1.2.3.0,Phases=3,Linecode=BT803_BT803_4_3_4_3,Length=0.037164000,Units=km
new line.SBT_1077151 bus1=BBT1127978.1.2.3.0,bus2=BBT1127992.1.2.3.0,Phases=3,Linecode=BT803_BT803_4_3_4_3,Length=0.031403000,Units=km
new line.SBT_1077158 bus1=BBT1127992.1.2.3.0,bus2=BBT1127999.1.2.3.0,Phases=3,Linecode=BT803_BT803_4_3_4_3,Length=0.030367000,Units=km
new line.SBT_1077165 bus1=BBT1127999.1.2.3.0,bus2=BBT1128006.1.2.3.0,Phases=3,Linecode=BT803_BT803_4_3_4_3,Length=0.038913000,Units=km
new line.SBT_1077172 bus1=BBT1128013.1.2.3.0,bus2=BBT1128020.1.2.3.0,Phases=3,Linecode=BT805_BT805_4_3_4_3,Length=0.035358000,Units=km
new line.SBT_1077179 bus1=BBT1128020.1.2.3.0,bus2=BBT1128027.1.2.3.0,Phases=3,Linecode=BT803_BT803_4_3_4_3,Length=0.041197000,Units=km
new line.SBT_1077186 bus1=BBT1128027.1.2.3.0,bus2=BBT1128034.1.2.3.0,Phases=3,Linecode=BT803_BT803_4_3_4_3,Length=0.046274000,Units=km
new line.SBT_1077193 bus1=BBT1128034.1.2.3.0,bus2=BBT1128041.1.2.3.0,Phases=3,Linecode=BT803_BT803_4_3_4_3,Length=0.041015000,Units=km