new line.RBT_10033134 bus1=BBT3138756.1.2.3.0,bus2=RML1010033134.1.2.3.0,Phases=3,Linecode=CABBTG08_4_3_3,Length=0.029000000,Units=km
new line.RBT_10033879 bus1=BBT143708051.1.2.3.0,bus2=RML1010033879.1.2.3.0,Phases=3,Linecode=CABBTG07_4_3_3,Length=0.029000000,Units=km
new line.RBT_10033884 bus1=BBT143708051.1.2.3.0,bus2=RML1010033884.1.2.3.0,Phases=3,Linecode=CABBTG07_4_3_3,Length=0.029000000,Units=km
new line.RBT_10033890 bus1=BBT143708051.1.2.3.0,bus2=RML1010033890.1.2.3.0,Phases=3,Linecode=CABBTG07_4_3_3,Length=0.029000000,Units=km
new line.RBT_10033893 bus1=BBT143708002.1.2.3.0,bus2=RML1010033893.1.2.3.0,Phases=3,Linecode=CABBTG07_4_3_3,Length=0.029000000,Units=km
new line.RBT_10033896 bus1=BBT143707792.1.2.3.0,bus2=RML1010033896.1.2.3.0,Phases=3,Linecode=CABBTG07_4_3_3,Length=0.029000000,Units=km
new line.RBT_10033900 bus1=BBT143708002.1.2.3.0,bus2=RML1010033900.1.2.3.0,Phases=3,Linecode=CABBTG07_4_3_3,Length=0.029000000,Units=km
new line.RBT_10033902 bus1=BBT143707792.1.2.3.0,bus2=RML1010033902.1.2.3.0,Phases=3,Linecode=CABBTG07_4_3_3,Length=0.029000000,Units=km
new line.RBT_10033904 bus1=BBT143708107.1.2.3.0,bus2=RML1010033904.1.2.3.0,Phases=3,Linecode=CABBTG07_4_3_3,Length=0.029000000,Units=km
new line.RBT_10033906 bus1=BBT143708107.1.2.3.0,bus2=RML1010033906.1.2.3.0,Phases=3,Linecode=CABBTG07_4_3_3,Length=0.029000000,Units=km
new line.RBT_10035354 bus1=BBT173341674.3.1.0,bus2=RML1010035354.3.1.0,Phases=2,Linecode=CABBTG05_4_2_2,Length=0.017000000,Units=km
new line.RBT_10035367 bus1=BBT651145.3.1.0,bus2=RML1010035367.3.1.0,Phases=2,Linecode=CABBTG05_4_2_2,Length=0.029000000,Units=km
new line.RBT_10035652 bus1=BBT697863.1.2.3.0,bus2=RML1010035652.1.2.3.0,Phases=3,Linecode=CABBTG06_4_3_3,Length=0.029000000,Units=km
new line.RBT_10055087 bus1=BBT148579438.1.2.0,bus2=RML1010055087.1.2.0,Phases=2,Linecode=CABBTG05_4_2_2,Length=0.024000000,Units=km
new line.RBT_10056874 bus1=BBT1114685.1.2.3.0,bus2=RML1010056874.1.2.3.0,Phases=3,Linecode=CABBTG06_4_3_3,Length=0.029000000,Units=km
new line.RBT_10084051 bus1=BBT77521777.1.2.3.0,bus2=RML1010084051.1.2.3.0,Phases=3,Linecode=CABBTG12_4_3_3,Length=0.029000000,Units=km
new line.RBT_10117591 bus1=BBT687272.1.2.3.0,bus2=RML1010117591.1.2.3.0,Phases=3,Linecode=CABBTG06_4_3_3,Length=0.012000000,Units=km
new line.RBT_10118191 bus1=BBT148815837.1.2.0,bus2=RML1010118191.1.2.0,Phases=2,Linecode=CABBTG05_4_2_2,Length=0.010000000,Units=km
new line.RBT_10118197 bus1=BBT148788551.3.1.0,bus2=RML1010118197.3.1.0,Phases=2,Linecode=CABBTG05_4_2_2,Length=0.010000000,Units=km
new line.RBT_10118200 bus1=BBT148790689.1.2.0,bus2=RML1010118200.1.2.0,Phases=2,Linecode=CABBTG05_4_2_2,Length=0.010000000,Units=km
new line.RBT_10118203 bus1=BBT148781849.2.3.0,bus2=RML1010118203.2.3.0,Phases=2,Linecode=CABBTG05_4_2_2,Length=0.010000000,Units=km
new line.RBT_10118208 bus1=BBT148781347.2.3.0,bus2=RML1010118208.2.3.0,Phases=2,Linecode=CABBTG05_4_2_2,Length=0.010000000,Units=km
new line.RBT_10118209 bus1=BBT148838510.1.2.0,bus2=RML1010118209.1.2.0,Phases=2,Linecode=CABBTG05_4_2_2,Length=0.010000000,Units=km
new line.RBT_10118213 bus1=BBT148807647.3.1.0,bus2=RML1010118213.3.1.0,Phases=2,Linecode=CABBTG05_4_2_2,Length=0.010000000,Units=km
new line.RBT_10118223 bus1=BBT148805060.1.2.0,bus2=RML1010118223.1.2.0,Phases=2,Linecode=CABBTG05_4_2_2,Length=0.010000000,Units=km
new line.RBT_10118243 bus1=BBT148816706.2.3.0,bus2=RML1010118243.2.3.0,Phases=2,Linecode=CABBTG05_4_2_2,Length=0.010000000,Units=km
new line.RBT_10118245 bus1=BBT148820295.2.3.0,bus2=RML1010118245.2.3.0,Phases=2,Linecode=CABBTG05_4_2_2,Length=0.010000000,Units=km
new line.RBT_10118255 bus1=BBT148821738.3.1.0,bus2=RML1010118255.3.1.0,Phases=2,Linecode=CABBTG05_4_2_2,Length=0.010000000,Units=km
new line.RBT_10118261 bus1=BBT148826184.1.2.0,bus2=RML1010118261.1.2.0,Phases=2,Linecode=CABBTG05_4_2_2,Length=0.010000000,Units=km
new line.RBT_10118269 bus1=BBT148841145.3.1.0,bus2=RML1010118269.3.1.0,Phases=2,Linecode=CABBTG05_4_2_2,Length=0.010000000,Units=km
new line.RBT_10118275 bus1=BBT148861081.1.2.0,bus2=RML1010118275.1.2.0,Phases=2,Linecode=CABBTG05_4_2_2,Length=0.010000000,Units=km
new line.RBT_10118281 bus1=BBT148859496.3.1.0,bus2=RML1010118281.3.1.0,Phases=2,Linecode=CABBTG05_4_2_2,Length=0.010000000,Units=km
new line.RBT_10118284 bus1=BBT148854294.3.1.0,bus2=RML1010118284.3.1.0,Phases=2,Linecode=CABBTG05_4_2_2,Length=0.010000000,Units=km
new line.RBT_10118295 bus1=BBT148836725.1.2.0,bus2=RML1010118295.1.2.0,Phases=2,Linecode=CABBTG05_4_2_2,Length=0.010000000,Units=km
new line.RBT_10118298 bus1=BBT148851885.2.3.0,bus2=RML1010118298.2.3.0,Phases=2,Linecode=CABBTG05_4_2_2,Length=0.010000000,Units=km
new line.RBT_10118302 bus1=BBT148847696.2.3.0,bus2=RML1010118302.2.3.0,Phases=2,Linecode=CABBTG05_4_2_2,Length=0.010000000,Units=km
new line.RBT_1002307 bus1=BBT711464.1.2.3.0,bus2=RML1001002307.1.2.3.0,Phases=3,Linecode=CABBTG07_4_3_3,Length=0.017000000,Units=km
new line.RBT_1002314 bus1=BBT711464.2.0,bus2=RML1001002314.2.0,Phases=1,Linecode=CABBTG01_4_1_1,Length=0.017000000,Units=km
new line.RBT_1002321 bus1=BBT711471.1.2.3.0,bus2=RML1001002321.1.2.3.0,Phases=3,Linecode=CABBTG07_4_3_3,Length=0.017000000,Units=km
new line.RBT_1002328 bus1=BBT711471.1.2.3.0,bus2=RML1001002328.1.2.3.0,Phases=3,Linecode=CABBTG07_4_3_3,Length=0.017000000,Units=km
new line.RBT_1002335 bus1=BBT711478.1.2.3.0,bus2=RML1001002335.1.2.3.0,Phases=3,Linecode=CABBTG07_4_3_3,Length=0.017000000,Units=km
new line.RBT_1002342 bus1=BBT711478.1.2.3.0,bus2=RML1001002342.1.2.3.0,Phases=3,Linecode=CABBTG07_4_3_3,Length=0.017000000,Units=km
new line.RBT_1002349 bus1=BBT711485.2.3.0,bus2=RML1001002349.2.3.0,Phases=2,Linecode=CABBTG05_4_2_2,Length=0.017000000,Units=km
new line.RBT_1002356 bus1=BBT711485.1.2.3.0,bus2=RML1001002356.1.2.3.0,Phases=3,Linecode=CABBTG07_4_3_3,Length=0.017000000,Units=km
new line.RBT_1002363 bus1=BBT711492.1.2.3.0,bus2=RML1001002363.1.2.3.0,Phases=3,Linecode=CABBTG11_4_3_3,Length=0.017000000,Units=km
new line.RBT_1002370 bus1=BBT711492.1.2.3.0,bus2=RML1001002370.1.2.3.0,Phases=3,Linecode=CABBTG06_4_3_3,Length=0.017000000,Units=km
new line.RBT_1002377 bus1=BBT711492.1.2.3.0,bus2=RML1001002377.1.2.3.0,Phases=3,Linecode=CABBTG07_4_3_3,Length=0.017000000,Units=km
new line.RBT_1002384 bus1=BBT711499.1.2.3.0,bus2=RML1001002384.1.2.3.0,Phases=3,Linecode=CABBTG07_4_3_3,Length=0.017000000,Units=km
new line.RBT_1002391 bus1=BBT711499.1.2.0,bus2=RML1001002391.1.2.0,Phases=2,Linecode=CABBTG05_4_2_2,Length=0.017000000,Units=km
new line.RBT_1002398 bus1=BBT711499.1.2.3.0,bus2=RML1001002398.1.2.3.0,Phases=3,Linecode=CABBTG06_4_3_3,Length=0.017000000,Units=km
new line.RBT_1002405 bus1=BBT711506.1.2.3.0,bus2=RML1001002405.1.2.3.0,Phases=3,Linecode=CABBTG08_4_3_3,Length=0.017000000,Units=km
new line.RBT_1002412 bus1=BBT711506.2.3.0,bus2=RML1001002412.2.3.0,Phases=2,Linecode=CABBTG05_4_2_2,Length=0.017000000,Units=km
new line.RBT_1002419 bus1=BBT711513.1.2.3.0,bus2=RML1001002419.1.2.3.0,Phases=3,Linecode=CABBTG06_4_3_3,Length=0.017000000,Units=km
new line.RBT_10073049 bus1=BBT668526.1.2.3.0,bus2=RML1010073049.1.2.3.0,Phases=3,Linecode=CABBTG06_4_3_3,Length=0.010000000,Units=km
new line.RBT_10073361 bus1=BBT2299638.3.1.0,bus2=RML1010073361.3.1.0,Phases=2,Linecode=CABBTG05_4_2_2,Length=0.010000000,Units=km
new line.RBT_10073540 bus1=BBT700082.1.2.3.0,bus2=RML1010073540.1.2.3.0,Phases=3,Linecode=CABBTG12_4_3_3,Length=0.030000000,Units=km
new line.RBT_10073706 bus1=BBT2211354.1.2.3.0,bus2=RML1010073706.1.2.3.0,Phases=3,Linecode=CABBTG08_4_3_3,Length=0.008000000,Units=km
new line.RBT_10073801 bus1=BBT3114725.1.2.3.0,bus2=RML1010073801.1.2.3.0,Phases=3,Linecode=CABBTG06_4_3_3,Length=0.025000000,Units=km
new line.RBT_10073807 bus1=BBT697191.1.2.3.0,bus2=RML1010073807.1.2.3.0,Phases=3,Linecode=CABBTG06_4_3_3,Length=0.020000000,Units=km
new line.RBT_10074658 bus1=BBT2271463.1.2.0,bus2=RML1010074658.1.2.0,Phases=2,Linecode=CABBTG05_4_2_2,Length=0.029000000,Units=km
new line.RBT_10074676 bus1=BBT2271330.1.2.0,bus2=RML1010074676.1.2.0,Phases=2,Linecode=CABBTG04_4_2_2,Length=0.017000000,Units=km
new line.RBT_10074732 bus1=BBT696687.1.2.3.0,bus2=RML1010074732.1.2.3.0,Phases=3,Linecode=CABBTG06_4_3_3,Length=0.015000000,Units=km
new line.RBT_10075107 bus1=BBT143708002.1.2.3.0,bus2=RML1010075107.1.2.3.0,Phases=3,Linecode=CABBTG06_4_3_3,Length=0.010000000,Units=km
new line.RBT_10075112 bus1=BBT143707792.1.2.3.0,bus2=RML1010075112.1.2.3.0,Phases=3,Linecode=CABBTG06_4_3_3,Length=0.010000000,Units=km
new line.RBT_10075673 bus1=BBT93264357.1.2.0,bus2=RML1010075673.1.2.0,Phases=2,Linecode=CABBTG05_4_2_2,Length=0.010000000,Units=km
new line.RBT_10126846 bus1=BBT675141.1.2.0,bus2=RML1010126846.1.2.0,Phases=2,Linecode=CABBTG05_4_2_2,Length=0.017000000,Units=km
new line.RBT_10126953 bus1=BBT3271196.1.2.0,bus2=RML1010126953.1.2.0,Phases=2,Linecode=CABBTG05_4_2_2,Length=0.029000000,Units=km
new line.RBT_10126989 bus1=BBT1114727.1.2.0,bus2=RML1010126989.1.2.0,Phases=2,Linecode=CABBTG05_4_2_2,Length=0.029000000,Units=km
new line.RBT_10126995 bus1=BBT1062472.1.2.0,bus2=RML1010126995.1.2.0,Phases=2,Linecode=CABBTG05_4_2_2,Length=0.029000000,Units=km
new line.RBT_10127038 bus1=BBT1114706.1.2.0,bus2=RML1010127038.1.2.0,Phases=2,Linecode=CABBTG05_4_2_2,Length=0.029000000,Units=km
new line.RBT_10127063 bus1=BBT707285.1.2.0,bus2=RML1010127063.1.2.0,Phases=2,Linecode=CABBTG05_4_2_2,Length=0.029000000,Units=km
new line.RBT_10127075 bus1=BBT708706.1.2.3.0,bus2=RML1010127075.1.2.3.0,Phases=3,Linecode=CABBTG06_4_3_3,Length=0.029000000,Units=km
new line.RBT_10127092 bus1=BBT697205.1.2.3.0,bus2=RML1010127092.1.2.3.0,Phases=3,Linecode=CABBTG06_4_3_3,Length=0.029000000,Units=km
new line.RBT_1000011 bus1=BBT711688.1.2.3.0,bus2=RML1001000011.1.2.3.0,Phases=3,Linecode=CABBTG06_4_3_3,Length=0.017000000,Units=km
new line.RBT_1000018 bus1=BBT710218.1.2.0,bus2=RML1001000018.1.2.0,Phases=2,Linecode=CABBTG05_4_2_2,Length=0.017000000,Units=km
new line.RBT_1000732 bus1=BBT710701.1.2.0,bus2=RML1001000732.1.2.0,Phases=2,Linecode=CABBTG05_4_2_2,Length=0.017000000,Units=km
new line.RBT_1000739 bus1=BBT710722.2.3.0,bus2=RML1001000739.2.3.0,Phases=2,Linecode=CABBTG05_4_2_2,Length=0.017000000,Units=km
new line.RBT_1000746 bus1=BBT710722.1.2.3.0,bus2=RML1001000746.1.2.3.0,Phases=3,Linecode=CABBTG07_4_3_3,Length=0.017000000,Units=km
new line.RBT_1000753 bus1=BBT710722.1.2.3.0,bus2=RML1001000753.1.2.3.0,Phases=3,Linecode=CABBTG07_4_3_3,Length=0.017000000,Units=km
new line.RBT_1000760 bus1=BBT710736.1.2.3.0,bus2=RML1001000760.1.2.3.0,Phases=3,Linecode=CABBTG07_4_3_3,Length=0.017000000,Units=km
new line.RBT_1000767 bus1=BBT710743.1.2.0,bus2=RML1001000767.1.2.0,Phases=2,Linecode=CABBTG05_4_2_2,Length=0.017000000,Units=km
new line.RBT_1000774 bus1=BBT710743.3.1.0,bus2=RML1001000774.3.1.0,Phases=2,Linecode=CABBTG05_4_2_2,Length=0.017000000,Units=km
new line.RBT_1000781 bus1=BBT710743.1.2.0,bus2=RML1001000781.1.2.0,Phases=2,Linecode=CABBTG05_4_2_2,Length=0.017000000,Units=km
new line.RBT_1000788 bus1=BBT710743.1.2.3.0,bus2=RML1001000788.1.2.3.0,Phases=3,Linecode=CABBTG07_4_3_3,Length=0.017000000,Units=km
new line.RBT_1000795 bus1=BBT710750.1.2.3.0,bus2=RML1001000795.1.2.3.0,Phases=3,Linecode=CABBTG07_4_3_3,Length=0.017000000,Units=km
new line.RBT_1000802 bus1=BBT710757.3.1.0,bus2=RML1001000802.3.1.0,Phases=2,Linecode=CABBTG05_4_2_2,Length=0.017000000,Units=km
new line.RBT_1000809 bus1=BBT710778.1.2.0,bus2=RML1001000809.1.2.0,Phases=2,Linecode=CABBTG05_4_2_2,Length=0.017000000,Units=km
new line.RBT_1000816 bus1=BBT710778.2.3.0,bus2=RML1001000816.2.3.0,Phases=2,Linecode=CABBTG05_4_2_2,Length=0.017000000,Units=km
new line.RBT_1000823 bus1=BBT715944.1.2.3.0,bus2=RML1001000823.1.2.3.0,Phases=3,Linecode=CABBTG07_4_3_3,Length=0.017000000,Units=km
new line.RBT_1000830 bus1=BBT1921358.1.2.3.0,bus2=RML1001000830.1.2.3.0,Phases=3,Linecode=CABBTG07_4_3_3,Length=0.017000000,Units=km
new line.RBT_1000837 bus1=BBT715944.1.2.3.0,bus2=RML1001000837.1.2.3.0,Phases=3,Linecode=CABBTG07_4_3_3,Length=0.017000000,Units=km
new line.RBT_1001131 bus1=BBT151082467.1.2.3.0,bus2=RML1001001131.1.2.3.0,Phases=3,Linecode=CABBTG07_4_3_3,Length=0.017000000,Units=km
new line.RBT_1007053 bus1=BBT714775.1.2.3.0,bus2=RML1001007053.1.2.3.0,Phases=3,Linecode=CABBTG07_4_3_3,Length=0.017000000,Units=km
new line.RBT_1007060 bus1=BBT131919939.1.2.3.0,bus2=RML1001007060.1.2.3.0,Phases=3,Linecode=CABBTG12_4_3_3,Length=0.017000000,Units=km
new line.RBT_10094188 bus1=BBT157956330.1.2.3.0,bus2=RML1010094188.1.2.3.0,Phases=3,Linecode=CABBTG06_4_3_3,Length=0.017000000,Units=km
new line.RBT_10094284 bus1=BBT4116005.1.2.3.0,bus2=RML1010094284.1.2.3.0,Phases=3,Linecode=CABBTG07_4_3_3,Length=0.017000000,Units=km
new line.RBT_10095051 bus1=BBT1072790.1.2.3.0,bus2=RML1010095051.1.2.3.0,Phases=3,Linecode=CABBTG06_4_3_3,Length=0.029000000,Units=km
new line.RBT_10121950 bus1=BBT687041.1.2.0,bus2=RML1010121950.1.2.0,Phases=2,Linecode=CABBTG05_4_2_2,Length=0.029000000,Units=km
new line.RBT_1015355 bus1=BBT131811040.1.2.0,bus2=RML1001015355.1.2.0,Phases=2,Linecode=CABBTG05_4_2_2,Length=0.017000000,Units=km
new line.RBT_1015362 bus1=BBT131810872.1.2.3.0,bus2=RML1001015362.1.2.3.0,Phases=3,Linecode=CABBTG06_4_3_3,Length=0.017000000,Units=km
new line.RBT_1015369 bus1=BBT131811040.1.0,bus2=RML1001015369.1.0,Phases=1,Linecode=CABBTG01_4_1_1,Length=0.017000000,Units=km
new line.RBT_1015383 bus1=BBT131781619.1.2.0,bus2=RML1001015383.1.2.0,Phases=2,Linecode=CABBTG05_4_2_2,Length=0.017000000,Units=km
new line.RBT_1015390 bus1=BBT2242889.1.2.3.0,bus2=RML1001015390.1.2.3.0,Phases=3,Linecode=CABBTG06_4_3_3,Length=0.017000000,Units=km
new line.RBT_1015397 bus1=BBT4114836.1.2.3.0,bus2=RML1001015397.1.2.3.0,Phases=3,Linecode=CABBTG07_4_3_3,Length=0.017000000,Units=km
new line.RBT_1015404 bus1=BBT4114836.1.2.3.0,bus2=RML1001015404.1.2.3.0,Phases=3,Linecode=CABBTG07_4_3_3,Length=0.017000000,Units=km
new line.RBT_1015411 bus1=BBT3879349.2.3.0,bus2=RML1001015411.2.3.0,Phases=2,Linecode=CABBTG05_4_2_2,Length=0.017000000,Units=km
new line.RBT_10180609 bus1=BBT3114473.1.2.3.0,bus2=RML1010180609.1.2.3.0,Phases=3,Linecode=CABBTG06_4_3_3,Length=0.029000000,Units=km
new line.RBT_10180635 bus1=BBT2210969.1.2.3.0,bus2=RML1010180635.1.2.3.0,Phases=3,Linecode=CABBTG06_4_3_3,Length=0.029000000,Units=km
new line.RBT_10180716 bus1=BBT148034200.1.2.0,bus2=RML1010180716.1.2.0,Phases=2,Linecode=CABBTG05_4_2_2,Length=0.017000000,Units=km
new line.RBT_10181327 bus1=BBT2211347.1.2.3.0,bus2=RML1010181327.1.2.3.0,Phases=3,Linecode=CABBTG12_4_3_3,Length=0.029000000,Units=km
new line.RBT_1004764 bus1=BBT712920.2.0,bus2=RML1001004764.2.0,Phases=1,Linecode=CABBTG01_4_1_1,Length=0.017000000,Units=km
new line.RBT_1004771 bus1=BBT712927.1.2.3.0,bus2=RML1001004771.1.2.3.0,Phases=3,Linecode=CABBTG07_4_3_3,Length=0.017000000,Units=km
new line.RBT_1004778 bus1=BBT712927.1.2.0,bus2=RML1001004778.1.2.0,Phases=2,Linecode=CABBTG05_4_2_2,Length=0.017000000,Units=km
new line.RBT_1004785 bus1=BBT712934.1.2.3.0,bus2=RML1001004785.1.2.3.0,Phases=3,Linecode=CABBTG07_4_3_3,Length=0.017000000,Units=km
new line.RBT_1004792 bus1=BBT712934.2.3.0,bus2=RML1001004792.2.3.0,Phases=2,Linecode=CABBTG05_4_2_2,Length=0.017000000,Units=km
new line.RBT_1004799 bus1=BBT712941.1.2.3.0,bus2=RML1001004799.1.2.3.0,Phases=3,Linecode=CABBTG07_4_3_3,Length=0.017000000,Units=km
new line.RBT_1004806 bus1=BBT712948.1.2.3.0,bus2=RML1001004806.1.2.3.0,Phases=3,Linecode=CABBTG06_4_3_3,Length=0.017000000,Units=km
new line.RBT_1004813 bus1=BBT712948.3.1.0,bus2=RML1001004813.3.1.0,Phases=2,Linecode=CABBTG05_4_2_2,Length=0.017000000,Units=km
new line.RBT_1004820 bus1=BBT712948.1.2.3.0,bus2=RML1001004820.1.2.3.0,Phases=3,Linecode=CABBTG07_4_3_3,Length=0.017000000,Units=km
new line.RBT_1004827 bus1=BBT712955.3.1.0,bus2=RML1001004827.3.1.0,Phases=2,Linecode=CABBTG05_4_2_2,Length=0.017000000,Units=km
new line.RBT_10081013 bus1=BBT2047477.1.2.0,bus2=RML1010081013.1.2.0,Phases=2,Linecode=CABBTG05_4_2_2,Length=0.017000000,Units=km
new line.RBT_10081021 bus1=BBT2545674.1.2.0,bus2=RML1010081021.1.2.0,Phases=2,Linecode=CABBTG05_4_2_2,Length=0.017000000,Units=km
new line.RBT_10081320 bus1=BBT2889269.1.2.0,bus2=RML1010081320.1.2.0,Phases=2,Linecode=CABBTG04_4_2_2,Length=0.017000000,Units=km
new line.RBT_10081426 bus1=BBT2271246.1.2.0,bus2=RML1010081426.1.2.0,Phases=2,Linecode=CABBTG05_4_2_2,Length=0.017000000,Units=km
new line.RBT_10081947 bus1=BBT2155704.1.2.0,bus2=RML1010081947.1.2.0,Phases=2,Linecode=CABBTG05_4_2_2,Length=0.017000000,Units=km
new line.RBT_10082923 bus1=BBT2271351.1.2.3.0,bus2=RML1010082923.1.2.3.0,Phases=3,Linecode=CABBTG11_4_3_3,Length=0.017000000,Units=km
new line.RBT_10083175 bus1=BBT5238861.1.2.0,bus2=RML1010083175.1.2.0,Phases=2,Linecode=CABBTG04_4_2_2,Length=0.017000000,Units=km
new line.RBT_1008348 bus1=BBT715573.1.2.0,bus2=RML1001008348.1.2.0,Phases=2,Linecode=CABBTG05_4_2_2,Length=0.017000000,Units=km
new line.RBT_1014249 bus1=BBT3879552.1.2.3.0,bus2=RML1001014249.1.2.3.0,Phases=3,Linecode=CABBTG07_4_3_3,Length=0.017000000,Units=km
new line.RBT_1014256 bus1=BBT719227.1.2.3.0,bus2=RML1001014256.1.2.3.0,Phases=3,Linecode=CABBTG07_4_3_3,Length=0.017000000,Units=km
new line.RBT_1014263 bus1=BBT719234.1.0,bus2=RML1001014263.1.0,Phases=1,Linecode=CABBTG01_4_1_1,Length=0.017000000,Units=km
new line.RBT_1014270 bus1=BBT719234.1.2.3.0,bus2=RML1001014270.1.2.3.0,Phases=3,Linecode=CABBTG06_4_3_3,Length=0.017000000,Units=km
new line.RBT_1014277 bus1=BBT719241.1.2.3.0,bus2=RML1001014277.1.2.3.0,Phases=3,Linecode=CABBTG07_4_3_3,Length=0.017000000,Units=km
new line.RBT_1014291 bus1=BBT2242833.1.2.3.0,bus2=RML1001014291.1.2.3.0,Phases=3,Linecode=CABBTG07_4_3_3,Length=0.017000000,Units=km
new line.RBT_10177286 bus1=BBT706858.1.2.0,bus2=RML1010177286.1.2.0,Phases=2,Linecode=CABBTG05_4_2_2,Length=0.017000000,Units=km
new line.RBT_10177459 bus1=BBT687272.1.2.3.0,bus2=RML1010177459.1.2.3.0,Phases=3,Linecode=CABBTG12_4_3_3,Length=0.029000000,Units=km
new line.RBT_10177557 bus1=BBT687041.1.2.3.0,bus2=RML1010177557.1.2.3.0,Phases=3,Linecode=CABBTG10_4_3_3,Length=0.029000000,Units=km
new line.RBT_10177910 bus1=BBT2611292.1.2.3.0,bus2=RML1010177910.1.2.3.0,Phases=3,Linecode=CABBTG06_4_3_3,Length=0.029000000,Units=km
new line.RBT_10178288 bus1=BBT692690.1.0,bus2=RML1010178288.1.0,Phases=1,Linecode=CABBTG02_4_1_1,Length=0.029000000,Units=km
new line.RBT_10178314 bus1=BBT2630892.1.2.0,bus2=RML1010178314.1.2.0,Phases=2,Linecode=CABBTG05_4_2_2,Length=0.029000000,Units=km
new line.RBT_10178317 bus1=BBT1127432.1.2.3.0,bus2=RML1010178317.1.2.3.0,Phases=3,Linecode=CABBTG06_4_3_3,Length=0.017000000,Units=km
new line.RBT_10178358 bus1=BBT707229.1.2.0,bus2=RML1010178358.1.2.0,Phases=2,Linecode=CABBTG05_4_2_2,Length=0.017000000,Units=km
new line.RBT_10178426 bus1=BBT3448863.1.2.0,bus2=RML1010178426.1.2.0,Phases=2,Linecode=CABBTG05_4_2_2,Length=0.029000000,Units=km
new line.RBT_10178433 bus1=BBT3114445.1.2.3.0,bus2=RML1010178433.1.2.3.0,Phases=3,Linecode=CABBTG06_4_3_3,Length=0.029000000,Units=km
new line.RBT_10178434 bus1=BBT687951.1.2.0,bus2=RML1010178434.1.2.0,Phases=2,Linecode=CABBTG05_4_2_2,Length=0.029000000,Units=km
new line.RBT_10178445 bus1=BBT690940.1.2.0,bus2=RML1010178445.1.2.0,Phases=2,Linecode=CABBTG05_4_2_2,Length=0.017000000,Units=km
new line.RBT_10178455 bus1=BBT679887.1.2.0,bus2=RML1010178455.1.2.0,Phases=2,Linecode=CABBTG05_4_2_2,Length=0.017000000,Units=km
new line.RBT_1004211 bus1=BBT712528.1.2.0,bus2=RML1001004211.1.2.0,Phases=2,Linecode=CABBTG05_4_2_2,Length=0.017000000,Units=km
new line.RBT_1004218 bus1=BBT132009028.1.2.3.0,bus2=RML1001004218.1.2.3.0,Phases=3,Linecode=CABBTG11_4_3_3,Length=0.017000000,Units=km
new line.RBT_1004225 bus1=BBT151083351.1.2.3.0,bus2=RML1001004225.1.2.3.0,Phases=3,Linecode=CABBTG07_4_3_3,Length=0.017000000,Units=km
new line.RBT_1004232 bus1=BBT168993959.1.2.3.0,bus2=RML1001004232.1.2.3.0,Phases=3,Linecode=CABBTG09_4_3_3,Length=0.016000000,Units=km
new line.RBT_10066748 bus1=BBT1123953.1.2.0,bus2=RML1010066748.1.2.0,Phases=2,Linecode=CABBTG05_4_2_2,Length=0.029000000,Units=km
new line.RBT_1006794 bus1=BBT715671.1.2.3.0,bus2=RML1001006794.1.2.3.0,Phases=3,Linecode=CABBTG07_4_3_3,Length=0.017000000,Units=km
new line.RBT_1006801 bus1=BBT131678936.1.2.0,bus2=RML1001006801.1.2.0,Phases=2,Linecode=CABBTG05_4_2_2,Length=0.029000000,Units=km
new line.RBT_1006808 bus1=BBT131678936.1.2.0,bus2=RML1001006808.1.2.0,Phases=2,Linecode=CABBTG05_4_2_2,Length=0.029000000,Units=km
new line.RBT_1006815 bus1=BBT131678936.1.2.0,bus2=RML1001006815.1.2.0,Phases=2,Linecode=CABBTG05_4_2_2,Length=0.029000000,Units=km
new line.RBT_1006822 bus1=BBT720424.1.2.0,bus2=RML1001006822.1.2.0,Phases=2,Linecode=CABBTG05_4_2_2,Length=0.017000000,Units=km
new line.RBT_1006829 bus1=BBT720424.1.2.0,bus2=RML1001006829.1.2.0,Phases=2,Linecode=CABBTG05_4_2_2,Length=0.017000000,Units=km
new line.RBT_1006836 bus1=BBT720424.1.2.0,bus2=RML1001006836.1.2.0,Phases=2,Linecode=CABBTG05_4_2_2,Length=0.017000000,Units=km
new line.RBT_1006843 bus1=BBT720424.1.2.0,bus2=RML1001006843.1.2.0,Phases=2,Linecode=CABBTG05_4_2_2,Length=0.017000000,Units=km
new line.RBT_1006850 bus1=BBT2682713.1.2.0,bus2=RML1001006850.1.2.0,Phases=2,Linecode=CABBTG05_4_2_2,Length=0.017000000,Units=km
new line.RBT_1006857 bus1=BBT720424.1.2.0,bus2=RML1001006857.1.2.0,Phases=2,Linecode=CABBTG05_4_2_2,Length=0.017000000,Units=km
new line.RBT_10100450 bus1=BBT151024212.1.2.3.0,bus2=RML1010100450.1.2.3.0,Phases=3,Linecode=CABBTG12_4_3_3,Length=0.017000000,Units=km
new line.RBT_10130166 bus1=BBT687041.1.2.0,bus2=RML1010130166.1.2.0,Phases=2,Linecode=CABBTG05_4_2_2,Length=0.029000000,Units=km
new line.RBT_10158450 bus1=BBT1127705.1.2.0,bus2=RML1010158450.1.2.0,Phases=2,Linecode=CABBTG05_4_2_2,Length=0.029000000,Units=km
new line.RBT_10158458 bus1=BBT1127726.1.2.3.0,bus2=RML1010158458.1.2.3.0,Phases=3,Linecode=CABBTG06_4_3_3,Length=0.029000000,Units=km
new line.RBT_10158465 bus1=BBT1127726.1.2.3.0,bus2=RML1010158465.1.2.3.0,Phases=3,Linecode=CABBTG07_4_3_3,Length=0.029000000,Units=km
new line.RBT_10158904 bus1=BBT2271526.1.2.0,bus2=RML1010158904.1.2.0,Phases=2,Linecode=CABBTG05_4_2_2,Length=0.029000000,Units=km
new line.RBT_10158914 bus1=BBT657606.1.2.0,bus2=RML1010158914.1.2.0,Phases=2,Linecode=CABBTG05_4_2_2,Length=0.017000000,Units=km
new line.RBT_10158933 bus1=BBT2155697.1.2.0,bus2=RML1010158933.1.2.0,Phases=2,Linecode=CABBTG05_4_2_2,Length=0.017000000,Units=km
new line.RBT_10158998 bus1=BBT1040744.1.2.0,bus2=RML1010158998.1.2.0,Phases=2,Linecode=CABBTG05_4_2_2,Length=0.017000000,Units=km
new line.RBT_10159022 bus1=BBT4032096.1.2.0,bus2=RML1010159022.1.2.0,Phases=2,Linecode=CABBTG05_4_2_2,Length=0.017000000,Units=km
new line.RBT_10159037 bus1=BBT10525368.1.2.0,bus2=RML1010159037.1.2.0,Phases=2,Linecode=CABBTG05_4_2_2,Length=0.017000000,Units=km
new line.RBT_10159099 bus1=BBT4840120.1.2.0,bus2=RML1010159099.1.2.0,Phases=2,Linecode=CABBTG05_4_2_2,Length=0.017000000,Units=km
new line.RBT_10159230 bus1=BBT138715119.1.2.0,bus2=RML1010159230.1.2.0,Phases=2,Linecode=CABBTG05_4_2_2,Length=0.017000000,Units=km
new line.RBT_10161116 bus1=BBT691997.1.2.3.0,bus2=RML1010161116.1.2.3.0,Phases=3,Linecode=CABBTG06_4_3_3,Length=0.029000000,Units=km
new line.RBT_10161887 bus1=BBT2804982.2.3.0,bus2=RML1010161887.2.3.0,Phases=2,Linecode=CABBTG05_4_2_2,Length=0.017000000,Units=km
new line.RBT_10188741 bus1=BBT77521966.1.2.3.0,bus2=RML1010188741.1.2.3.0,Phases=3,Linecode=CABBTG07_4_3_3,Length=0.029000000,Units=km
new line.RBT_10188796 bus1=BBT687041.1.2.3.0,bus2=RML1010188796.1.2.3.0,Phases=3,Linecode=CABBTG06_4_3_3,Length=0.029000000,Units=km
new line.RBT_10190187 bus1=BBT665453.1.2.0,bus2=RML1010190187.1.2.0,Phases=2,Linecode=CABBTG05_4_2_2,Length=0.017000000,Units=km
new line.RBT_10190220 bus1=BBT697205.1.2.0,bus2=RML1010190220.1.2.0,Phases=2,Linecode=CABBTG05_4_2_2,Length=0.029000000,Units=km
new line.RBT_10190377 bus1=BBT687132.1.2.3.0,bus2=RML1010190377.1.2.3.0,Phases=3,Linecode=CABBTG06_4_3_3,Length=0.029000000,Units=km
new line.RBT_10191215 bus1=BBT2492292.1.2.0,bus2=RML1010191215.1.2.0,Phases=2,Linecode=CABBTG05_4_2_2,Length=0.017000000,Units=km
new line.RBT_10191336 bus1=BBT710778.1.2.3.0,bus2=RML1010191336.1.2.3.0,Phases=3,Linecode=CABBTG06_4_3_3,Length=0.017000000,Units=km
new line.RBT_10037748 bus1=BBT3448604.1.2.0,bus2=RML1010037748.1.2.0,Phases=2,Linecode=CABBTG05_4_2_2,Length=0.017000000,Units=km
new line.RBT_10060806 bus1=BBT684052.1.2.3.0,bus2=RML1010060806.1.2.3.0,Phases=3,Linecode=CABBTG06_4_3_3,Length=0.029000000,Units=km
new line.RBT_10060808 bus1=BBT690940.1.2.0,bus2=RML1010060808.1.2.0,Phases=2,Linecode=CABBTG05_4_2_2,Length=0.017000000,Units=km
new line.RBT_10060810 bus1=BBT690940.1.2.0,bus2=RML1010060810.1.2.0,Phases=2,Linecode=CABBTG05_4_2_2,Length=0.017000000,Units=km
new line.RBT_10060825 bus1=BBT697562.1.2.3.0,bus2=RML1010060825.1.2.3.0,Phases=3,Linecode=CABBTG06_4_3_3,Length=0.029000000,Units=km
new line.RBT_10060829 bus1=BBT2137609.1.2.3.0,bus2=RML1010060829.1.2.3.0,Phases=3,Linecode=CABBTG06_4_3_3,Length=0.029000000,Units=km
new line.RBT_10060834 bus1=BBT696470.1.2.0,bus2=RML1010060834.1.2.0,Phases=2,Linecode=CABBTG05_4_2_2,Length=0.029000000,Units=km
new line.RBT_10060836 bus1=BBT1055227.1.2.0,bus2=RML1010060836.1.2.0,Phases=2,Linecode=CABBTG05_4_2_2,Length=0.029000000,Units=km
new line.RBT_10143621 bus1=BBT1106446.1.0,bus2=RML1010143621.1.0,Phases=1,Linecode=CABBTG02_4_1_1,Length=0.029000000,Units=km
new line.RBT_10143949 bus1=BBT687090.1.2.0,bus2=RML1010143949.1.2.0,Phases=2,Linecode=CABBTG05_4_2_2,Length=0.029000000,Units=km
new line.RBT_10144127 bus1=BBT676240.1.2.3.0,bus2=RML1010144127.1.2.3.0,Phases=3,Linecode=CABBTG06_4_3_3,Length=0.029000000,Units=km
new line.RBT_10145928 bus1=BBT1127992.3.1.0,bus2=RML1010145928.3.1.0,Phases=2,Linecode=CABBTG05_4_2_2,Length=0.017000000,Units=km
new line.RBT_10145931 bus1=BBT650235.1.0,bus2=RML1010145931.1.0,Phases=1,Linecode=CABBTG02_4_1_1,Length=0.017000000,Units=km
new line.RBT_10169781 bus1=BBT692697.1.2.0,bus2=RML1010169781.1.2.0,Phases=2,Linecode=CABBTG05_4_2_2,Length=0.029000000,Units=km
new line.RBT_10169875 bus1=BBT1127656.1.2.3.0,bus2=RML1010169875.1.2.3.0,Phases=3,Linecode=CABBTG06_4_3_3,Length=0.029000000,Units=km
new line.RBT_10169950 bus1=BBT687930.1.2.0,bus2=RML1010169950.1.2.0,Phases=2,Linecode=CABBTG05_4_2_2,Length=0.029000000,Units=km
new line.RBT_10170141 bus1=BBT1106411.1.2.0,bus2=RML1010170141.1.2.0,Phases=2,Linecode=CABBTG05_4_2_2,Length=0.029000000,Units=km
new line.RBT_10170180 bus1=BBT1094756.1.2.3.0,bus2=RML1010170180.1.2.3.0,Phases=3,Linecode=CABBTG06_4_3_3,Length=0.017000000,Units=km
new line.RBT_10170384 bus1=BBT2025133.1.2.0,bus2=RML1010170384.1.2.0,Phases=2,Linecode=CABBTG05_4_2_2,Length=0.017000000,Units=km
new line.RBT_10170670 bus1=BBT693054.2.0,bus2=RML1010170670.2.0,Phases=1,Linecode=CABBTG02_4_1_1,Length=0.017000000,Units=km
new line.RBT_10171628 bus1=BBT2316760.1.2.3.0,bus2=RML1010171628.1.2.3.0,Phases=3,Linecode=CABBTG06_4_3_3,Length=0.017000000,Units=km
new line.RBT_10172102 bus1=BBT143708051.1.2.3.0,bus2=RML1010172102.1.2.3.0,Phases=3,Linecode=CABBTG12_4_3_3,Length=0.029000000,Units=km
new line.RBT_10172202 bus1=BBT1114678.1.2.3.0,bus2=RML1010172202.1.2.3.0,Phases=3,Linecode=CABBTG12_4_3_3,Length=0.029000000,Units=km
new line.RBT_10172208 bus1=BBT143707792.1.2.3.0,bus2=RML1010172208.1.2.3.0,Phases=3,Linecode=CABBTG12_4_3_3,Length=0.029000000,Units=km
new line.RBT_10172218 bus1=BBT687279.1.2.3.0,bus2=RML1010172218.1.2.3.0,Phases=3,Linecode=CABBTG12_4_3_3,Length=0.029000000,Units=km
new line.RBT_10172294 bus1=BBT77522008.1.2.3.0,bus2=RML1010172294.1.2.3.0,Phases=3,Linecode=CABBTG12_4_3_3,Length=0.029000000,Units=km
new line.RBT_10172298 bus1=BBT3438895.1.2.3.0,bus2=RML1010172298.1.2.3.0,Phases=3,Linecode=CABBTG12_4_3_3,Length=0.029000000,Units=km
new line.RBT_10172306 bus1=BBT3438895.1.2.3.0,bus2=RML1010172306.1.2.3.0,Phases=3,Linecode=CABBTG12_4_3_3,Length=0.029000000,Units=km
new line.RBT_10172342 bus1=BBT688105.1.2.3.0,bus2=RML1010172342.1.2.3.0,Phases=3,Linecode=CABBTG12_4_3_3,Length=0.029000000,Units=km
new line.RBT_10172559 bus1=BBT688105.1.2.3.0,bus2=RML1010172559.1.2.3.0,Phases=3,Linecode=CABBTG07_4_3_3,Length=0.029000000,Units=km
new line.RBT_10172561 bus1=BBT688105.1.2.3.0,bus2=RML1010172561.1.2.3.0,Phases=3,Linecode=CABBTG07_4_3_3,Length=0.029000000,Units=km
new line.RBT_10225705 bus1=BBT2210913.3.1.0,bus2=RML1010225705.3.1.0,Phases=2,Linecode=CABBTG05_4_2_2,Length=0.029000000,Units=km
new line.RBT_10225763 bus1=BBT3573407.1.2.0,bus2=RML1010225763.1.2.0,Phases=2,Linecode=CABBTG05_4_2_2,Length=0.017000000,Units=km
new line.RBT_10226000 bus1=BBT3162115.1.2.3.0,bus2=RML1010226000.1.2.3.0,Phases=3,Linecode=CABBTG07_4_3_3,Length=0.029000000,Units=km
new line.RBT_10226001 bus1=BBT3448863.2.3.0,bus2=RML1010226001.2.3.0,Phases=2,Linecode=CABBTG05_4_2_2,Length=0.029000000,Units=km
new line.RBT_10226144 bus1=BBT689379.1.2.3.0,bus2=RML1010226144.1.2.3.0,Phases=3,Linecode=CABBTG06_4_3_3,Length=0.029000000,Units=km
new line.RBT_10226465 bus1=BBT3448884.3.1.0,bus2=RML1010226465.3.1.0,Phases=2,Linecode=CABBTG05_4_2_2,Length=0.029000000,Units=km
new line.RBT_10127474 bus1=BBT940693.1.2.0,bus2=RML1010127474.1.2.0,Phases=2,Linecode=CABBTG05_4_2_2,Length=0.029000000,Units=km
new line.RBT_10127678 bus1=BBT716070.1.2.0,bus2=RML1010127678.1.2.0,Phases=2,Linecode=CABBTG05_4_2_2,Length=0.017000000,Units=km
new line.RBT_10127746 bus1=BBT2211410.1.2.0,bus2=RML1010127746.1.2.0,Phases=2,Linecode=CABBTG04_4_2_2,Length=0.029000000,Units=km
new line.RBT_10127857 bus1=BBT940693.1.2.0,bus2=RML1010127857.1.2.0,Phases=2,Linecode=CABBTG05_4_2_2,Length=0.029000000,Units=km
new line.RBT_10154689 bus1=BBT2301220.3.0,bus2=RML1010154689.3.0,Phases=1,Linecode=CABBTG02_4_1_1,Length=0.029000000,Units=km
new line.RBT_10154810 bus1=BBT2211529.1.0,bus2=RML1010154810.1.0,Phases=1,Linecode=CABBTG02_4_1_1,Length=0.029000000,Units=km
new line.RBT_10154972 bus1=BBT692326.3.0,bus2=RML1010154972.3.0,Phases=1,Linecode=CABBTG02_4_1_1,Length=0.029000000,Units=km