! manter este comentario para compatibilidade do C#
new circuit.alimJFAO803 bus1=BMT175928978,basekv=22.000000000,pu=1.040000000,r1=0,x1=0.0001

