new line.1016692 bus1=BBT1050019.1.2.0,bus2=BBT1050026.1.2.0,Phases=2,Linecode=BT807_BT807_4_2_3,Length=0.034066000,Units=km
new line.1016699 bus1=BBT1050026.1.2.0,bus2=BBT1050033.1.2.0,Phases=2,Linecode=BT807_BT807_4_2_3,Length=0.038126000,Units=km
new line.1016706 bus1=BBT1050033.1.2.0,bus2=BBT1050040.1.2.0,Phases=2,Linecode=BT807_BT807_4_2_3,Length=0.036777000,Units=km
new line.1016720 bus1=BBT1050054.1.2.0,bus2=BBT1050047.1.2.0,Phases=2,Linecode=BT807_BT807_4_2_3,Length=0.040369000,Units=km
new line.1016727 bus1=BBT1050061.1.2.0,bus2=BBT1050054.1.2.0,Phases=2,Linecode=BT807_BT807_4_2_3,Length=0.017808000,Units=km
new line.1016734 bus1=BBT1050054.1.2.0,bus2=BBT4601693.1.2.0,Phases=2,Linecode=BT807_BT807_4_2_3,Length=0.016405000,Units=km
new line.1016741 bus1=BBT1050061.1.2.0,bus2=BBT1050068.1.2.0,Phases=2,Linecode=BT807_BT807_4_2_3,Length=0.032656000,Units=km
new line.1016748 bus1=BBT1050068.1.2.0,bus2=BBT1050075.1.2.0,Phases=2,Linecode=BT807_BT807_4_2_3,Length=0.008002000,Units=km
new line.1016755 bus1=BBT1050075.1.2.0,bus2=BBT1050082.1.2.0,Phases=2,Linecode=BT807_BT807_4_2_3,Length=0.035391000,Units=km
new line.1016762 bus1=BBT1050082.1.2.0,bus2=BBT1050089.1.2.0,Phases=2,Linecode=BT807_BT807_4_2_3,Length=0.031897000,Units=km
new line.1016776 bus1=BBT4601665.1.2.0,bus2=BBT1050110.1.2.0,Phases=2,Linecode=BT807_BT807_4_2_3,Length=0.039454000,Units=km
new line.1016825 bus1=BBT1050145.1.2.0,bus2=BBT1050152.1.2.0,Phases=2,Linecode=BT521_BT521_7_2_1,Length=0.000501000,Units=km
new line.1016832 bus1=BBT1050152.1.2.0,bus2=BBT2176725.1.2.0,Phases=2,Linecode=BT108_BT107_7_2_1,Length=0.048393000,Units=km
new line.1016839 bus1=BBT1050152.1.2.0,bus2=BBT2176767.1.2.0,Phases=2,Linecode=BT108_BT107_7_2_1,Length=0.031787000,Units=km
new line.1016909 bus1=BBT1050229.1.2.0,bus2=BBT1050236.1.2.0,Phases=2,Linecode=BT307_BT307_7_2_1,Length=0.000501000,Units=km
new line.1016958 bus1=BBT1050327.1.2.0,bus2=BBT1050334.1.2.0,Phases=2,Linecode=BT307_BT307_7_2_1,Length=0.000501000,Units=km
new line.1016965 bus1=BBT1050341.1.2.0,bus2=BBT1050348.1.2.0,Phases=2,Linecode=BT307_BT307_7_2_1,Length=0.000501000,Units=km
new line.1016972 bus1=BBT1050355.1.2.0,bus2=BBT1050362.1.2.0,Phases=2,Linecode=BT307_BT307_7_2_1,Length=0.000501000,Units=km
new line.1016979 bus1=BBT1050369.1.2.0,bus2=BBT1050376.1.2.0,Phases=2,Linecode=BT307_BT307_7_2_1,Length=0.000501000,Units=km
new line.1016986 bus1=BBT1050383.1.2.0,bus2=BBT1050390.1.2.0,Phases=2,Linecode=BT307_BT307_7_2_1,Length=0.000501000,Units=km
new line.1017042 bus1=BBT1050495.1.2.0,bus2=BBT1050502.1.2.0,Phases=2,Linecode=BT307_BT307_7_2_1,Length=0.000501000,Units=km
new line.1017049 bus1=BBT1050509.1.2.0,bus2=BBT1050516.1.2.0,Phases=2,Linecode=BT307_BT307_7_2_1,Length=0.000501000,Units=km
new line.1017308 bus1=BBT1050908.1.2.0,bus2=BBT1050915.1.2.0,Phases=2,Linecode=BT307_BT307_7_2_1,Length=0.000501000,Units=km
new line.1017343 bus1=BBT1050978.1.2.0,bus2=BBT1050985.1.2.0,Phases=2,Linecode=BT307_BT307_7_2_1,Length=0.000501000,Units=km
new line.1017350 bus1=BBT1050992.1.2.0,bus2=BBT1050999.1.2.0,Phases=2,Linecode=BT307_BT307_7_2_1,Length=0.000501000,Units=km
new line.1017357 bus1=BBT1051006.1.2.0,bus2=BBT1051013.1.2.0,Phases=2,Linecode=BT307_BT307_7_2_1,Length=0.000501000,Units=km
new line.1017364 bus1=BBT1051020.1.2.0,bus2=BBT1051027.1.2.0,Phases=2,Linecode=BT307_BT307_7_2_1,Length=0.000501000,Units=km
new line.1017371 bus1=BBT1051027.1.0,bus2=BBT1051034.1.0,Phases=1,Linecode=BT106_BT106_7_1_1,Length=0.060840000,Units=km
new line.1017378 bus1=BBT1051027.1.2.0,bus2=BBT1051041.1.2.0,Phases=2,Linecode=BT106_BT106_7_2_1,Length=0.067095000,Units=km
new line.1017385 bus1=BBT1051048.1.2.0,bus2=BBT1051055.1.2.0,Phases=2,Linecode=BT307_BT307_7_2_1,Length=0.000501000,Units=km
new line.1017392 bus1=BBT1051055.1.2.0,bus2=BBT1051062.1.2.0,Phases=2,Linecode=BT106_BT106_7_2_1,Length=0.031629000,Units=km
new line.1017399 bus1=BBT1051069.1.2.0,bus2=BBT1051076.1.2.0,Phases=2,Linecode=BT307_BT307_7_2_1,Length=0.000501000,Units=km
new line.1017406 bus1=BBT1051083.1.2.0,bus2=BBT1051090.1.2.0,Phases=2,Linecode=BT307_BT307_7_2_1,Length=0.000501000,Units=km
new line.1017413 bus1=BBT1051097.1.2.0,bus2=BBT1051104.1.2.0,Phases=2,Linecode=BT307_BT307_7_2_1,Length=0.000501000,Units=km
new line.1017420 bus1=BBT1051111.1.2.0,bus2=BBT1051118.1.2.0,Phases=2,Linecode=BT307_BT307_7_2_1,Length=0.000501000,Units=km
new line.1017427 bus1=BBT1051125.1.2.0,bus2=BBT1051132.1.2.0,Phases=2,Linecode=BT307_BT307_7_2_1,Length=0.000501000,Units=km
new line.1017434 bus1=BBT1051139.1.2.0,bus2=BBT1051146.1.2.0,Phases=2,Linecode=BT307_BT307_7_2_1,Length=0.000501000,Units=km
new line.1017441 bus1=BBT1051153.1.2.0,bus2=BBT1051160.1.2.0,Phases=2,Linecode=BT307_BT307_7_2_1,Length=0.000501000,Units=km
new line.1017448 bus1=BBT1051160.1.2.0,bus2=BBT1051167.1.2.0,Phases=2,Linecode=BT107_BT107_7_2_1,Length=0.031629000,Units=km
new line.1017455 bus1=BBT1051160.1.2.0,bus2=BBT1051188.1.2.0,Phases=2,Linecode=BT107_BT107_7_2_1,Length=0.044730000,Units=km
new line.1017469 bus1=BBT1051167.1.2.0,bus2=BBT1051174.1.2.0,Phases=2,Linecode=BT107_BT107_7_2_1,Length=0.040008000,Units=km
new line.1017476 bus1=BBT1051174.1.2.0,bus2=BBT1051181.1.2.0,Phases=2,Linecode=BT107_BT107_7_2_1,Length=0.050010000,Units=km
new line.1017483 bus1=BBT1051188.1.2.0,bus2=BBT1051195.1.2.0,Phases=2,Linecode=BT107_BT107_7_2_1,Length=0.031629000,Units=km
new line.1017490 bus1=BBT1051188.1.2.0,bus2=BBT1051216.1.2.0,Phases=2,Linecode=BT106_BT106_7_2_1,Length=0.022365000,Units=km
new line.1017497 bus1=BBT1051195.1.2.0,bus2=BBT1051202.1.2.0,Phases=2,Linecode=BT107_BT107_7_2_1,Length=0.051000000,Units=km
new line.1017504 bus1=BBT1051202.1.2.0,bus2=BBT1051209.1.2.0,Phases=2,Linecode=BT106_BT106_7_2_1,Length=0.040008000,Units=km
new line.1017511 bus1=BBT1051216.1.2.0,bus2=BBT1051223.1.2.0,Phases=2,Linecode=BT106_BT106_7_2_1,Length=0.042728000,Units=km
new line.1017518 bus1=BBT1051223.1.2.0,bus2=BBT1051230.1.2.0,Phases=2,Linecode=BT106_BT106_7_2_1,Length=0.033548000,Units=km
new line.1017525 bus1=BBT1051237.1.2.0,bus2=BBT1051244.1.2.0,Phases=2,Linecode=BT307_BT307_7_2_1,Length=0.000501000,Units=km
new line.1017532 bus1=BBT1051251.1.2.0,bus2=BBT1051258.1.2.0,Phases=2,Linecode=BT307_BT307_7_2_1,Length=0.000501000,Units=km
new line.1017539 bus1=BBT1051265.1.2.0,bus2=BBT1051272.1.2.0,Phases=2,Linecode=BT307_BT307_7_2_1,Length=0.000501000,Units=km
new line.1017546 bus1=BBT1051279.1.2.0,bus2=BBT1051286.1.2.0,Phases=2,Linecode=BT508_BT508_7_2_1,Length=0.000501000,Units=km
new line.1017553 bus1=BBT1051286.1.2.0,bus2=BBT1051293.1.2.0,Phases=2,Linecode=BT808_BT808_4_2_3,Length=0.031629000,Units=km
new line.1017560 bus1=BBT1051293.1.2.0,bus2=BBT1051300.1.2.0,Phases=2,Linecode=BT808_BT808_4_2_3,Length=0.030420000,Units=km
new line.1017567 bus1=BBT1051300.1.2.0,bus2=BBT2404050.1.2.0,Phases=2,Linecode=BT808_BT808_4_2_3,Length=0.047433000,Units=km
new line.1017574 bus1=BBT1051307.1.2.0,bus2=BBT1051314.1.2.0,Phases=2,Linecode=BT507_BT507_7_2_1,Length=0.000501000,Units=km
new line.1017581 bus1=BBT1051321.1.2.0,bus2=BBT1051328.1.2.0,Phases=2,Linecode=BT307_BT307_7_2_1,Length=0.000501000,Units=km
new line.1017588 bus1=BBT1051335.1.2.0,bus2=BBT1051342.1.2.0,Phases=2,Linecode=BT307_BT307_7_2_1,Length=0.000501000,Units=km
new line.1017595 bus1=BBT1051349.1.2.0,bus2=BBT1051356.1.2.0,Phases=2,Linecode=BT307_BT307_7_2_1,Length=0.000501000,Units=km
new line.1038623 bus1=BBT1080994.1.2.0,bus2=BBT1081001.1.2.0,Phases=2,Linecode=BT521_BT521_7_2_1,Length=0.000501000,Units=km
new line.1038861 bus1=BBT1081365.1.2.3.0,bus2=BBT1081372.1.2.3.0,Phases=3,Linecode=BT514_BT514_7_3_1,Length=0.000501000,Units=km
new line.1038966 bus1=BBT1081519.1.2.3.0,bus2=BBT902452.1.2.3.0,Phases=3,Linecode=BT803_BT803_4_3_4,Length=0.034790000,Units=km
new line.1038980 bus1=BBT1081526.1.2.3.0,bus2=BBT1081519.1.2.3.0,Phases=3,Linecode=BT803_BT803_4_3_4,Length=0.028796000,Units=km
new line.1038987 bus1=BBT1081533.1.2.3.0,bus2=BBT1081526.1.2.3.0,Phases=3,Linecode=BT803_BT803_4_3_4,Length=0.025965000,Units=km
new line.1038994 bus1=BBT1081540.1.2.3.0,bus2=BBT1081533.1.2.3.0,Phases=3,Linecode=BT803_BT803_4_3_4,Length=0.031325000,Units=km
new line.1039001 bus1=BBT1081554.1.2.3.0,bus2=BBT1081540.1.2.3.0,Phases=3,Linecode=BT803_BT803_4_3_4,Length=0.025004000,Units=km
new line.1039008 bus1=BBT1081498.1.2.3.0,bus2=BBT1081554.1.2.3.0,Phases=3,Linecode=BT313_BT313_7_3_1,Length=0.000501000,Units=km
new line.1039015 bus1=BBT1081554.1.2.3.0,bus2=BBT1081568.1.2.3.0,Phases=3,Linecode=BT108_BT107_7_3_1,Length=0.021844000,Units=km
new line.1039022 bus1=BBT1081561.1.2.3.0,bus2=BBT1081547.1.2.3.0,Phases=3,Linecode=BT803_BT803_4_3_4,Length=0.014767000,Units=km
new line.1039029 bus1=BBT1081561.1.2.3.0,bus2=BBT1081624.1.2.3.0,Phases=3,Linecode=BT809_BT809_4_3_4,Length=0.020884000,Units=km
new line.1039036 bus1=BBT1081568.1.2.3.0,bus2=BBT1081561.1.2.3.0,Phases=3,Linecode=BT803_BT803_4_3_4,Length=0.034019000,Units=km
new line.1039043 bus1=BBT1081568.1.2.3.0,bus2=BBT1081596.1.2.3.0,Phases=3,Linecode=BT108_BT107_7_3_1,Length=0.031958000,Units=km
new line.1039050 bus1=BBT1081582.1.2.3.0,bus2=BBT1081575.1.2.3.0,Phases=3,Linecode=BT803_BT803_4_3_4,Length=0.028465000,Units=km
new line.1039057 bus1=BBT1081589.1.2.3.0,bus2=BBT1081582.1.2.3.0,Phases=3,Linecode=BT803_BT803_4_3_4,Length=0.031053000,Units=km
new line.1039064 bus1=BBT1081596.1.2.3.0,bus2=BBT1081505.1.2.3.0,Phases=3,Linecode=BT108_BT107_7_3_1,Length=0.015036000,Units=km
new line.1039071 bus1=BBT1081596.1.2.3.0,bus2=BBT1081603.1.2.3.0,Phases=3,Linecode=BT803_BT803_4_3_4,Length=0.028640000,Units=km
new line.1039078 bus1=BBT1081603.1.2.3.0,bus2=BBT1081589.1.2.3.0,Phases=3,Linecode=BT803_BT803_4_3_4,Length=0.029618000,Units=km
new line.1039085 bus1=BBT1081617.1.2.3.0,bus2=BBT1081610.1.2.3.0,Phases=3,Linecode=BT809_BT809_4_3_4,Length=0.018871000,Units=km
new line.1039092 bus1=BBT1081624.1.2.3.0,bus2=BBT1081617.1.2.3.0,Phases=3,Linecode=BT809_BT809_4_3_4,Length=0.038606000,Units=km
new line.1039099 bus1=BBT1081624.1.2.3.0,bus2=BBT2314828.1.2.3.0,Phases=3,Linecode=BT809_BT809_4_3_4,Length=0.020619000,Units=km
new line.1040086 bus1=BBT1082737.1.2.3.0,bus2=BBT1082730.1.2.3.0,Phases=3,Linecode=BT809_BT809_4_3_4,Length=0.029971000,Units=km
new line.1040093 bus1=BBT1082744.1.2.3.0,bus2=BBT1082737.1.2.3.0,Phases=3,Linecode=BT809_BT809_4_3_4,Length=0.038903000,Units=km
new line.1040100 bus1=BBT1082751.1.2.3.0,bus2=BBT1082744.1.2.3.0,Phases=3,Linecode=BT803_BT803_4_3_4,Length=0.032990000,Units=km
new line.1040107 bus1=BBT1082758.1.2.3.0,bus2=BBT1082751.1.2.3.0,Phases=3,Linecode=BT803_BT803_4_3_4,Length=0.034210000,Units=km
new line.1040114 bus1=BBT1082765.1.2.3.0,bus2=BBT1082758.1.2.3.0,Phases=3,Linecode=BT803_BT803_4_3_4,Length=0.026575000,Units=km
new line.1040121 bus1=BBT1082772.1.2.3.0,bus2=BBT1082765.1.2.3.0,Phases=3,Linecode=BT803_BT803_4_3_4,Length=0.030088000,Units=km
new line.1040128 bus1=BBT1082779.1.2.3.0,bus2=BBT1082772.1.2.3.0,Phases=3,Linecode=BT803_BT803_4_3_4,Length=0.019212000,Units=km
new line.1040135 bus1=BBT1082723.1.2.3.0,bus2=BBT1082779.1.2.3.0,Phases=3,Linecode=BT508_BT508_7_3_1,Length=0.000501000,Units=km
new line.1040142 bus1=BBT1082779.1.2.3.0,bus2=BBT1082786.1.2.3.0,Phases=3,Linecode=BT803_BT803_4_3_4,Length=0.026911000,Units=km
new line.1040149 bus1=BBT1082786.1.2.3.0,bus2=BBT1082793.1.2.3.0,Phases=3,Linecode=BT803_BT803_4_3_4,Length=0.029703000,Units=km
new line.1040156 bus1=BBT1082793.1.2.3.0,bus2=BBT1082800.1.2.3.0,Phases=3,Linecode=BT803_BT803_4_3_4,Length=0.022207000,Units=km
new line.1040163 bus1=BBT1082800.1.2.3.0,bus2=BBT1082807.1.2.3.0,Phases=3,Linecode=BT803_BT803_4_3_4,Length=0.026081000,Units=km
new line.1040275 bus1=BBT1082954.1.2.3.0,bus2=BBT1082982.1.2.3.0,Phases=3,Linecode=BT803_BT803_4_3_4,Length=0.029551000,Units=km
new line.1040282 bus1=BBT1082954.1.2.3.0,bus2=BBT1082947.1.2.3.0,Phases=3,Linecode=BT803_BT803_4_3_4,Length=0.032654000,Units=km
new line.1040289 bus1=BBT1082961.1.2.3.0,bus2=BBT1082954.1.2.3.0,Phases=3,Linecode=BT803_BT803_4_3_4,Length=0.012208000,Units=km
new line.1040296 bus1=BBT1082968.1.2.3.0,bus2=BBT1082961.1.2.3.0,Phases=3,Linecode=BT803_BT803_4_3_4,Length=0.033531000,Units=km
new line.1040303 bus1=BBT1082975.1.2.3.0,bus2=BBT1082968.1.2.3.0,Phases=3,Linecode=BT803_BT803_4_3_4,Length=0.021843000,Units=km
new line.1040310 bus1=BBT1082940.1.2.3.0,bus2=BBT1082975.1.2.3.0,Phases=3,Linecode=BT521_BT521_7_3_1,Length=0.000501000,Units=km
new line.1040317 bus1=BBT1082975.1.2.3.0,bus2=BBT1082989.1.2.3.0,Phases=3,Linecode=BT803_BT803_4_3_4,Length=0.024045000,Units=km
new line.1040331 bus1=BBT1082989.1.2.3.0,bus2=BBT1082996.1.2.3.0,Phases=3,Linecode=BT803_BT803_4_3_4,Length=0.020884000,Units=km
new line.1040338 bus1=BBT1082996.1.2.3.0,bus2=BBT1083003.1.2.3.0,Phases=3,Linecode=BT803_BT803_4_3_4,Length=0.036693000,Units=km
new line.1040345 bus1=BBT1083003.1.2.3.0,bus2=BBT1083010.1.2.3.0,Phases=3,Linecode=BT803_BT803_4_3_4,Length=0.034210000,Units=km
new line.1040352 bus1=BBT1083010.1.2.3.0,bus2=BBT1083024.1.2.3.0,Phases=3,Linecode=BT803_BT803_4_3_4,Length=0.013604000,Units=km
new line.1040359 bus1=BBT1083024.1.2.3.0,bus2=BBT1083017.1.2.3.0,Phases=3,Linecode=BT809_BT809_4_3_4,Length=0.011316000,Units=km
new line.1040366 bus1=BBT1083045.1.2.3.0,bus2=BBT1083073.1.2.3.0,Phases=3,Linecode=BT803_BT803_4_3_4,Length=0.026404000,Units=km
new line.1040373 bus1=BBT1083045.1.2.3.0,bus2=BBT1083038.1.2.3.0,Phases=3,Linecode=BT809_BT809_4_3_4,Length=0.025499000,Units=km
new line.1040380 bus1=BBT1083052.1.2.3.0,bus2=BBT1083045.1.2.3.0,Phases=3,Linecode=BT803_BT803_4_3_4,Length=0.034239000,Units=km
new line.1040387 bus1=BBT1083031.1.2.3.0,bus2=BBT1083052.1.2.3.0,Phases=3,Linecode=BT508_BT508_7_3_1,Length=0.000501000,Units=km
new line.1040394 bus1=BBT1083052.1.2.3.0,bus2=BBT1083059.1.2.3.0,Phases=3,Linecode=BT803_BT803_4_3_4,Length=0.024742000,Units=km
new line.1040401 bus1=BBT1083059.1.2.3.0,bus2=BBT1083066.1.2.3.0,Phases=3,Linecode=BT803_BT803_4_3_4,Length=0.023773000,Units=km
new line.1041080 bus1=BBT1083941.1.2.0,bus2=BBT1083948.1.2.0,Phases=2,Linecode=BT307_BT307_7_2_1,Length=0.000501000,Units=km
new line.1041430 bus1=BBT1084410.1.2.0,bus2=BBT1084417.1.2.0,Phases=2,Linecode=BT507_BT507_7_2_1,Length=0.000501000,Units=km
new line.1041472 bus1=BBT1084508.1.2.3.0,bus2=BBT1084522.1.2.3.0,Phases=3,Linecode=BT108_BT107_7_3_1,Length=0.019650000,Units=km
new line.1041479 bus1=BBT4914061.1.2.3.0,bus2=BBT1084501.1.2.3.0,Phases=3,Linecode=BT108_BT107_7_3_1,Length=0.007812000,Units=km
new line.1041486 bus1=BBT1084494.1.2.3.0,bus2=BBT4914061.1.2.3.0,Phases=3,Linecode=BT514_BT514_7_3_1,Length=0.000501000,Units=km
new line.1041493 bus1=BBT4914061.1.2.3.0,bus2=BBT1084536.1.2.3.0,Phases=3,Linecode=BT108_BT107_7_3_1,Length=0.027463000,Units=km
new line.1041507 bus1=BBT1084522.1.2.3.0,bus2=BBT1084529.1.2.3.0,Phases=3,Linecode=BT108_BT107_7_3_1,Length=0.025714000,Units=km
new line.1006598 bus1=BBT1038119.1.2.0,bus2=BBT1038126.1.2.0,Phases=2,Linecode=BT307_BT307_7_2_1,Length=0.000501000,Units=km
new line.1006605 bus1=BBT1038133.1.2.0,bus2=BBT1038140.1.2.0,Phases=2,Linecode=BT507_BT507_7_2_1,Length=0.000501000,Units=km
new line.1006612 bus1=BBT1038147.1.2.0,bus2=BBT1038154.1.2.0,Phases=2,Linecode=BT507_BT507_7_2_1,Length=0.000501000,Units=km
new line.1006801 bus1=BBT1038350.1.2.0,bus2=BBT1038357.1.2.0,Phases=2,Linecode=BT507_BT507_7_2_1,Length=0.000501000,Units=km
new line.1007172 bus1=BBT1038847.1.2.0,bus2=BBT1038854.1.2.0,Phases=2,Linecode=BT512_BT512_7_2_1,Length=0.000501000,Units=km
new line.1007179 bus1=BBT1038854.1.2.0,bus2=BBT1038861.1.2.0,Phases=2,Linecode=BT801_BT801_4_2_3,Length=0.038595000,Units=km
new line.1007186 bus1=BBT1038854.1.2.0,bus2=BBT1038889.1.2.0,Phases=2,Linecode=BT801_BT801_4_2_3,Length=0.046107000,Units=km
new line.1007193 bus1=BBT1038861.1.2.0,bus2=BBT1038868.1.2.0,Phases=2,Linecode=BT801_BT801_4_2_3,Length=0.076258000,Units=km
new line.1007200 bus1=BBT1038868.1.2.0,bus2=BBT1038875.1.2.0,Phases=2,Linecode=BT801_BT801_4_2_3,Length=0.036408000,Units=km
new line.1007207 bus1=BBT1038875.1.2.0,bus2=BBT1038882.1.2.0,Phases=2,Linecode=BT801_BT801_4_2_3,Length=0.053546000,Units=km
new line.1007214 bus1=BBT1038889.1.2.0,bus2=BBT1038896.1.2.0,Phases=2,Linecode=BT801_BT801_4_2_3,Length=0.042435000,Units=km
new line.1007221 bus1=BBT1038903.1.2.0,bus2=BBT1038910.1.2.0,Phases=2,Linecode=BT512_BT512_7_2_1,Length=0.000501000,Units=km
new line.1007228 bus1=BBT1038910.1.2.0,bus2=BBT1038917.1.2.0,Phases=2,Linecode=BT801_BT801_4_2_3,Length=0.059417000,Units=km
new line.1007235 bus1=BBT1038910.1.2.0,bus2=BBT1038938.1.2.0,Phases=2,Linecode=BT801_BT801_4_2_3,Length=0.051000000,Units=km
new line.1007242 bus1=BBT1038917.1.2.0,bus2=BBT1038924.1.2.0,Phases=2,Linecode=BT801_BT801_4_2_3,Length=0.044607000,Units=km
new line.1007249 bus1=BBT1038917.1.2.0,bus2=BBT1038973.1.2.0,Phases=2,Linecode=BT801_BT801_4_2_3,Length=0.032022000,Units=km
new line.1007256 bus1=BBT1038924.1.2.0,bus2=BBT1038931.1.2.0,Phases=2,Linecode=BT801_BT801_4_2_3,Length=0.062949000,Units=km
new line.1007263 bus1=BBT1038938.1.2.0,bus2=BBT1038945.1.2.0,Phases=2,Linecode=BT801_BT801_4_2_3,Length=0.090018000,Units=km
new line.1007270 bus1=BBT1038938.1.2.0,bus2=BBT1038952.1.2.0,Phases=2,Linecode=BT801_BT801_4_2_3,Length=0.082016000,Units=km
new line.1007277 bus1=BBT1038952.1.2.0,bus2=BBT1038959.1.2.0,Phases=2,Linecode=BT801_BT801_4_2_3,Length=0.088584000,Units=km
new line.1007291 bus1=BBT1038959.1.2.0,bus2=BBT1038966.1.2.0,Phases=2,Linecode=BT801_BT801_4_2_3,Length=0.075308000,Units=km
new line.1007473 bus1=BBT1039169.1.2.0,bus2=BBT1039176.1.2.0,Phases=2,Linecode=BT512_BT512_7_2_1,Length=0.000501000,Units=km
new line.1007480 bus1=BBT1039183.1.2.0,bus2=BBT1039190.1.2.0,Phases=2,Linecode=BT512_BT512_7_2_1,Length=0.000501000,Units=km
new line.1007487 bus1=BBT1039190.1.2.0,bus2=BBT1039197.1.2.0,Phases=2,Linecode=BT801_BT801_4_2_3,Length=0.042435000,Units=km
new line.1007494 bus1=BBT1039197.1.2.0,bus2=BBT1039204.1.2.0,Phases=2,Linecode=BT801_BT801_4_2_3,Length=0.031629000,Units=km
new line.1007501 bus1=BBT1039211.1.2.0,bus2=BBT1039218.1.2.0,Phases=2,Linecode=BT512_BT512_7_2_1,Length=0.000501000,Units=km
new line.1007508 bus1=BBT1039218.1.2.0,bus2=BBT1039225.1.2.0,Phases=2,Linecode=BT801_BT801_4_2_3,Length=0.041239000,Units=km
new line.1007515 bus1=BBT1039218.1.2.0,bus2=BBT1039239.1.2.0,Phases=2,Linecode=BT801_BT801_4_2_3,Length=0.041239000,Units=km
new line.1007522 bus1=BBT1039225.1.2.0,bus2=BBT1039232.1.2.0,Phases=2,Linecode=BT801_BT801_4_2_3,Length=0.052212000,Units=km
new line.1007529 bus1=BBT1039239.1.2.0,bus2=BBT1039246.1.2.0,Phases=2,Linecode=BT801_BT801_4_2_3,Length=0.050010000,Units=km
new line.1007550 bus1=BBT1039253.1.2.0,bus2=BBT1039260.1.2.0,Phases=2,Linecode=BT512_BT512_7_2_1,Length=0.000501000,Units=km
new line.1007557 bus1=BBT1039260.1.2.0,bus2=BBT1039267.1.2.0,Phases=2,Linecode=BT801_BT801_4_2_3,Length=0.038126000,Units=km
new line.1007564 bus1=BBT1039260.1.2.0,bus2=BBT1039274.1.2.0,Phases=2,Linecode=BT801_BT801_4_2_3,Length=0.040616000,Units=km
new line.1007571 bus1=BBT1039274.1.2.0,bus2=BBT1039281.1.2.0,Phases=2,Linecode=BT801_BT801_4_2_3,Length=0.042199000,Units=km
new line.1007578 bus1=BBT1039281.1.2.0,bus2=BBT1039288.1.2.0,Phases=2,Linecode=BT801_BT801_4_2_3,Length=0.039123000,Units=km
new line.1007585 bus1=BBT1039295.1.2.0,bus2=BBT1039302.1.2.0,Phases=2,Linecode=BT512_BT512_7_2_1,Length=0.000501000,Units=km
new line.1007592 bus1=BBT1039309.1.2.0,bus2=BBT1039316.1.2.0,Phases=2,Linecode=BT512_BT512_7_2_1,Length=0.000501000,Units=km
new line.1007620 bus1=BBT1039365.1.2.0,bus2=BBT1039372.1.2.0,Phases=2,Linecode=BT521_BT521_7_2_1,Length=0.000501000,Units=km
new line.1007627 bus1=BBT1039372.1.2.0,bus2=BBT2191348.1.2.0,Phases=2,Linecode=BT108_BT107_7_2_1,Length=0.024602000,Units=km
new line.1007634 bus1=BBT1039372.1.2.0,bus2=BBT2191341.1.2.0,Phases=2,Linecode=BT108_BT107_7_2_1,Length=0.029553000,Units=km
new line.1007914 bus1=BBT1039785.1.2.0,bus2=BBT1039792.1.2.0,Phases=2,Linecode=BT507_BT507_7_2_1,Length=0.000501000,Units=km
new line.1007921 bus1=BBT1039792.1.2.0,bus2=BBT1039799.1.2.0,Phases=2,Linecode=BT106_BT106_7_2_1,Length=0.039057000,Units=km
new line.1007928 bus1=BBT1039799.1.2.0,bus2=BBT1039806.1.2.0,Phases=2,Linecode=BT106_BT106_7_2_1,Length=0.029073000,Units=km
new line.1007935 bus1=BBT1039813.1.2.0,bus2=BBT1039820.1.2.0,Phases=2,Linecode=BT507_BT507_7_2_1,Length=0.000501000,Units=km
new line.1007942 bus1=BBT1039820.1.2.0,bus2=BBT1039827.1.2.0,Phases=2,Linecode=BT106_BT106_7_2_1,Length=0.033247000,Units=km
new line.1007949 bus1=BBT1039827.1.2.0,bus2=BBT1039834.1.2.0,Phases=2,Linecode=BT106_BT106_7_2_1,Length=0.039856000,Units=km
new line.1007977 bus1=BBT1039855.1.2.0,bus2=BBT1039862.1.2.0,Phases=2,Linecode=BT507_BT507_7_2_1,Length=0.000501000,Units=km
new line.1007984 bus1=BBT1039869.1.2.0,bus2=BBT1039876.1.2.0,Phases=2,Linecode=BT507_BT507_7_2_1,Length=0.000501000,Units=km
new line.1007991 bus1=BBT1039876.1.2.0,bus2=BBT1980886.1.2.0,Phases=2,Linecode=BT106_BT106_7_2_1,Length=0.028289000,Units=km
new line.1007998 bus1=BBT1039883.1.2.0,bus2=BBT1039890.1.2.0,Phases=2,Linecode=BT507_BT507_7_2_1,Length=0.000501000,Units=km
new line.1008005 bus1=BBT1039890.1.2.0,bus2=BBT1039897.1.2.0,Phases=2,Linecode=BT106_BT106_7_2_1,Length=0.081036000,Units=km
new line.1008012 bus1=BBT1039904.1.2.0,bus2=BBT1039911.1.2.0,Phases=2,Linecode=BT507_BT507_7_2_1,Length=0.000501000,Units=km
new line.1008019 bus1=BBT1039911.1.0,bus2=BBT3632585.1.0,Phases=1,Linecode=BT816_BT816_4_1_2,Length=0.030071000,Units=km
new line.1008026 bus1=BBT1039918.1.2.0,bus2=BBT1039925.1.2.0,Phases=2,Linecode=BT507_BT507_7_2_1,Length=0.000501000,Units=km
new line.1008033 bus1=BBT1039932.1.2.0,bus2=BBT1039939.1.2.0,Phases=2,Linecode=BT507_BT507_7_2_1,Length=0.000501000,Units=km
new line.1008040 bus1=BBT1039939.1.2.0,bus2=BBT1039946.1.2.0,Phases=2,Linecode=BT106_BT106_7_2_1,Length=0.050007000,Units=km
new line.1008047 bus1=BBT1039939.1.2.0,bus2=BBT1039953.1.2.0,Phases=2,Linecode=BT106_BT106_7_2_1,Length=0.060150000,Units=km
new line.1008054 bus1=BBT1039953.1.2.0,bus2=BBT1039960.1.2.0,Phases=2,Linecode=BT106_BT106_7_2_1,Length=0.079069000,Units=km
new line.1008061 bus1=BBT1039960.1.2.0,bus2=BBT1039967.1.2.0,Phases=2,Linecode=BT106_BT106_7_2_1,Length=0.060308000,Units=km
new line.1002930 bus1=BBT1033989.1.2.0,bus2=BBT1033996.1.2.0,Phases=2,Linecode=BT307_BT307_7_2_1,Length=0.000501000,Units=km
new line.1004302 bus1=BBT1035452.1.2.0,bus2=BBT1035459.1.2.0,Phases=2,Linecode=BT307_BT307_7_2_1,Length=0.000501000,Units=km
new line.1004309 bus1=BBT1035459.1.2.0,bus2=BBT1035466.1.2.0,Phases=2,Linecode=BT106_BT106_7_2_1,Length=0.050006000,Units=km
new line.1004316 bus1=BBT1035459.1.2.0,bus2=BBT1035473.1.2.0,Phases=2,Linecode=BT106_BT106_7_2_1,Length=0.053858000,Units=km
new line.1004323 bus1=BBT1035473.1.2.0,bus2=BBT1035480.1.2.0,Phases=2,Linecode=BT106_BT106_7_2_1,Length=0.044727000,Units=km
new line.1005002 bus1=BBT1036110.1.2.0,bus2=BBT1036117.1.2.0,Phases=2,Linecode=BT521_BT521_7_2_1,Length=0.000501000,Units=km
new line.1005009 bus1=BBT1036117.1.2.0,bus2=BBT2191705.1.2.0,Phases=2,Linecode=BT108_BT107_7_2_1,Length=0.039669000,Units=km
new line.1005016 bus1=BBT1036117.1.2.0,bus2=BBT2191733.1.2.0,Phases=2,Linecode=BT108_BT107_7_2_1,Length=0.040008000,Units=km
new line.10050753 bus1=BBT146537304.1.2.0,bus2=BBT146537311.1.2.0,Phases=2,Linecode=BT521_BT521_7_2_1,Length=0.000501000,Units=km
new line.1005079 bus1=BBT1036236.1.2.0,bus2=BBT1036229.1.2.0,Phases=2,Linecode=BT803_BT803_4_2_4,Length=0.030419000,Units=km
new line.1005086 bus1=BBT1036243.1.2.0,bus2=BBT1036236.1.2.0,Phases=2,Linecode=BT803_BT803_4_2_4,Length=0.030468000,Units=km
new line.1005100 bus1=BBT1036250.1.2.0,bus2=BBT1036243.1.2.0,Phases=2,Linecode=BT803_BT803_4_2_4,Length=0.032900000,Units=km
new line.1005107 bus1=BBT1036257.1.2.0,bus2=BBT1036250.1.2.0,Phases=2,Linecode=BT803_BT803_4_2_4,Length=0.029535000,Units=km
new line.1005114 bus1=BBT1036264.1.2.0,bus2=BBT1036257.1.2.0,Phases=2,Linecode=BT803_BT803_4_2_4,Length=0.031896000,Units=km
new line.1005121 bus1=BBT1036222.1.2.0,bus2=BBT1036264.1.2.0,Phases=2,Linecode=BT307_BT307_7_2_1,Length=0.000501000,Units=km
new line.1005128 bus1=BBT1036264.1.2.0,bus2=BBT1036271.1.2.0,Phases=2,Linecode=BT803_BT803_4_2_4,Length=0.032655000,Units=km
new line.1005135 bus1=BBT1036271.1.2.0,bus2=BBT1036278.1.2.0,Phases=2,Linecode=BT803_BT803_4_2_4,Length=0.025500000,Units=km
new line.1005142 bus1=BBT1036278.1.2.0,bus2=BBT1036285.1.2.0,Phases=2,Linecode=BT803_BT803_4_2_4,Length=0.041190000,Units=km
new line.1005149 bus1=BBT1036285.1.2.0,bus2=BBT1036292.1.2.0,Phases=2,Linecode=BT803_BT803_4_2_4,Length=0.035390000,Units=km
new line.1005156 bus1=BBT1036292.1.2.0,bus2=BBT1036299.1.2.0,Phases=2,Linecode=BT803_BT803_4_2_4,Length=0.033621000,Units=km
new line.1005163 bus1=BBT1036299.1.2.0,bus2=BBT1036313.1.2.0,Phases=2,Linecode=BT803_BT803_4_2_4,Length=0.035063000,Units=km
new line.1005170 bus1=BBT1036313.1.2.0,bus2=BBT1036306.1.2.0,Phases=2,Linecode=BT803_BT803_4_2_4,Length=0.035020000,Units=km
new line.1005303 bus1=BBT1036516.1.2.3.0,bus2=BBT1036579.1.2.3.0,Phases=3,Linecode=BT803_BT803_4_3_4,Length=0.025811000,Units=km
new line.1005310 bus1=BBT1036523.1.2.3.0,bus2=BBT1036509.1.2.3.0,Phases=3,Linecode=BT803_BT803_4_3_4,Length=0.026911000,Units=km
new line.1005317 bus1=BBT1036530.1.2.3.0,bus2=BBT1036516.1.2.3.0,Phases=3,Linecode=BT803_BT803_4_3_4,Length=0.029073000,Units=km
new line.1005324 bus1=BBT1036530.1.2.3.0,bus2=BBT1036523.1.2.3.0,Phases=3,Linecode=BT809_BT809_4_3_4,Length=0.027662000,Units=km
new line.1005331 bus1=BBT1036544.1.2.3.0,bus2=BBT1036530.1.2.3.0,Phases=3,Linecode=BT803_BT803_4_3_4,Length=0.024762000,Units=km
new line.1005338 bus1=BBT1036502.1.2.3.0,bus2=BBT1036544.1.2.3.0,Phases=3,Linecode=BT508_BT508_7_3_1,Length=0.000501000,Units=km
new line.1005345 bus1=BBT1036544.1.2.3.0,bus2=BBT1036551.1.2.3.0,Phases=3,Linecode=BT803_BT803_4_3_4,Length=0.026874000,Units=km
new line.1005352 bus1=BBT1036551.1.2.3.0,bus2=BBT1036537.1.2.3.0,Phases=3,Linecode=BT809_BT809_4_3_4,Length=0.029004000,Units=km
new line.1005359 bus1=BBT1074057.1.2.3.0,bus2=BBT1074064.1.2.3.0,Phases=3,Linecode=BT513_BT513_7_3_1,Length=0.000501000,Units=km
new line.1005366 bus1=BBT1036551.1.2.3.0,bus2=BBT1036558.1.2.3.0,Phases=3,Linecode=BT803_BT803_4_3_4,Length=0.033246000,Units=km
new line.1005373 bus1=BBT1036558.1.2.3.0,bus2=BBT1036565.1.2.3.0,Phases=3,Linecode=BT803_BT803_4_3_4,Length=0.019212000,Units=km
new line.1005380 bus1=BBT1036565.1.2.3.0,bus2=BBT1036572.1.2.3.0,Phases=3,Linecode=BT803_BT803_4_3_4,Length=0.026404000,Units=km
new line.10054246 bus1=BBT146670437.1.2.3.0,bus2=BBT910992.1.2.3.0,Phases=3,Linecode=BT803_BT803_4_3_4,Length=0.011707000,Units=km
new line.1005443 bus1=BBT1036684.1.2.3.0,bus2=BBT1036691.1.2.3.0,Phases=3,Linecode=BT803_BT803_4_3_4,Length=0.023434000,Units=km
new line.1005450 bus1=BBT1036691.1.2.3.0,bus2=BBT1036698.1.2.3.0,Phases=3,Linecode=BT809_BT809_4_3_4,Length=0.041779000,Units=km
new line.1005457 bus1=BBT1036698.1.2.3.0,bus2=BBT1036705.1.2.3.0,Phases=3,Linecode=BT809_BT809_4_3_4,Length=0.031832000,Units=km
new line.1005464 bus1=BBT1036712.1.2.3.0,bus2=BBT1036684.1.2.3.0,Phases=3,Linecode=BT803_BT803_4_3_4,Length=0.033843000,Units=km
new line.10054659 bus1=BBT146680580.1.2.0,bus2=BBT146680587.1.2.0,Phases=2,Linecode=BT521_BT521_7_2_1,Length=0.000501000,Units=km
new line.1005471 bus1=BBT1036719.1.2.3.0,bus2=BBT1036712.1.2.3.0,Phases=3,Linecode=BT803_BT803_4_3_4,Length=0.027463000,Units=km
new line.1005478 bus1=BBT1036719.1.2.0,bus2=BBT1036726.1.2.0,Phases=2,Linecode=BT107_BT107_7_2_1,Length=0.033020000,Units=km
new line.1005485 bus1=BBT1036733.1.2.3.0,bus2=BBT1036719.1.2.3.0,Phases=3,Linecode=BT803_BT803_4_3_4,Length=0.032393000,Units=km
new line.1005492 bus1=BBT1036677.1.2.3.0,bus2=BBT1036733.1.2.3.0,Phases=3,Linecode=BT508_BT508_7_3_1,Length=0.000501000,Units=km
new line.1005499 bus1=BBT1036733.1.2.3.0,bus2=BBT1036740.1.2.3.0,Phases=3,Linecode=BT803_BT803_4_3_4,Length=0.035516000,Units=km
new line.1005506 bus1=BBT1036740.1.2.3.0,bus2=BBT1036747.1.2.3.0,Phases=3,Linecode=BT803_BT803_4_3_4,Length=0.027861000,Units=km
new line.1005513 bus1=BBT1036747.1.2.3.0,bus2=BBT1036754.1.2.3.0,Phases=3,Linecode=BT803_BT803_4_3_4,Length=0.037127000,Units=km
new line.1005520 bus1=BBT1036768.1.2.0,bus2=BBT2402846.1.2.0,Phases=2,Linecode=BT808_BT808_4_2_3,Length=0.039057000,Units=km
new line.1005527 bus1=BBT1036775.1.2.0,bus2=BBT1036768.1.2.0,Phases=2,Linecode=BT107_BT106_7_2_1,Length=0.035810000,Units=km
new line.1005534 bus1=BBT1036782.1.2.0,bus2=BBT1036775.1.2.0,Phases=2,Linecode=BT108_BT108_7_2_1,Length=0.029703000,Units=km
new line.1005541 bus1=BBT1036761.1.2.0,bus2=BBT1036782.1.2.0,Phases=2,Linecode=BT507_BT507_7_2_1,Length=0.000501000,Units=km
new line.1005548 bus1=BBT1036782.1.2.0,bus2=BBT1036789.1.2.0,Phases=2,Linecode=BT108_BT108_7_2_1,Length=0.041018000,Units=km
new line.1005555 bus1=BBT157265037.1.2.0,bus2=BBT1036796.1.2.0,Phases=2,Linecode=BT107_BT106_7_2_1,Length=0.009489000,Units=km
new line.1005569 bus1=BBT1036796.1.2.0,bus2=BBT1036803.1.2.0,Phases=2,Linecode=BT107_BT106_7_2_1,Length=0.017265000,Units=km
new line.1005576 bus1=BBT1036803.1.2.0,bus2=BBT1036810.1.2.0,Phases=2,Linecode=BT107_BT106_7_2_1,Length=0.019701000,Units=km
new line.1005583 bus1=BBT1036824.1.2.0,bus2=BBT1036873.1.2.0,Phases=2,Linecode=BT108_BT108_7_2_1,Length=0.037953000,Units=km
new line.1005590 bus1=BBT1036831.1.2.0,bus2=BBT1036824.1.2.0,Phases=2,Linecode=BT108_BT108_7_2_1,Length=0.030875000,Units=km
new line.1005597 bus1=BBT1036838.1.2.0,bus2=BBT1036831.1.2.0,Phases=2,Linecode=BT108_BT108_7_2_1,Length=0.033111000,Units=km
new line.1008068 bus1=BBT1039967.1.2.0,bus2=BBT1039974.1.2.0,Phases=2,Linecode=BT106_BT106_7_2_1,Length=0.056364000,Units=km
new line.1008075 bus1=BBT1039981.1.2.0,bus2=BBT1039988.1.2.0,Phases=2,Linecode=BT507_BT507_7_2_1,Length=0.000501000,Units=km
new line.1008082 bus1=BBT1039988.1.2.0,bus2=BBT1039995.1.2.0,Phases=2,Linecode=BT106_BT106_7_2_1,Length=0.033307000,Units=km