new line.RML10057216 bus1=BBT914415.1.2.3.0,bus2=RML1060057216.1.2.3.0,Phases=3,Linecode=CABBTG06_4_3,Length=0.017000000,Units=km
new line.RML10057259 bus1=BBT922626.1.2.0,bus2=RML1060057259.1.2.0,Phases=2,Linecode=CABBTG05_4_2,Length=0.017000000,Units=km
new line.RML10114785 bus1=BBT901612.1.2.3.0,bus2=RML1060114785.1.2.3.0,Phases=3,Linecode=CABBTG06_4_3,Length=0.020000000,Units=km
new line.RML10114790 bus1=BBT901983.1.2.3.0,bus2=RML1060114790.1.2.3.0,Phases=3,Linecode=CABBTG06_4_3,Length=0.017000000,Units=km
new line.RML10116996 bus1=BBT900730.1.0,bus2=RML1060116996.1.0,Phases=1,Linecode=CABBTG02_4_1,Length=0.017000000,Units=km
new line.RML10117397 bus1=BBT6121344.1.2.0,bus2=RML1060117397.1.2.0,Phases=2,Linecode=CABBTG04_4_2,Length=0.017000000,Units=km
new line.RML10117417 bus1=BBT6121351.1.2.0,bus2=RML1060117417.1.2.0,Phases=2,Linecode=CABBTG04_4_2,Length=0.017000000,Units=km
new line.RML10117419 bus1=BBT6121253.1.2.0,bus2=RML1060117419.1.2.0,Phases=2,Linecode=CABBTG04_4_2,Length=0.017000000,Units=km
new line.RML10117424 bus1=BBT6121351.1.2.0,bus2=RML1060117424.1.2.0,Phases=2,Linecode=CABBTG04_4_2,Length=0.017000000,Units=km
new line.RML10117614 bus1=BBT1990126.1.2.0,bus2=RML1060117614.1.2.0,Phases=2,Linecode=CABBTG04_4_2,Length=0.017000000,Units=km
new line.RML10117630 bus1=BBT136218.1.2.0,bus2=RML1060117630.1.2.0,Phases=2,Linecode=CABBTG04_4_2,Length=0.017000000,Units=km
new line.RML10117740 bus1=BBT6121267.1.2.0,bus2=RML1060117740.1.2.0,Phases=2,Linecode=CABBTG04_4_2,Length=0.017000000,Units=km
new line.RML10118681 bus1=BBT146977.1.2.0,bus2=RML1060118681.1.2.0,Phases=2,Linecode=CABBTG05_4_2,Length=0.017000000,Units=km
new line.RML10118815 bus1=BBT921954.1.2.3.0,bus2=RML1060118815.1.2.3.0,Phases=3,Linecode=CABBTG06_4_3,Length=0.018000000,Units=km
new line.RML10118909 bus1=BBT79084.1.2.0,bus2=RML1060118909.1.2.0,Phases=2,Linecode=CABBTG05_4_2,Length=0.017000000,Units=km
new line.RML10118912 bus1=BBT1912370.1.2.0,bus2=RML1060118912.1.2.0,Phases=2,Linecode=CABBTG05_4_2,Length=0.017000000,Units=km
new line.RML10119106 bus1=BBT77047.1.2.0,bus2=RML1060119106.1.2.0,Phases=2,Linecode=CABBTG05_4_2,Length=0.017000000,Units=km
new line.RML10119370 bus1=BBT78741.1.2.0,bus2=RML1060119370.1.2.0,Phases=2,Linecode=CABBTG05_4_2,Length=0.017000000,Units=km
new line.RML10119385 bus1=BBT2404316.1.2.0,bus2=RML1060119385.1.2.0,Phases=2,Linecode=CABBTG05_4_2,Length=0.017000000,Units=km
new line.RML10121784 bus1=BBT1001201.1.0,bus2=RML1060121784.1.0,Phases=1,Linecode=CABBTG01_4_1,Length=0.017000000,Units=km
new line.RML10163100 bus1=BBT79763.1.2.0,bus2=RML1060163100.1.2.0,Phases=2,Linecode=CABBTG04_4_2,Length=0.017000000,Units=km
new line.RML10163101 bus1=BBT79763.1.2.0,bus2=RML1060163101.1.2.0,Phases=2,Linecode=CABBTG04_4_2,Length=0.017000000,Units=km
new line.RML10163107 bus1=BBT79784.1.2.0,bus2=RML1060163107.1.2.0,Phases=2,Linecode=CABBTG05_4_2,Length=0.017000000,Units=km
new line.RML10163197 bus1=BBT79476.1.2.0,bus2=RML1060163197.1.2.0,Phases=2,Linecode=CABBTG05_4_2,Length=0.017000000,Units=km
new line.RML10163282 bus1=BBT79672.1.2.0,bus2=RML1060163282.1.2.0,Phases=2,Linecode=CABBTG05_4_2,Length=0.017000000,Units=km
new line.RML10163370 bus1=BBT78055.2.0,bus2=RML1060163370.2.0,Phases=1,Linecode=CABBTG02_4_1,Length=0.017000000,Units=km
new line.RML10163411 bus1=BBT78741.1.2.0,bus2=RML1060163411.1.2.0,Phases=2,Linecode=CABBTG05_4_2,Length=0.017000000,Units=km
new line.RML10165138 bus1=BBT918293.1.0,bus2=RML1060165138.1.0,Phases=1,Linecode=CABBTG02_4_1,Length=0.017000000,Units=km
new line.RML10165153 bus1=BBT918293.1.2.3.0,bus2=RML1060165153.1.2.3.0,Phases=3,Linecode=CABBTG12_4_3,Length=0.017000000,Units=km
new line.RML10165156 bus1=BBT918699.1.0,bus2=RML1060165156.1.0,Phases=1,Linecode=CABBTG02_4_1,Length=0.017000000,Units=km
new line.RML10165161 bus1=BBT98713703.1.2.0,bus2=RML1060165161.1.2.0,Phases=2,Linecode=CABBTG05_4_2,Length=0.017000000,Units=km
new line.RML10165181 bus1=BBT919665.1.0,bus2=RML1060165181.1.0,Phases=1,Linecode=CABBTG02_4_1,Length=0.017000000,Units=km
new line.RML10165183 bus1=BBT3140926.1.0,bus2=RML1060165183.1.0,Phases=1,Linecode=CABBTG02_4_1,Length=0.017000000,Units=km
new line.RML10165210 bus1=BBT921884.1.2.3.0,bus2=RML1060165210.1.2.3.0,Phases=3,Linecode=CABBTG06_4_3,Length=0.036,Units=km
new line.RML10165214 bus1=BBT1083010.1.2.3.0,bus2=RML1060165214.1.2.3.0,Phases=3,Linecode=CABBTG06_4_3,Length=0.017000000,Units=km
new line.RML10165222 bus1=BBT921079.1.0,bus2=RML1060165222.1.0,Phases=1,Linecode=CABBTG02_4_1,Length=0.017000000,Units=km
new line.RML10165227 bus1=BBT921072.1.0,bus2=RML1060165227.1.0,Phases=1,Linecode=CABBTG02_4_1,Length=0.017000000,Units=km
new line.RML10165238 bus1=BBT894227.1.0,bus2=RML1060165238.1.0,Phases=1,Linecode=CABBTG02_4_1,Length=0.017000000,Units=km
new line.RML10168365 bus1=BBT912805.1.2.3.0,bus2=RML1060168365.1.2.3.0,Phases=3,Linecode=CABBTG06_4_3,Length=0.017000000,Units=km
new line.RML10168497 bus1=BBT915171.1.2.0,bus2=RML1060168497.1.2.0,Phases=2,Linecode=CABBTG05_4_2,Length=0.017000000,Units=km
new line.RML10168502 bus1=BBT915178.1.0,bus2=RML1060168502.1.0,Phases=1,Linecode=CABBTG02_4_1,Length=0.017000000,Units=km
new line.RML10168509 bus1=BBT917334.1.0,bus2=RML1060168509.1.0,Phases=1,Linecode=CABBTG02_4_1,Length=0.017000000,Units=km
new line.RML10168515 bus1=BBT915080.1.0,bus2=RML1060168515.1.0,Phases=1,Linecode=CABBTG02_4_1,Length=0.017000000,Units=km
new line.RML10168534 bus1=BBT893695.1.0,bus2=RML1060168534.1.0,Phases=1,Linecode=CABBTG02_4_1,Length=0.017000000,Units=km
new line.RML10168539 bus1=BBT893184.1.0,bus2=RML1060168539.1.0,Phases=1,Linecode=CABBTG02_4_1,Length=0.017000000,Units=km
new line.RML10168790 bus1=BBT2054295.1.0,bus2=RML1060168790.1.0,Phases=1,Linecode=CABBTG02_4_1,Length=0.017000000,Units=km
new line.RML10168794 bus1=BBT923662.1.2.3.0,bus2=RML1060168794.1.2.3.0,Phases=3,Linecode=CABBTG06_4_3,Length=0.017000000,Units=km
new line.RML10169107 bus1=BBT2315059.1.0,bus2=RML1060169107.1.0,Phases=1,Linecode=CABBTG01_4_1,Length=0.017000000,Units=km
new line.RML10169317 bus1=BBT907114.1.2.3.0,bus2=RML1060169317.1.2.3.0,Phases=3,Linecode=CABBTG06_4_3,Length=0.017000000,Units=km
new line.RML10169368 bus1=BBT922850.1.0,bus2=RML1060169368.1.0,Phases=1,Linecode=CABBTG01_4_1,Length=0.017000000,Units=km
new line.RML10169371 bus1=BBT914520.1.2.0,bus2=RML1060169371.1.2.0,Phases=2,Linecode=CABBTG05_4_2,Length=0.017000000,Units=km
new line.RML10169373 bus1=BBT920519.1.2.0,bus2=RML1060169373.1.2.0,Phases=2,Linecode=CABBTG05_4_2,Length=0.017000000,Units=km
new line.RML10169931 bus1=BBT898728.1.2.0,bus2=RML1060169931.1.2.0,Phases=2,Linecode=CABBTG05_4_2,Length=0.017000000,Units=km
new line.RML10169936 bus1=BBT922346.1.2.0,bus2=RML1060169936.1.2.0,Phases=2,Linecode=CABBTG05_4_2,Length=0.017000000,Units=km
new line.RML10170019 bus1=BBT910698.1.0,bus2=RML1060170019.1.0,Phases=1,Linecode=CABBTG02_4_1,Length=0.017000000,Units=km
new line.RML10170048 bus1=BBT902151.1.2.0,bus2=RML1060170048.1.2.0,Phases=2,Linecode=CABBTG05_4_2,Length=0.017000000,Units=km
new line.RML10170147 bus1=BBT2191481.1.0,bus2=RML1060170147.1.0,Phases=1,Linecode=CABBTG02_4_1,Length=0.017000000,Units=km
new line.RML10059075 bus1=BBT1062157.1.2.0,bus2=RML1060059075.1.2.0,Phases=2,Linecode=CABBTG05_4_2,Length=0.017000000,Units=km
new line.RML10059334 bus1=BBT923473.1.0,bus2=RML1060059334.1.0,Phases=1,Linecode=CABBTG02_4_1,Length=0.017000000,Units=km
new line.RML10060377 bus1=BBT901213.1.2.0,bus2=RML1060060377.1.2.0,Phases=2,Linecode=CABBTG05_4_2,Length=0.017000000,Units=km
new line.RML10060378 bus1=BBT901213.1.2.0,bus2=RML1060060378.1.2.0,Phases=2,Linecode=CABBTG05_4_2,Length=0.017000000,Units=km
new line.RML10060380 bus1=BBT900198.1.2.0,bus2=RML1060060380.1.2.0,Phases=2,Linecode=CABBTG05_4_2,Length=0.017000000,Units=km
new line.RML10061333 bus1=BBT913575.1.2.0,bus2=RML1060061333.1.2.0,Phases=2,Linecode=CABBTG05_4_2,Length=0.017000000,Units=km
new line.RML10062264 bus1=BBT912805.1.2.0,bus2=RML1060062264.1.2.0,Phases=2,Linecode=CABBTG05_4_2,Length=0.017000000,Units=km
new line.RML10063791 bus1=BBT909753.1.2.0,bus2=RML1060063791.1.2.0,Phases=2,Linecode=CABBTG05_4_2,Length=0.017000000,Units=km
new line.RML10126059 bus1=BBT900422.2.3.0,bus2=RML1060126059.2.3.0,Phases=2,Linecode=CABBTG05_4_2,Length=0.017000000,Units=km
new line.RML10127173 bus1=BBT906757.1.3.0,bus2=RML1060127173.1.3.0,Phases=2,Linecode=CABBTG05_4_2,Length=0.017000000,Units=km
new line.RML10127364 bus1=BBT919658.1.2.3.0,bus2=RML1060127364.1.2.3.0,Phases=3,Linecode=CABBTG06_4_3,Length=0.017000000,Units=km
new line.RML10127627 bus1=BBT918307.1.3.0,bus2=RML1060127627.1.3.0,Phases=2,Linecode=CABBTG05_4_2,Length=0.017000000,Units=km
new line.RML10128207 bus1=BBT917313.2.3.0,bus2=RML1060128207.2.3.0,Phases=2,Linecode=CABBTG05_4_2,Length=0.017000000,Units=km
new line.RML10129630 bus1=BBT77810.3.0,bus2=RML1060129630.3.0,Phases=1,Linecode=CABBTG02_4_1,Length=0.017000000,Units=km
new line.RML10129788 bus1=BBT79280.1.2.0,bus2=RML1060129788.1.2.0,Phases=2,Linecode=CABBTG05_4_2,Length=0.017000000,Units=km
new line.RML10188387 bus1=BBT1111171.1.0,bus2=RML1060188387.1.0,Phases=1,Linecode=CABBTG02_4_1,Length=0.017000000,Units=km
new line.RML10188729 bus1=BBT910341.1.2.3.0,bus2=RML1060188729.1.2.3.0,Phases=3,Linecode=CABBTG07_4_3,Length=0.017000000,Units=km
new line.RML10188779 bus1=BBT897846.1.0,bus2=RML1060188779.1.0,Phases=1,Linecode=CABBTG02_4_1,Length=0.017000000,Units=km
new line.RML10188891 bus1=BBT2580590.2.0,bus2=RML1060188891.2.0,Phases=1,Linecode=CABBTG02_4_1,Length=0.017000000,Units=km
new line.RML10188892 bus1=BBT920379.1.2.0,bus2=RML1060188892.1.2.0,Phases=2,Linecode=CABBTG05_4_2,Length=0.017000000,Units=km
new line.RML10188894 bus1=BBT907863.1.0,bus2=RML1060188894.1.0,Phases=1,Linecode=CABBTG02_4_1,Length=0.017000000,Units=km
new line.RML10188895 bus1=BBT3323563.1.2.0,bus2=RML1060188895.1.2.0,Phases=2,Linecode=CABBTG05_4_2,Length=0.017000000,Units=km
new line.RML10188896 bus1=BBT3439630.1.2.0,bus2=RML1060188896.1.2.0,Phases=2,Linecode=CABBTG04_4_2,Length=0.017000000,Units=km
new line.RML10188898 bus1=BBT1062143.2.0,bus2=RML1060188898.2.0,Phases=1,Linecode=CABBTG02_4_1,Length=0.017000000,Units=km
new line.RML10188899 bus1=BBT1036684.1.2.0,bus2=RML1060188899.1.2.0,Phases=2,Linecode=CABBTG05_4_2,Length=0.017000000,Units=km
new line.RML10188901 bus1=BBT2430888.1.2.0,bus2=RML1060188901.1.2.0,Phases=2,Linecode=CABBTG05_4_2,Length=0.017000000,Units=km
new line.RML10188906 bus1=BBT915059.1.2.0,bus2=RML1060188906.1.2.0,Phases=2,Linecode=CABBTG05_4_2,Length=0.017000000,Units=km
new line.RML10188907 bus1=BBT899232.1.2.0,bus2=RML1060188907.1.2.0,Phases=2,Linecode=CABBTG05_4_2,Length=0.017000000,Units=km
new line.RML10188910 bus1=BBT915500.1.2.0,bus2=RML1060188910.1.2.0,Phases=2,Linecode=CABBTG05_4_2,Length=0.017000000,Units=km
new line.RML10188912 bus1=BBT901262.3.0,bus2=RML1060188912.3.0,Phases=1,Linecode=CABBTG02_4_1,Length=0.017000000,Units=km
new line.RML10188913 bus1=BBT2580604.1.0,bus2=RML1060188913.1.0,Phases=1,Linecode=CABBTG02_4_1,Length=0.017000000,Units=km
new line.RML10188914 bus1=BBT908766.1.2.0,bus2=RML1060188914.1.2.0,Phases=2,Linecode=CABBTG05_4_2,Length=0.017000000,Units=km
new line.RML10188915 bus1=BBT910229.1.2.0,bus2=RML1060188915.1.2.0,Phases=2,Linecode=CABBTG05_4_2,Length=0.017000000,Units=km
new line.RML10188916 bus1=BBT901262.1.2.0,bus2=RML1060188916.1.2.0,Phases=2,Linecode=CABBTG05_4_2,Length=0.017000000,Units=km
new line.RML10188918 bus1=BBT924551.1.3.0,bus2=RML1060188918.1.3.0,Phases=2,Linecode=CABBTG05_4_2,Length=0.017000000,Units=km
new line.RML10188921 bus1=BBT924572.1.2.0,bus2=RML1060188921.1.2.0,Phases=2,Linecode=CABBTG05_4_2,Length=0.017000000,Units=km
new line.RML10188923 bus1=BBT2555908.1.2.0,bus2=RML1060188923.1.2.0,Phases=2,Linecode=CABBTG05_4_2,Length=0.017000000,Units=km
new line.RML10188927 bus1=BBT907576.1.2.0,bus2=RML1060188927.1.2.0,Phases=2,Linecode=CABBTG05_4_2,Length=0.017000000,Units=km
new line.RML10188930 bus1=BBT1044195.1.2.0,bus2=RML1060188930.1.2.0,Phases=2,Linecode=CABBTG05_4_2,Length=0.017000000,Units=km
new line.RML10188934 bus1=BBT1981670.1.2.0,bus2=RML1060188934.1.2.0,Phases=2,Linecode=CABBTG05_4_2,Length=0.017000000,Units=km
new line.RML10188938 bus1=BBT3247368.1.2.0,bus2=RML1060188938.1.2.0,Phases=2,Linecode=CABBTG05_4_2,Length=0.017000000,Units=km
new line.RML10188956 bus1=BBT913232.1.2.0,bus2=RML1060188956.1.2.0,Phases=2,Linecode=CABBTG05_4_2,Length=0.017000000,Units=km
new line.RML10188958 bus1=BBT1078698.1.2.0,bus2=RML1060188958.1.2.0,Phases=2,Linecode=CABBTG05_4_2,Length=0.017000000,Units=km
new line.RML10188959 bus1=BBT915493.1.2.0,bus2=RML1060188959.1.2.0,Phases=2,Linecode=CABBTG05_4_2,Length=0.017000000,Units=km
new line.RML10188966 bus1=BBT2315220.1.2.0,bus2=RML1060188966.1.2.0,Phases=2,Linecode=CABBTG05_4_2,Length=0.017000000,Units=km
new line.RML10188970 bus1=BBT1046582.1.2.0,bus2=RML1060188970.1.2.0,Phases=2,Linecode=CABBTG05_4_2,Length=0.017000000,Units=km
new line.RML10188973 bus1=BBT903229.1.2.0,bus2=RML1060188973.1.2.0,Phases=2,Linecode=CABBTG05_4_2,Length=0.017000000,Units=km
new line.RML10188974 bus1=BBT1981047.2.0,bus2=RML1060188974.2.0,Phases=1,Linecode=CABBTG02_4_1,Length=0.017000000,Units=km
new line.RML10188977 bus1=BBT898707.2.0,bus2=RML1060188977.2.0,Phases=1,Linecode=CABBTG02_4_1,Length=0.017000000,Units=km
new line.RML10188979 bus1=BBT900261.1.2.3.0,bus2=RML1060188979.1.2.3.0,Phases=3,Linecode=CABBTG06_4_3,Length=0.017000000,Units=km
new line.RML10188982 bus1=BBT1981054.2.3.0,bus2=RML1060188982.2.3.0,Phases=2,Linecode=CABBTG05_4_2,Length=0.017000000,Units=km
new line.RML10188984 bus1=BBT921758.1.2.3.0,bus2=RML1060188984.1.2.3.0,Phases=3,Linecode=CABBTG06_4_3,Length=0.017000000,Units=km
new line.RML10188988 bus1=BBT915521.1.2.3.0,bus2=RML1060188988.1.2.3.0,Phases=3,Linecode=CABBTG06_4_3,Length=0.017000000,Units=km
new line.RML10188989 bus1=BBT906855.1.2.0,bus2=RML1060188989.1.2.0,Phases=2,Linecode=CABBTG05_4_2,Length=0.017000000,Units=km
new line.RML10188992 bus1=BBT906155.1.2.0,bus2=RML1060188992.1.2.0,Phases=2,Linecode=CABBTG05_4_2,Length=0.017000000,Units=km
new line.RML10188997 bus1=BBT916907.1.2.0,bus2=RML1060188997.1.2.0,Phases=2,Linecode=CABBTG05_4_2,Length=0.017000000,Units=km
new line.RML10189000 bus1=BBT911181.1.2.0,bus2=RML1060189000.1.2.0,Phases=2,Linecode=CABBTG05_4_2,Length=0.017000000,Units=km
new line.RML10189002 bus1=BBT914912.1.2.0,bus2=RML1060189002.1.2.0,Phases=2,Linecode=CABBTG05_4_2,Length=0.017000000,Units=km
new line.RML10189006 bus1=BBT900590.1.2.0,bus2=RML1060189006.1.2.0,Phases=2,Linecode=CABBTG05_4_2,Length=0.017000000,Units=km
new line.RML10189013 bus1=BBT898938.1.2.0,bus2=RML1060189013.1.2.0,Phases=2,Linecode=CABBTG05_4_2,Length=0.017000000,Units=km
new line.RML10189015 bus1=BBT167704018.1.2.0,bus2=RML1060189015.1.2.0,Phases=2,Linecode=CABBTG05_4_2,Length=0.017000000,Units=km
new line.RML10189017 bus1=BBT925496.1.2.0,bus2=RML1060189017.1.2.0,Phases=2,Linecode=CABBTG05_4_2,Length=0.017000000,Units=km
new line.RML10189020 bus1=BBT1981964.1.2.0,bus2=RML1060189020.1.2.0,Phases=2,Linecode=CABBTG05_4_2,Length=0.017000000,Units=km
new line.RML10189023 bus1=BBT916641.1.2.0,bus2=RML1060189023.1.2.0,Phases=2,Linecode=CABBTG05_4_2,Length=0.017000000,Units=km
new line.RML10189025 bus1=BBT924663.1.2.0,bus2=RML1060189025.1.2.0,Phases=2,Linecode=CABBTG05_4_2,Length=0.017000000,Units=km
new line.RML10189030 bus1=BBT924229.1.2.0,bus2=RML1060189030.1.2.0,Phases=2,Linecode=CABBTG05_4_2,Length=0.017000000,Units=km
new line.RML10189035 bus1=BBT1082800.1.2.0,bus2=RML1060189035.1.2.0,Phases=2,Linecode=CABBTG05_4_2,Length=0.017000000,Units=km
new line.RML10189039 bus1=BBT1078719.1.2.0,bus2=RML1060189039.1.2.0,Phases=2,Linecode=CABBTG05_4_2,Length=0.017000000,Units=km
new line.RML10189042 bus1=BBT922535.1.2.0,bus2=RML1060189042.1.2.0,Phases=2,Linecode=CABBTG05_4_2,Length=0.017000000,Units=km
new line.RML10189045 bus1=BBT921086.1.2.0,bus2=RML1060189045.1.2.0,Phases=2,Linecode=CABBTG05_4_2,Length=0.017000000,Units=km
new line.RML10189052 bus1=BBT150009824.1.2.0,bus2=RML1060189052.1.2.0,Phases=2,Linecode=CABBTG05_4_2,Length=0.017000000,Units=km
new line.RML10189055 bus1=BBT150007208.1.2.0,bus2=RML1060189055.1.2.0,Phases=2,Linecode=CABBTG05_4_2,Length=0.017000000,Units=km
new line.RML10189061 bus1=BBT922521.1.2.3.0,bus2=RML1060189061.1.2.3.0,Phases=3,Linecode=CABBTG06_4_3,Length=0.017000000,Units=km
new line.RML10189064 bus1=BBT903901.1.2.0,bus2=RML1060189064.1.2.0,Phases=2,Linecode=CABBTG05_4_2,Length=0.017000000,Units=km
new line.RML10189067 bus1=BBT1046624.1.2.0,bus2=RML1060189067.1.2.0,Phases=2,Linecode=CABBTG05_4_2,Length=0.017000000,Units=km
new line.RML10189069 bus1=BBT898448.1.2.0,bus2=RML1060189069.1.2.0,Phases=2,Linecode=CABBTG05_4_2,Length=0.017000000,Units=km
new line.RML10189070 bus1=BBT3087656.3.0,bus2=RML1060189070.3.0,Phases=1,Linecode=CABBTG01_4_1,Length=0.017000000,Units=km
new line.RML10189072 bus1=BBT926217.1.2.0,bus2=RML1060189072.1.2.0,Phases=2,Linecode=CABBTG04_4_2,Length=0.017000000,Units=km
new line.RML10189073 bus1=BBT922542.1.2.0,bus2=RML1060189073.1.2.0,Phases=2,Linecode=CABBTG04_4_2,Length=0.017000000,Units=km
new line.RML10189076 bus1=BBT901003.1.2.0,bus2=RML1060189076.1.2.0,Phases=2,Linecode=CABBTG04_4_2,Length=0.017000000,Units=km
new line.RML10189078 bus1=BBT918412.1.2.0,bus2=RML1060189078.1.2.0,Phases=2,Linecode=CABBTG04_4_2,Length=0.017000000,Units=km
new line.RML10192164 bus1=BBT78440.1.0,bus2=RML1060192164.1.0,Phases=1,Linecode=CABBTG02_4_1,Length=0.017000000,Units=km
new line.RML10268057 bus1=BBT148696881.1.2.0,bus2=RML1060268057.1.2.0,Phases=2,Linecode=CABBTG05_4_2,Length=0.017000000,Units=km
new line.RML10268288 bus1=BBT1085908.1.2.0,bus2=RML1060268288.1.2.0,Phases=2,Linecode=CABBTG05_4_2,Length=0.017000000,Units=km
new line.RML10268318 bus1=BBT2813109.1.0,bus2=RML1060268318.1.0,Phases=1,Linecode=CABBTG02_4_1,Length=0.017000000,Units=km
new line.RML10268333 bus1=BBT922850.1.2.0,bus2=RML1060268333.1.2.0,Phases=2,Linecode=CABBTG05_4_2,Length=0.017000000,Units=km
new line.RML10268366 bus1=BBT1121874.1.2.3.0,bus2=RML1060268366.1.2.3.0,Phases=3,Linecode=CABBTG12_4_3,Length=0.017000000,Units=km
new line.RML10268377 bus1=BBT915731.1.2.3.0,bus2=RML1060268377.1.2.3.0,Phases=3,Linecode=CABBTG06_4_3,Length=0.017000000,Units=km
new line.RML10268382 bus1=BBT898490.1.0,bus2=RML1060268382.1.0,Phases=1,Linecode=CABBTG02_4_1,Length=0.017000000,Units=km
new line.RML10268404 bus1=BBT1993213.1.2.0,bus2=RML1060268404.1.2.0,Phases=2,Linecode=CABBTG05_4_2,Length=0.017000000,Units=km
new line.RML10268408 bus1=BBT895690.1.2.0,bus2=RML1060268408.1.2.0,Phases=2,Linecode=CABBTG05_4_2,Length=0.017000000,Units=km
new line.RML10268432 bus1=BBT916228.1.2.0,bus2=RML1060268432.1.2.0,Phases=2,Linecode=CABBTG05_4_2,Length=0.017000000,Units=km
new line.RML10268440 bus1=BBT901794.1.2.0,bus2=RML1060268440.1.2.0,Phases=2,Linecode=CABBTG05_4_2,Length=0.029000000,Units=km
new line.RML10268451 bus1=BBT903936.1.2.0,bus2=RML1060268451.1.2.0,Phases=2,Linecode=CABBTG05_4_2,Length=0.017000000,Units=km
new line.RML10268462 bus1=BBT1126781.1.2.0,bus2=RML1060268462.1.2.0,Phases=2,Linecode=CABBTG05_4_2,Length=0.017000000,Units=km
new line.RML10268468 bus1=BBT904664.1.2.0,bus2=RML1060268468.1.2.0,Phases=2,Linecode=CABBTG05_4_2,Length=0.017000000,Units=km
new line.RML10268475 bus1=BBT899862.1.2.0,bus2=RML1060268475.1.2.0,Phases=2,Linecode=CABBTG05_4_2,Length=0.029000000,Units=km
new line.RML10268612 bus1=BBT2667929.1.0,bus2=RML1060268612.1.0,Phases=1,Linecode=CABBTG02_4_1,Length=0.017000000,Units=km
new line.RML10268629 bus1=BBT911545.1.2.3.0,bus2=RML1060268629.1.2.3.0,Phases=3,Linecode=CABBTG07_4_3,Length=0.017000000,Units=km
new line.RML10268663 bus1=BBT1111213.3.0,bus2=RML1060268663.3.0,Phases=1,Linecode=CABBTG02_4_1,Length=0.017000000,Units=km
new line.RML10268665 bus1=BBT895690.3.0,bus2=RML1060268665.3.0,Phases=1,Linecode=CABBTG02_4_1,Length=0.017000000,Units=km
new line.RML10268673 bus1=BBT923907.3.0,bus2=RML1060268673.3.0,Phases=1,Linecode=CABBTG02_4_1,Length=0.017000000,Units=km
new line.RML10268675 bus1=BBT2314863.1.2.0,bus2=RML1060268675.1.2.0,Phases=2,Linecode=CABBTG05_4_2,Length=0.017000000,Units=km
new line.RML10268713 bus1=BBT917096.1.2.0,bus2=RML1060268713.1.2.0,Phases=2,Linecode=CABBTG05_4_2,Length=0.017000000,Units=km
new line.RML10268779 bus1=BBT1085929.1.2.0,bus2=RML1060268779.1.2.0,Phases=2,Linecode=CABBTG05_4_2,Length=0.017000000,Units=km
new line.RML10268780 bus1=BBT898805.1.2.0,bus2=RML1060268780.1.2.0,Phases=2,Linecode=CABBTG05_4_2,Length=0.017000000,Units=km
new line.RML10268868 bus1=BBT2953991.1.2.3.0,bus2=RML1060268868.1.2.3.0,Phases=3,Linecode=CABBTG06_4_3,Length=0.017000000,Units=km
new line.RML10268874 bus1=BBT2352558.1.2.0,bus2=RML1060268874.1.2.0,Phases=2,Linecode=CABBTG05_4_2,Length=0.017000000,Units=km
new line.RML10268891 bus1=BBT2352558.1.2.0,bus2=RML1060268891.1.2.0,Phases=2,Linecode=CABBTG05_4_2,Length=0.017000000,Units=km
new line.RML10268917 bus1=BBT922248.1.2.0,bus2=RML1060268917.1.2.0,Phases=2,Linecode=CABBTG05_4_2,Length=0.017000000,Units=km
new line.RML10268927 bus1=BBT897846.1.2.0,bus2=RML1060268927.1.2.0,Phases=2,Linecode=CABBTG05_4_2,Length=0.017000000,Units=km
new line.RML10268929 bus1=BBT1981698.1.2.0,bus2=RML1060268929.1.2.0,Phases=2,Linecode=CABBTG05_4_2,Length=0.017000000,Units=km
new line.RML10268939 bus1=BBT916984.1.2.0,bus2=RML1060268939.1.2.0,Phases=2,Linecode=CABBTG05_4_2,Length=0.017000000,Units=km
new line.RML10268950 bus1=BBT3639508.1.2.0,bus2=RML1060268950.1.2.0,Phases=2,Linecode=CABBTG05_4_2,Length=0.017000000,Units=km
new line.RML10268953 bus1=BBT2352537.1.2.0,bus2=RML1060268953.1.2.0,Phases=2,Linecode=CABBTG05_4_2,Length=0.017000000,Units=km
new line.RML10043546 bus1=BBT1046505.2.0,bus2=RML1060043546.2.0,Phases=1,Linecode=CABBTG02_4_1,Length=0.017000000,Units=km
new line.RML10045675 bus1=BBT1062178.1.2.0,bus2=RML1060045675.1.2.0,Phases=2,Linecode=CABBTG05_4_2,Length=0.030000000,Units=km
new line.RML10045682 bus1=BBT1062178.1.2.0,bus2=RML1060045682.1.2.0,Phases=2,Linecode=CABBTG05_4_2,Length=0.030000000,Units=km
new line.RML10045685 bus1=BBT1062178.1.2.0,bus2=RML1060045685.1.2.0,Phases=2,Linecode=CABBTG05_4_2,Length=0.030000000,Units=km
new line.RML10045686 bus1=BBT1062178.1.2.0,bus2=RML1060045686.1.2.0,Phases=2,Linecode=CABBTG05_4_2,Length=0.030000000,Units=km
new line.RML10096344 bus1=BBT3481168.1.2.0,bus2=RML1060096344.1.2.0,Phases=2,Linecode=CABBTG05_4_2,Length=0.017000000,Units=km
new line.RML10096346 bus1=BBT3481168.1.2.0,bus2=RML1060096346.1.2.0,Phases=2,Linecode=CABBTG05_4_2,Length=0.017000000,Units=km
new line.RML10096347 bus1=BBT907023.1.2.3.0,bus2=RML1060096347.1.2.3.0,Phases=3,Linecode=CABBTG06_4_3,Length=0.017000000,Units=km
new line.RML10096716 bus1=BBT897237.3.0,bus2=RML1060096716.3.0,Phases=1,Linecode=CABBTG02_4_1,Length=0.007000000,Units=km
new line.RML10096745 bus1=BBT912294.1.0,bus2=RML1060096745.1.0,Phases=1,Linecode=CABBTG02_4_1,Length=0.017000000,Units=km
new line.RML10156239 bus1=BBT1001131.1.2.0,bus2=RML1060156239.1.2.0,Phases=2,Linecode=CABBTG05_4_2,Length=0.017000000,Units=km
new line.RML10156256 bus1=BBT1002286.1.2.0,bus2=RML1060156256.1.2.0,Phases=2,Linecode=CABBTG05_4_2,Length=0.017000000,Units=km
new line.RML10156298 bus1=BBT891910.1.0,bus2=RML1060156298.1.0,Phases=1,Linecode=CABBTG02_4_1,Length=0.017000000,Units=km
new line.RML10156313 bus1=BBT891847.1.0,bus2=RML1060156313.1.0,Phases=1,Linecode=CABBTG02_4_1,Length=0.017000000,Units=km
new line.RML10156510 bus1=BBT891819.3.0,bus2=RML1060156510.3.0,Phases=1,Linecode=CABBTG01_4_1,Length=0.017000000,Units=km
new line.RML10156518 bus1=BBT1040702.1.0,bus2=RML1060156518.1.0,Phases=1,Linecode=CABBTG02_4_1,Length=0.017000000,Units=km
new line.RML10156566 bus1=BBT1001089.1.0,bus2=RML1060156566.1.0,Phases=1,Linecode=CABBTG02_4_1,Length=0.017000000,Units=km
new line.RML10156675 bus1=BBT909214.1.0,bus2=RML1060156675.1.0,Phases=1,Linecode=CABBTG02_4_1,Length=0.017000000,Units=km
new line.RML10156689 bus1=BBT906883.2.3.0,bus2=RML1060156689.2.3.0,Phases=2,Linecode=CABBTG05_4_2,Length=0.017000000,Units=km
new line.RML10156922 bus1=BBT135591929.1.2.0,bus2=RML1060156922.1.2.0,Phases=2,Linecode=CABBTG05_4_2,Length=0.017000000,Units=km
new line.RML10156928 bus1=BBT924803.2.0,bus2=RML1060156928.2.0,Phases=1,Linecode=CABBTG02_4_1,Length=0.017000000,Units=km
new line.RML10157146 bus1=BBT2281046.1.0,bus2=RML1060157146.1.0,Phases=1,Linecode=CABBTG02_4_1,Length=0.017000000,Units=km
new line.RML10158379 bus1=BBT900317.1.2.3.0,bus2=RML1060158379.1.2.3.0,Phases=3,Linecode=CABBTG12_4_3,Length=0.017000000,Units=km
new line.RML10158731 bus1=BBT923354.1.2.0,bus2=RML1060158731.1.2.0,Phases=2,Linecode=CABBTG05_4_2,Length=0.017000000,Units=km
new line.RML10158775 bus1=BBT906008.1.2.0,bus2=RML1060158775.1.2.0,Phases=2,Linecode=CABBTG05_4_2,Length=0.017000000,Units=km
new line.RML10158783 bus1=BBT1953971.1.2.0,bus2=RML1060158783.1.2.0,Phases=2,Linecode=CABBTG05_4_2,Length=0.017000000,Units=km
new line.RML10158789 bus1=BBT1093769.1.2.0,bus2=RML1060158789.1.2.0,Phases=2,Linecode=CABBTG05_4_2,Length=0.017000000,Units=km
new line.RML10158800 bus1=BBT2009509.1.2.0,bus2=RML1060158800.1.2.0,Phases=2,Linecode=CABBTG05_4_2,Length=0.017000000,Units=km
new line.RML10158807 bus1=BBT892918.1.2.0,bus2=RML1060158807.1.2.0,Phases=2,Linecode=CABBTG05_4_2,Length=0.017000000,Units=km
new line.RML10158903 bus1=BBT892680.1.2.0,bus2=RML1060158903.1.2.0,Phases=2,Linecode=CABBTG05_4_2,Length=0.017000000,Units=km
new line.RML10158912 bus1=BBT3655524.1.2.0,bus2=RML1060158912.1.2.0,Phases=2,Linecode=CABBTG05_4_2,Length=0.017000000,Units=km
new line.RML10158923 bus1=BBT1967292.1.2.0,bus2=RML1060158923.1.2.0,Phases=2,Linecode=CABBTG05_4_2,Length=0.017000000,Units=km
new line.RML10158924 bus1=BBT1941924.1.2.0,bus2=RML1060158924.1.2.0,Phases=2,Linecode=CABBTG05_4_2,Length=0.017000000,Units=km
new line.RML10158929 bus1=BBT1920182.1.2.0,bus2=RML1060158929.1.2.0,Phases=2,Linecode=CABBTG05_4_2,Length=0.017000000,Units=km
new line.RML10158938 bus1=BBT2093698.1.2.0,bus2=RML1060158938.1.2.0,Phases=2,Linecode=CABBTG05_4_2,Length=0.017000000,Units=km
new line.RML10158953 bus1=BBT2796568.1.0,bus2=RML1060158953.1.0,Phases=1,Linecode=CABBTG01_4_1,Length=0.017000000,Units=km
new line.RML10158966 bus1=BBT2313533.1.2.0,bus2=RML1060158966.1.2.0,Phases=2,Linecode=CABBTG05_4_2,Length=0.017000000,Units=km
new line.RML10158997 bus1=BBT2880652.1.2.0,bus2=RML1060158997.1.2.0,Phases=2,Linecode=CABBTG05_4_2,Length=0.017000000,Units=km
new line.RML10159001 bus1=BBT2191740.1.2.0,bus2=RML1060159001.1.2.0,Phases=2,Linecode=CABBTG05_4_2,Length=0.017000000,Units=km
new line.RML10159026 bus1=BBT899463.1.2.0,bus2=RML1060159026.1.2.0,Phases=2,Linecode=CABBTG05_4_2,Length=0.017000000,Units=km
new line.RML10159075 bus1=BBT2910353.1.0,bus2=RML1060159075.1.0,Phases=1,Linecode=CABBTG02_4_1,Length=0.017000000,Units=km
new line.RML10159076 bus1=BBT1122791.1.2.0,bus2=RML1060159076.1.2.0,Phases=2,Linecode=CABBTG05_4_2,Length=0.017000000,Units=km
new line.RML10159105 bus1=BBT119538444.1.2.0,bus2=RML1060159105.1.2.0,Phases=2,Linecode=CABBTG05_4_2,Length=0.017000000,Units=km
new line.RML10159132 bus1=BBT2869809.1.2.0,bus2=RML1060159132.1.2.0,Phases=2,Linecode=CABBTG05_4_2,Length=0.017000000,Units=km
new line.RML10159142 bus1=BBT2170124.1.2.0,bus2=RML1060159142.1.2.0,Phases=2,Linecode=CABBTG05_4_2,Length=0.017000000,Units=km
new line.RML10159166 bus1=BBT131443547.1.2.0,bus2=RML1060159166.1.2.0,Phases=2,Linecode=CABBTG05_4_2,Length=0.017000000,Units=km
new line.RML10159179 bus1=BBT2540326.1.2.0,bus2=RML1060159179.1.2.0,Phases=2,Linecode=CABBTG05_4_2,Length=0.017000000,Units=km
new line.RML10159270 bus1=BBT141947439.1.2.0,bus2=RML1060159270.1.2.0,Phases=2,Linecode=CABBTG05_4_2,Length=0.017000000,Units=km
new line.RML10159290 bus1=BBT1969567.1.2.0,bus2=RML1060159290.1.2.0,Phases=2,Linecode=CABBTG05_4_2,Length=0.017000000,Units=km
new line.RML10159295 bus1=BBT927274.1.2.0,bus2=RML1060159295.1.2.0,Phases=2,Linecode=CABBTG04_4_2,Length=0.017000000,Units=km
new line.RML10159304 bus1=BBT1094357.1.2.0,bus2=RML1060159304.1.2.0,Phases=2,Linecode=CABBTG04_4_2,Length=0.017000000,Units=km
new line.RML10162745 bus1=BBT914709.1.2.0,bus2=RML1060162745.1.2.0,Phases=2,Linecode=CABBTG05_4_2,Length=0.017000000,Units=km
new line.RML10226004 bus1=BBT1981873.1.0,bus2=RML1060226004.1.0,Phases=1,Linecode=CABBTG02_4_1,Length=0.017000000,Units=km
new line.RML10284340 bus1=BBT918321.1.2.3.0,bus2=RML1060284340.1.2.3.0,Phases=3,Linecode=CABBTG06_4_3,Length=0.017000000,Units=km
new line.RML10284348 bus1=BBT912049.1.2.3.0,bus2=RML1060284348.1.2.3.0,Phases=3,Linecode=CABBTG06_4_3,Length=0.017000000,Units=km
new line.RML10284702 bus1=BBT149948028.1.2.0,bus2=RML1060284702.1.2.0,Phases=2,Linecode=CABBTG05_4_2,Length=0.017000000,Units=km
new line.RML10284773 bus1=BBT1993157.1.2.0,bus2=RML1060284773.1.2.0,Phases=2,Linecode=CABBTG05_4_2,Length=0.017000000,Units=km
new line.RML10034201 bus1=BBT921156.1.0,bus2=RML1060034201.1.0,Phases=1,Linecode=CABBTG02_4_1,Length=0.017000000,Units=km
new line.RML10034910 bus1=BBT905189.1.0,bus2=RML1060034910.1.0,Phases=1,Linecode=CABBTG02_4_1,Length=0.017000000,Units=km
new line.RML10036686 bus1=BBT2045202.1.0,bus2=RML1060036686.1.0,Phases=1,Linecode=CABBTG02_4_1,Length=0.017000000,Units=km
new line.RML10036781 bus1=BBT927106.1.0,bus2=RML1060036781.1.0,Phases=1,Linecode=CABBTG02_4_1,Length=0.017000000,Units=km
new line.RML10038311 bus1=BBT925391.1.2.0,bus2=RML1060038311.1.2.0,Phases=2,Linecode=CABBTG05_4_2,Length=0.017000000,Units=km
new line.RML10039423 bus1=BBT2709551.1.0,bus2=RML1060039423.1.0,Phases=1,Linecode=CABBTG02_4_1,Length=0.017000000,Units=km
new line.RML10107851 bus1=BBT78699.1.2.0,bus2=RML1060107851.1.2.0,Phases=2,Linecode=CABBTG05_4_2,Length=0.017000000,Units=km
new line.RML10108628 bus1=BBT1002258.1.3.0,bus2=RML1060108628.1.3.0,Phases=2,Linecode=CABBTG05_4_2,Length=0.017000000,Units=km
new line.RML10108699 bus1=BBT79392.1.2.3.0,bus2=RML1060108699.1.2.3.0,Phases=3,Linecode=CABBTG06_4_3,Length=0.017000000,Units=km