new transformer.1006655 Phases=1,Windings=3,Buses=[BMT125491972.3 BBT101494264.1.0 BBT101494264.0.2],Conns=[wye wye wye],kvs=[7.967 0.12 0.12],kvas=[5.000000000 5.000000000 5.000000000],Taps=[1,1.000000000,1.000000000],%loadloss=1.900000000,%noloadloss=0.600000000
new transformer.1054619 Phases=1,Windings=3,Buses=[BMT127904249.1 BBT119367672.1.0 BBT119367672.0.2],Conns=[wye wye wye],kvs=[7.967 0.12 0.12],kvas=[5.000000000 5.000000000 5.000000000],Taps=[1,1.000000000,1.000000000],%loadloss=1.900000000,%noloadloss=0.600000000
new transformer.1055060 Phases=1,Windings=3,Buses=[BMT153601272.1 BBT119538437.1.0 BBT119538437.0.2],Conns=[wye wye wye],kvs=[7.967 0.12 0.12],kvas=[5.000000000 5.000000000 5.000000000],Taps=[1,1.000000000,1.000000000],%loadloss=1.900000000,%noloadloss=0.600000000
new transformer.1055228 Phases=1,Windings=3,Buses=[BMT125494051.3 BBT119621247.1.0 BBT119621247.0.2],Conns=[wye wye wye],kvs=[7.967 0.12 0.12],kvas=[5.000000000 5.000000000 5.000000000],Taps=[1,1.000000000,1.000000000],%loadloss=1.900000000,%noloadloss=0.600000000
new transformer.1055571 Phases=3,Windings=2,Buses=[BMT161254713.1.2.3 BBT127173855.1.2.3.0],Conns=[delta wye],kvs=[13.8 0.22],kvas=[45.000000000 45.000000000],Taps=[1,1.000000000],%loadloss=1.522000000,%noloadloss=0.377777000
new transformer.1071090 Phases=1,Windings=3,Buses=[BMT161007208.2 BBT133556504.1.0 BBT133556504.0.2],Conns=[wye wye wye],kvs=[7.967 0.12 0.12],kvas=[5.000000000 5.000000000 5.000000000],Taps=[1,1.000000000,1.000000000],%loadloss=1.900000000,%noloadloss=0.600000000
new transformer.1086140 Phases=1,Windings=3,Buses=[BMT160601475.1 BBT137990878.1.0 BBT137990878.0.2],Conns=[wye wye wye],kvs=[7.967 0.12 0.12],kvas=[10.000000000 10.000000000 10.000000000],Taps=[1,1.000000000,1.000000000],%loadloss=1.800000000,%noloadloss=0.450000000
new transformer.1086231 Phases=3,Windings=2,Buses=[BMT138015035.1.2.3 BBT138005081.1.2.3.0],Conns=[delta wye],kvs=[13.8 0.22],kvas=[75.000000000 75.000000000],Taps=[1,1.000000000],%loadloss=1.340000000,%noloadloss=0.340000000
new transformer.1087820 Phases=1,Windings=3,Buses=[BMT166051140.2 BBT138353086.1.0 BBT138353086.0.2],Conns=[wye wye wye],kvs=[7.967 0.12 0.12],kvas=[5.000000000 5.000000000 5.000000000],Taps=[1,1.000000000,1.000000000],%loadloss=1.900000000,%noloadloss=0.600000000
new transformer.1087890 Phases=1,Windings=3,Buses=[BMT138364860.3 BBT138363278.1.0 BBT138363278.0.2],Conns=[wye wye wye],kvs=[7.967 0.12 0.12],kvas=[5.000000000 5.000000000 5.000000000],Taps=[1,1.000000000,1.000000000],%loadloss=1.900000000,%noloadloss=0.600000000
new transformer.1104970 Phases=1,Windings=3,Buses=[BMT142928762.2 BBT142927579.1.0 BBT142927579.0.2],Conns=[wye wye wye],kvs=[7.967 0.12 0.12],kvas=[15.000000000 15.000000000 15.000000000],Taps=[1,1.000000000,1.000000000],%loadloss=1.600000000,%noloadloss=0.400000000
new transformer.1119474 Phases=1,Windings=3,Buses=[BMT161212166.1 BBT146680580.1.0 BBT146680580.0.2],Conns=[wye wye wye],kvs=[7.967 0.12 0.12],kvas=[10.000000000 10.000000000 10.000000000],Taps=[1,1.000000000,1.000000000],%loadloss=1.800000000,%noloadloss=0.450000000
new transformer.1391642 Phases=3,Windings=2,Buses=[BMT172941462.1.2.3 BBT148434587.1.2.3.0],Conns=[delta wye],kvs=[13.8 0.22],kvas=[45.000000000 45.000000000],Taps=[1,1.000000000],%loadloss=1.522000000,%noloadloss=0.377777000
new transformer.1404049 Phases=1,Windings=3,Buses=[BMT162954830.3 BBT151416261.1.0 BBT151416261.0.2],Conns=[wye wye wye],kvs=[7.967 0.12 0.12],kvas=[10.000000000 10.000000000 10.000000000],Taps=[1,1.000000000,1.000000000],%loadloss=1.800000000,%noloadloss=0.450000000
new transformer.1404054 Phases=3,Windings=2,Buses=[BMT151418061.1.2.3 BBT151417336.1.2.3.0],Conns=[delta wye],kvs=[13.8 0.22],kvas=[45.000000000 45.000000000],Taps=[1,1.000000000],%loadloss=1.522000000,%noloadloss=0.377777000
new transformer.1409729 Phases=1,Windings=3,Buses=[BMT170305201.2 BBT152777937.1.0 BBT152777937.0.2],Conns=[wye wye wye],kvs=[7.967 0.12 0.12],kvas=[10.000000000 10.000000000 10.000000000],Taps=[1,1.000000000,1.000000000],%loadloss=1.800000000,%noloadloss=0.450000000
new transformer.1409756 Phases=1,Windings=3,Buses=[BMT160801138.3 BBT152783144.1.0 BBT152783144.0.2],Conns=[wye wye wye],kvs=[7.967 0.12 0.12],kvas=[10.000000000 10.000000000 10.000000000],Taps=[1,1.000000000,1.000000000],%loadloss=1.800000000,%noloadloss=0.450000000
new transformer.1409840 Phases=1,Windings=3,Buses=[BMT164849464.2 BBT152803658.1.0 BBT152803658.0.2],Conns=[wye wye wye],kvs=[7.967 0.12 0.12],kvas=[15.000000000 15.000000000 15.000000000],Taps=[1,1.000000000,1.000000000],%loadloss=1.600000000,%noloadloss=0.400000000
new transformer.1415327 Phases=1,Windings=3,Buses=[BMT154712803.3 BBT153968191.1.0 BBT153968191.0.2],Conns=[wye wye wye],kvs=[7.967 0.12 0.12],kvas=[10.000000000 10.000000000 10.000000000],Taps=[1,1.000000000,1.000000000],%loadloss=1.800000000,%noloadloss=0.450000000
new transformer.1415348 Phases=1,Windings=3,Buses=[BMT153975646.1 BBT153974728.1.0 BBT153974728.0.2],Conns=[wye wye wye],kvs=[7.967 0.12 0.12],kvas=[10.000000000 10.000000000 10.000000000],Taps=[1,1.000000000,1.000000000],%loadloss=1.800000000,%noloadloss=0.450000000
new transformer.1415408 Phases=1,Windings=3,Buses=[BMT161139134.2 BBT153993964.1.0 BBT153993964.0.2],Conns=[wye wye wye],kvs=[7.967 0.12 0.12],kvas=[10.000000000 10.000000000 10.000000000],Taps=[1,1.000000000,1.000000000],%loadloss=1.800000000,%noloadloss=0.450000000
new transformer.1415738 Phases=1,Windings=3,Buses=[BMT160801457.1 BBT154096072.1.0 BBT154096072.0.2],Conns=[wye wye wye],kvs=[7.967 0.12 0.12],kvas=[10.000000000 10.000000000 10.000000000],Taps=[1,1.000000000,1.000000000],%loadloss=1.800000000,%noloadloss=0.450000000
new transformer.1415789 Phases=1,Windings=3,Buses=[BMT161368563.2 BBT154109328.1.0 BBT154109328.0.2],Conns=[wye wye wye],kvs=[7.967 0.12 0.12],kvas=[10.000000000 10.000000000 10.000000000],Taps=[1,1.000000000,1.000000000],%loadloss=1.800000000,%noloadloss=0.450000000
new transformer.1421935 Phases=1,Windings=3,Buses=[BMT155531135.3 BBT155531063.1.0 BBT155531063.0.2],Conns=[wye wye wye],kvs=[7.967 0.12 0.12],kvas=[5.000000000 5.000000000 5.000000000],Taps=[1,1.000000000,1.000000000],%loadloss=1.900000000,%noloadloss=0.600000000
new transformer.1428306 Phases=1,Windings=3,Buses=[BMT172187872.3 BBT156858400.1.0 BBT156858400.0.2],Conns=[wye wye wye],kvs=[7.967 0.12 0.12],kvas=[10.000000000 10.000000000 10.000000000],Taps=[1,1.000000000,1.000000000],%loadloss=1.800000000,%noloadloss=0.450000000
new transformer.1462565 Phases=1,Windings=3,Buses=[BMT164849469.2 BBT164849470.1.0 BBT164849470.0.2],Conns=[wye wye wye],kvs=[7.967 0.12 0.12],kvas=[10.000000000 10.000000000 10.000000000],Taps=[1,1.000000000,1.000000000],%loadloss=1.800000000,%noloadloss=0.450000000
new transformer.1484576 Phases=3,Windings=2,Buses=[BMT168952841.1.2.3 BBT168952091.1.2.3.0],Conns=[delta wye],kvs=[13.8 0.22],kvas=[45.000000000 45.000000000],Taps=[1,1.000000000],%loadloss=1.522000000,%noloadloss=0.377777000
new transformer.1494786 Phases=3,Windings=2,Buses=[BMT170937573.1.2.3 BBT170937513.1.2.3.0],Conns=[delta wye],kvs=[13.8 0.22],kvas=[45.000000000 45.000000000],Taps=[1,1.000000000],%loadloss=1.522000000,%noloadloss=0.377777000
new transformer.1494839 Phases=1,Windings=3,Buses=[BMT170953409.1 BBT170953416.1.0 BBT170953416.0.2],Conns=[wye wye wye],kvs=[7.967 0.12 0.12],kvas=[10.000000000 10.000000000 10.000000000],Taps=[1,1.000000000,1.000000000],%loadloss=1.800000000,%noloadloss=0.450000000
new transformer.1060275 Phases=1,Windings=3,Buses=[BMT129027749.1 BBT129027343.1.0 BBT129027343.0.2],Conns=[wye wye wye],kvs=[7.967 0.12 0.12],kvas=[10.000000000 10.000000000 10.000000000],Taps=[1,1.000000000,1.000000000],%loadloss=1.800000000,%noloadloss=0.450000000
new transformer.1093077 Phases=1,Windings=3,Buses=[BMT160443155.2 BBT139836337.1.0 BBT139836337.0.2],Conns=[wye wye wye],kvs=[7.967 0.12 0.12],kvas=[10.000000000 10.000000000 10.000000000],Taps=[1,1.000000000,1.000000000],%loadloss=1.800000000,%noloadloss=0.450000000
new transformer.1122932 Phases=1,Windings=3,Buses=[BMT150006380.1 BBT147570546.1.0 BBT147570546.0.2],Conns=[wye wye wye],kvs=[7.967 0.12 0.12],kvas=[5.000000000 5.000000000 5.000000000],Taps=[1,1.000000000,1.000000000],%loadloss=1.900000000,%noloadloss=0.600000000
new transformer.1123380 Phases=1,Windings=3,Buses=[BMT162668236.1 BBT147693347.1.0 BBT147693347.0.2],Conns=[wye wye wye],kvs=[7.967 0.12 0.12],kvas=[10.000000000 10.000000000 10.000000000],Taps=[1,1.000000000,1.000000000],%loadloss=1.800000000,%noloadloss=0.450000000
new transformer.11744 Phases=1,Windings=3,Buses=[BMT155194832.3 BBT127342.1.0 BBT127342.0.2],Conns=[wye wye wye],kvs=[7.967 0.12 0.12],kvas=[10.000000000 10.000000000 10.000000000],Taps=[1,1.000000000,1.000000000],%loadloss=1.800000000,%noloadloss=0.450000000
new transformer.11751 Phases=1,Windings=3,Buses=[BMT160828837.3 BBT127356.1.0 BBT127356.0.2],Conns=[wye wye wye],kvs=[7.967 0.12 0.12],kvas=[10.000000000 10.000000000 10.000000000],Taps=[1,1.000000000,1.000000000],%loadloss=1.800000000,%noloadloss=0.450000000
new transformer.1400824 Phases=1,Windings=3,Buses=[BMT150624422.1 BBT150624423.1.0 BBT150624423.0.2],Conns=[wye wye wye],kvs=[7.967 0.12 0.12],kvas=[5.000000000 5.000000000 5.000000000],Taps=[1,1.000000000,1.000000000],%loadloss=1.900000000,%noloadloss=0.600000000
new transformer.1406299 Phases=1,Windings=3,Buses=[BMT162946183.3 BBT151932428.1.0 BBT151932428.0.2],Conns=[wye wye wye],kvs=[7.967 0.12 0.12],kvas=[10.000000000 10.000000000 10.000000000],Taps=[1,1.000000000,1.000000000],%loadloss=1.800000000,%noloadloss=0.450000000
new transformer.1418340 Phases=1,Windings=3,Buses=[BMT171748702.2 BBT154711493.1.0 BBT154711493.0.2],Conns=[wye wye wye],kvs=[7.967 0.12 0.12],kvas=[10.000000000 10.000000000 10.000000000],Taps=[1,1.000000000,1.000000000],%loadloss=1.800000000,%noloadloss=0.450000000
new transformer.1418600 Phases=1,Windings=3,Buses=[BMT160548272.1 BBT154755965.1.0 BBT154755965.0.2],Conns=[wye wye wye],kvs=[7.967 0.12 0.12],kvas=[10.000000000 10.000000000 10.000000000],Taps=[1,1.000000000,1.000000000],%loadloss=1.800000000,%noloadloss=0.450000000
new transformer.1418608 Phases=1,Windings=3,Buses=[BMT169321219.1 BBT154757186.1.0 BBT154757186.0.2],Conns=[wye wye wye],kvs=[7.967 0.12 0.12],kvas=[10.000000000 10.000000000 10.000000000],Taps=[1,1.000000000,1.000000000],%loadloss=1.800000000,%noloadloss=0.450000000
new transformer.1418618 Phases=3,Windings=2,Buses=[BMT155599044.1.2.3 BBT154759191.1.2.3.0],Conns=[delta wye],kvs=[13.8 0.22],kvas=[45.000000000 45.000000000],Taps=[1,1.000000000],%loadloss=1.522000000,%noloadloss=0.377777000
new transformer.1424819 Phases=1,Windings=3,Buses=[BMT157044077.2 BBT156065102.1.0 BBT156065102.0.2],Conns=[wye wye wye],kvs=[7.967 0.12 0.12],kvas=[10.000000000 10.000000000 10.000000000],Taps=[1,1.000000000,1.000000000],%loadloss=1.800000000,%noloadloss=0.450000000
new transformer.1436264 Phases=1,Windings=3,Buses=[BMT158415561.3 BBT158414566.1.0 BBT158414566.0.2],Conns=[wye wye wye],kvs=[7.967 0.12 0.12],kvas=[5.000000000 5.000000000 5.000000000],Taps=[1,1.000000000,1.000000000],%loadloss=1.900000000,%noloadloss=0.600000000
new transformer.1436269 Phases=1,Windings=3,Buses=[BMT158415560.3 BBT158415551.1.0 BBT158415551.0.2],Conns=[wye wye wye],kvs=[7.967 0.12 0.12],kvas=[15.000000000 15.000000000 15.000000000],Taps=[1,1.000000000,1.000000000],%loadloss=1.600000000,%noloadloss=0.400000000
new transformer.1436410 Phases=3,Windings=2,Buses=[BMT158434650.1.2.3 BBT158432980.1.2.3.0],Conns=[delta wye],kvs=[13.8 0.22],kvas=[45.000000000 45.000000000],Taps=[1,1.000000000],%loadloss=1.522000000,%noloadloss=0.377777000
new transformer.1436412 Phases=3,Windings=2,Buses=[BMT158434648.1.2.3 BBT158433070.1.2.3.0],Conns=[delta wye],kvs=[13.8 0.22],kvas=[45.000000000 45.000000000],Taps=[1,1.000000000],%loadloss=1.522000000,%noloadloss=0.377777000
new transformer.1436420 Phases=3,Windings=2,Buses=[BMT158434655.1.2.3 BBT158433965.1.2.3.0],Conns=[delta wye],kvs=[13.8 0.22],kvas=[45.000000000 45.000000000],Taps=[1,1.000000000],%loadloss=1.522000000,%noloadloss=0.377777000
new transformer.1436421 Phases=3,Windings=2,Buses=[BMT158434654.1.2.3 BBT158434044.1.2.3.0],Conns=[delta wye],kvs=[13.8 0.22],kvas=[75.000000000 75.000000000],Taps=[1,1.000000000],%loadloss=1.340000000,%noloadloss=0.340000000
new transformer.1436427 Phases=3,Windings=2,Buses=[BMT158434652.1.2.3 BBT158434643.1.2.3.0],Conns=[delta wye],kvs=[13.8 0.22],kvas=[45.000000000 45.000000000],Taps=[1,1.000000000],%loadloss=1.522000000,%noloadloss=0.377777000
new transformer.1447650 Phases=1,Windings=3,Buses=[BMT161134678.1 BBT161130405.1.0 BBT161130405.0.2],Conns=[wye wye wye],kvs=[7.967 0.12 0.12],kvas=[15.000000000 15.000000000 15.000000000],Taps=[1,1.000000000,1.000000000],%loadloss=1.767000000,%noloadloss=0.466666000
new transformer.1447652 Phases=3,Windings=2,Buses=[BMT161134680.1.2.3 BBT161130771.1.2.3.0],Conns=[delta wye],kvs=[13.8 0.22],kvas=[30.000000000 30.000000000],Taps=[1,1.000000000],%loadloss=1.750000000,%noloadloss=0.466666000
new transformer.1447991 Phases=1,Windings=3,Buses=[BMT169496384.1 BBT161209619.1.0 BBT161209619.0.2],Conns=[wye wye wye],kvs=[7.967 0.12 0.12],kvas=[10.000000000 10.000000000 10.000000000],Taps=[1,1.000000000,1.000000000],%loadloss=1.800000000,%noloadloss=0.450000000
new transformer.1454059 Phases=1,Windings=3,Buses=[BMT162793216.2 BBT162793224.1.0 BBT162793224.0.2],Conns=[wye wye wye],kvs=[7.967 0.12 0.12],kvas=[10.000000000 10.000000000 10.000000000],Taps=[1,1.000000000,1.000000000],%loadloss=1.800000000,%noloadloss=0.450000000
new transformer.1487781 Phases=1,Windings=3,Buses=[BMT169496388.1 BBT169495259.1.0 BBT169495259.0.2],Conns=[wye wye wye],kvs=[7.967 0.12 0.12],kvas=[10.000000000 10.000000000 10.000000000],Taps=[1,1.000000000,1.000000000],%loadloss=1.800000000,%noloadloss=0.450000000
new transformer.1491845 Phases=1,Windings=3,Buses=[BMT170305205.2 BBT170305212.1.0 BBT170305212.0.2],Conns=[wye wye wye],kvs=[7.967 0.12 0.12],kvas=[10.000000000 10.000000000 10.000000000],Taps=[1,1.000000000,1.000000000],%loadloss=1.800000000,%noloadloss=0.450000000
new transformer.1497164 Phases=1,Windings=3,Buses=[BMT171433974.1 BBT171433968.1.0 BBT171433968.0.2],Conns=[wye wye wye],kvs=[7.967 0.12 0.12],kvas=[10.000000000 10.000000000 10.000000000],Taps=[1,1.000000000,1.000000000],%loadloss=1.800000000,%noloadloss=0.450000000
new transformer.1497579 Phases=1,Windings=3,Buses=[BMT171597176.1 BBT171495512.1.0 BBT171495512.0.2],Conns=[wye wye wye],kvs=[7.967 0.12 0.12],kvas=[10.000000000 10.000000000 10.000000000],Taps=[1,1.000000000,1.000000000],%loadloss=1.800000000,%noloadloss=0.450000000
new transformer.1497746 Phases=1,Windings=3,Buses=[BMT171525674.1 BBT171525681.1.0 BBT171525681.0.2],Conns=[wye wye wye],kvs=[7.967 0.12 0.12],kvas=[10.000000000 10.000000000 10.000000000],Taps=[1,1.000000000,1.000000000],%loadloss=1.800000000,%noloadloss=0.450000000
new transformer.16266 Phases=1,Windings=3,Buses=[BMT160548271.1 BBT140012.1.0 BBT140012.0.2],Conns=[wye wye wye],kvs=[7.967 0.12 0.12],kvas=[5.000000000 5.000000000 5.000000000],Taps=[1,1.000000000,1.000000000],%loadloss=1.900000000,%noloadloss=0.600000000
new transformer.1016231 Phases=1,Windings=3,Buses=[BMT170716654.3 BBT108392043.1.0 BBT108392043.0.2],Conns=[wye wye wye],kvs=[7.967 0.12 0.12],kvas=[5.000000000 5.000000000 5.000000000],Taps=[1,1.000000000,1.000000000],%loadloss=1.900000000,%noloadloss=0.600000000
new transformer.1048984 Phases=1,Windings=3,Buses=[BMT171275092.2 BBT114799598.1.0 BBT114799598.0.2],Conns=[wye wye wye],kvs=[7.967 0.12 0.12],kvas=[10.000000000 10.000000000 10.000000000],Taps=[1,1.000000000,1.000000000],%loadloss=1.800000000,%noloadloss=0.450000000
new transformer.1065378 Phases=1,Windings=3,Buses=[BMT131433474.1 BBT131220870.1.0 BBT131220870.0.2],Conns=[wye wye wye],kvs=[7.967 0.12 0.12],kvas=[5.000000000 5.000000000 5.000000000],Taps=[1,1.000000000,1.000000000],%loadloss=1.900000000,%noloadloss=0.600000000
new transformer.1065798 Phases=1,Windings=3,Buses=[BMT140265017.3 BBT131443540.1.0 BBT131443540.0.2],Conns=[wye wye wye],kvs=[7.967 0.12 0.12],kvas=[10.000000000 10.000000000 10.000000000],Taps=[1,1.000000000,1.000000000],%loadloss=1.800000000,%noloadloss=0.450000000
new transformer.1417523 Phases=1,Windings=3,Buses=[BMT163630763.2 BBT154546397.1.0 BBT154546397.0.2],Conns=[wye wye wye],kvs=[7.967 0.12 0.12],kvas=[10.000000000 10.000000000 10.000000000],Taps=[1,1.000000000,1.000000000],%loadloss=1.800000000,%noloadloss=0.450000000
new transformer.1423920 Phases=3,Windings=2,Buses=[BMT159111035.1.2.3 BBT155875976.1.2.3.0],Conns=[delta wye],kvs=[13.8 0.22],kvas=[75.000000000 75.000000000],Taps=[1,1.000000000],%loadloss=1.340000000,%noloadloss=0.340000000
new transformer.1430156 Phases=1,Windings=3,Buses=[BMT157470038.1 BBT157237430.1.0 BBT157237430.0.2],Conns=[wye wye wye],kvs=[7.967 0.12 0.12],kvas=[10.000000000 10.000000000 10.000000000],Taps=[1,1.000000000,1.000000000],%loadloss=1.800000000,%noloadloss=0.450000000
new transformer.1435416 Phases=1,Windings=3,Buses=[BMT159106788.3 BBT158264231.1.0 BBT158264231.0.2],Conns=[wye wye wye],kvs=[7.967 0.12 0.12],kvas=[10.000000000 10.000000000 10.000000000],Taps=[1,1.000000000,1.000000000],%loadloss=1.800000000,%noloadloss=0.450000000
new transformer.1435484 Phases=1,Windings=3,Buses=[BMT172366722.2 BBT158274042.1.0 BBT158274042.0.2],Conns=[wye wye wye],kvs=[7.967 0.12 0.12],kvas=[10.000000000 10.000000000 10.000000000],Taps=[1,1.000000000,1.000000000],%loadloss=1.800000000,%noloadloss=0.450000000
new transformer.1435548 Phases=1,Windings=3,Buses=[BMT169349034.3 BBT158288800.1.0 BBT158288800.0.2],Conns=[wye wye wye],kvs=[7.967 0.12 0.12],kvas=[10.000000000 10.000000000 10.000000000],Taps=[1,1.000000000,1.000000000],%loadloss=1.800000000,%noloadloss=0.450000000
new transformer.1435737 Phases=1,Windings=3,Buses=[BMT158315798.3 BBT158315801.1.0 BBT158315801.0.2],Conns=[wye wye wye],kvs=[7.967 0.12 0.12],kvas=[35.000000000 35.000000000 35.000000000],Taps=[1,1.000000000,1.000000000],%loadloss=1.293000000,%noloadloss=0.342857000
new transformer.1435835 Phases=1,Windings=3,Buses=[BMT162500351.2 BBT158333748.1.0 BBT158333748.0.2],Conns=[wye wye wye],kvs=[7.967 0.12 0.12],kvas=[10.000000000 10.000000000 10.000000000],Taps=[1,1.000000000,1.000000000],%loadloss=1.800000000,%noloadloss=0.450000000
new transformer.1435930 Phases=1,Windings=3,Buses=[BMT158351233.1 BBT158350858.1.0 BBT158350858.0.2],Conns=[wye wye wye],kvs=[7.967 0.12 0.12],kvas=[10.000000000 10.000000000 10.000000000],Taps=[1,1.000000000,1.000000000],%loadloss=1.800000000,%noloadloss=0.450000000
new transformer.1441075 Phases=1,Windings=3,Buses=[BMT170129390.2 BBT159411816.1.0 BBT159411816.0.2],Conns=[wye wye wye],kvs=[7.967 0.12 0.12],kvas=[10.000000000 10.000000000 10.000000000],Taps=[1,1.000000000,1.000000000],%loadloss=1.800000000,%noloadloss=0.450000000
new transformer.1441086 Phases=1,Windings=3,Buses=[BMT170305207.2 BBT159413162.1.0 BBT159413162.0.2],Conns=[wye wye wye],kvs=[7.967 0.12 0.12],kvas=[10.000000000 10.000000000 10.000000000],Taps=[1,1.000000000,1.000000000],%loadloss=1.800000000,%noloadloss=0.450000000
new transformer.1441282 Phases=1,Windings=3,Buses=[BMT161748938.2 BBT159445034.1.0 BBT159445034.0.2],Conns=[wye wye wye],kvs=[7.967 0.12 0.12],kvas=[10.000000000 10.000000000 10.000000000],Taps=[1,1.000000000,1.000000000],%loadloss=1.800000000,%noloadloss=0.450000000
new transformer.1441344 Phases=1,Windings=3,Buses=[BMT166676495.2 BBT159458936.1.0 BBT159458936.0.2],Conns=[wye wye wye],kvs=[7.967 0.12 0.12],kvas=[10.000000000 10.000000000 10.000000000],Taps=[1,1.000000000,1.000000000],%loadloss=1.800000000,%noloadloss=0.450000000
new transformer.1441709 Phases=1,Windings=3,Buses=[BMT165393059.2 BBT159520536.1.0 BBT159520536.0.2],Conns=[wye wye wye],kvs=[7.967 0.12 0.12],kvas=[15.000000000 15.000000000 15.000000000],Taps=[1,1.000000000,1.000000000],%loadloss=1.600000000,%noloadloss=0.400000000
new transformer.1475526 Phases=1,Windings=3,Buses=[BMT167329793.1 BBT167329794.1.0 BBT167329794.0.2],Conns=[wye wye wye],kvs=[7.967 0.12 0.12],kvas=[10.000000000 10.000000000 10.000000000],Taps=[1,1.000000000,1.000000000],%loadloss=1.800000000,%noloadloss=0.450000000
new transformer.1475978 Phases=3,Windings=2,Buses=[BMT168952843.1.2.3 BBT167409939.1.2.3.0],Conns=[delta wye],kvs=[13.8 0.22],kvas=[45.000000000 45.000000000],Taps=[1,1.000000000],%loadloss=1.522000000,%noloadloss=0.377777000
new transformer.1481258 Phases=1,Windings=3,Buses=[BMT168357527.2 BBT168357531.1.0 BBT168357531.0.2],Conns=[wye wye wye],kvs=[7.967 0.12 0.12],kvas=[10.000000000 10.000000000 10.000000000],Taps=[1,1.000000000,1.000000000],%loadloss=1.800000000,%noloadloss=0.450000000
new transformer.1481453 Phases=1,Windings=3,Buses=[BMT171320399.2 BBT168392797.1.0 BBT168392797.0.2],Conns=[wye wye wye],kvs=[7.967 0.12 0.12],kvas=[10.000000000 10.000000000 10.000000000],Taps=[1,1.000000000,1.000000000],%loadloss=1.800000000,%noloadloss=0.450000000
new transformer.1486610 Phases=1,Windings=3,Buses=[BMT169324729.2 BBT169298156.1.0 BBT169298156.0.2],Conns=[wye wye wye],kvs=[7.967 0.12 0.12],kvas=[10.000000000 10.000000000 10.000000000],Taps=[1,1.000000000,1.000000000],%loadloss=1.800000000,%noloadloss=0.450000000
new transformer.1486765 Phases=1,Windings=3,Buses=[BMT169321220.1 BBT169321237.1.0 BBT169321237.0.2],Conns=[wye wye wye],kvs=[7.967 0.12 0.12],kvas=[15.000000000 15.000000000 15.000000000],Taps=[1,1.000000000,1.000000000],%loadloss=1.600000000,%noloadloss=0.400000000
new transformer.1486965 Phases=1,Windings=3,Buses=[BMT169349043.3 BBT169349048.1.0 BBT169349048.0.2],Conns=[wye wye wye],kvs=[7.967 0.12 0.12],kvas=[10.000000000 10.000000000 10.000000000],Taps=[1,1.000000000,1.000000000],%loadloss=1.800000000,%noloadloss=0.450000000
new transformer.1491176 Phases=3,Windings=2,Buses=[BMT170167573.1.2.3 BBT170167566.1.2.3.0],Conns=[delta wye],kvs=[13.8 0.22],kvas=[75.000000000 75.000000000],Taps=[1,1.000000000],%loadloss=1.340000000,%noloadloss=0.340000000
new transformer.1496576 Phases=1,Windings=3,Buses=[BMT171320400.2 BBT171320320.1.0 BBT171320320.0.2],Conns=[wye wye wye],kvs=[7.967 0.12 0.12],kvas=[10.000000000 10.000000000 10.000000000],Taps=[1,1.000000000,1.000000000],%loadloss=1.800000000,%noloadloss=0.450000000
new transformer.1496944 Phases=1,Windings=3,Buses=[BMT171597177.3 BBT171390144.1.0 BBT171390144.0.2],Conns=[wye wye wye],kvs=[7.967 0.12 0.12],kvas=[15.000000000 15.000000000 15.000000000],Taps=[1,1.000000000,1.000000000],%loadloss=1.600000000,%noloadloss=0.400000000
new transformer.1500933 Phases=1,Windings=3,Buses=[BMT172187879.3 BBT172187811.1.0 BBT172187811.0.2],Conns=[wye wye wye],kvs=[7.967 0.12 0.12],kvas=[10.000000000 10.000000000 10.000000000],Taps=[1,1.000000000,1.000000000],%loadloss=1.800000000,%noloadloss=0.450000000
new transformer.176594 Phases=1,Windings=3,Buses=[BMT125496410.1 BBT892211.1.0 BBT892211.0.2],Conns=[wye wye wye],kvs=[7.967 0.12 0.12],kvas=[15.000000000 15.000000000 15.000000000],Taps=[1,1.000000000,1.000000000],%loadloss=1.600000000,%noloadloss=0.400000000
new transformer.176601 Phases=1,Windings=3,Buses=[BMT154424170.2 BBT892225.1.0 BBT892225.0.2],Conns=[wye wye wye],kvs=[7.967 0.12 0.12],kvas=[15.000000000 15.000000000 15.000000000],Taps=[1,1.000000000,1.000000000],%loadloss=1.600000000,%noloadloss=0.400000000
new transformer.176608 Phases=1,Windings=3,Buses=[BMT125496382.1 BBT892239.1.0 BBT892239.0.2],Conns=[wye wye wye],kvs=[7.967 0.12 0.12],kvas=[15.000000000 15.000000000 15.000000000],Taps=[1,1.000000000,1.000000000],%loadloss=1.600000000,%noloadloss=0.400000000
new transformer.176615 Phases=1,Windings=3,Buses=[BMT125496389.1 BBT892253.1.0 BBT892253.0.2],Conns=[wye wye wye],kvs=[7.967 0.12 0.12],kvas=[10.000000000 10.000000000 10.000000000],Taps=[1,1.000000000,1.000000000],%loadloss=1.800000000,%noloadloss=0.450000000
new transformer.176622 Phases=1,Windings=3,Buses=[BMT154424169.2 BBT892267.1.0 BBT892267.0.2],Conns=[wye wye wye],kvs=[7.967 0.12 0.12],kvas=[15.000000000 15.000000000 15.000000000],Taps=[1,1.000000000,1.000000000],%loadloss=1.600000000,%noloadloss=0.400000000
new transformer.176629 Phases=1,Windings=3,Buses=[BMT155138469.1 BBT892281.1.0 BBT892281.0.2],Conns=[wye wye wye],kvs=[7.967 0.12 0.12],kvas=[15.000000000 15.000000000 15.000000000],Taps=[1,1.000000000,1.000000000],%loadloss=1.600000000,%noloadloss=0.400000000
new transformer.176636 Phases=1,Windings=3,Buses=[BMT125496354.1 BBT892295.1.0 BBT892295.0.2],Conns=[wye wye wye],kvs=[7.967 0.12 0.12],kvas=[15.000000000 15.000000000 15.000000000],Taps=[1,1.000000000,1.000000000],%loadloss=1.600000000,%noloadloss=0.400000000
new transformer.176643 Phases=1,Windings=3,Buses=[BMT125492616.3 BBT892309.1.0 BBT892309.0.2],Conns=[wye wye wye],kvs=[7.967 0.12 0.12],kvas=[15.000000000 15.000000000 15.000000000],Taps=[1,1.000000000,1.000000000],%loadloss=1.600000000,%noloadloss=0.400000000
new transformer.176650 Phases=1,Windings=3,Buses=[BMT154424167.2 BBT892323.1.0 BBT892323.0.2],Conns=[wye wye wye],kvs=[7.967 0.12 0.12],kvas=[5.000000000 5.000000000 5.000000000],Taps=[1,1.000000000,1.000000000],%loadloss=1.900000000,%noloadloss=0.600000000
new transformer.176657 Phases=1,Windings=3,Buses=[BMT125497222.2 BBT892337.1.0 BBT892337.0.2],Conns=[wye wye wye],kvs=[7.967 0.12 0.12],kvas=[10.000000000 10.000000000 10.000000000],Taps=[1,1.000000000,1.000000000],%loadloss=1.800000000,%noloadloss=0.450000000
new transformer.176664 Phases=1,Windings=3,Buses=[BMT125496319.1 BBT892351.1.0 BBT892351.0.2],Conns=[wye wye wye],kvs=[7.967 0.12 0.12],kvas=[35.000000000 35.000000000 35.000000000],Taps=[1,1.000000000,1.000000000],%loadloss=1.293000000,%noloadloss=0.342857000
new transformer.176671 Phases=1,Windings=3,Buses=[BMT168553708.2 BBT892365.1.0 BBT892365.0.2],Conns=[wye wye wye],kvs=[7.967 0.12 0.12],kvas=[10.000000000 10.000000000 10.000000000],Taps=[1,1.000000000,1.000000000],%loadloss=1.800000000,%noloadloss=0.450000000
new transformer.176678 Phases=1,Windings=3,Buses=[BMT168553713.2 BBT892379.1.0 BBT892379.0.2],Conns=[wye wye wye],kvs=[7.967 0.12 0.12],kvas=[15.000000000 15.000000000 15.000000000],Taps=[1,1.000000000,1.000000000],%loadloss=1.600000000,%noloadloss=0.400000000
new transformer.176685 Phases=1,Windings=3,Buses=[BMT125492630.3 BBT892393.1.0 BBT892393.0.2],Conns=[wye wye wye],kvs=[7.967 0.12 0.12],kvas=[15.000000000 15.000000000 15.000000000],Taps=[1,1.000000000,1.000000000],%loadloss=1.600000000,%noloadloss=0.400000000
new transformer.176692 Phases=1,Windings=3,Buses=[BMT162668247.1 BBT892407.1.0 BBT892407.0.2],Conns=[wye wye wye],kvs=[7.967 0.12 0.12],kvas=[10.000000000 10.000000000 10.000000000],Taps=[1,1.000000000,1.000000000],%loadloss=1.800000000,%noloadloss=0.450000000
new transformer.176706 Phases=1,Windings=3,Buses=[BMT169324722.2 BBT892435.1.0 BBT892435.0.2],Conns=[wye wye wye],kvs=[7.967 0.12 0.12],kvas=[15.000000000 15.000000000 15.000000000],Taps=[1,1.000000000,1.000000000],%loadloss=1.600000000,%noloadloss=0.400000000
new transformer.176713 Phases=1,Windings=3,Buses=[BMT168553699.2 BBT892449.1.0 BBT892449.0.2],Conns=[wye wye wye],kvs=[7.967 0.12 0.12],kvas=[10.000000000 10.000000000 10.000000000],Taps=[1,1.000000000,1.000000000],%loadloss=1.800000000,%noloadloss=0.450000000
new transformer.176720 Phases=1,Windings=3,Buses=[BMT162668242.1 BBT892463.1.0 BBT892463.0.2],Conns=[wye wye wye],kvs=[7.967 0.12 0.12],kvas=[15.000000000 15.000000000 15.000000000],Taps=[1,1.000000000,1.000000000],%loadloss=1.600000000,%noloadloss=0.400000000
new transformer.176727 Phases=1,Windings=3,Buses=[BMT162668245.3 BBT892477.1.0 BBT892477.0.2],Conns=[wye wye wye],kvs=[7.967 0.12 0.12],kvas=[10.000000000 10.000000000 10.000000000],Taps=[1,1.000000000,1.000000000],%loadloss=1.800000000,%noloadloss=0.450000000
new transformer.176734 Phases=1,Windings=3,Buses=[BMT160917280.1 BBT892491.1.0 BBT892491.0.2],Conns=[wye wye wye],kvs=[7.967 0.12 0.12],kvas=[35.000000000 35.000000000 35.000000000],Taps=[1,1.000000000,1.000000000],%loadloss=1.293000000,%noloadloss=0.342857000
new transformer.176741 Phases=1,Windings=3,Buses=[BMT125497817.1 BBT892505.1.0 BBT892505.0.2],Conns=[wye wye wye],kvs=[7.967 0.12 0.12],kvas=[10.000000000 10.000000000 10.000000000],Taps=[1,1.000000000,1.000000000],%loadloss=1.800000000,%noloadloss=0.450000000
new transformer.176748 Phases=1,Windings=3,Buses=[BMT142928755.2 BBT892519.1.0 BBT892519.0.2],Conns=[wye wye wye],kvs=[7.967 0.12 0.12],kvas=[15.000000000 15.000000000 15.000000000],Taps=[1,1.000000000,1.000000000],%loadloss=1.600000000,%noloadloss=0.400000000
new transformer.176755 Phases=1,Windings=3,Buses=[BMT125496732.2 BBT892533.1.0 BBT892533.0.2],Conns=[wye wye wye],kvs=[7.967 0.12 0.12],kvas=[5.000000000 5.000000000 5.000000000],Taps=[1,1.000000000,1.000000000],%loadloss=1.900000000,%noloadloss=0.600000000
new transformer.176769 Phases=1,Windings=3,Buses=[BMT162668237.3 BBT892561.1.0 BBT892561.0.2],Conns=[wye wye wye],kvs=[7.967 0.12 0.12],kvas=[15.000000000 15.000000000 15.000000000],Taps=[1,1.000000000,1.000000000],%loadloss=1.600000000,%noloadloss=0.400000000
new transformer.176776 Phases=1,Windings=3,Buses=[BMT125497201.2 BBT892575.1.0 BBT892575.0.2],Conns=[wye wye wye],kvs=[7.967 0.12 0.12],kvas=[15.000000000 15.000000000 15.000000000],Taps=[1,1.000000000,1.000000000],%loadloss=1.600000000,%noloadloss=0.400000000
new transformer.176783 Phases=1,Windings=3,Buses=[BMT125492588.3 BBT892589.1.0 BBT892589.0.2],Conns=[wye wye wye],kvs=[7.967 0.12 0.12],kvas=[15.000000000 15.000000000 15.000000000],Taps=[1,1.000000000,1.000000000],%loadloss=1.600000000,%noloadloss=0.400000000
new transformer.176790 Phases=1,Windings=3,Buses=[BMT158650116.1 BBT892603.1.0 BBT892603.0.2],Conns=[wye wye wye],kvs=[7.967 0.12 0.12],kvas=[10.000000000 10.000000000 10.000000000],Taps=[1,1.000000000,1.000000000],%loadloss=1.800000000,%noloadloss=0.450000000