new load.3010157850M1 bus1=RML1060156922.1.2.0,Phases=2,kv=0.24,kW=0.9131,pf=0.92,Vminpu=0.92,Vmaxpu=1.5,model=1,daily=RES2_4,status=variable
new load.3011700611M1 bus1=RML1060156922.1.2.0,Phases=2,kv=0.24,kW=0.20206,pf=0.92,Vminpu=0.92,Vmaxpu=1.5,model=1,daily=RES1_5,status=variable
new load.3004860398M1 bus1=RML1051389750.1.2.0,Phases=2,kv=0.24,kW=2.15754,pf=0.92,Vminpu=0.92,Vmaxpu=1.5,model=1,daily=RUR4_7,status=variable
new load.3003114242M1 bus1=RML1052789169.1.2.0,Phases=2,kv=0.24,kW=0.9182,pf=0.92,Vminpu=0.92,Vmaxpu=1.5,model=1,daily=COM3_11,status=variable
new load.3004132382M1 bus1=RML1053418945.1.2.0,Phases=2,kv=0.24,kW=1.45648,pf=0.92,Vminpu=0.92,Vmaxpu=1.5,model=1,daily=RUR1_17,status=variable
new load.3003114234M1 bus1=RML1051389778.1.2.0,Phases=2,kv=0.24,kW=1.81952,pf=0.92,Vminpu=0.92,Vmaxpu=1.5,model=1,daily=RUR1_21,status=variable
new load.3003114236M1 bus1=RML1051389890.1.2.0,Phases=2,kv=0.24,kW=2.37186,pf=0.92,Vminpu=0.92,Vmaxpu=1.5,model=1,daily=RUR4_18,status=variable
new load.3010360812M1 bus1=RML1060158903.1.2.0,Phases=2,kv=0.24,kW=0.91122,pf=0.92,Vminpu=0.92,Vmaxpu=1.5,model=1,daily=RUR1_6,status=variable
new load.3003114227M1 bus1=RML1052924129.1.2.0,Phases=2,kv=0.24,kW=0.38328,pf=0.92,Vminpu=0.92,Vmaxpu=1.5,model=1,daily=RUR2_21,status=variable
new load.3003114245M1 bus1=RML1052924311.1.2.0,Phases=2,kv=0.24,kW=0.92906,pf=0.92,Vminpu=0.92,Vmaxpu=1.5,model=1,daily=RUR2_21,status=variable
new load.3001110562M1 bus1=RML1052889668.1.2.0,Phases=2,kv=0.24,kW=0.2634,pf=0.92,Vminpu=0.92,Vmaxpu=1.5,model=1,daily=RUR1_1,status=variable
new load.3003114222M1 bus1=RML1051390107.1.2.0,Phases=2,kv=0.24,kW=2.28614,pf=0.92,Vminpu=0.92,Vmaxpu=1.5,model=1,daily=RUR4_18,status=variable
new load.3003114086M1 bus1=RML1051390289.1.2.0,Phases=2,kv=0.24,kW=0.7347,pf=0.92,Vminpu=0.92,Vmaxpu=1.5,model=1,daily=COM1_20,status=variable
new load.3003114093M1 bus1=RML1051390282.2.0,Phases=1,kv=0.12,kW=0.4135,pf=0.92,Vminpu=0.92,Vmaxpu=1.5,model=1,daily=RES2_23,status=variable
new load.3004224190M1 bus1=RML1051390268.2.0,Phases=1,kv=0.12,kW=0.09296,pf=0.92,Vminpu=0.92,Vmaxpu=1.5,model=1,daily=RES1_18,status=variable
new load.3005790931M1 bus1=RML1053656007.1.2.0,Phases=2,kv=0.24,kW=0.02978,pf=0.92,Vminpu=0.92,Vmaxpu=1.5,model=1,daily=COM1_8,status=variable
new load.3004111746M1 bus1=RML1051390275.2.0,Phases=1,kv=0.12,kW=0.14694,pf=0.92,Vminpu=0.92,Vmaxpu=1.5,model=1,daily=RES1_16,status=variable
new load.3005663575M1 bus1=RML1051390170.1.0,Phases=1,kv=0.12,kW=0.59592,pf=0.92,Vminpu=0.92,Vmaxpu=1.5,model=1,daily=RES2_4,status=variable
new load.IP425920M1 bus1=BBT893303.1.2.0,Phases=2,kv=0.24,kW=0.1317,pf=0.92,Vminpu=0.92,Vmaxpu=1.5,model=1,daily=IP,status=variable
new load.IP425927M1 bus1=BBT893310.1.2.0,Phases=2,kv=0.24,kW=0.1317,pf=0.92,Vminpu=0.92,Vmaxpu=1.5,model=1,daily=IP,status=variable
new load.IP1154732M1 bus1=BBT2278715.1.2.0,Phases=2,kv=0.24,kW=0.1317,pf=0.92,Vminpu=0.92,Vmaxpu=1.5,model=1,daily=IP,status=variable
new load.IP1154739M1 bus1=BBT2278722.1.2.0,Phases=2,kv=0.24,kW=0.1317,pf=0.92,Vminpu=0.92,Vmaxpu=1.5,model=1,daily=IP,status=variable
new load.IP425892M1 bus1=BBT893275.1.2.0,Phases=2,kv=0.24,kW=0.1317,pf=0.92,Vminpu=0.92,Vmaxpu=1.5,model=1,daily=IP,status=variable
new load.IP425899M1 bus1=BBT893282.1.2.0,Phases=2,kv=0.24,kW=0.1317,pf=0.92,Vminpu=0.92,Vmaxpu=1.5,model=1,daily=IP,status=variable
new load.IP425906M1 bus1=BBT893289.1.2.0,Phases=2,kv=0.24,kW=0.1317,pf=0.92,Vminpu=0.92,Vmaxpu=1.5,model=1,daily=IP,status=variable
new load.IP425913M1 bus1=BBT893296.1.2.0,Phases=2,kv=0.24,kW=0.1317,pf=0.92,Vminpu=0.92,Vmaxpu=1.5,model=1,daily=IP,status=variable
new load.3002013620M1 bus1=RML1052903059.1.2.0,Phases=2,kv=0.24,kW=0.60412,pf=0.92,Vminpu=0.92,Vmaxpu=1.5,model=1,daily=RES5_17,status=variable
new load.3011588235M1 bus1=RML1056439409.1.2.0,Phases=2,kv=0.24,kW=0.43672,pf=0.92,Vminpu=0.92,Vmaxpu=1.5,model=1,daily=RES2_5,status=variable
new load.3013106891M1 bus1=RML1060955226.1.2.0,Phases=2,kv=0.24,kW=2.16478,pf=0.92,Vminpu=0.92,Vmaxpu=1.5,model=1,daily=RUR4_6,status=variable
new load.3004735403M1 bus1=RML1050272473.1.0,Phases=1,kv=0.12,kW=0.55878,pf=0.92,Vminpu=0.92,Vmaxpu=1.5,model=1,daily=RES4_8,status=variable
new load.3006112794M1 bus1=RML1052811240.1.0,Phases=1,kv=0.12,kW=0.9498,pf=0.92,Vminpu=0.92,Vmaxpu=1.5,model=1,daily=RES1_14,status=variable
new load.3004768688M1 bus1=RML1060072369.1.2.0,Phases=2,kv=0.24,kW=0.7151,pf=0.92,Vminpu=0.92,Vmaxpu=1.5,model=1,daily=RUR1_11,status=variable
new load.3003114200M1 bus1=RML1051389729.1.2.0,Phases=2,kv=0.24,kW=1.453,pf=0.92,Vminpu=0.92,Vmaxpu=1.5,model=1,daily=RUR1_21,status=variable
new load.3004132381M1 bus1=RML1052789162.1.2.0,Phases=2,kv=0.24,kW=3.10338,pf=0.92,Vminpu=0.92,Vmaxpu=1.5,model=1,daily=RUR2_19,status=variable
new load.3003114218M1 bus1=RML1051389827.1.2.0,Phases=2,kv=0.24,kW=0.63908,pf=0.92,Vminpu=0.92,Vmaxpu=1.5,model=1,daily=RUR3_19,status=variable
new load.3003114235M1 bus1=RML1051389855.1.2.0,Phases=2,kv=0.24,kW=0.30108,pf=0.92,Vminpu=0.92,Vmaxpu=1.5,model=1,daily=RUR1_21,status=variable
new load.3003114216M1 bus1=RML1052924108.1.2.0,Phases=2,kv=0.24,kW=0.96422,pf=0.92,Vminpu=0.92,Vmaxpu=1.5,model=1,daily=RUR3_19,status=variable
new load.3003114132M1 bus1=RML1053656000.1.2.0,Phases=2,kv=0.24,kW=0.12854,pf=0.92,Vminpu=0.92,Vmaxpu=1.5,model=1,daily=RES1_19,status=variable
new load.IP8183827M1 bus1=BBT2279156.1.2.0,Phases=2,kv=0.24,kW=0.1317,pf=0.92,Vminpu=0.92,Vmaxpu=1.5,model=1,daily=IP,status=variable
new load.3003114215M1 bus1=RML1052924101.1.2.0,Phases=2,kv=0.24,kW=0.6416,pf=0.92,Vminpu=0.92,Vmaxpu=1.5,model=1,daily=RUR2_21,status=variable
new load.3005829495M1 bus1=RML1052789330.1.2.0,Phases=2,kv=0.24,kW=0.41856,pf=0.92,Vminpu=0.92,Vmaxpu=1.5,model=1,daily=RES3_7,status=variable
new load.3005829496M1 bus1=RML1051390149.2.0,Phases=1,kv=0.12,kW=0.4191,pf=0.92,Vminpu=0.92,Vmaxpu=1.5,model=1,daily=RES2_6,status=variable
new load.3011196352M1 bus1=RML1055825467.2.0,Phases=1,kv=0.12,kW=0.28166,pf=0.92,Vminpu=0.92,Vmaxpu=1.5,model=1,daily=RES3_20,status=variable
new load.3010003343M1 bus1=RML1053869913.1.2.0,Phases=2,kv=0.24,kW=0.51534,pf=0.92,Vminpu=0.92,Vmaxpu=1.5,model=1,daily=RES2_2,status=variable
new load.3013729663M1 bus1=RML1060903895.1.0,Phases=1,kv=0.12,kW=0.04578,pf=0.92,Vminpu=0.92,Vmaxpu=1.5,model=1,daily=COM1_21,status=variable
new load.3012910876M1 bus1=RML1051390156.2.0,Phases=1,kv=0.12,kW=0.9168,pf=0.92,Vminpu=0.92,Vmaxpu=1.5,model=1,daily=RES5_6,status=variable
new load.3012918648M1 bus1=RML1060585708.2.0,Phases=1,kv=0.12,kW=0.35274,pf=0.92,Vminpu=0.92,Vmaxpu=1.5,model=1,daily=RES2_5,status=variable
new load.3003114059M1 bus1=RML1051390569.2.0,Phases=1,kv=0.12,kW=0.2212,pf=0.92,Vminpu=0.92,Vmaxpu=1.5,model=1,daily=RES1_19,status=variable
new load.3003114061M1 bus1=RML1051390555.2.0,Phases=1,kv=0.12,kW=0.12554,pf=0.92,Vminpu=0.92,Vmaxpu=1.5,model=1,daily=RES1_19,status=variable
new load.3012751092M1 bus1=RML1060444990.1.2.0,Phases=2,kv=0.24,kW=0.82516,pf=0.92,Vminpu=0.92,Vmaxpu=1.5,model=1,daily=RUR4_1,status=variable
new load.3011849072M1 bus1=RML1060876868.1.0,Phases=1,kv=0.12,kW=0.00502,pf=0.92,Vminpu=0.92,Vmaxpu=1.5,model=1,daily=COM1_12,status=variable
new load.3003114210M1 bus1=RML1052924087.1.2.0,Phases=2,kv=0.24,kW=0.5367,pf=0.92,Vminpu=0.92,Vmaxpu=1.5,model=1,daily=RUR1_21,status=variable
new load.3003114141M1 bus1=RML1053656077.1.2.0,Phases=2,kv=0.24,kW=0.64192,pf=0.92,Vminpu=0.92,Vmaxpu=1.5,model=1,daily=RES2_23,status=variable
new load.IP2356295M1 bus1=BBT3319195.1.2.0,Phases=2,kv=0.24,kW=0.1129,pf=0.92,Vminpu=0.92,Vmaxpu=1.5,model=1,daily=IP,status=variable
new load.IP425710M1 bus1=BBT892624.1.2.0,Phases=2,kv=0.24,kW=0.1317,pf=0.92,Vminpu=0.92,Vmaxpu=1.5,model=1,daily=IP,status=variable
new load.IP425717M1 bus1=BBT892638.1.2.0,Phases=2,kv=0.24,kW=0.1317,pf=0.92,Vminpu=0.92,Vmaxpu=1.5,model=1,daily=IP,status=variable
new load.3004322165M1 bus1=RML1053656035.2.0,Phases=1,kv=0.12,kW=0.24114,pf=0.92,Vminpu=0.92,Vmaxpu=1.5,model=1,daily=RES2_27,status=variable
new load.3006494914M1 bus1=RML1053656063.1.2.0,Phases=2,kv=0.24,kW=0.33946,pf=0.92,Vminpu=0.92,Vmaxpu=1.5,model=1,daily=RES2_1,status=variable
new load.3013517827M1 bus1=RML1053656077.1.2.0,Phases=2,kv=0.24,kW=0.60658,pf=0.92,Vminpu=0.92,Vmaxpu=1.5,model=1,daily=RES2_17,status=variable
new load.IP1155012M1 bus1=BBT892631.1.2.0,Phases=2,kv=0.24,kW=0.1317,pf=0.92,Vminpu=0.92,Vmaxpu=1.5,model=1,daily=IP,status=variable
new load.3004208149M1 bus1=RML1053656063.1.2.0,Phases=2,kv=0.24,kW=0.28578,pf=0.92,Vminpu=0.92,Vmaxpu=1.5,model=1,daily=RES2_22,status=variable
new load.3004004067M1 bus1=RML1053656077.1.2.0,Phases=2,kv=0.24,kW=0.40174,pf=0.92,Vminpu=0.92,Vmaxpu=1.5,model=1,daily=RES2_14,status=variable
new load.3003598131M1 bus1=RML1053656042.2.0,Phases=1,kv=0.12,kW=0.5711,pf=0.92,Vminpu=0.92,Vmaxpu=1.5,model=1,daily=RES2_5,status=variable
new load.3003114198M1 bus1=RML1052924073.1.2.0,Phases=2,kv=0.24,kW=0.32726,pf=0.92,Vminpu=0.92,Vmaxpu=1.5,model=1,daily=RUR1_21,status=variable
new load.3003897301M1 bus1=RML1051389911.1.2.0,Phases=2,kv=0.24,kW=0.10038,pf=0.92,Vminpu=0.92,Vmaxpu=1.5,model=1,daily=RUR1_12,status=variable
new load.3001110507M1 bus1=RML1051390079.1.2.0,Phases=2,kv=0.24,kW=0.2654,pf=0.92,Vminpu=0.92,Vmaxpu=1.5,model=1,daily=RES2_1,status=variable
new load.3011497265M1 bus1=RML1060876926.1.2.0,Phases=2,kv=0.24,kW=0.252,pf=0.92,Vminpu=0.92,Vmaxpu=1.5,model=1,daily=RUR1_11,status=variable
new load.3011805330M1 bus1=RML1060959891.2.0,Phases=1,kv=0.12,kW=0.24296,pf=0.92,Vminpu=0.92,Vmaxpu=1.5,model=1,daily=RES1_7,status=variable
new load.3014075096M1 bus1=RML1061033833.1.2.0,Phases=2,kv=0.24,kW=0.00872,pf=0.92,Vminpu=0.92,Vmaxpu=1.5,model=1,daily=RES1_25,status=variable
new load.3013206253M1 bus1=RML1060648172.2.0,Phases=1,kv=0.12,kW=0.2256,pf=0.92,Vminpu=0.92,Vmaxpu=1.5,model=1,daily=RES1_7,status=variable
new load.IP8384089M1 bus1=BBT159459265.1.2.0,Phases=2,kv=0.24,kW=0.16666,pf=0.92,Vminpu=0.92,Vmaxpu=1.5,model=1,daily=IP,status=variable
new load.IP8384091M1 bus1=BBT159459243.1.2.0,Phases=2,kv=0.24,kW=0.16666,pf=0.92,Vminpu=0.92,Vmaxpu=1.5,model=1,daily=IP,status=variable
new load.IP8384092M1 bus1=BBT159458937.1.2.0,Phases=2,kv=0.24,kW=0.16666,pf=0.92,Vminpu=0.92,Vmaxpu=1.5,model=1,daily=IP,status=variable
new load.IP8384094M1 bus1=BBT159459244.1.2.0,Phases=2,kv=0.24,kW=0.16666,pf=0.92,Vminpu=0.92,Vmaxpu=1.5,model=1,daily=IP,status=variable
new load.IP8384095M1 bus1=BBT159459245.1.2.0,Phases=2,kv=0.24,kW=0.16666,pf=0.92,Vminpu=0.92,Vmaxpu=1.5,model=1,daily=IP,status=variable
new load.IP8384096M1 bus1=BBT159459264.1.2.0,Phases=2,kv=0.24,kW=0.16666,pf=0.92,Vminpu=0.92,Vmaxpu=1.5,model=1,daily=IP,status=variable
new load.3003114173M1 bus1=RML1051658417.1.2.0,Phases=2,kv=0.24,kW=0.5291,pf=0.92,Vminpu=0.92,Vmaxpu=1.5,model=1,daily=RUR2_21,status=variable
new load.3010251626M1 bus1=RML1053716648.1.0,Phases=1,kv=0.12,kW=0.39754,pf=0.92,Vminpu=0.92,Vmaxpu=1.5,model=1,daily=RES2_5,status=variable
new load.3001110557M1 bus1=RML1052889647.1.2.0,Phases=2,kv=0.24,kW=0.31252,pf=0.92,Vminpu=0.92,Vmaxpu=1.5,model=1,daily=RUR1_1,status=variable
new load.3005464600M1 bus1=RML1051390163.1.0,Phases=1,kv=0.12,kW=0.03986,pf=0.92,Vminpu=0.92,Vmaxpu=1.5,model=1,daily=COM1_2,status=variable
new load.3003370598M1 bus1=RML1052926831.1.2.0,Phases=2,kv=0.24,kW=0.2838,pf=0.92,Vminpu=0.92,Vmaxpu=1.5,model=1,daily=RUR2_2,status=variable
new load.3003370599M1 bus1=RML1052926831.1.2.0,Phases=2,kv=0.24,kW=0.2951,pf=0.92,Vminpu=0.92,Vmaxpu=1.5,model=1,daily=RUR1_3,status=variable
new load.3004224191M1 bus1=RML1051390674.1.2.0,Phases=2,kv=0.24,kW=0.01716,pf=0.92,Vminpu=0.92,Vmaxpu=1.5,model=1,daily=RUR1_20,status=variable
new load.3001656986M1 bus1=RML1050278969.1.2.0,Phases=2,kv=0.24,kW=1.15652,pf=0.92,Vminpu=0.92,Vmaxpu=1.5,model=1,daily=RUR3_8,status=variable
new load.3001110494M1 bus1=RML1052889542.2.0,Phases=1,kv=0.12,kW=0.41968,pf=0.92,Vminpu=0.92,Vmaxpu=1.5,model=1,daily=RES2_1,status=variable
new load.3001110496M1 bus1=RML1052889535.2.0,Phases=1,kv=0.12,kW=0.77766,pf=0.92,Vminpu=0.92,Vmaxpu=1.5,model=1,daily=RES2_1,status=variable
new load.3001110498M1 bus1=RML1051621576.2.0,Phases=1,kv=0.12,kW=0.2628,pf=0.92,Vminpu=0.92,Vmaxpu=1.5,model=1,daily=RES1_1,status=variable
new load.3001110501M1 bus1=RML1051621590.1.0,Phases=1,kv=0.12,kW=0.42048,pf=0.92,Vminpu=0.92,Vmaxpu=1.5,model=1,daily=RES1_1,status=variable
new load.IP8188780M1 bus1=BBT2236589.1.2.0,Phases=2,kv=0.24,kW=0.08602,pf=0.92,Vminpu=0.92,Vmaxpu=1.5,model=1,daily=IP,status=variable
new load.3003114078M1 bus1=RML1051390366.1.0,Phases=1,kv=0.12,kW=0.1674,pf=0.92,Vminpu=0.92,Vmaxpu=1.5,model=1,daily=RES1_19,status=variable
new load.3003114079M1 bus1=RML1051390233.2.0,Phases=1,kv=0.12,kW=0.15544,pf=0.92,Vminpu=0.92,Vmaxpu=1.5,model=1,daily=RES1_19,status=variable
new load.3003114080M1 bus1=RML1051390373.1.2.0,Phases=2,kv=0.24,kW=0.57496,pf=0.92,Vminpu=0.92,Vmaxpu=1.5,model=1,daily=RES2_23,status=variable
new load.IP426032M1 bus1=BBT893520.1.2.0,Phases=2,kv=0.24,kW=0.1317,pf=0.92,Vminpu=0.92,Vmaxpu=1.5,model=1,daily=IP,status=variable
new load.IP426039M1 bus1=BBT893527.1.2.0,Phases=2,kv=0.24,kW=0.1317,pf=0.92,Vminpu=0.92,Vmaxpu=1.5,model=1,daily=IP,status=variable
new load.IP426046M1 bus1=BBT893534.1.2.0,Phases=2,kv=0.24,kW=0.1317,pf=0.92,Vminpu=0.92,Vmaxpu=1.5,model=1,daily=IP,status=variable
new load.IP426053M1 bus1=BBT893541.1.2.0,Phases=2,kv=0.24,kW=0.1317,pf=0.92,Vminpu=0.92,Vmaxpu=1.5,model=1,daily=IP,status=variable
new load.3013072203M1 bus1=RML1051390233.2.0,Phases=1,kv=0.12,kW=0.27552,pf=0.92,Vminpu=0.92,Vmaxpu=1.5,model=1,daily=RES1_5,status=variable
new load.IP425997M1 bus1=BBT893485.1.2.0,Phases=2,kv=0.24,kW=0.1317,pf=0.92,Vminpu=0.92,Vmaxpu=1.5,model=1,daily=IP,status=variable
new load.IP426004M1 bus1=BBT893492.1.2.0,Phases=2,kv=0.24,kW=0.1317,pf=0.92,Vminpu=0.92,Vmaxpu=1.5,model=1,daily=IP,status=variable
new load.IP426011M1 bus1=BBT893499.1.2.0,Phases=2,kv=0.24,kW=0.1317,pf=0.92,Vminpu=0.92,Vmaxpu=1.5,model=1,daily=IP,status=variable
new load.IP426018M1 bus1=BBT893506.1.2.0,Phases=2,kv=0.24,kW=0.1317,pf=0.92,Vminpu=0.92,Vmaxpu=1.5,model=1,daily=IP,status=variable
new load.IP426025M1 bus1=BBT893513.1.2.0,Phases=2,kv=0.24,kW=0.1317,pf=0.92,Vminpu=0.92,Vmaxpu=1.5,model=1,daily=IP,status=variable
new load.3003114082M1 bus1=RML1051390219.1.0,Phases=1,kv=0.12,kW=0.23614,pf=0.92,Vminpu=0.92,Vmaxpu=1.5,model=1,daily=RES1_19,status=variable
new load.3003682471M1 bus1=RML1051390324.2.0,Phases=1,kv=0.12,kW=0.21338,pf=0.92,Vminpu=0.92,Vmaxpu=1.5,model=1,daily=COM1_8,status=variable
new load.3003816763M1 bus1=RML1051390205.2.0,Phases=1,kv=0.12,kW=0.51316,pf=0.92,Vminpu=0.92,Vmaxpu=1.5,model=1,daily=RES2_8,status=variable
new load.3003114211M1 bus1=RML1051390247.1.2.0,Phases=2,kv=0.24,kW=0.25204,pf=0.92,Vminpu=0.92,Vmaxpu=1.5,model=1,daily=RES2_23,status=variable
new load.3004193247M1 bus1=RML1052825415.2.0,Phases=1,kv=0.12,kW=0.003,pf=0.92,Vminpu=0.92,Vmaxpu=1.5,model=1,daily=RES1_18,status=variable
new load.3004979027M1 bus1=RML1055934310.2.0,Phases=1,kv=0.12,kW=0.03012,pf=0.92,Vminpu=0.92,Vmaxpu=1.5,model=1,daily=RES1_11,status=variable
new load.3003114072M1 bus1=RML1052924150.1.2.0,Phases=2,kv=0.24,kW=0.02392,pf=0.92,Vminpu=0.92,Vmaxpu=1.5,model=1,daily=RES1_19,status=variable
new load.3004785795M1 bus1=RML1051658298.2.0,Phases=1,kv=0.12,kW=0.28068,pf=0.92,Vminpu=0.92,Vmaxpu=1.5,model=1,daily=COM1_10,status=variable
new load.3003271495M1 bus1=RML1051658291.1.2.0,Phases=2,kv=0.24,kW=0.42378,pf=0.92,Vminpu=0.92,Vmaxpu=1.5,model=1,daily=COM1_23,status=variable
new load.IP426130M1 bus1=BBT893681.1.2.0,Phases=2,kv=0.24,kW=0.1317,pf=0.92,Vminpu=0.92,Vmaxpu=1.5,model=1,daily=IP,status=variable
new load.IP426088M1 bus1=BBT893639.1.2.0,Phases=2,kv=0.24,kW=0.1317,pf=0.92,Vminpu=0.92,Vmaxpu=1.5,model=1,daily=IP,status=variable
new load.IP426095M1 bus1=BBT893646.1.2.0,Phases=2,kv=0.24,kW=0.1317,pf=0.92,Vminpu=0.92,Vmaxpu=1.5,model=1,daily=IP,status=variable
new load.IP426102M1 bus1=BBT893653.1.2.0,Phases=2,kv=0.24,kW=0.1317,pf=0.92,Vminpu=0.92,Vmaxpu=1.5,model=1,daily=IP,status=variable
new load.IP426109M1 bus1=BBT893660.1.2.0,Phases=2,kv=0.24,kW=0.1317,pf=0.92,Vminpu=0.92,Vmaxpu=1.5,model=1,daily=IP,status=variable
new load.IP426116M1 bus1=BBT893667.1.2.0,Phases=2,kv=0.24,kW=0.1317,pf=0.92,Vminpu=0.92,Vmaxpu=1.5,model=1,daily=IP,status=variable
new load.IP426123M1 bus1=BBT893674.1.2.0,Phases=2,kv=0.24,kW=0.1317,pf=0.92,Vminpu=0.92,Vmaxpu=1.5,model=1,daily=IP,status=variable
new load.3004146995M1 bus1=RML1053652332.1.0,Phases=1,kv=0.12,kW=2.97588,pf=0.92,Vminpu=0.92,Vmaxpu=1.5,model=1,daily=COM1_21,status=variable
new load.3011314517M1 bus1=RML1056105124.1.2.0,Phases=2,kv=0.24,kW=1.36276,pf=0.92,Vminpu=0.92,Vmaxpu=1.5,model=1,daily=RUR2_5,status=variable
new load.IP426067M1 bus1=BBT893618.1.2.0,Phases=2,kv=0.24,kW=0.1317,pf=0.92,Vminpu=0.92,Vmaxpu=1.5,model=1,daily=IP,status=variable
new load.IP426074M1 bus1=BBT893625.1.2.0,Phases=2,kv=0.24,kW=0.1317,pf=0.92,Vminpu=0.92,Vmaxpu=1.5,model=1,daily=IP,status=variable
new load.IP426081M1 bus1=BBT893632.1.2.0,Phases=2,kv=0.24,kW=0.1317,pf=0.92,Vminpu=0.92,Vmaxpu=1.5,model=1,daily=IP,status=variable
new load.3003114048M1 bus1=RML1060168534.1.0,Phases=1,kv=0.12,kW=0.34656,pf=0.92,Vminpu=0.92,Vmaxpu=1.5,model=1,daily=RES2_23,status=variable
new load.3003114049M1 bus1=RML1051390639.1.2.0,Phases=2,kv=0.24,kW=0.57102,pf=0.92,Vminpu=0.92,Vmaxpu=1.5,model=1,daily=RES2_23,status=variable
new load.3003114050M1 bus1=RML1051390653.1.2.0,Phases=2,kv=0.24,kW=0.1644,pf=0.92,Vminpu=0.92,Vmaxpu=1.5,model=1,daily=RES1_19,status=variable
new load.3003114052M1 bus1=RML1051390625.1.2.0,Phases=2,kv=0.24,kW=0.11658,pf=0.92,Vminpu=0.92,Vmaxpu=1.5,model=1,daily=RES1_19,status=variable
new load.3003114053M1 bus1=RML1051390611.1.2.0,Phases=2,kv=0.24,kW=0.55068,pf=0.92,Vminpu=0.92,Vmaxpu=1.5,model=1,daily=RES3_19,status=variable
new load.3003114056M1 bus1=RML1051390618.1.2.0,Phases=2,kv=0.24,kW=0.10462,pf=0.92,Vminpu=0.92,Vmaxpu=1.5,model=1,daily=RES1_19,status=variable
new load.3011579901M1 bus1=RML1051390653.1.2.0,Phases=2,kv=0.24,kW=0.45352,pf=0.92,Vminpu=0.92,Vmaxpu=1.5,model=1,daily=RES2_5,status=variable
new load.3013863485M1 bus1=RML1051390520.1.2.0,Phases=2,kv=0.24,kW=0.22202,pf=0.92,Vminpu=0.92,Vmaxpu=1.5,model=1,daily=RES2_26,status=variable
new load.3013321995M1 bus1=RML1053402355.1.2.0,Phases=2,kv=0.24,kW=1.3122,pf=0.92,Vminpu=0.92,Vmaxpu=1.5,model=1,daily=RES2_11,status=variable
new load.3003864808M1 bus1=RML1051390639.1.2.0,Phases=2,kv=0.24,kW=0.62932,pf=0.92,Vminpu=0.92,Vmaxpu=1.5,model=1,daily=RES1_9,status=variable
new load.3003864809M1 bus1=RML1051390653.1.2.0,Phases=2,kv=0.24,kW=0.64624,pf=0.92,Vminpu=0.92,Vmaxpu=1.5,model=1,daily=RES2_10,status=variable
new load.3003971834M1 bus1=RML1051390639.1.2.0,Phases=2,kv=0.24,kW=0.16388,pf=0.92,Vminpu=0.92,Vmaxpu=1.5,model=1,daily=RES1_12,status=variable
new load.3001478226M1 bus1=RML1051449488.1.0,Phases=1,kv=0.127,kW=0.9633,pf=0.92,Vminpu=0.92,Vmaxpu=1.5,model=1,daily=RES2_6,status=variable
new load.3001478227M1 bus1=RML1051449481.3.0,Phases=1,kv=0.127,kW=0.6005,pf=0.92,Vminpu=0.92,Vmaxpu=1.5,model=1,daily=RES2_6,status=variable
new load.3001478309M1 bus1=RML1051449474.1.3.0,Phases=2,kv=0.22,kW=1.67154,pf=0.92,Vminpu=0.92,Vmaxpu=1.5,model=1,daily=RES1_5,status=variable
new load.3001478310M1 bus1=RML1051449194.1.0,Phases=1,kv=0.127,kW=1.08374,pf=0.92,Vminpu=0.92,Vmaxpu=1.5,model=1,daily=RES1_5,status=variable
new load.3001478311M1 bus1=RML1051449201.1.3.0,Phases=2,kv=0.22,kW=0.58174,pf=0.92,Vminpu=0.92,Vmaxpu=1.5,model=1,daily=RES2_6,status=variable
new load.3001478312M1 bus1=RML1051449187.1.2.3.0,Phases=3,kv=0.22,kW=0.55106,pf=0.92,Vminpu=0.92,Vmaxpu=1.5,model=1,daily=RES1_5,status=variable
new load.IP447039M1 bus1=BBT923690.1.2.0,Phases=2,kv=0.22,kW=0.1317,pf=0.92,Vminpu=0.92,Vmaxpu=1.5,model=1,daily=IP,status=variable
new load.IP447046M1 bus1=BBT923697.1.2.0,Phases=2,kv=0.22,kW=0.1317,pf=0.92,Vminpu=0.92,Vmaxpu=1.5,model=1,daily=IP,status=variable
new load.IP447060M1 bus1=BBT923711.1.2.0,Phases=2,kv=0.22,kW=0.1317,pf=0.92,Vminpu=0.92,Vmaxpu=1.5,model=1,daily=IP,status=variable
new load.IP447074M1 bus1=BBT923725.1.2.0,Phases=2,kv=0.22,kW=0.25804,pf=0.92,Vminpu=0.92,Vmaxpu=1.5,model=1,daily=IP,status=variable
new load.IP447137M1 bus1=BBT923788.1.2.0,Phases=2,kv=0.22,kW=0.1317,pf=0.92,Vminpu=0.92,Vmaxpu=1.5,model=1,daily=IP,status=variable
new load.IP446997M1 bus1=BBT923641.1.2.0,Phases=2,kv=0.22,kW=0.1317,pf=0.92,Vminpu=0.92,Vmaxpu=1.5,model=1,daily=IP,status=variable
new load.IP447004M1 bus1=BBT923648.1.2.0,Phases=2,kv=0.22,kW=0.1317,pf=0.92,Vminpu=0.92,Vmaxpu=1.5,model=1,daily=IP,status=variable
new load.IP447011M1 bus1=BBT923655.1.2.0,Phases=2,kv=0.22,kW=0.1317,pf=0.92,Vminpu=0.92,Vmaxpu=1.5,model=1,daily=IP,status=variable
new load.IP447018M1 bus1=BBT923662.1.2.0,Phases=2,kv=0.22,kW=0.1317,pf=0.92,Vminpu=0.92,Vmaxpu=1.5,model=1,daily=IP,status=variable
new load.IP447025M1 bus1=BBT923669.2.3.0,Phases=2,kv=0.22,kW=0.1317,pf=0.92,Vminpu=0.92,Vmaxpu=1.5,model=1,daily=IP,status=variable
new load.IP447032M1 bus1=BBT923676.1.2.0,Phases=2,kv=0.22,kW=0.1317,pf=0.92,Vminpu=0.92,Vmaxpu=1.5,model=1,daily=IP,status=variable
new load.3013059341M1 bus1=RML1060614984.2.0,Phases=1,kv=0.127,kW=0.18252,pf=0.92,Vminpu=0.92,Vmaxpu=1.5,model=1,daily=COM1_9,status=variable
new load.IP8247922M1 bus1=BBT923739.1.2.0,Phases=2,kv=0.22,kW=0.1317,pf=0.92,Vminpu=0.92,Vmaxpu=1.5,model=1,daily=IP,status=variable
new load.IP8247923M1 bus1=BBT923753.1.2.0,Phases=2,kv=0.22,kW=0.1317,pf=0.92,Vminpu=0.92,Vmaxpu=1.5,model=1,daily=IP,status=variable
new load.IP446983M1 bus1=BBT923627.1.2.0,Phases=2,kv=0.22,kW=0.1317,pf=0.92,Vminpu=0.92,Vmaxpu=1.5,model=1,daily=IP,status=variable
new load.IP446990M1 bus1=BBT923634.1.2.0,Phases=2,kv=0.22,kW=0.1317,pf=0.92,Vminpu=0.92,Vmaxpu=1.5,model=1,daily=IP,status=variable
new load.3006511260M1 bus1=RML1051449187.1.2.3.0,Phases=3,kv=0.22,kW=0.66656,pf=0.92,Vminpu=0.92,Vmaxpu=1.5,model=1,daily=RES2_1,status=variable
new load.3010651877M1 bus1=RML1053216176.1.2.3.0,Phases=3,kv=0.22,kW=1.87364,pf=0.92,Vminpu=0.92,Vmaxpu=1.5,model=1,daily=RES4_12,status=variable
new load.3010651888M1 bus1=RML1053216176.1.2.3.0,Phases=3,kv=0.22,kW=0.8025,pf=0.92,Vminpu=0.92,Vmaxpu=1.5,model=1,daily=RES2_11,status=variable
new load.3006125148M1 bus1=RML1051449250.2.3.0,Phases=2,kv=0.22,kW=1.01732,pf=0.92,Vminpu=0.92,Vmaxpu=1.5,model=1,daily=RES2_15,status=variable
new load.3010360798M1 bus1=RML1060158807.1.2.0,Phases=2,kv=0.24,kW=0.2713,pf=0.92,Vminpu=0.92,Vmaxpu=1.5,model=1,daily=RUR3_2,status=variable
new load.3004932616M1 bus1=RML1051658270.1.2.0,Phases=2,kv=0.24,kW=0.31758,pf=0.92,Vminpu=0.92,Vmaxpu=1.5,model=1,daily=RES1_10,status=variable
new load.IP1154725M1 bus1=BBT893009.1.2.0,Phases=2,kv=0.24,kW=0.1317,pf=0.92,Vminpu=0.92,Vmaxpu=1.5,model=1,daily=IP,status=variable
new load.3012933700M1 bus1=RML1060959895.1.2.0,Phases=2,kv=0.24,kW=0.1975,pf=0.92,Vminpu=0.92,Vmaxpu=1.5,model=1,daily=RUR1_11,status=variable
new load.3003114213M1 bus1=RML1051390177.1.2.0,Phases=2,kv=0.24,kW=1.33518,pf=0.92,Vminpu=0.92,Vmaxpu=1.5,model=1,daily=RUR1_21,status=variable
new load.3003114187M1 bus1=RML1052924052.1.2.0,Phases=2,kv=0.24,kW=0.38746,pf=0.92,Vminpu=0.92,Vmaxpu=1.5,model=1,daily=RUR2_21,status=variable
new load.3003114188M1 bus1=RML1052789400.1.2.0,Phases=2,kv=0.24,kW=0.87074,pf=0.92,Vminpu=0.92,Vmaxpu=1.5,model=1,daily=RUR2_21,status=variable
new load.3013277481M1 bus1=RML1060959906.1.0,Phases=1,kv=0.12,kW=0.65052,pf=0.92,Vminpu=0.92,Vmaxpu=1.5,model=1,daily=RES3_11,status=variable
new load.3002563328M1 bus1=RML1052825485.1.0,Phases=1,kv=0.12,kW=0.77676,pf=0.92,Vminpu=0.92,Vmaxpu=1.5,model=1,daily=RES1_4,status=variable
new load.3002563343M1 bus1=RML1052825107.2.0,Phases=1,kv=0.12,kW=1.10718,pf=0.92,Vminpu=0.92,Vmaxpu=1.5,model=1,daily=RES2_6,status=variable
new load.3002563345M1 bus1=RML1055650264.2.0,Phases=1,kv=0.12,kW=0.23166,pf=0.92,Vminpu=0.92,Vmaxpu=1.5,model=1,daily=RES1_4,status=variable
new load.3002563346M1 bus1=RML1055650264.2.0,Phases=1,kv=0.12,kW=0.6693,pf=0.92,Vminpu=0.92,Vmaxpu=1.5,model=1,daily=RES2_6,status=variable
new load.3002563348M1 bus1=RML1052825135.2.0,Phases=1,kv=0.12,kW=0.70058,pf=0.92,Vminpu=0.92,Vmaxpu=1.5,model=1,daily=RES2_6,status=variable
new load.IP426466M1 bus1=BBT894374.1.2.0,Phases=2,kv=0.24,kW=0.1317,pf=0.92,Vminpu=0.92,Vmaxpu=1.5,model=1,daily=IP,status=variable
new load.IP426473M1 bus1=BBT894381.1.2.0,Phases=2,kv=0.24,kW=0.1317,pf=0.92,Vminpu=0.92,Vmaxpu=1.5,model=1,daily=IP,status=variable
new load.IP426424M1 bus1=BBT894318.1.2.0,Phases=2,kv=0.24,kW=0.1317,pf=0.92,Vminpu=0.92,Vmaxpu=1.5,model=1,daily=IP,status=variable
new load.IP426431M1 bus1=BBT894325.1.2.0,Phases=2,kv=0.24,kW=0.1317,pf=0.92,Vminpu=0.92,Vmaxpu=1.5,model=1,daily=IP,status=variable
new load.IP426438M1 bus1=BBT894339.1.2.0,Phases=2,kv=0.24,kW=0.1317,pf=0.92,Vminpu=0.92,Vmaxpu=1.5,model=1,daily=IP,status=variable
new load.IP426445M1 bus1=BBT894353.1.2.0,Phases=2,kv=0.24,kW=0.1317,pf=0.92,Vminpu=0.92,Vmaxpu=1.5,model=1,daily=IP,status=variable
new load.IP426452M1 bus1=BBT894360.1.2.0,Phases=2,kv=0.24,kW=0.1317,pf=0.92,Vminpu=0.92,Vmaxpu=1.5,model=1,daily=IP,status=variable
new load.IP426459M1 bus1=BBT894367.1.2.0,Phases=2,kv=0.24,kW=0.1317,pf=0.92,Vminpu=0.92,Vmaxpu=1.5,model=1,daily=IP,status=variable
new load.IP1262140M1 bus1=BBT2962265.1.2.0,Phases=2,kv=0.24,kW=0.08064,pf=0.92,Vminpu=0.92,Vmaxpu=1.5,model=1,daily=IP,status=variable
new load.IP1262147M1 bus1=BBT2962258.1.2.0,Phases=2,kv=0.24,kW=0.08064,pf=0.92,Vminpu=0.92,Vmaxpu=1.5,model=1,daily=IP,status=variable
new load.IP426396M1 bus1=BBT894290.1.2.0,Phases=2,kv=0.24,kW=0.1317,pf=0.92,Vminpu=0.92,Vmaxpu=1.5,model=1,daily=IP,status=variable
new load.IP426403M1 bus1=BBT894297.1.2.0,Phases=2,kv=0.24,kW=0.1317,pf=0.92,Vminpu=0.92,Vmaxpu=1.5,model=1,daily=IP,status=variable
new load.3001110511M1 bus1=RML1051390044.1.2.0,Phases=2,kv=0.24,kW=0.62022,pf=0.92,Vminpu=0.92,Vmaxpu=1.5,model=1,daily=RES1_1,status=variable
new load.IP1167276M1 bus1=BBT2303411.1.2.0,Phases=2,kv=0.24,kW=0.1317,pf=0.92,Vminpu=0.92,Vmaxpu=1.5,model=1,daily=IP,status=variable
new load.IP1359930M1 bus1=BBT5692783.1.2.0,Phases=2,kv=0.24,kW=0.1317,pf=0.92,Vminpu=0.92,Vmaxpu=1.5,model=1,daily=IP,status=variable
new load.IP1167234M1 bus1=BBT2303425.1.2.0,Phases=2,kv=0.24,kW=0.1317,pf=0.92,Vminpu=0.92,Vmaxpu=1.5,model=1,daily=IP,status=variable
new load.IP1167241M1 bus1=BBT2303418.1.2.0,Phases=2,kv=0.24,kW=0.1317,pf=0.92,Vminpu=0.92,Vmaxpu=1.5,model=1,daily=IP,status=variable
new load.IP1167248M1 bus1=BBT2303390.1.2.0,Phases=2,kv=0.24,kW=0.1317,pf=0.92,Vminpu=0.92,Vmaxpu=1.5,model=1,daily=IP,status=variable
new load.IP1167255M1 bus1=BBT5692699.1.2.0,Phases=2,kv=0.24,kW=0.1317,pf=0.92,Vminpu=0.92,Vmaxpu=1.5,model=1,daily=IP,status=variable
new load.IP1167262M1 bus1=BBT2303397.1.2.0,Phases=2,kv=0.24,kW=0.1317,pf=0.92,Vminpu=0.92,Vmaxpu=1.5,model=1,daily=IP,status=variable
new load.IP1167269M1 bus1=BBT2303404.1.2.0,Phases=2,kv=0.24,kW=0.1317,pf=0.92,Vminpu=0.92,Vmaxpu=1.5,model=1,daily=IP,status=variable
new load.IP1167185M1 bus1=BBT2303369.1.2.0,Phases=2,kv=0.24,kW=0.1317,pf=0.92,Vminpu=0.92,Vmaxpu=1.5,model=1,daily=IP,status=variable
new load.IP1167192M1 bus1=BBT2303362.1.2.0,Phases=2,kv=0.24,kW=0.1317,pf=0.92,Vminpu=0.92,Vmaxpu=1.5,model=1,daily=IP,status=variable
new load.IP1167199M1 bus1=BBT2303348.1.2.0,Phases=2,kv=0.24,kW=0.1317,pf=0.92,Vminpu=0.92,Vmaxpu=1.5,model=1,daily=IP,status=variable
new load.IP1167206M1 bus1=BBT892995.1.2.0,Phases=2,kv=0.24,kW=0.1317,pf=0.92,Vminpu=0.92,Vmaxpu=1.5,model=1,daily=IP,status=variable
new load.IP1167220M1 bus1=BBT2303439.1.2.0,Phases=2,kv=0.24,kW=0.1317,pf=0.92,Vminpu=0.92,Vmaxpu=1.5,model=1,daily=IP,status=variable
new load.IP1167227M1 bus1=BBT2303432.1.2.0,Phases=2,kv=0.24,kW=0.1317,pf=0.92,Vminpu=0.92,Vmaxpu=1.5,model=1,daily=IP,status=variable
new load.3007560392M1 bus1=RML1053519283.1.0,Phases=1,kv=0.12,kW=0.1544,pf=0.92,Vminpu=0.92,Vmaxpu=1.5,model=1,daily=RES2_22,status=variable
new load.3010478903M1 bus1=RML1053763499.1.2.0,Phases=2,kv=0.24,kW=1.08604,pf=0.92,Vminpu=0.92,Vmaxpu=1.5,model=1,daily=RUR4_5,status=variable
new load.3011129537M1 bus1=RML1052868353.1.2.0,Phases=2,kv=0.24,kW=0.71164,pf=0.92,Vminpu=0.92,Vmaxpu=1.5,model=1,daily=RES1_24,status=variable
new load.3012924811M1 bus1=RML1060538844.1.2.0,Phases=2,kv=0.24,kW=0.01136,pf=0.92,Vminpu=0.92,Vmaxpu=1.5,model=1,daily=SERVP1_4,status=variable
new load.IP1167171M1 bus1=BBT2303383.1.2.0,Phases=2,kv=0.24,kW=0.1317,pf=0.92,Vminpu=0.92,Vmaxpu=1.5,model=1,daily=IP,status=variable
new load.IP1167178M1 bus1=BBT2303376.1.2.0,Phases=2,kv=0.24,kW=0.1317,pf=0.92,Vminpu=0.92,Vmaxpu=1.5,model=1,daily=IP,status=variable
new load.3005957362M1 bus1=RML1051390100.1.2.0,Phases=2,kv=0.24,kW=1.6826,pf=0.92,Vminpu=0.92,Vmaxpu=1.5,model=1,daily=RUR2_10,status=variable
new load.3006596224M1 bus1=RML1053172384.1.0,Phases=1,kv=0.12,kW=0.44186,pf=0.92,Vminpu=0.92,Vmaxpu=1.5,model=1,daily=RES1_2,status=variable
new load.3006603830M1 bus1=RML1052868353.1.2.0,Phases=2,kv=0.24,kW=0.65848,pf=0.92,Vminpu=0.92,Vmaxpu=1.5,model=1,daily=RES2_2,status=variable
new load.3006226396M1 bus1=RML1051390100.1.2.0,Phases=2,kv=0.24,kW=0.23116,pf=0.92,Vminpu=0.92,Vmaxpu=1.5,model=1,daily=RES1_17,status=variable
new load.3006542833M1 bus1=RML1051390100.1.2.0,Phases=2,kv=0.24,kW=0.52248,pf=0.92,Vminpu=0.92,Vmaxpu=1.5,model=1,daily=RES2_2,status=variable
new load.3005266602M1 bus1=RML1053260941.1.2.0,Phases=2,kv=0.24,kW=0.21352,pf=0.92,Vminpu=0.92,Vmaxpu=1.5,model=1,daily=RES2_22,status=variable
new load.3011401110M1 bus1=RML1056688854.1.2.0,Phases=2,kv=0.24,kW=0.5204,pf=0.92,Vminpu=0.92,Vmaxpu=1.5,model=1,daily=RES3_3,status=variable
new load.3003114203M1 bus1=RML1051389743.1.2.0,Phases=2,kv=0.24,kW=2.27226,pf=0.92,Vminpu=0.92,Vmaxpu=1.5,model=1,daily=RUR3_19,status=variable