new line.TR12108210 bus1=BMT177689327.1.2.3,bus2=BMT1160340B.1.2.3,Phases=3,Linecode=CABA06_3_3,Length=0.041380000,Units=km
new line.TR12108211 bus1=BMT1160340B.1.2.3,bus2=BMT1160361B.1.2.3,Phases=3,Linecode=CABA06_3_3,Length=0.030002000,Units=km
new line.TR12108212 bus1=BMT1160361B.1.2.3,bus2=BMT1160368B.1.2.3,Phases=3,Linecode=CABA06_3_3,Length=0.032740000,Units=km
new line.TR12108213 bus1=BMT1160368B.1.2.3,bus2=BMT1160375B.1.2.3,Phases=3,Linecode=CABA06_3_3,Length=0.030002000,Units=km
new line.TR12108214 bus1=BMT1160375B.1.2.3,bus2=BMT1160382B.1.2.3,Phases=3,Linecode=CABA06_3_3,Length=0.033270000,Units=km
new line.TR12108215 bus1=BMT1160382B.1.2.3,bus2=BMT3285967B.1.2.3,Phases=3,Linecode=CABA06_3_3,Length=0.045770000,Units=km
new line.TR12108216 bus1=BMT3285967B.1.2.3,bus2=BMT8700760B.1.2.3,Phases=3,Linecode=CABA06_3_3,Length=0.036860000,Units=km
new line.TR12108217 bus1=BMT8700760B.1.2.3,bus2=BMT177689329.1.2.3,Phases=3,Linecode=CABA06_3_3,Length=0.040440000,Units=km
new line.TR12111986 bus1=BMT177685886.3,bus2=BMT177685889.3,Phases=1,Linecode=CAB103_3_1,Length=0.038302000,Units=km
new line.TR12116551 bus1=BMT177690778.2,bus2=BMT177690780.2,Phases=1,Linecode=CAB103_3_1,Length=0.067738000,Units=km
new line.TR12117411 bus1=BMT2035606B.1.2.3,bus2=BMT8710118B.1.2.3,Phases=3,Linecode=CAB202_3_3,Length=0.061164000,Units=km
new line.TR12117412 bus1=BMT8710118B.1.2.3,bus2=BMT177686454.1.2.3,Phases=3,Linecode=CAB202_3_3,Length=0.050057000,Units=km
new line.TR12117613 bus1=BMT177687507.1,bus2=BMT177687510.1,Phases=1,Linecode=CAB202_3_1,Length=0.151022000,Units=km
new line.TR12117614 bus1=BMT177687519.1,bus2=BMT8710323B.1,Phases=1,Linecode=CAB202_3_1,Length=0.150565000,Units=km
new line.TR12117615 bus1=BMT8710323B.1,bus2=BMT177687520.1,Phases=1,Linecode=CAB202_3_1,Length=0.191582000,Units=km
new line.TR12117616 bus1=BMT177687520.1,bus2=BMT177687521.1,Phases=1,Linecode=CAB103_3_1,Length=0.071812000,Units=km
new line.TR12120282 bus1=BMT177686425.2,bus2=BMT177686426.2,Phases=1,Linecode=CAB202_3_1,Length=0.051822000,Units=km
new line.TR12120283 bus1=BMT177686426.2,bus2=BMT177686427.2,Phases=1,Linecode=CAB202_3_1,Length=0.052597000,Units=km
new line.TR12120288 bus1=BMT177686428.2,bus2=BMT177686429.2,Phases=1,Linecode=CAB103_3_1,Length=0.035106000,Units=km
new line.TR12120362 bus1=BMT177686429.2,bus2=BMT8713118B.2,Phases=1,Linecode=CAB202_3_1,Length=0.085180000,Units=km
new line.TR12120363 bus1=BMT8713118B.2,bus2=BMT177686430.2,Phases=1,Linecode=CAB202_3_1,Length=0.061871000,Units=km
new line.TR12120365 bus1=BMT8713120B.2,bus2=BMT8713121B.2,Phases=1,Linecode=CAB202_3_1,Length=0.079025000,Units=km
new line.TR12120366 bus1=BMT8713121B.2,bus2=BMT177686433.2,Phases=1,Linecode=CAB202_3_1,Length=0.123229000,Units=km
new line.TR12120367 bus1=BMT177686433.2,bus2=BMT177686435.2,Phases=1,Linecode=CAB202_3_1,Length=0.099259000,Units=km
new line.TR12120368 bus1=BMT177686433.2,bus2=BMT177686436.2,Phases=1,Linecode=CAB103_3_1,Length=0.038264000,Units=km
new line.TR12120377 bus1=BMT177686433.2,bus2=BMT177686437.2,Phases=1,Linecode=CAB202_3_1,Length=0.128233000,Units=km
new line.TR12120378 bus1=BMT177686437.2,bus2=BMT177686438.2,Phases=1,Linecode=CAB103_3_1,Length=0.039332000,Units=km
new line.TR12120380 bus1=BMT177686437.2,bus2=BMT177686439.2,Phases=1,Linecode=CAB103_3_1,Length=0.057104000,Units=km
new line.TR12123902 bus1=BMT177689084.1.2.3,bus2=BMT177689085.1.2.3,Phases=3,Linecode=CABA06_3_3,Length=0.052212000,Units=km
new line.TR12131338 bus1=BMT6802298B.3,bus2=BMT177689453.3,Phases=1,Linecode=CAB202_3_1,Length=0.086127000,Units=km
new line.TR12131339 bus1=BMT177689453.3,bus2=BMT177689456.3,Phases=1,Linecode=CAB202_3_1,Length=0.012995000,Units=km
new line.TR12131425 bus1=BMT177689453.3,bus2=BMT8725043B.3,Phases=1,Linecode=CAB202_3_1,Length=0.095092000,Units=km
new line.TR12131426 bus1=BMT8725043B.3,bus2=BMT8725048B.3,Phases=1,Linecode=CAB202_3_1,Length=0.278063000,Units=km
new line.TR12131427 bus1=BMT8725048B.3,bus2=BMT8725050B.3,Phases=1,Linecode=CAB202_3_1,Length=0.170955000,Units=km
new line.TR12131428 bus1=BMT8725050B.3,bus2=BMT8725051B.3,Phases=1,Linecode=CAB202_3_1,Length=0.103961000,Units=km
new line.TR12131429 bus1=BMT8725051B.3,bus2=BMT8725055B.3,Phases=1,Linecode=CAB202_3_1,Length=0.145218000,Units=km
new line.TR12131430 bus1=BMT8725055B.3,bus2=BMT8725066B.3,Phases=1,Linecode=CAB202_3_1,Length=0.067979000,Units=km
new line.TR12131431 bus1=BMT8725066B.3,bus2=BMT8725067B.3,Phases=1,Linecode=CAB202_3_1,Length=0.062215000,Units=km
new line.TR12131432 bus1=BMT8725067B.3,bus2=BMT8725091B.3,Phases=1,Linecode=CAB202_3_1,Length=0.092417000,Units=km
new line.TR12131433 bus1=BMT8725091B.3,bus2=BMT8725094B.3,Phases=1,Linecode=CAB202_3_1,Length=0.114237000,Units=km
new line.TR12131434 bus1=BMT8725094B.3,bus2=BMT8725096B.3,Phases=1,Linecode=CAB202_3_1,Length=0.098797000,Units=km
new line.TR12131435 bus1=BMT8725096B.3,bus2=BMT8725098B.3,Phases=1,Linecode=CAB202_3_1,Length=0.086728000,Units=km
new line.TR12131436 bus1=BMT8725098B.3,bus2=BMT177689457.3,Phases=1,Linecode=CAB202_3_1,Length=0.078229000,Units=km
new line.TR12137937 bus1=BMT177689324.1,bus2=BMT177689325.1,Phases=1,Linecode=CABA06_3_1,Length=0.039388000,Units=km
new line.TR12138008 bus1=BMT177686605.3,bus2=BMT8731554B.3,Phases=1,Linecode=CAB202_3_1,Length=0.557645000,Units=km
new line.TR12138009 bus1=BMT8731554B.3,bus2=BMT8731555B.3,Phases=1,Linecode=CAB202_3_1,Length=0.152203000,Units=km
new line.TR12138010 bus1=BMT8731555B.3,bus2=BMT8731556B.3,Phases=1,Linecode=CAB202_3_1,Length=0.105232000,Units=km
new line.TR12138011 bus1=BMT8731556B.3,bus2=BMT8731557B.3,Phases=1,Linecode=CAB202_3_1,Length=0.036223000,Units=km
new line.TR12138012 bus1=BMT8731557B.3,bus2=BMT8731582B.3,Phases=1,Linecode=CAB202_3_1,Length=0.247708000,Units=km
new line.TR12138013 bus1=BMT8731582B.3,bus2=BMT8731558B.3,Phases=1,Linecode=CAB202_3_1,Length=0.156169000,Units=km
new line.TR12138014 bus1=BMT8731558B.3,bus2=BMT8731559B.3,Phases=1,Linecode=CAB202_3_1,Length=0.182867000,Units=km
new line.TR12138034 bus1=BMT8731559B.3,bus2=BMT8731560B.3,Phases=1,Linecode=CAB202_3_1,Length=0.271468000,Units=km
new line.TR12138035 bus1=BMT8731560B.3,bus2=BMT8731561B.3,Phases=1,Linecode=CAB202_3_1,Length=0.054412000,Units=km
new line.TR12138036 bus1=BMT8731561B.3,bus2=BMT8731563B.3,Phases=1,Linecode=CAB202_3_1,Length=0.153694000,Units=km
new line.TR12138037 bus1=BMT8731563B.3,bus2=BMT8731564B.3,Phases=1,Linecode=CAB202_3_1,Length=0.295836000,Units=km
new line.TR12138038 bus1=BMT8731564B.3,bus2=BMT177686606.3,Phases=1,Linecode=CAB202_3_1,Length=0.221566000,Units=km
new line.TR12138039 bus1=BMT177686606.3,bus2=BMT8731567B.3,Phases=1,Linecode=CAB202_3_1,Length=0.050923000,Units=km
new line.TR12138040 bus1=BMT8731567B.3,bus2=BMT177686607.3,Phases=1,Linecode=CAB202_3_1,Length=0.031804000,Units=km
new line.TR12138041 bus1=BMT177686607.3,bus2=BMT177686609.3,Phases=1,Linecode=CAB103_3_1,Length=0.036098000,Units=km
new line.TR12138057 bus1=BMT177686607.3,bus2=BMT8731570B.3,Phases=1,Linecode=CAB202_3_1,Length=0.352667000,Units=km
new line.TR12138058 bus1=BMT8731570B.3,bus2=BMT8731571B.3,Phases=1,Linecode=CAB202_3_1,Length=0.103170000,Units=km
new line.TR12138059 bus1=BMT8731571B.3,bus2=BMT177686610.3,Phases=1,Linecode=CAB202_3_1,Length=0.166119000,Units=km
new line.TR12138060 bus1=BMT177686610.3,bus2=BMT177686611.3,Phases=1,Linecode=CAB202_3_1,Length=0.203714000,Units=km
new line.TR12138061 bus1=BMT177686610.3,bus2=BMT177686612.3,Phases=1,Linecode=CAB202_3_1,Length=0.201253000,Units=km
new line.TR12141056 bus1=BMT177689320.1.2.3,bus2=BMT177689323.1.2.3,Phases=3,Linecode=CABA06_3_3,Length=0.022012000,Units=km
new line.TR12141057 bus1=BMT177689330.1.2.3,bus2=BMT1160179B.1.2.3,Phases=3,Linecode=CABA06_3_3,Length=0.025483000,Units=km
new line.TR12141058 bus1=BMT1160179B.1.2.3,bus2=BMT1160200B.1.2.3,Phases=3,Linecode=CABA06_3_3,Length=0.036217000,Units=km
new line.TR12141059 bus1=BMT1160200B.1.2.3,bus2=BMT1160207B.1.2.3,Phases=3,Linecode=CABA06_3_3,Length=0.030791000,Units=km
new line.TR12141060 bus1=BMT1160207B.1.2.3,bus2=BMT1160214B.1.2.3,Phases=3,Linecode=CABA06_3_3,Length=0.032786000,Units=km
new line.TR12141062 bus1=BMT8734992B.1.2.3,bus2=BMT177689331.1.2.3,Phases=3,Linecode=CABA06_3_3,Length=0.036697000,Units=km
new line.TR12141209 bus1=BMT177689127.1.2.3,bus2=BMT8735143B.1.2.3,Phases=3,Linecode=CABA06_3_3,Length=0.030398000,Units=km
new line.TR12141210 bus1=BMT8735143B.1.2.3,bus2=BMT177689130.1.2.3,Phases=3,Linecode=CABA06_3_3,Length=0.029412000,Units=km
new line.TR12141213 bus1=BMT177689126.1.2.3,bus2=BMT8735145B.1.2.3,Phases=3,Linecode=CABA06_3_3,Length=0.034981000,Units=km
new line.TR12141214 bus1=BMT8735145B.1.2.3,bus2=BMT177689127.1.2.3,Phases=3,Linecode=CABA06_3_3,Length=0.036980000,Units=km
new line.TR12141215 bus1=BMT8735146B.1.2.3,bus2=BMT5182050B.1.2.3,Phases=3,Linecode=CABA06_3_3,Length=0.040426000,Units=km
new line.TR12141216 bus1=BMT177689124.1.2.3,bus2=BMT8735146B.1.2.3,Phases=3,Linecode=CABA06_3_3,Length=0.020213000,Units=km
new line.TR12141523 bus1=BMT5182064B.1.2.3,bus2=BMT8735440B.1.2.3,Phases=3,Linecode=CABA06_3_3,Length=0.058662000,Units=km
new line.TR12141524 bus1=BMT8735440B.1.2.3,bus2=BMT177689084.1.2.3,Phases=3,Linecode=CABA06_3_3,Length=0.055079000,Units=km
new line.TR12141525 bus1=BMT177689082.1.2.3,bus2=BMT8735441B.1.2.3,Phases=3,Linecode=CABA06_3_3,Length=0.061999000,Units=km
new line.TR12141526 bus1=BMT8735441B.1.2.3,bus2=BMT5182064B.1.2.3,Phases=3,Linecode=CABA06_3_3,Length=0.060267000,Units=km
new line.TR12141628 bus1=BMT8735533B.1.2.3,bus2=BMT177689082.1.2.3,Phases=3,Linecode=CABA06_3_3,Length=0.041282000,Units=km
new line.TR12141629 bus1=BMT5182092B.1.2.3,bus2=BMT8735533B.1.2.3,Phases=3,Linecode=CABA06_3_3,Length=0.045330000,Units=km
new line.TR12141631 bus1=BMT8735534B.1.2.3,bus2=BMT5182092B.1.2.3,Phases=3,Linecode=CABA06_3_3,Length=0.060382000,Units=km
new line.TR12141635 bus1=BMT8735536B.1.2.3,bus2=BMT3258156B.1.2.3,Phases=3,Linecode=CABA06_3_3,Length=0.060382000,Units=km
new line.TR12141699 bus1=BMT5182106B.1.2.3,bus2=BMT8735613B.1.2.3,Phases=3,Linecode=CABA06_3_3,Length=0.063116000,Units=km
new line.TR12141700 bus1=BMT8735613B.1.2.3,bus2=BMT3258163B.1.2.3,Phases=3,Linecode=CABA06_3_3,Length=0.058662000,Units=km
new line.TR12141702 bus1=BMT8735618B.1.2.3,bus2=BMT5182106B.1.2.3,Phases=3,Linecode=CABA06_3_3,Length=0.060175000,Units=km
new line.TR12141703 bus1=BMT177689079.1.2.3,bus2=BMT8735624B.1.2.3,Phases=3,Linecode=CABA06_3_3,Length=0.049983000,Units=km
new line.TR12141704 bus1=BMT8735624B.1.2.3,bus2=BMT8735618B.1.2.3,Phases=3,Linecode=CABA06_3_3,Length=0.057943000,Units=km
new line.TR12141710 bus1=BMT3258156B.1.2.3,bus2=BMT3258198B.1.2.3,Phases=3,Linecode=CABA06_3_3,Length=0.035336000,Units=km
new line.TR12141716 bus1=BMT3258163B.1.2.3,bus2=BMT8735536B.1.2.3,Phases=3,Linecode=CABA06_3_3,Length=0.060605000,Units=km
new line.TR12141727 bus1=BMT3258205B.1.2.3,bus2=BMT8735534B.1.2.3,Phases=3,Linecode=CABA06_3_3,Length=0.035209000,Units=km
new line.TR12144999 bus1=BMT177685647.1,bus2=BMT177685650.1,Phases=1,Linecode=CAB103_3_1,Length=0.047265000,Units=km
new line.TR12146346 bus1=BMT177686372.3,bus2=BMT177686373.3,Phases=1,Linecode=CAB202_3_1,Length=0.104592000,Units=km
new line.TR12146347 bus1=BMT177686373.3,bus2=BMT177686374.3,Phases=1,Linecode=CAB202_3_1,Length=0.027568000,Units=km
new line.TR12146362 bus1=BMT177686373.3,bus2=BMT177686375.3,Phases=1,Linecode=CAB202_3_1,Length=0.085530000,Units=km
new line.TR12146370 bus1=BMT177686375.3,bus2=BMT177686376.3,Phases=1,Linecode=CAB103_3_1,Length=0.062321000,Units=km
new line.TR12146440 bus1=BMT177686637.3,bus2=BMT8742460B.3,Phases=1,Linecode=CAB202_3_1,Length=0.064336000,Units=km
new line.TR12146443 bus1=BMT8742460B.3,bus2=BMT177686639.3,Phases=1,Linecode=CAB202_3_1,Length=0.086251000,Units=km
new line.TR12153882 bus1=BMT177688633.2,bus2=BMT5192361B.2,Phases=1,Linecode=CABA06_3_1,Length=0.047402000,Units=km
new line.TR12153883 bus1=BMT5192361B.2,bus2=BMT8128070B.2,Phases=1,Linecode=CABA06_3_1,Length=0.035452000,Units=km
new line.TR12153887 bus1=BMT8128070B.2,bus2=BMT177688634.2,Phases=1,Linecode=CABA06_3_1,Length=0.041091000,Units=km
new line.TR12153898 bus1=BMT177688634.2,bus2=BMT8749662B.2,Phases=1,Linecode=CABA06_3_1,Length=0.042992000,Units=km
new line.TR12153899 bus1=BMT8749662B.2,bus2=BMT8749663B.2,Phases=1,Linecode=CABA06_3_1,Length=0.039390000,Units=km
new line.TR12153905 bus1=BMT8749663B.2,bus2=BMT8749667B.2,Phases=1,Linecode=CABA06_3_1,Length=0.039390000,Units=km
new line.TR12153907 bus1=BMT8749667B.2,bus2=BMT8749668B.2,Phases=1,Linecode=CABA06_3_1,Length=0.035789000,Units=km
new line.TR12154781 bus1=BMT177690902.2,bus2=BMT8750483B.2,Phases=1,Linecode=CAB202_3_1,Length=0.087246000,Units=km
new line.TR12154786 bus1=BMT8750483B.2,bus2=BMT8750485B.2,Phases=1,Linecode=CAB202_3_1,Length=0.098799000,Units=km
new line.TR12154787 bus1=BMT8750485B.2,bus2=BMT8750486B.2,Phases=1,Linecode=CAB202_3_1,Length=0.108609000,Units=km
new line.TR12154788 bus1=BMT8750486B.2,bus2=BMT8750487B.2,Phases=1,Linecode=CAB202_3_1,Length=0.108438000,Units=km
new line.TR12154789 bus1=BMT8750487B.2,bus2=BMT8750488B.2,Phases=1,Linecode=CAB202_3_1,Length=0.098981000,Units=km
new line.TR12154790 bus1=BMT8750488B.2,bus2=BMT8750489B.2,Phases=1,Linecode=CAB202_3_1,Length=0.113532000,Units=km
new line.TR12154791 bus1=BMT8750489B.2,bus2=BMT8750490B.2,Phases=1,Linecode=CAB202_3_1,Length=0.141633000,Units=km
new line.TR12154792 bus1=BMT8750490B.2,bus2=BMT8750491B.2,Phases=1,Linecode=CAB202_3_1,Length=0.049790000,Units=km
new line.TR12154793 bus1=BMT8750491B.2,bus2=BMT8750492B.2,Phases=1,Linecode=CAB202_3_1,Length=0.083675000,Units=km
new line.TR12154799 bus1=BMT8750492B.2,bus2=BMT8750493B.2,Phases=1,Linecode=CAB202_3_1,Length=0.050010000,Units=km
new line.TR12154801 bus1=BMT8750493B.2,bus2=BMT8750496B.2,Phases=1,Linecode=CAB202_3_1,Length=0.263991000,Units=km
new line.TR12154802 bus1=BMT8750496B.2,bus2=BMT177690903.2,Phases=1,Linecode=CAB103_3_1,Length=0.020013000,Units=km
new line.TR12159093 bus1=BMT177687566.3,bus2=BMT177687568.3,Phases=1,Linecode=CAB103_3_1,Length=0.020389000,Units=km
new line.TR12160880 bus1=BMT177687246.2,bus2=BMT8757563B.2,Phases=1,Linecode=CAB103_3_1,Length=0.022122000,Units=km
new line.TR12160882 bus1=BMT8757563B.2,bus2=BMT8757565B.2,Phases=1,Linecode=CAB103_3_1,Length=0.061361000,Units=km
new line.TR12160885 bus1=BMT8757565B.2,bus2=BMT177687249.2,Phases=1,Linecode=CAB103_3_1,Length=0.057235000,Units=km
new line.TR12163265 bus1=BMT177686035.1,bus2=BMT177686036.1,Phases=1,Linecode=CAB202_3_1,Length=0.089814000,Units=km
new line.TR12163267 bus1=BMT177686036.1,bus2=BMT177686037.1,Phases=1,Linecode=CAB103_3_1,Length=0.021620000,Units=km
new line.TR12181341 bus1=BMT177690938.1,bus2=BMT177690939.1,Phases=1,Linecode=CAB202_3_1,Length=0.131714000,Units=km
new line.TR12181342 bus1=BMT177690939.1,bus2=BMT177690940.1,Phases=1,Linecode=CAB202_3_1,Length=0.106822000,Units=km
new line.TR12181369 bus1=BMT177690943.1,bus2=BMT8780366B.1,Phases=1,Linecode=CAB202_3_1,Length=0.091878000,Units=km
new line.TR12181370 bus1=BMT8780366B.1,bus2=BMT177690944.1,Phases=1,Linecode=CAB202_3_1,Length=0.038160000,Units=km
new line.TR12181373 bus1=BMT177690944.1,bus2=BMT177690945.1,Phases=1,Linecode=CAB103_3_1,Length=0.059512000,Units=km
new line.TR12183081 bus1=BMT177686977.3,bus2=BMT8782414B.3,Phases=1,Linecode=CAB202_3_1,Length=0.048517000,Units=km
new line.TR12183082 bus1=BMT8782414B.3,bus2=BMT177686978.3,Phases=1,Linecode=CAB202_3_1,Length=0.056266000,Units=km
new line.TR12183389 bus1=BMT5235964B.1.2.3,bus2=BMT8783074B.1.2.3,Phases=3,Linecode=CAB202_3_3,Length=0.096285000,Units=km
new line.TR12183390 bus1=BMT8783074B.1.2.3,bus2=BMT5236307B.1.2.3,Phases=3,Linecode=CAB202_3_3,Length=0.341149000,Units=km
new line.TR12184669 bus1=BMT177685597.1.2.3,bus2=BMT177685598.1.2.3,Phases=3,Linecode=CAB204_3_3,Length=0.052320000,Units=km
new line.TR12184670 bus1=BMT177685599.1.2.3,bus2=BMT177685600.1.2.3,Phases=3,Linecode=CAB204_3_3,Length=0.031744000,Units=km
new line.TR12184944 bus1=BMT8511320B.1.2.3,bus2=BMT8784368B.1.2.3,Phases=3,Linecode=CABA06_3_3,Length=0.034347000,Units=km
new line.TR12184945 bus1=BMT8784368B.1.2.3,bus2=BMT177689186.1.2.3,Phases=3,Linecode=CABA06_3_3,Length=0.040178000,Units=km
new line.TR12184946 bus1=BMT177689186.1.2.3,bus2=BMT8784369B.1.2.3,Phases=3,Linecode=CABA06_3_3,Length=0.039183000,Units=km
new line.TR12184947 bus1=BMT8784369B.1.2.3,bus2=BMT177689189.1.2.3,Phases=3,Linecode=CABA06_3_3,Length=0.047240000,Units=km
new line.TR12184976 bus1=BMT177689976.3,bus2=BMT177689977.3,Phases=1,Linecode=CABA06_3_1,Length=0.036858000,Units=km
new line.TR12184984 bus1=BMT177689977.3,bus2=BMT177689978.3,Phases=1,Linecode=CABA06_3_1,Length=0.035786000,Units=km
new line.TR12184986 bus1=BMT177689978.3,bus2=BMT1143148B.3,Phases=1,Linecode=CABA06_3_1,Length=0.043116000,Units=km
new line.TR12184993 bus1=BMT1143148B.3,bus2=BMT8784404B.3,Phases=1,Linecode=CABA06_3_1,Length=0.029716000,Units=km
new line.TR12184994 bus1=BMT8784404B.3,bus2=BMT1143155B.3,Phases=1,Linecode=CABA06_3_1,Length=0.030463000,Units=km
new line.TR12184998 bus1=BMT1143155B.3,bus2=BMT5199907B.3,Phases=1,Linecode=CABA06_3_1,Length=0.041858000,Units=km
new line.TR12185000 bus1=BMT5199907B.3,bus2=BMT177689980.3,Phases=1,Linecode=CABA06_3_1,Length=0.035491000,Units=km
new line.TR12185027 bus1=BMT177689978.3,bus2=BMT1143141B.3,Phases=1,Linecode=CABA06_3_1,Length=0.014205000,Units=km
new line.TR12185028 bus1=BMT1143141B.3,bus2=BMT5200005B.3,Phases=1,Linecode=CABA06_3_1,Length=0.030463000,Units=km
new line.TR12185031 bus1=BMT5200005B.3,bus2=BMT8784430B.3,Phases=1,Linecode=CABA06_3_1,Length=0.017484000,Units=km
new line.TR12185032 bus1=BMT8784430B.3,bus2=BMT8784432B.3,Phases=1,Linecode=CABA06_3_1,Length=0.026818000,Units=km
new line.TR12185039 bus1=BMT8784432B.3,bus2=BMT177689981.3,Phases=1,Linecode=CABA06_3_1,Length=0.021013000,Units=km
new line.TR12185991 bus1=BMT177794703.1.2.3,bus2=BMT8785449B.1.2.3,Phases=3,Linecode=CABA06_3_3,Length=0.047053000,Units=km
new line.TR12185992 bus1=BMT8785449B.1.2.3,bus2=BMT8785448B.1.2.3,Phases=3,Linecode=CABA06_3_3,Length=0.043397000,Units=km
new line.TR12185993 bus1=BMT8785448B.1.2.3,bus2=BMT177794704.1.2.3,Phases=3,Linecode=CABA06_3_3,Length=0.031766000,Units=km
new line.TR12186120 bus1=BMT177688649.1.2.3,bus2=BMT177687783.1.2.3,Phases=3,Linecode=CAB102_3_3,Length=0.022462000,Units=km
new line.TR12188150 bus1=BMT177687432.1.2.3,bus2=BMT177691163.1.2.3,Phases=3,Linecode=CAB103_3_3,Length=0.003604000,Units=km
new line.TR12190243 bus1=BMT177687500.1.2.3,bus2=BMT177687501.1.2.3,Phases=3,Linecode=CAB204_3_3,Length=0.029821000,Units=km
new line.TR12190286 bus1=BMT177687195.2,bus2=BMT177687196.2,Phases=1,Linecode=CAB202_3_1,Length=0.226543000,Units=km
new line.TR12190287 bus1=BMT177687196.2,bus2=BMT177687197.2,Phases=1,Linecode=CAB202_3_1,Length=0.038809000,Units=km
new line.TR12190292 bus1=BMT177687196.2,bus2=BMT177687198.2,Phases=1,Linecode=CAB103_3_1,Length=0.060427000,Units=km
new line.TR12190918 bus1=BMT177689156.1.2.3,bus2=BMT1101246B.1.2.3,Phases=3,Linecode=CABA06_3_3,Length=0.029053000,Units=km
new line.TR12190925 bus1=BMT1101246B.1.2.3,bus2=BMT1101232B.1.2.3,Phases=3,Linecode=CABA06_3_3,Length=0.029259000,Units=km
new line.TR12190930 bus1=BMT1101232B.1.2.3,bus2=BMT1101183B.1.2.3,Phases=3,Linecode=CABA06_3_3,Length=0.032232000,Units=km
new line.TR12190938 bus1=BMT1101183B.1.2.3,bus2=BMT1101190B.1.2.3,Phases=3,Linecode=CABA06_3_3,Length=0.034114000,Units=km
new line.TR12190939 bus1=BMT1101190B.1.2.3,bus2=BMT177689158.1.2.3,Phases=3,Linecode=CABA06_3_3,Length=0.031384000,Units=km
new line.TR12194584 bus1=BMT177686836.3,bus2=BMT177686837.3,Phases=1,Linecode=CAB202_3_1,Length=0.083352000,Units=km
new line.TR12194591 bus1=BMT177686837.3,bus2=BMT177686838.3,Phases=1,Linecode=CAB202_3_1,Length=0.068108000,Units=km
new line.TR12194593 bus1=BMT177686838.3,bus2=BMT177686840.3,Phases=1,Linecode=CAB103_3_1,Length=0.044355000,Units=km
new line.TR12195163 bus1=BMT177689148.1.2.3,bus2=BMT1101932B.1.2.3,Phases=3,Linecode=CABA06_3_3,Length=0.035209000,Units=km
new line.TR12195164 bus1=BMT1101932B.1.2.3,bus2=BMT1101918B.1.2.3,Phases=3,Linecode=CABA06_3_3,Length=0.037316000,Units=km
new line.TR12195165 bus1=BMT1101918B.1.2.3,bus2=BMT1101897B.1.2.3,Phases=3,Linecode=CABA06_3_3,Length=0.039438000,Units=km
new line.TR12195166 bus1=BMT1101897B.1.2.3,bus2=BMT1101883B.1.2.3,Phases=3,Linecode=CABA06_3_3,Length=0.035336000,Units=km
new line.TR12195167 bus1=BMT1101883B.1.2.3,bus2=BMT1101876B.1.2.3,Phases=3,Linecode=CABA06_3_3,Length=0.036326000,Units=km
new line.TR12195168 bus1=BMT1101876B.1.2.3,bus2=BMT177689150.1.2.3,Phases=3,Linecode=CABA06_3_3,Length=0.036326000,Units=km
new line.TR12195169 bus1=BMT177689150.1.2.3,bus2=BMT177689151.1.2.3,Phases=3,Linecode=CABA06_3_3,Length=0.041414000,Units=km
new line.TR12196028 bus1=BMT4668964B.1.2.3,bus2=BMT177687305.1.2.3,Phases=3,Linecode=CAB107_3_3,Length=0.060962000,Units=km
new line.TR12196051 bus1=BMT177687307.1.2.3,bus2=BMT177687308.1.2.3,Phases=3,Linecode=CABA08_3_3,Length=0.026290000,Units=km
new line.TR12199313 bus1=BMT177685601.1,bus2=BMT177685603.1,Phases=1,Linecode=CAB103_3_1,Length=0.022189000,Units=km
new line.TR12199314 bus1=BMT177685603.1,bus2=BMT8800848B.1,Phases=1,Linecode=CAB202_3_1,Length=0.072752000,Units=km
new line.TR12199315 bus1=BMT8800848B.1,bus2=BMT8800851B.1,Phases=1,Linecode=CAB202_3_1,Length=0.084754000,Units=km
new line.TR12199316 bus1=BMT8800851B.1,bus2=BMT8800854B.1,Phases=1,Linecode=CAB202_3_1,Length=0.071401000,Units=km
new line.TR12199317 bus1=BMT8800854B.1,bus2=BMT177685604.1,Phases=1,Linecode=CAB202_3_1,Length=0.054534000,Units=km
new line.TR12199423 bus1=BMT5322624B.3,bus2=BMT177689960.3,Phases=1,Linecode=CAB202_3_1,Length=0.081498000,Units=km
new line.TR12199424 bus1=BMT177689960.3,bus2=BMT5322631B.3,Phases=1,Linecode=CAB202_3_1,Length=0.078679000,Units=km
new line.TR12199431 bus1=BMT177689960.3,bus2=BMT8800905B.3,Phases=1,Linecode=CAB202_3_1,Length=0.051198000,Units=km
new line.TR12199432 bus1=BMT8800905B.3,bus2=BMT8800907B.3,Phases=1,Linecode=CAB202_3_1,Length=0.056820000,Units=km
new line.TR12199434 bus1=BMT8800907B.3,bus2=BMT8800908B.3,Phases=1,Linecode=CAB202_3_1,Length=0.137112000,Units=km
new line.TR12199435 bus1=BMT8800908B.3,bus2=BMT177689962.3,Phases=1,Linecode=CAB202_3_1,Length=0.088434000,Units=km
new line.TR12204447 bus1=BMT177689169.1.2.3,bus2=BMT1102079B.1.2.3,Phases=3,Linecode=CABA06_3_3,Length=0.033224000,Units=km
new line.TR12204449 bus1=BMT1102079B.1.2.3,bus2=BMT177689170.1.2.3,Phases=3,Linecode=CABA06_3_3,Length=0.034114000,Units=km
new line.TR12204450 bus1=BMT177689170.1.2.3,bus2=BMT2241497B.1.2.3,Phases=3,Linecode=CABA06_3_3,Length=0.035336000,Units=km
new line.TR12204451 bus1=BMT2241497B.1.2.3,bus2=BMT8805782B.1.2.3,Phases=3,Linecode=CABA06_3_3,Length=0.038032000,Units=km
new line.TR12204452 bus1=BMT8805782B.1.2.3,bus2=BMT8805783B.1.2.3,Phases=3,Linecode=CABA06_3_3,Length=0.028056000,Units=km
new line.TR12204520 bus1=BMT8805783B.1.2.3,bus2=BMT8805784B.1.2.3,Phases=3,Linecode=CABA06_3_3,Length=0.033224000,Units=km
new line.TR12204521 bus1=BMT8805784B.1.2.3,bus2=BMT8805785B.1.2.3,Phases=3,Linecode=CABA06_3_3,Length=0.027280000,Units=km
new line.TR12204522 bus1=BMT8805785B.1.2.3,bus2=BMT8805786B.1.2.3,Phases=3,Linecode=CABA06_3_3,Length=0.023333000,Units=km
new line.TR12204524 bus1=BMT8805786B.1.2.3,bus2=BMT8805791B.1.2.3,Phases=3,Linecode=CABA06_3_3,Length=0.030134000,Units=km
new line.TR12204525 bus1=BMT8805791B.1.2.3,bus2=BMT177689171.1.2.3,Phases=3,Linecode=CABA06_3_3,Length=0.021084000,Units=km
new line.TR12204528 bus1=BMT177689170.1.2.3,bus2=BMT2241504B.1.2.3,Phases=3,Linecode=CABA06_3_3,Length=0.038189000,Units=km
new line.TR12204529 bus1=BMT2241504B.1.2.3,bus2=BMT2241511B.1.2.3,Phases=3,Linecode=CABA06_3_3,Length=0.041571000,Units=km
new line.TR12204530 bus1=BMT2241511B.1.2.3,bus2=BMT3437265B.1.2.3,Phases=3,Linecode=CABA06_3_3,Length=0.040290000,Units=km
new line.TR12204536 bus1=BMT3437265B.1.2.3,bus2=BMT8805843B.1.2.3,Phases=3,Linecode=CABA06_3_3,Length=0.032371000,Units=km
new line.TR12204537 bus1=BMT8805843B.1.2.3,bus2=BMT177689172.1.2.3,Phases=3,Linecode=CABA06_3_3,Length=0.024318000,Units=km
new line.TR12211138 bus1=BMT177689336.1,bus2=BMT2253061B.1,Phases=1,Linecode=CABA06_3_1,Length=0.032434000,Units=km
new line.TR12211172 bus1=BMT2253061B.1,bus2=BMT2253068B.1,Phases=1,Linecode=CABA06_3_1,Length=0.033270000,Units=km
new line.TR12211173 bus1=BMT2253068B.1,bus2=BMT8285780B.1,Phases=1,Linecode=CABA06_3_1,Length=0.019096000,Units=km
new line.TR12211174 bus1=BMT8285780B.1,bus2=BMT8285787B.1,Phases=1,Linecode=CABA06_3_1,Length=0.014415000,Units=km
new line.TR12211175 bus1=BMT8285787B.1,bus2=BMT8285822B.1,Phases=1,Linecode=CABA06_3_1,Length=0.027500000,Units=km
new line.TR12211176 bus1=BMT8285822B.1,bus2=BMT8285829B.1,Phases=1,Linecode=CABA06_3_1,Length=0.024726000,Units=km
new line.TR12211181 bus1=BMT8285829B.1,bus2=BMT177689337.1,Phases=1,Linecode=CABA06_3_1,Length=0.039540000,Units=km
new line.TR12214781 bus1=BMT177686880.3,bus2=BMT177686881.3,Phases=1,Linecode=CAB103_3_1,Length=0.057667000,Units=km
new line.TR12214782 bus1=BMT177686881.3,bus2=BMT177686882.3,Phases=1,Linecode=CAB103_3_1,Length=0.013593000,Units=km
new line.TR12214783 bus1=BMT177686881.3,bus2=BMT177686883.3,Phases=1,Linecode=CAB103_3_1,Length=0.078763000,Units=km
new line.TR12227477 bus1=BMT177690410.1.2.3,bus2=BMT177690411.1.2.3,Phases=3,Linecode=CAB202_3_3,Length=0.108242000,Units=km
new line.TR12231463 bus1=BMT177690410.1.2.3,bus2=BMT8832428B.1.2.3,Phases=3,Linecode=CAB202_3_3,Length=0.062232000,Units=km
new line.TR12232024 bus1=BMT177690409.1.2.3,bus2=BMT177690410.1.2.3,Phases=3,Linecode=CAB202_3_3,Length=0.088344000,Units=km
new line.TR12232030 bus1=BMT8832428B.1.2.3,bus2=BMT177690412.1.2.3,Phases=3,Linecode=CAB202_3_3,Length=0.103776000,Units=km
new line.TR12232033 bus1=BMT177690412.3,bus2=BMT177689092.3,Phases=1,Linecode=CAB202_3_1,Length=0.185814000,Units=km
new line.TR12233859 bus1=BMT2995509B.2,bus2=BMT177690709.2,Phases=1,Linecode=CAB202_3_1,Length=0.057457000,Units=km
new line.TR12233860 bus1=BMT177690709.2,bus2=BMT177690710.2,Phases=1,Linecode=CAB202_3_1,Length=0.449994000,Units=km
new line.TR12233862 bus1=BMT177690709.2,bus2=BMT177690711.2,Phases=1,Linecode=CAB103_3_1,Length=0.037715000,Units=km
new line.TR12235065 bus1=BMT177690412.1.2.3,bus2=BMT8832459B.1.2.3,Phases=3,Linecode=CAB202_3_3,Length=0.123518000,Units=km
new line.TR12235066 bus1=BMT8832459B.1.2.3,bus2=BMT177690413.1.2.3,Phases=3,Linecode=CAB202_3_3,Length=0.115290000,Units=km
new line.TR12235068 bus1=BMT177690413.1.2.3,bus2=BMT177690414.1.2.3,Phases=3,Linecode=CAB202_3_3,Length=0.349019000,Units=km
new line.TR12242986 bus1=BMT7798454B.1.2.3,bus2=BMT8844663B.1.2.3,Phases=3,Linecode=CAB204_3_3,Length=0.197845000,Units=km
new line.TR12242987 bus1=BMT8844663B.1.2.3,bus2=BMT7798440B.1.2.3,Phases=3,Linecode=CAB204_3_3,Length=0.226320000,Units=km
new line.TR12243015 bus1=BMT7798426B.1.2.3,bus2=BMT8844683B.1.2.3,Phases=3,Linecode=CAB204_3_3,Length=0.092666000,Units=km
new line.TR12243016 bus1=BMT8844683B.1.2.3,bus2=BMT7798454B.1.2.3,Phases=3,Linecode=CAB204_3_3,Length=0.109668000,Units=km
new line.TR12243030 bus1=BMT8844689B.1.2.3,bus2=BMT177687321.1.2.3,Phases=3,Linecode=CAB204_3_3,Length=0.067014000,Units=km
new line.TR12243033 bus1=BMT8844691B.1.2.3,bus2=BMT8844689B.1.2.3,Phases=3,Linecode=CAB204_3_3,Length=0.063854000,Units=km
new line.TR12243037 bus1=BMT177687320.1.2.3,bus2=BMT8844691B.1.2.3,Phases=3,Linecode=CAB204_3_3,Length=0.440262000,Units=km
new line.TR12243040 bus1=BMT3621407B.1.2.3,bus2=BMT177690845.1.2.3,Phases=3,Linecode=CAB207_3_3,Length=0.037926000,Units=km
new line.TR12243041 bus1=BMT177690845.1.2.3,bus2=BMT3621414B.1.2.3,Phases=3,Linecode=CAB207_3_3,Length=0.055941000,Units=km
new line.TR12243050 bus1=BMT177690845.1.2.3,bus2=BMT8844700B.1.2.3,Phases=3,Linecode=CAB202_3_3,Length=0.085950000,Units=km
new line.TR12243052 bus1=BMT8844700B.1.2.3,bus2=BMT8844710B.1.2.3,Phases=3,Linecode=CAB202_3_3,Length=0.066181000,Units=km
new line.TR12243057 bus1=BMT8844710B.1.2.3,bus2=BMT177690847.1.2.3,Phases=3,Linecode=CAB202_3_3,Length=0.065399000,Units=km
new line.TR12253513 bus1=BMT177686775.3,bus2=BMT177686778.3,Phases=1,Linecode=CAB202_3_1,Length=0.043629000,Units=km
new line.TR12253514 bus1=BMT177686778.3,bus2=BMT5363742B.3,Phases=1,Linecode=CAB202_3_1,Length=0.124915000,Units=km
new line.TR12253519 bus1=BMT177686778.3,bus2=BMT177686780.3,Phases=1,Linecode=CAB103_3_1,Length=0.023754000,Units=km
new line.TR12257491 bus1=BMT177688329.1,bus2=BMT177688330.1,Phases=1,Linecode=CAB202_3_1,Length=0.085442000,Units=km
new line.TR12257492 bus1=BMT177688330.1,bus2=BMT177688331.1,Phases=1,Linecode=CAB202_3_1,Length=0.216364000,Units=km
new line.TR12257493 bus1=BMT177688330.1,bus2=BMT177688332.1,Phases=1,Linecode=CAB202_3_1,Length=0.252363000,Units=km
new line.TR12271731 bus1=BMT177688371.1,bus2=BMT177688381.1,Phases=1,Linecode=CAB202_3_1,Length=0.209609000,Units=km
new line.TR12271732 bus1=BMT177688381.1,bus2=BMT177688382.1,Phases=1,Linecode=CAB202_3_1,Length=0.113978000,Units=km
new line.TR12271734 bus1=BMT177688381.1,bus2=BMT8875511B.1,Phases=1,Linecode=CAB202_3_1,Length=0.068238000,Units=km
new line.TR12271735 bus1=BMT8875511B.1,bus2=BMT177688383.1,Phases=1,Linecode=CAB202_3_1,Length=0.143534000,Units=km
new line.TR12280663 bus1=BMT2994557B.2,bus2=BMT177690738.2,Phases=1,Linecode=CAB202_3_1,Length=0.080234000,Units=km
new line.TR12280664 bus1=BMT177690738.2,bus2=BMT177690739.2,Phases=1,Linecode=CAB202_3_1,Length=0.075883000,Units=km
new line.TR12280668 bus1=BMT177690738.2,bus2=BMT177690740.2,Phases=1,Linecode=CAB202_3_1,Length=0.192928000,Units=km
new line.TR12284839 bus1=BMT177690727.2,bus2=BMT177690729.2,Phases=1,Linecode=CAB202_3_1,Length=0.072069000,Units=km
new line.TR12284840 bus1=BMT177690729.2,bus2=BMT177690730.2,Phases=1,Linecode=CAB202_3_1,Length=0.092293000,Units=km