new line.10005162 bus1=BBT4055533.1.2.0,bus2=BBT145173928.1.2.0,Phases=2,Linecode=BT807_BT807_4_2_3,Length=0.030349000,Units=km
new line.10005169 bus1=BBT145173928.1.2.0,bus2=BBT145173942.1.2.0,Phases=2,Linecode=BT807_BT807_4_2_3,Length=0.039096000,Units=km
new line.10005176 bus1=BBT145173942.1.2.0,bus2=BBT145174026.1.2.0,Phases=2,Linecode=BT807_BT807_4_2_3,Length=0.041416000,Units=km
new line.10006569 bus1=BBT145229956.1.2.0,bus2=BBT145229963.1.2.0,Phases=2,Linecode=BT521_BT521_7_2_1,Length=0.000500000,Units=km
new line.10046735 bus1=BBT146384305.1.2.0,bus2=BBT146384312.1.2.0,Phases=2,Linecode=BT513_BT513_7_2_1,Length=0.000500000,Units=km
new line.10050438 bus1=BBT1534714.1.2.3.0,bus2=BBT146528288.1.2.3.0,Phases=3,Linecode=BT803_BT803_4_3_4,Length=0.030217000,Units=km
new line.10050445 bus1=BBT1534700.1.2.3.0,bus2=BBT146528624.1.2.3.0,Phases=3,Linecode=BT803_BT803_4_3_4,Length=0.008242000,Units=km
new line.10050452 bus1=BBT146528624.1.2.3.0,bus2=BBT146528631.1.2.3.0,Phases=3,Linecode=BT803_BT803_4_3_4,Length=0.025794000,Units=km
new line.10050459 bus1=BBT146528631.1.2.3.0,bus2=BBT146528638.1.2.3.0,Phases=3,Linecode=BT803_BT803_4_3_4,Length=0.026236000,Units=km
new line.10050466 bus1=BBT1535043.1.2.3.0,bus2=BBT146529233.1.2.3.0,Phases=3,Linecode=BT803_BT803_4_3_4,Length=0.022012000,Units=km
new line.10050655 bus1=BBT146535253.1.2.3.0,bus2=BBT1534763.1.2.3.0,Phases=3,Linecode=BT518_BT518_7_3_1,Length=0.000500000,Units=km
new line.10050676 bus1=BBT1532971.1.2.3.0,bus2=BBT146535848.1.2.3.0,Phases=3,Linecode=BT803_BT803_4_3_4,Length=0.029140000,Units=km
new line.10050683 bus1=BBT146535848.1.2.3.0,bus2=BBT146535855.1.2.3.0,Phases=3,Linecode=BT803_BT803_4_3_4,Length=0.048235000,Units=km
new line.10050697 bus1=BBT1534784.1.2.3.0,bus2=BBT146535995.1.2.3.0,Phases=3,Linecode=BT803_BT803_4_3_4,Length=0.027189000,Units=km
new line.10099928 bus1=BBT147890747.1.2.0,bus2=BBT147890754.1.2.0,Phases=2,Linecode=BT521_BT521_7_2_1,Length=0.000500000,Units=km
new line.10099970 bus1=BBT147892112.1.2.0,bus2=BBT147892119.1.2.0,Phases=2,Linecode=BT518_BT518_7_2_1,Length=0.000500000,Units=km
new line.10099984 bus1=BBT147892119.1.2.0,bus2=BBT147892399.1.2.0,Phases=2,Linecode=BT807_BT807_4_2_3,Length=0.039376000,Units=km
new line.10099991 bus1=BBT147892602.1.2.0,bus2=BBT147892609.1.2.0,Phases=2,Linecode=BT521_BT521_7_2_1,Length=0.000500000,Units=km
new line.10100026 bus1=BBT147893932.1.2.0,bus2=BBT147893939.1.2.0,Phases=2,Linecode=BT521_BT521_7_2_1,Length=0.000500000,Units=km
new line.1321424 bus1=BBT1427516.1.2.0,bus2=BBT1427523.1.2.0,Phases=2,Linecode=BT508_BT508_7_2_1,Length=0.000500000,Units=km
new line.1321445 bus1=BBT1427544.1.2.0,bus2=BBT1427551.1.2.0,Phases=2,Linecode=BT508_BT508_7_2_1,Length=0.000500000,Units=km
new line.1321459 bus1=BBT1427572.1.2.0,bus2=BBT1427579.1.2.0,Phases=2,Linecode=BT508_BT508_7_2_1,Length=0.000500000,Units=km
new line.1321480 bus1=BBT1427600.1.2.0,bus2=BBT1427607.1.2.0,Phases=2,Linecode=BT508_BT508_7_2_1,Length=0.000500000,Units=km
new line.1321494 bus1=BBT1427628.1.2.0,bus2=BBT1427635.1.2.0,Phases=2,Linecode=BT508_BT508_7_2_1,Length=0.000500000,Units=km
new line.1321501 bus1=BBT1427635.1.2.0,bus2=BBT6519512.1.2.0,Phases=2,Linecode=BT801_BT801_4_2_3,Length=0.046108000,Units=km
new line.1321508 bus1=BBT1427635.1.2.0,bus2=BBT6519519.1.2.0,Phases=2,Linecode=BT801_BT801_4_2_3,Length=0.060857000,Units=km
new line.1321529 bus1=BBT1427656.1.2.0,bus2=BBT1427663.1.2.0,Phases=2,Linecode=BT508_BT508_7_2_1,Length=0.000500000,Units=km
new line.1321543 bus1=BBT1427684.1.2.0,bus2=BBT1427691.1.2.0,Phases=2,Linecode=BT508_BT508_7_2_1,Length=0.000500000,Units=km
new line.1321557 bus1=BBT1427712.1.2.0,bus2=BBT1427719.1.2.0,Phases=2,Linecode=BT508_BT508_7_2_1,Length=0.000500000,Units=km
new line.1321578 bus1=BBT1427740.1.2.0,bus2=BBT1427747.1.2.0,Phases=2,Linecode=BT508_BT508_7_2_1,Length=0.000500000,Units=km
new line.1321585 bus1=BBT1427747.1.2.0,bus2=BBT2259144.1.2.0,Phases=2,Linecode=BT106_BT106_7_2_1,Length=0.074041000,Units=km
new line.1321592 bus1=BBT1427747.1.0,bus2=BBT6500339.1.0,Phases=1,Linecode=BT106_BT106_7_1_1,Length=0.079698000,Units=km
new line.1321599 bus1=BBT1427747.1.2.0,bus2=BBT6500325.1.2.0,Phases=2,Linecode=BT801_BT801_4_2_3,Length=0.060628000,Units=km
new line.1321606 bus1=BBT1427747.1.2.0,bus2=BBT6500332.1.2.0,Phases=2,Linecode=BT106_BT106_7_2_1,Length=0.074223000,Units=km
new line.1321620 bus1=BBT1427768.1.2.0,bus2=BBT1427775.1.2.0,Phases=2,Linecode=BT508_BT508_7_2_1,Length=0.000500000,Units=km
new line.1321627 bus1=BBT1427775.1.2.0,bus2=BBT2259620.1.2.0,Phases=2,Linecode=BT801_BT801_4_2_3,Length=0.057099000,Units=km
new line.1321634 bus1=BBT1427775.1.2.0,bus2=BBT6505414.1.2.0,Phases=2,Linecode=BT801_BT801_4_2_3,Length=0.065068000,Units=km
new line.1321641 bus1=BBT1427775.1.2.0,bus2=BBT6505421.1.2.0,Phases=2,Linecode=BT801_BT801_4_2_3,Length=0.054778000,Units=km
new line.1321648 bus1=BBT1427775.1.2.0,bus2=BBT6505435.1.2.0,Phases=2,Linecode=BT801_BT801_4_2_3,Length=0.048059000,Units=km
new line.1326891 bus1=BBT1432738.1.2.0,bus2=BBT1432745.1.2.0,Phases=2,Linecode=BT508_BT508_7_2_1,Length=0.000500000,Units=km
new line.1326898 bus1=BBT1432752.1.2.0,bus2=BBT1432759.1.2.0,Phases=2,Linecode=BT508_BT508_7_2_1,Length=0.000500000,Units=km
new line.1327430 bus1=BBT1433389.1.2.0,bus2=BBT1433396.1.2.0,Phases=2,Linecode=BT508_BT508_7_2_1,Length=0.000500000,Units=km
new line.1327437 bus1=BBT1433396.1.2.0,bus2=BBT3473364.1.2.0,Phases=2,Linecode=BT814_BT814_4_2_3,Length=0.018017000,Units=km
new line.1327444 bus1=BBT1433403.1.2.0,bus2=BBT1433410.1.2.0,Phases=2,Linecode=BT508_BT508_7_2_1,Length=0.000500000,Units=km
new line.1327493 bus1=BBT1433431.1.2.0,bus2=BBT1433438.1.2.0,Phases=2,Linecode=BT508_BT508_7_2_1,Length=0.000500000,Units=km
new line.1327500 bus1=BBT1433445.1.2.0,bus2=BBT1433452.1.2.0,Phases=2,Linecode=BT508_BT508_7_2_1,Length=0.000500000,Units=km
new line.1327528 bus1=BBT1433487.1.2.0,bus2=BBT1433494.1.2.0,Phases=2,Linecode=BT521_BT521_7_2_1,Length=0.000500000,Units=km
new line.1327535 bus1=BBT1433494.1.0,bus2=BBT6395024.1.0,Phases=1,Linecode=BT107_BT106_7_1_1,Length=0.055430000,Units=km
new line.1327542 bus1=BBT168528629.1.2.0,bus2=BBT6395010.1.2.0,Phases=2,Linecode=BT807_BT807_4_2_3,Length=0.042987000,Units=km
new line.1327563 bus1=BBT1433515.1.2.0,bus2=BBT1433522.1.2.0,Phases=2,Linecode=BT508_BT508_7_2_1,Length=0.000500000,Units=km
new line.1327591 bus1=BBT1433543.1.2.0,bus2=BBT1433550.1.2.0,Phases=2,Linecode=BT508_BT508_7_2_1,Length=0.000500000,Units=km
new line.1327605 bus1=BBT1433557.1.2.0,bus2=BBT1433564.1.2.0,Phases=2,Linecode=BT508_BT508_7_2_1,Length=0.000500000,Units=km
new line.1327612 bus1=BBT1433571.1.2.0,bus2=BBT1433578.1.2.0,Phases=2,Linecode=BT508_BT508_7_2_1,Length=0.000500000,Units=km
new line.1327619 bus1=BBT1433585.1.2.0,bus2=BBT1433592.1.2.0,Phases=2,Linecode=BT508_BT508_7_2_1,Length=0.000500000,Units=km
new line.1327626 bus1=BBT1433599.1.2.0,bus2=BBT1433606.1.2.0,Phases=2,Linecode=BT508_BT508_7_2_1,Length=0.000500000,Units=km
new line.1327633 bus1=BBT1433613.1.2.0,bus2=BBT1433620.1.2.0,Phases=2,Linecode=BT508_BT508_7_2_1,Length=0.000500000,Units=km
new line.1327640 bus1=BBT1433620.2.0,bus2=BBT6395003.2.0,Phases=1,Linecode=BT106_BT106_7_1_1,Length=0.084597000,Units=km
new line.1327647 bus1=BBT1433620.1.0,bus2=BBT6394989.1.0,Phases=1,Linecode=BT106_BT106_7_1_1,Length=0.067326000,Units=km
new line.1327822 bus1=BBT1433893.1.2.0,bus2=BBT1433900.1.2.0,Phases=2,Linecode=BT508_BT508_7_2_1,Length=0.000500000,Units=km
new line.1327969 bus1=BBT1434075.1.2.0,bus2=BBT1434082.1.2.0,Phases=2,Linecode=BT508_BT508_7_2_1,Length=0.000500000,Units=km
new line.1328046 bus1=BBT1434173.1.2.0,bus2=BBT1434180.1.2.0,Phases=2,Linecode=BT508_BT508_7_2_1,Length=0.000500000,Units=km
new line.1328109 bus1=BBT1434236.1.2.0,bus2=BBT1434243.1.2.0,Phases=2,Linecode=BT508_BT508_7_2_1,Length=0.000500000,Units=km
new line.1328137 bus1=BBT1434264.1.2.0,bus2=BBT1434271.1.2.0,Phases=2,Linecode=BT508_BT508_7_2_1,Length=0.000500000,Units=km
new line.1328172 bus1=BBT1434306.1.2.0,bus2=BBT1434313.1.2.0,Phases=2,Linecode=BT508_BT508_7_2_1,Length=0.000500000,Units=km
new line.1328193 bus1=BBT1434334.1.2.0,bus2=BBT1434341.1.2.0,Phases=2,Linecode=BT508_BT508_7_2_1,Length=0.000500000,Units=km
new line.1328200 bus1=BBT1434341.1.2.0,bus2=BBT6302624.1.2.0,Phases=2,Linecode=BT808_BT808_4_2_3,Length=0.064978000,Units=km
new line.1328466 bus1=BBT1434593.1.2.0,bus2=BBT1434600.1.2.0,Phases=2,Linecode=BT508_BT508_7_2_1,Length=0.000500000,Units=km
new line.1328480 bus1=BBT1434621.1.2.0,bus2=BBT1434628.1.2.0,Phases=2,Linecode=BT508_BT508_7_2_1,Length=0.000500000,Units=km
new line.1328487 bus1=BBT1434628.1.2.0,bus2=BBT6311738.1.2.0,Phases=2,Linecode=BT808_BT808_4_2_3,Length=0.067593000,Units=km
new line.1328515 bus1=BBT1434649.1.2.0,bus2=BBT1434656.1.2.0,Phases=2,Linecode=BT508_BT508_7_2_1,Length=0.000500000,Units=km
new line.1328529 bus1=BBT1434677.1.2.0,bus2=BBT1434684.1.2.0,Phases=2,Linecode=BT508_BT508_7_2_1,Length=0.000500000,Units=km
new line.1328536 bus1=BBT1434684.1.2.0,bus2=BBT6312060.1.2.0,Phases=2,Linecode=BT808_BT808_4_2_3,Length=0.073342000,Units=km
new line.1328550 bus1=BBT1434705.1.2.0,bus2=BBT1434712.1.2.0,Phases=2,Linecode=BT508_BT508_7_2_1,Length=0.000500000,Units=km
new line.1328557 bus1=BBT1434712.1.2.0,bus2=BBT6312242.1.2.0,Phases=2,Linecode=BT808_BT808_4_2_3,Length=0.064321000,Units=km
new line.1328564 bus1=BBT1434712.1.2.0,bus2=BBT6313061.1.2.0,Phases=2,Linecode=BT808_BT808_4_2_3,Length=0.048248000,Units=km
new line.1328578 bus1=BBT1434733.1.2.0,bus2=BBT1434740.1.2.0,Phases=2,Linecode=BT508_BT508_7_2_1,Length=0.000500000,Units=km
new line.1328585 bus1=BBT1434740.1.2.0,bus2=BBT6313166.1.2.0,Phases=2,Linecode=BT808_BT808_4_2_3,Length=0.052929000,Units=km
new line.1328592 bus1=BBT1434740.1.2.0,bus2=BBT6313194.1.2.0,Phases=2,Linecode=BT808_BT808_4_2_3,Length=0.060701000,Units=km
new line.1328613 bus1=BBT1434761.1.2.0,bus2=BBT1434768.1.2.0,Phases=2,Linecode=BT508_BT508_7_2_1,Length=0.000500000,Units=km
new line.1328620 bus1=BBT1434768.1.2.0,bus2=BBT6313131.1.2.0,Phases=2,Linecode=BT808_BT808_4_2_3,Length=0.072437000,Units=km
new line.1328634 bus1=BBT1434789.1.2.0,bus2=BBT1434796.1.2.0,Phases=2,Linecode=BT508_BT508_7_2_1,Length=0.000500000,Units=km
new line.1328648 bus1=BBT1434817.1.2.0,bus2=BBT1434824.1.2.0,Phases=2,Linecode=BT518_BT518_7_2_1,Length=0.000500000,Units=km
new line.1328655 bus1=BBT177760778.1.2.0,bus2=BBT2259256.1.2.0,Phases=2,Linecode=BT807_BT807_4_2_3,Length=0.034763000,Units=km
new line.1328669 bus1=BBT1434824.1.0,bus2=BBT3488211.1.0,Phases=1,Linecode=BT107_BT107_7_1_1,Length=0.074952000,Units=km
new line.1328683 bus1=BBT1434845.1.2.0,bus2=BBT1434852.1.2.0,Phases=2,Linecode=BT508_BT508_7_2_1,Length=0.000500000,Units=km
new line.1328690 bus1=BBT1434852.1.2.0,bus2=BBT6313278.1.2.0,Phases=2,Linecode=BT808_BT808_4_2_3,Length=0.031131000,Units=km
new line.1328704 bus1=BBT1434873.1.2.0,bus2=BBT1434880.1.2.0,Phases=2,Linecode=BT508_BT508_7_2_1,Length=0.000500000,Units=km
new line.1328711 bus1=BBT1434880.1.2.0,bus2=BBT6313257.1.2.0,Phases=2,Linecode=BT808_BT808_4_2_3,Length=0.025601000,Units=km
new line.1328718 bus1=BBT1434880.1.2.0,bus2=BBT6313243.1.2.0,Phases=2,Linecode=BT808_BT808_4_2_3,Length=0.021922000,Units=km
new line.1328732 bus1=BBT1434901.1.2.0,bus2=BBT1434908.1.2.0,Phases=2,Linecode=BT508_BT508_7_2_1,Length=0.000500000,Units=km
new line.1328746 bus1=BBT1434929.1.2.0,bus2=BBT1434936.1.2.0,Phases=2,Linecode=BT508_BT508_7_2_1,Length=0.000500000,Units=km
new line.1328753 bus1=BBT1434943.1.2.0,bus2=BBT1434950.1.2.0,Phases=2,Linecode=BT508_BT508_7_2_1,Length=0.000500000,Units=km
new line.1328781 bus1=BBT1434971.1.2.0,bus2=BBT1434978.1.2.0,Phases=2,Linecode=BT508_BT508_7_2_1,Length=0.000500000,Units=km
new line.1328858 bus1=BBT1435069.1.2.0,bus2=BBT1435076.1.2.0,Phases=2,Linecode=BT508_BT508_7_2_1,Length=0.000500000,Units=km
new line.1328865 bus1=BBT1435076.1.2.0,bus2=BBT6327992.1.2.0,Phases=2,Linecode=BT808_BT808_4_2_3,Length=0.020217000,Units=km
new line.1328872 bus1=BBT1435076.1.2.0,bus2=BBT6327964.1.2.0,Phases=2,Linecode=BT808_BT808_4_2_3,Length=0.047249000,Units=km
new line.1329299 bus1=BBT1435573.1.2.0,bus2=BBT1435580.1.2.0,Phases=2,Linecode=BT513_BT513_7_2_1,Length=0.000500000,Units=km
new line.1329376 bus1=BBT1435713.1.2.0,bus2=BBT1435720.1.2.0,Phases=2,Linecode=BT508_BT508_7_2_1,Length=0.000500000,Units=km
new line.1329467 bus1=BBT1435839.1.2.0,bus2=BBT1435846.1.2.0,Phases=2,Linecode=BT521_BT521_7_2_1,Length=0.000500000,Units=km
new line.1329509 bus1=BBT1435909.1.2.0,bus2=BBT1435916.1.2.0,Phases=2,Linecode=BT508_BT508_7_2_1,Length=0.000500000,Units=km
new line.1329537 bus1=BBT1435951.1.2.0,bus2=BBT1435958.1.2.0,Phases=2,Linecode=BT508_BT508_7_2_1,Length=0.000500000,Units=km
new line.1329572 bus1=BBT1436007.1.2.0,bus2=BBT1436014.1.2.0,Phases=2,Linecode=BT508_BT508_7_2_1,Length=0.000500000,Units=km
new line.1329586 bus1=BBT1436035.1.2.0,bus2=BBT1436042.1.2.0,Phases=2,Linecode=BT508_BT508_7_2_1,Length=0.000500000,Units=km
new line.1329614 bus1=BBT1436091.1.2.3.0,bus2=BBT1436098.1.2.3.0,Phases=3,Linecode=BT508_BT508_7_3_1,Length=0.000500000,Units=km
new line.1329642 bus1=BBT1436147.1.2.0,bus2=BBT1436154.1.2.0,Phases=2,Linecode=BT508_BT508_7_2_1,Length=0.000500000,Units=km
new line.1329656 bus1=BBT1436175.1.2.0,bus2=BBT1436182.1.2.0,Phases=2,Linecode=BT508_BT508_7_2_1,Length=0.000500000,Units=km
new line.1329663 bus1=BBT1436182.1.2.0,bus2=BBT6327285.1.2.0,Phases=2,Linecode=BT808_BT808_4_2_3,Length=0.056829000,Units=km
new line.1329691 bus1=BBT1436217.1.2.0,bus2=BBT1436224.1.2.0,Phases=2,Linecode=BT508_BT508_7_2_1,Length=0.000500000,Units=km
new line.1329705 bus1=BBT1436245.1.2.0,bus2=BBT1436252.1.2.0,Phases=2,Linecode=BT508_BT508_7_2_1,Length=0.000500000,Units=km
new line.1329719 bus1=BBT1436273.1.2.0,bus2=BBT1436280.1.2.0,Phases=2,Linecode=BT508_BT508_7_2_1,Length=0.000500000,Units=km
new line.1329726 bus1=BBT1436280.1.2.0,bus2=BBT6327691.1.2.0,Phases=2,Linecode=BT808_BT808_4_2_3,Length=0.055639000,Units=km
new line.1329733 bus1=BBT1436280.1.2.0,bus2=BBT6327740.1.2.0,Phases=2,Linecode=BT808_BT808_4_2_3,Length=0.043251000,Units=km
new line.1329747 bus1=BBT1436301.1.2.0,bus2=BBT1436308.1.2.0,Phases=2,Linecode=BT508_BT508_7_2_1,Length=0.000500000,Units=km
new line.1329754 bus1=BBT1436308.1.2.0,bus2=BBT6327761.1.2.0,Phases=2,Linecode=BT808_BT808_4_2_3,Length=0.015806000,Units=km
new line.1329768 bus1=BBT1436329.1.2.0,bus2=BBT1436336.1.2.0,Phases=2,Linecode=BT508_BT508_7_2_1,Length=0.000500000,Units=km
new line.1329782 bus1=BBT1436357.1.2.0,bus2=BBT1436364.1.2.0,Phases=2,Linecode=BT508_BT508_7_2_1,Length=0.000500000,Units=km
new line.1329789 bus1=BBT1436364.1.2.0,bus2=BBT2545080.1.2.0,Phases=2,Linecode=BT808_BT808_4_2_3,Length=0.061273000,Units=km
new line.1332393 bus1=BBT1439262.1.2.0,bus2=BBT1439269.1.2.0,Phases=2,Linecode=BT508_BT508_7_2_1,Length=0.000500000,Units=km
new line.1333212 bus1=BBT1440165.1.2.0,bus2=BBT1440172.1.2.0,Phases=2,Linecode=BT508_BT508_7_2_1,Length=0.000500000,Units=km
new line.1334339 bus1=BBT1441460.1.2.0,bus2=BBT1441467.1.2.0,Phases=2,Linecode=BT508_BT508_7_2_1,Length=0.000500000,Units=km
new line.1334346 bus1=BBT1441467.1.2.0,bus2=BBT6328412.1.2.0,Phases=2,Linecode=BT801_BT801_4_2_3,Length=0.032268000,Units=km
new line.1335802 bus1=BBT1442958.1.2.0,bus2=BBT1442965.1.2.0,Phases=2,Linecode=BT508_BT508_7_2_1,Length=0.000500000,Units=km
new line.1344692 bus1=BBT1451365.1.2.3.0,bus2=BBT2256533.1.2.3.0,Phases=3,Linecode=BT803_BT803_4_3_4,Length=0.033356000,Units=km
new line.1344699 bus1=BBT1451365.1.2.3.0,bus2=BBT2183005.1.2.3.0,Phases=3,Linecode=BT810_BT810_4_3_4,Length=0.034907000,Units=km
new line.1344818 bus1=BBT1451477.1.2.3.0,bus2=BBT130921669.1.2.3.0,Phases=3,Linecode=BT803_BT803_4_3_4,Length=0.035334000,Units=km
new line.1344825 bus1=BBT1451477.1.2.3.0,bus2=BBT2166898.1.2.3.0,Phases=3,Linecode=BT803_BT803_4_3_4,Length=0.035206000,Units=km
new line.1344867 bus1=BBT1451512.1.2.3.0,bus2=BBT130923580.1.2.3.0,Phases=3,Linecode=BT810_BT810_4_3_4,Length=0.037460000,Units=km
new line.1344874 bus1=BBT1451519.1.2.3.0,bus2=BBT1451512.1.2.3.0,Phases=3,Linecode=BT810_BT810_4_3_4,Length=0.031556000,Units=km
new line.1344881 bus1=BBT1451519.1.2.3.0,bus2=BBT1451526.1.2.3.0,Phases=3,Linecode=BT810_BT810_4_3_4,Length=0.035206000,Units=km
new line.1345665 bus1=BBT1452226.1.2.3.0,bus2=BBT175388823.1.2.3.0,Phases=3,Linecode=BT803_BT803_4_3_4,Length=0.033356000,Units=km
new line.1345672 bus1=BBT1452226.1.2.3.0,bus2=BBT1452233.1.2.3.0,Phases=3,Linecode=BT803_BT803_4_3_4,Length=0.031238000,Units=km
new line.1345679 bus1=BBT175388965.1.2.3.0,bus2=BBT1452240.1.2.3.0,Phases=3,Linecode=BT803_BT803_4_3_4,Length=0.027442000,Units=km
new line.1347177 bus1=BBT1453815.1.2.0,bus2=BBT1453822.1.2.0,Phases=2,Linecode=BT508_BT508_7_2_1,Length=0.000500000,Units=km
new line.1347184 bus1=BBT1453822.2.0,bus2=BBT3488267.2.0,Phases=1,Linecode=BT816_BT816_4_1_2,Length=0.033524000,Units=km
new line.1347191 bus1=BBT1453822.1.0,bus2=BBT3488253.1.0,Phases=1,Linecode=BT801_BT801_4_1_3,Length=0.048576000,Units=km
new line.1347198 bus1=BBT1453829.1.2.0,bus2=BBT1453836.1.2.0,Phases=2,Linecode=BT508_BT508_7_2_1,Length=0.000500000,Units=km
new line.1347205 bus1=BBT1453843.1.2.0,bus2=BBT1453850.1.2.0,Phases=2,Linecode=BT508_BT508_7_2_1,Length=0.000500000,Units=km
new line.1347212 bus1=BBT1453850.1.0,bus2=BBT6272860.1.0,Phases=1,Linecode=BT107_BT106_7_1_1,Length=0.085978000,Units=km
new line.1347219 bus1=BBT1453850.2.0,bus2=BBT6272895.2.0,Phases=1,Linecode=BT107_BT106_7_1_1,Length=0.068082000,Units=km
new line.1347443 bus1=BBT1454053.1.2.0,bus2=BBT1454060.1.2.0,Phases=2,Linecode=BT508_BT508_7_2_1,Length=0.000500000,Units=km
new line.1347450 bus1=BBT1454067.1.2.0,bus2=BBT1454074.1.2.0,Phases=2,Linecode=BT508_BT508_7_2_1,Length=0.000500000,Units=km
new line.1347457 bus1=BBT1454081.1.2.0,bus2=BBT1454088.1.2.0,Phases=2,Linecode=BT508_BT508_7_2_1,Length=0.000500000,Units=km
new line.1347464 bus1=BBT1454095.1.2.0,bus2=BBT1454102.1.2.0,Phases=2,Linecode=BT508_BT508_7_2_1,Length=0.000500000,Units=km
new line.1347471 bus1=BBT1454102.1.0,bus2=BBT3245444.1.0,Phases=1,Linecode=BT816_BT816_4_1_2,Length=0.060796000,Units=km
new line.1347478 bus1=BBT1454102.1.0,bus2=BBT3245451.1.0,Phases=1,Linecode=BT816_BT816_4_1_2,Length=0.066539000,Units=km
new line.1347485 bus1=BBT1454109.1.2.0,bus2=BBT1454116.1.2.0,Phases=2,Linecode=BT508_BT508_7_2_1,Length=0.000500000,Units=km
new line.1347492 bus1=BBT1454123.1.2.0,bus2=BBT1454130.1.2.0,Phases=2,Linecode=BT508_BT508_7_2_1,Length=0.000500000,Units=km
new line.1347681 bus1=BBT1454235.1.2.0,bus2=BBT1454242.1.2.0,Phases=2,Linecode=BT508_BT508_7_2_1,Length=0.000500000,Units=km
new line.1347688 bus1=BBT1454242.1.0,bus2=BBT3488596.1.0,Phases=1,Linecode=BT107_BT206_7_1_1,Length=0.082012000,Units=km
new line.1347695 bus1=BBT1454242.1.0,bus2=BBT3488547.1.0,Phases=1,Linecode=BT816_BT816_4_1_2,Length=0.075552000,Units=km
new line.1347702 bus1=BBT1454242.2.0,bus2=BBT3488603.2.0,Phases=1,Linecode=BT106_BT106_7_1_1,Length=0.081964000,Units=km
new line.1347709 bus1=BBT1454249.1.2.0,bus2=BBT1454256.1.2.0,Phases=2,Linecode=BT508_BT508_7_2_1,Length=0.000500000,Units=km
new line.1347716 bus1=BBT1454256.1.0,bus2=BBT3471292.1.0,Phases=1,Linecode=BT816_BT816_4_1_2,Length=0.008940000,Units=km
new line.1347723 bus1=BBT1454256.2.0,bus2=BBT3471306.2.0,Phases=1,Linecode=BT816_BT816_4_1_2,Length=0.054790000,Units=km
new line.1347730 bus1=BBT1454263.1.2.0,bus2=BBT1454270.1.2.0,Phases=2,Linecode=BT508_BT508_7_2_1,Length=0.000500000,Units=km
new line.1347737 bus1=BBT1454270.1.0,bus2=BBT3489037.1.0,Phases=1,Linecode=BT816_BT816_4_1_2,Length=0.045584000,Units=km
new line.1347744 bus1=BBT1454270.1.0,bus2=BBT3489016.1.0,Phases=1,Linecode=BT816_BT816_4_1_2,Length=0.065089000,Units=km
new line.1347751 bus1=BBT1454270.2.0,bus2=BBT3489044.2.0,Phases=1,Linecode=BT816_BT816_4_1_2,Length=0.063920000,Units=km
new line.1347758 bus1=BBT1454277.1.2.0,bus2=BBT1454284.1.2.0,Phases=2,Linecode=BT521_BT521_7_2_1,Length=0.000500000,Units=km
new line.1347765 bus1=BBT1454291.1.2.0,bus2=BBT1454298.1.2.0,Phases=2,Linecode=BT518_BT518_7_2_1,Length=0.000500000,Units=km
new line.1347772 bus1=BBT1454298.1.0,bus2=BBT6272797.1.0,Phases=1,Linecode=BT107_BT106_7_1_1,Length=0.015224000,Units=km
new line.1347779 bus1=BBT1454298.2.0,bus2=BBT6272650.2.0,Phases=1,Linecode=BT107_BT106_7_1_1,Length=0.106457000,Units=km
new line.1347786 bus1=BBT1454305.1.2.0,bus2=BBT1454312.1.2.0,Phases=2,Linecode=BT508_BT508_7_2_1,Length=0.000500000,Units=km
new line.1347800 bus1=BBT1454319.1.2.0,bus2=BBT1454326.1.2.0,Phases=2,Linecode=BT508_BT508_7_2_1,Length=0.000500000,Units=km
new line.1347807 bus1=BBT1454333.1.2.0,bus2=BBT1454340.1.2.0,Phases=2,Linecode=BT521_BT521_7_2_1,Length=0.000500000,Units=km
new line.1347814 bus1=BBT1454340.1.0,bus2=BBT6274183.1.0,Phases=1,Linecode=BT107_BT106_7_1_1,Length=0.076380000,Units=km
new line.1347821 bus1=BBT1454354.1.2.3.0,bus2=BBT2279892.1.2.3.0,Phases=3,Linecode=BT810_BT810_4_3_4,Length=0.038193000,Units=km
new line.1347828 bus1=BBT1454354.1.2.3.0,bus2=BBT1454375.1.2.3.0,Phases=3,Linecode=BT810_BT810_4_3_4,Length=0.034913000,Units=km
new line.1347835 bus1=BBT1454375.1.2.3.0,bus2=BBT2220497.1.2.3.0,Phases=3,Linecode=BT810_BT810_4_3_4,Length=0.033941000,Units=km
new line.1347842 bus1=BBT1454382.2.3.0,bus2=BBT1454361.2.3.0,Phases=2,Linecode=BT106_BT106_7_2_1,Length=0.039034000,Units=km
new line.1347849 bus1=BBT1454382.2.3.0,bus2=BBT1454368.2.3.0,Phases=2,Linecode=BT106_BT106_7_2_1,Length=0.032635000,Units=km
new line.1347856 bus1=BBT1454396.2.3.0,bus2=BBT1454382.2.3.0,Phases=2,Linecode=BT106_BT106_7_2_1,Length=0.036109000,Units=km
new line.1347863 bus1=BBT1454410.1.2.3.0,bus2=BBT1454389.1.2.3.0,Phases=3,Linecode=BT810_BT810_4_3_4,Length=0.029820000,Units=km
new line.1347870 bus1=BBT1454417.2.3.0,bus2=BBT1454396.2.3.0,Phases=2,Linecode=BT106_BT106_7_2_1,Length=0.035452000,Units=km
new line.1347877 bus1=BBT1454417.1.2.3.0,bus2=BBT1454403.1.2.3.0,Phases=3,Linecode=BT803_BT803_4_3_4,Length=0.029719000,Units=km
new line.1347884 bus1=BBT1454424.1.2.3.0,bus2=BBT1454417.1.2.3.0,Phases=3,Linecode=BT803_BT803_4_3_4,Length=0.029193000,Units=km
new line.1347891 bus1=BBT1454431.1.2.3.0,bus2=BBT1454410.1.2.3.0,Phases=3,Linecode=BT810_BT810_4_3_4,Length=0.029820000,Units=km
new line.1347898 bus1=BBT1454438.1.2.3.0,bus2=BBT1454431.1.2.3.0,Phases=3,Linecode=BT810_BT810_4_3_4,Length=0.028849000,Units=km
new line.1347905 bus1=BBT1454438.1.2.3.0,bus2=BBT2279899.1.2.3.0,Phases=3,Linecode=BT803_BT803_4_3_4,Length=0.044802000,Units=km
new line.1347912 bus1=BBT1454438.1.2.3.0,bus2=BBT1454466.1.2.3.0,Phases=3,Linecode=BT810_BT810_4_3_4,Length=0.032970000,Units=km
new line.1347919 bus1=BBT1454445.1.2.3.0,bus2=BBT1454424.1.2.3.0,Phases=3,Linecode=BT803_BT803_4_3_4,Length=0.045586000,Units=km
new line.1347926 bus1=BBT1454347.1.2.3.0,bus2=BBT1454445.1.2.3.0,Phases=3,Linecode=BT508_BT508_7_3_1,Length=0.000500000,Units=km
new line.1347933 bus1=BBT1454445.1.2.3.0,bus2=BBT1454452.1.2.3.0,Phases=3,Linecode=BT803_BT803_4_3_4,Length=0.028307000,Units=km
new line.1347940 bus1=BBT1454452.1.2.3.0,bus2=BBT1454473.1.2.3.0,Phases=3,Linecode=BT803_BT803_4_3_4,Length=0.033407000,Units=km
new line.1347947 bus1=BBT1454473.1.2.3.0,bus2=BBT1454459.1.2.3.0,Phases=3,Linecode=BT803_BT803_4_3_4,Length=0.036219000,Units=km
new line.1347961 bus1=BBT1454473.1.3.0,bus2=BBT1454480.1.3.0,Phases=2,Linecode=BT106_BT106_7_2_1,Length=0.028413000,Units=km
new line.1347968 bus1=BBT1454599.1.2.3.0,bus2=BBT1454613.1.2.3.0,Phases=3,Linecode=BT803_BT803_4_3_4,Length=0.030597000,Units=km
new line.1347975 bus1=BBT1454599.1.2.3.0,bus2=BBT1454620.1.2.3.0,Phases=3,Linecode=BT803_BT803_4_3_4,Length=0.037520000,Units=km
new line.1347982 bus1=BBT1454494.1.2.3.0,bus2=BBT2803639.1.2.3.0,Phases=3,Linecode=BT810_BT810_4_3_4,Length=0.044668000,Units=km
new line.1347989 bus1=BBT1454501.1.2.3.0,bus2=BBT1454494.1.2.3.0,Phases=3,Linecode=BT810_BT810_4_3_4,Length=0.029719000,Units=km
new line.1347996 bus1=BBT1454508.1.2.3.0,bus2=BBT1454501.1.2.3.0,Phases=3,Linecode=BT810_BT810_4_3_4,Length=0.035452000,Units=km
new line.1348003 bus1=BBT1454515.1.2.3.0,bus2=BBT1454508.1.2.3.0,Phases=3,Linecode=BT810_BT810_4_3_4,Length=0.027790000,Units=km
new line.1348010 bus1=BBT1454515.1.2.3.0,bus2=BBT1454529.1.2.3.0,Phases=3,Linecode=BT106_BT106_7_3_1,Length=0.028413000,Units=km
new line.1348017 bus1=BBT1454529.1.2.3.0,bus2=BBT1454550.1.2.3.0,Phases=3,Linecode=BT106_BT106_7_3_1,Length=0.029056000,Units=km
new line.1348024 bus1=BBT1454536.1.2.3.0,bus2=BBT1454515.1.2.3.0,Phases=3,Linecode=BT810_BT810_4_3_4,Length=0.034813000,Units=km
new line.1348031 bus1=BBT1454543.1.2.0,bus2=BBT1454522.1.2.0,Phases=2,Linecode=BT106_BT106_7_2_1,Length=0.029820000,Units=km
new line.1348038 bus1=BBT1454550.1.2.3.0,bus2=BBT1454557.1.2.3.0,Phases=3,Linecode=BT106_BT106_7_3_1,Length=0.011309000,Units=km
new line.1348045 bus1=BBT1454557.1.2.3.0,bus2=BBT1454543.1.2.3.0,Phases=3,Linecode=BT106_BT106_7_3_1,Length=0.019991000,Units=km
new line.1348052 bus1=BBT1454557.1.2.3.0,bus2=BBT1454571.1.2.3.0,Phases=3,Linecode=BT106_BT106_7_3_1,Length=0.014994000,Units=km
new line.1348059 bus1=BBT1454557.1.2.3.0,bus2=BBT1454578.1.2.3.0,Phases=3,Linecode=BT106_BT106_7_3_1,Length=0.024828000,Units=km
new line.1348066 bus1=BBT1454564.1.2.3.0,bus2=BBT1454536.1.2.3.0,Phases=3,Linecode=BT108_BT107_7_3_1,Length=0.029056000,Units=km
new line.1348073 bus1=BBT1454487.1.2.3.0,bus2=BBT1454564.1.2.3.0,Phases=3,Linecode=BT508_BT508_7_3_1,Length=0.000500000,Units=km
new line.1348080 bus1=BBT1454564.1.2.3.0,bus2=BBT1454585.1.2.3.0,Phases=3,Linecode=BT108_BT107_7_3_1,Length=0.029820000,Units=km
new line.1348087 bus1=BBT1454571.1.2.3.0,bus2=BBT1454592.1.2.3.0,Phases=3,Linecode=BT106_BT106_7_3_1,Length=0.034043000,Units=km
new line.1348094 bus1=BBT1454585.1.2.3.0,bus2=BBT1454599.1.2.3.0,Phases=3,Linecode=BT803_BT803_4_3_4,Length=0.031876000,Units=km
new line.1348101 bus1=BBT1454592.1.2.3.0,bus2=BBT2220504.1.2.3.0,Phases=3,Linecode=BT106_BT106_7_3_1,Length=0.046077000,Units=km
new line.1348108 bus1=BBT1454620.1.2.3.0,bus2=BBT1454627.1.2.3.0,Phases=3,Linecode=BT803_BT803_4_3_4,Length=0.031227000,Units=km
new line.1348115 bus1=BBT1454627.1.2.3.0,bus2=BBT1454606.1.2.3.0,Phases=3,Linecode=BT106_BT106_7_3_1,Length=0.030466000,Units=km
new line.1348122 bus1=BBT1454627.1.0,bus2=BBT1454634.1.0,Phases=1,Linecode=BT106_BT106_7_1_1,Length=0.022013000,Units=km
new line.1348129 bus1=BBT1454627.1.2.3.0,bus2=BBT1454641.1.2.3.0,Phases=3,Linecode=BT106_BT106_7_3_1,Length=0.026237000,Units=km
new line.1348150 bus1=BBT1454683.1.2.3.0,bus2=BBT1454676.1.2.3.0,Phases=3,Linecode=BT107_BT107_7_3_1,Length=0.029820000,Units=km
new line.1348157 bus1=BBT1454690.2.3.0,bus2=BBT1454669.2.3.0,Phases=2,Linecode=BT107_BT107_7_2_1,Length=0.027880000,Units=km
new line.1348164 bus1=BBT4213607.1.2.3.0,bus2=BBT1454683.1.2.3.0,Phases=3,Linecode=BT107_BT107_7_3_1,Length=0.018377000,Units=km
new line.1348171 bus1=BBT4213607.1.2.3.0,bus2=BBT1454690.1.2.3.0,Phases=3,Linecode=BT803_BT803_4_3_4,Length=0.008941000,Units=km
new line.1348178 bus1=BBT4213607.1.2.3.0,bus2=BBT1454711.1.2.3.0,Phases=3,Linecode=BT107_BT107_7_3_1,Length=0.021392000,Units=km
new line.1348185 bus1=BBT1454725.1.2.3.0,bus2=BBT4213607.1.2.3.0,Phases=3,Linecode=BT803_BT803_4_3_4,Length=0.028430000,Units=km
new line.1348192 bus1=BBT1454662.1.2.3.0,bus2=BBT1454725.1.2.3.0,Phases=3,Linecode=BT508_BT508_7_3_1,Length=0.000500000,Units=km
new line.1348199 bus1=BBT1454725.1.2.3.0,bus2=BBT1454746.1.2.3.0,Phases=3,Linecode=BT803_BT803_4_3_4,Length=0.029601000,Units=km
new line.1348206 bus1=BBT22023273.1.2.0,bus2=BBT1454704.1.2.0,Phases=2,Linecode=BT106_BT106_7_2_1,Length=0.034043000,Units=km
new line.1348213 bus1=BBT1454711.1.2.3.0,bus2=BBT22023273.1.2.3.0,Phases=3,Linecode=BT107_BT107_7_3_1,Length=0.031387000,Units=km
new line.1348220 bus1=BBT22023273.1.2.3.0,bus2=BBT1454732.1.2.3.0,Phases=3,Linecode=BT106_BT106_7_3_1,Length=0.026914000,Units=km
new line.1348227 bus1=BBT1454732.1.2.0,bus2=BBT1454718.1.2.0,Phases=2,Linecode=BT106_BT106_7_2_1,Length=0.036219000,Units=km
new line.1348234 bus1=BBT1454732.1.2.0,bus2=BBT1454760.1.2.0,Phases=2,Linecode=BT106_BT106_7_2_1,Length=0.034984000,Units=km
new line.1348248 bus1=BBT1454746.1.2.3.0,bus2=BBT1454753.1.2.3.0,Phases=3,Linecode=BT106_BT106_7_3_1,Length=0.023335000,Units=km
new line.1348255 bus1=BBT1454746.1.2.3.0,bus2=BBT1454767.1.2.3.0,Phases=3,Linecode=BT106_BT106_7_3_1,Length=0.020606000,Units=km
new line.1348262 bus1=BBT1454753.1.2.3.0,bus2=BBT1454739.1.2.3.0,Phases=3,Linecode=BT106_BT106_7_3_1,Length=0.029719000,Units=km
new line.1348276 bus1=BBT1454767.1.2.3.0,bus2=BBT1454788.1.2.3.0,Phases=3,Linecode=BT106_BT106_7_3_1,Length=0.027646000,Units=km
new line.1348283 bus1=BBT1454781.2.3.0,bus2=BBT1454774.2.3.0,Phases=2,Linecode=BT106_BT106_7_2_1,Length=0.030070000,Units=km
new line.1348290 bus1=BBT1454788.2.3.0,bus2=BBT1454781.2.3.0,Phases=2,Linecode=BT106_BT106_7_2_1,Length=0.031766000,Units=km
new line.1348297 bus1=BBT1454788.1.2.3.0,bus2=BBT1454795.1.2.3.0,Phases=3,Linecode=BT803_BT803_4_3_4,Length=0.038062000,Units=km
new line.1348304 bus1=BBT1454816.1.2.0,bus2=BBT1454809.1.2.0,Phases=2,Linecode=BT107_BT106_7_2_1,Length=0.030466000,Units=km
new line.1348311 bus1=BBT1454823.1.2.0,bus2=BBT1454816.1.2.0,Phases=2,Linecode=BT107_BT106_7_2_1,Length=0.029820000,Units=km
new line.1348318 bus1=BBT1454823.1.2.0,bus2=BBT1454830.1.2.0,Phases=2,Linecode=BT107_BT106_7_2_1,Length=0.032188000,Units=km
new line.1348325 bus1=BBT1454837.1.2.0,bus2=BBT1454823.1.2.0,Phases=2,Linecode=BT108_BT107_7_2_1,Length=0.031227000,Units=km
new line.1348332 bus1=BBT1454844.1.2.0,bus2=BBT1454837.1.2.0,Phases=2,Linecode=BT108_BT107_7_2_1,Length=0.027646000,Units=km
new line.1348339 bus1=BBT1454858.1.2.0,bus2=BBT1454844.1.2.0,Phases=2,Linecode=BT108_BT107_7_2_1,Length=0.028413000,Units=km
new line.1348346 bus1=BBT1454802.1.2.0,bus2=BBT1454858.1.2.0,Phases=2,Linecode=BT508_BT508_7_2_1,Length=0.000500000,Units=km