! manter este comentario para compatibilidade do C#
new circuit.alimSLN04 bus1=BMT177685412.1.2.3,basekv=13.800000000,pu=1.040000000

