new line.CTR12242 bus1=BMT177687837.2,bus2=BMT177687841.2,Phases=1,LineCode=tieSwitch1,Length=0.001,Units=km,switch=T !numEQ 187991
new line.CTR13355 bus1=BMT177689027.3,bus2=BMT177690455.3,Phases=1,LineCode=tieSwitch1,Length=0.001,Units=km,switch=T !numEQ 178228
new line.CTR13509 bus1=BMT177687284.2,bus2=BMT177687286.2,Phases=1,LineCode=tieSwitch1,Length=0.001,Units=km,switch=T !numEQ 146492
new line.CTR157793 bus1=BMT177685649.1,bus2=BMT177685809.1,Phases=1,LineCode=tieSwitch1,Length=0.001,Units=km,switch=T !numEQ 44581
new line.CTR158402 bus1=BMT177687696.2,bus2=BMT177687702.2,Phases=1,LineCode=tieSwitch1,Length=0.001,Units=km,switch=T !numEQ 156377
new line.CTR169329 bus1=BMT177688163.1,bus2=BMT177688302.1,Phases=1,LineCode=tieSwitch1,Length=0.001,Units=km,switch=T !numEQ 190327
new line.CTR169553 bus1=BMT177687444.1.2.3,bus2=BMT177687445.1.2.3,Phases=3,LineCode=tieSwitch,Length=0.001,Units=km,switch=T !numEQ 44851
new line.CTR169840 bus1=BMT177794708.2,bus2=BMT177688673.2,Phases=1,LineCode=tieSwitch1,Length=0.001,Units=km,switch=T !numEQ 44842
open line.CTR169840 term=1
new line.CTR169882 bus1=BMT177687805.3,bus2=BMT177688657.3,Phases=1,LineCode=tieSwitch1,Length=0.001,Units=km,switch=T !numEQ 44841
new line.CTR169903 bus1=BMT177688755.1,bus2=BMT177688756.1,Phases=1,LineCode=tieSwitch1,Length=0.001,Units=km,switch=T !numEQ 44844
new line.CTR169910 bus1=BMT177687808.1.2.3,bus2=BMT177687809.1.2.3,Phases=3,LineCode=tieSwitch,Length=0.001,Units=km,switch=T !numEQ 44845
new line.CTR169917 bus1=BMT177687812.1.2.3,bus2=BMT177687820.1.2.3,Phases=3,LineCode=tieSwitch,Length=0.001,Units=km,switch=T !numEQ 44846
new line.CTR169924 bus1=BMT177687821.2,bus2=BMT177688628.2,Phases=1,LineCode=tieSwitch1,Length=0.001,Units=km,switch=T !numEQ 44847
new line.CTR169931 bus1=BMT177687815.1.2.3,bus2=BMT177688640.1.2.3,Phases=3,LineCode=tieSwitch,Length=0.001,Units=km,switch=T !numEQ 44848
new line.CTR169945 bus1=BMT177690510.2,bus2=BMT177690581.2,Phases=1,LineCode=tieSwitch1,Length=0.001,Units=km,switch=T !numEQ 44828
new line.CTR16995 bus1=BMT177687536.1,bus2=BMT177687537.1,Phases=1,LineCode=tieSwitch1,Length=0.001,Units=km,switch=T !numEQ 182838
new line.CTR169959 bus1=BMT177689078.1.2.3,bus2=BMT177690426.1.2.3,Phases=3,LineCode=tieSwitch,Length=0.001,Units=km,switch=T !numEQ 44866
new line.CTR169980 bus1=BMT177687473.1.2.3,bus2=BMT177687474.1.2.3,Phases=3,LineCode=tieSwitch,Length=0.001,Units=km,switch=T !numEQ 301153
new line.CTR169987 bus1=BMT177687531.1,bus2=BMT177687532.1,Phases=1,LineCode=tieSwitch1,Length=0.001,Units=km,switch=T !numEQ 44857
new line.CTR169994 bus1=BMT177689035.1.2.3,bus2=BMT177689042.1.2.3,Phases=3,LineCode=tieSwitch,Length=0.001,Units=km,switch=T !numEQ 44861
new line.CTR170001 bus1=BMT177689033.3,bus2=BMT177690443.3,Phases=1,LineCode=tieSwitch1,Length=0.001,Units=km,switch=T !numEQ 44862
new line.CTR170008 bus1=BMT177689034.1.2.3,bus2=BMT177689036.1.2.3,Phases=3,LineCode=tieSwitch,Length=0.001,Units=km,switch=T !numEQ 44863
new line.CTR170015 bus1=BMT177689053.1.2.3,bus2=BMT177689073.1.2.3,Phases=3,LineCode=tieSwitch,Length=0.001,Units=km,switch=T !numEQ 44865
new line.CTR170036 bus1=BMT177689176.1,bus2=BMT177689226.1,Phases=1,LineCode=tieSwitch1,Length=0.001,Units=km,switch=T !numEQ 44870
new line.CTR170050 bus1=BMT177689178.1.2.3,bus2=BMT177689201.1.2.3,Phases=3,LineCode=tieSwitch,Length=0.001,Units=km,switch=T !numEQ 44872
new line.CTR170064 bus1=BMT177689313.1.2.3,bus2=BMT177689315.1.2.3,Phases=3,LineCode=tieSwitch,Length=0.001,Units=km,switch=T !numEQ 44878
new line.CTR170071 bus1=BMT177689502.2,bus2=BMT177690070.2,Phases=1,LineCode=tieSwitch1,Length=0.001,Units=km,switch=T !numEQ 44881
new line.CTR170078 bus1=BMT177690075.2,bus2=BMT177690076.2,Phases=1,LineCode=tieSwitch1,Length=0.001,Units=km,switch=T !numEQ 44882
new line.CTR170085 bus1=BMT177689083.3,bus2=BMT177689086.3,Phases=1,LineCode=tieSwitch1,Length=0.001,Units=km,switch=T !numEQ 44867
new line.CTR170127 bus1=BMT177689510.1,bus2=BMT177689512.1,Phases=1,LineCode=tieSwitch1,Length=0.001,Units=km,switch=T !numEQ 44898
new line.CTR170134 bus1=BMT177690514.2,bus2=BMT177690578.2,Phases=1,LineCode=tieSwitch1,Length=0.001,Units=km,switch=T !numEQ 44889
new line.CTR170155 bus1=BMT177690624.2,bus2=BMT177690712.2,Phases=1,LineCode=tieSwitch1,Length=0.001,Units=km,switch=T !numEQ 44895
new line.CTR170176 bus1=BMT177690534.2,bus2=BMT177690536.2,Phases=1,LineCode=tieSwitch1,Length=0.001,Units=km,switch=T !numEQ 44891
new line.CTR170183 bus1=BMT177690516.2,bus2=BMT177690538.2,Phases=1,LineCode=tieSwitch1,Length=0.001,Units=km,switch=T !numEQ 44896
new line.CTR170197 bus1=BMT177690504.2,bus2=BMT177690723.2,Phases=1,LineCode=tieSwitch1,Length=0.001,Units=km,switch=T !numEQ 44825
new line.CTR170211 bus1=BMT177690078.2,bus2=BMT177690262.2,Phases=1,LineCode=tieSwitch1,Length=0.001,Units=km,switch=T !numEQ 44902
new line.CTR170218 bus1=BMT177689984.3,bus2=BMT177689985.3,Phases=1,LineCode=tieSwitch1,Length=0.001,Units=km,switch=T !numEQ 44903
new line.CTR170225 bus1=BMT177687326.3,bus2=BMT177687342.3,Phases=1,LineCode=tieSwitch1,Length=0.001,Units=km,switch=T !numEQ 44904
new line.CTR170239 bus1=BMT177687699.2,bus2=BMT177687700.2,Phases=1,LineCode=tieSwitch1,Length=0.001,Units=km,switch=T !numEQ 44911
new line.CTR170246 bus1=BMT177689125.1.2.3,bus2=BMT177689126.1.2.3,Phases=3,LineCode=tieSwitch,Length=0.001,Units=km,switch=T !numEQ 195877
new line.CTR170253 bus1=BMT177690505.2,bus2=BMT177690618.2,Phases=1,LineCode=tieSwitch1,Length=0.001,Units=km,switch=T !numEQ 44893
new line.CTR170288 bus1=BMT177690788.2,bus2=BMT177690801.2,Phases=1,LineCode=tieSwitch1,Length=0.001,Units=km,switch=T !numEQ 44924
new line.CTR170295 bus1=BMT177688647.1.2.3,bus2=BMT177688653.1.2.3,Phases=3,LineCode=tieSwitch,Length=0.001,Units=km,switch=T !numEQ 44929
new line.CTR170302 bus1=BMT177689925.3,bus2=BMT177689945.3,Phases=1,LineCode=tieSwitch1,Length=0.001,Units=km,switch=T !numEQ 44925
new line.CTR170309 bus1=BMT177690500.2,bus2=BMT177690760.2,Phases=1,LineCode=tieSwitch1,Length=0.001,Units=km,switch=T !numEQ 44933
new line.CTR170316 bus1=BMT177688753.1,bus2=BMT177688837.1,Phases=1,LineCode=tieSwitch1,Length=0.001,Units=km,switch=T !numEQ 44934
new line.CTR170323 bus1=BMT177688842.1,bus2=BMT177688880.1,Phases=1,LineCode=tieSwitch1,Length=0.001,Units=km,switch=T !numEQ 44935
new line.CTR170337 bus1=BMT177688772.1,bus2=BMT177688805.1,Phases=1,LineCode=tieSwitch1,Length=0.001,Units=km,switch=T !numEQ 44941
new line.CTR103984 bus1=BMT177685970.1,bus2=BMT177685997.1,Phases=1,LineCode=tieSwitch1,Length=0.001,Units=km,switch=T !numEQ 103025
new line.CTR104082 bus1=BMT177686673.3,bus2=BMT177686696.3,Phases=1,LineCode=tieSwitch1,Length=0.001,Units=km,switch=T !numEQ 103040
new line.CTR104089 bus1=BMT177685887.3,bus2=BMT177685891.3,Phases=1,LineCode=tieSwitch1,Length=0.001,Units=km,switch=T !numEQ 103041
new line.CTR108219 bus1=BMT177688946.3,bus2=BMT177688947.3,Phases=1,LineCode=tieSwitch1,Length=0.001,Units=km,switch=T !numEQ 159561
new line.CTR160866 bus1=BMT177685983.1,bus2=BMT177685987.1,Phases=1,LineCode=tieSwitch1,Length=0.001,Units=km,switch=T !numEQ 44548
new line.CTR171114 bus1=BMT177690841.1.2.3,bus2=BMT177690878.1.2.3,Phases=3,LineCode=tieSwitch,Length=0.001,Units=km,switch=T !numEQ 301279
new line.CTR171135 bus1=BMT177687363.1.2.3,bus2=BMT177689019.1.2.3,Phases=3,LineCode=tieSwitch,Length=0.001,Units=km,switch=T !numEQ 44809
new line.CTR171149 bus1=BMT177687384.1.2.3,bus2=BMT177687390.1.2.3,Phases=3,LineCode=tieSwitch,Length=0.001,Units=km,switch=T !numEQ 44811
new line.CTR171198 bus1=BMT177690494.2,bus2=BMT177690764.2,Phases=1,LineCode=tieSwitch1,Length=0.001,Units=km,switch=T !numEQ 44823
new line.CTR171289 bus1=BMT177686327.1,bus2=BMT177686951.1,Phases=1,LineCode=tieSwitch1,Length=0.001,Units=km,switch=T !numEQ 44507
new line.CTR171310 bus1=BMT177685461.1.2.3,bus2=BMT177690926.1.2.3,Phases=3,LineCode=tieSwitch,Length=0.001,Units=km,switch=T !numEQ 44510
new line.CTR171317 bus1=BMT177686362.1.2.3,bus2=BMT177686453.1.2.3,Phases=3,LineCode=tieSwitch,Length=0.001,Units=km,switch=T !numEQ 44511
new line.CTR171345 bus1=BMT177686466.3,bus2=BMT177686744.3,Phases=1,LineCode=tieSwitch1,Length=0.001,Units=km,switch=T !numEQ 44515
new line.CTR171352 bus1=BMT177686333.2,bus2=BMT177686939.2,Phases=1,LineCode=tieSwitch1,Length=0.001,Units=km,switch=T !numEQ 44516
new line.CTR171359 bus1=BMT177686794.3,bus2=BMT177686798.3,Phases=1,LineCode=tieSwitch1,Length=0.001,Units=km,switch=T !numEQ 44518
new line.CTR171366 bus1=BMT177686789.3,bus2=BMT177686818.3,Phases=1,LineCode=tieSwitch1,Length=0.001,Units=km,switch=T !numEQ 44519
new line.CTR171373 bus1=BMT177685468.1.2.3,bus2=BMT177690917.1.2.3,Phases=3,LineCode=tieSwitch,Length=0.001,Units=km,switch=T !numEQ 44520
new line.CTR171387 bus1=BMT177686064.1,bus2=BMT177686067.1,Phases=1,LineCode=tieSwitch1,Length=0.001,Units=km,switch=T !numEQ 44522
new line.CTR171394 bus1=BMT177686063.1.2.3,bus2=BMT177686078.1.2.3,Phases=3,LineCode=tieSwitch,Length=0.001,Units=km,switch=T !numEQ 44521
new line.CTR171401 bus1=BMT177686101.2,bus2=BMT177686272.2,Phases=1,LineCode=tieSwitch1,Length=0.001,Units=km,switch=T !numEQ 44525
new line.CTR171408 bus1=BMT177686103.2,bus2=BMT177686269.2,Phases=1,LineCode=tieSwitch1,Length=0.001,Units=km,switch=T !numEQ 44526
new line.CTR171415 bus1=BMT177686108.2,bus2=BMT177686213.2,Phases=1,LineCode=tieSwitch1,Length=0.001,Units=km,switch=T !numEQ 44528
new line.CTR171422 bus1=BMT177685931.1,bus2=BMT177686049.1,Phases=1,LineCode=tieSwitch1,Length=0.001,Units=km,switch=T !numEQ 44537
new line.CTR171429 bus1=BMT177685941.1,bus2=BMT177686038.1,Phases=1,LineCode=tieSwitch1,Length=0.001,Units=km,switch=T !numEQ 44538
new line.CTR171436 bus1=BMT177685953.1,bus2=BMT177686005.1,Phases=1,LineCode=tieSwitch1,Length=0.001,Units=km,switch=T !numEQ 44542
new line.CTR171443 bus1=BMT177685973.1,bus2=BMT177685974.1,Phases=1,LineCode=tieSwitch1,Length=0.001,Units=km,switch=T !numEQ 44547
new line.CTR171450 bus1=BMT177685500.1.2.3,bus2=BMT177687303.1.2.3,Phases=3,LineCode=tieSwitch,Length=0.001,Units=km,switch=T !numEQ 44550
open line.CTR171450 term=1
new line.CTR171457 bus1=BMT177686504.3,bus2=BMT177686668.3,Phases=1,LineCode=tieSwitch1,Length=0.001,Units=km,switch=T !numEQ 44552
new line.CTR171464 bus1=BMT177686537.3,bus2=BMT177686617.3,Phases=1,LineCode=tieSwitch1,Length=0.001,Units=km,switch=T !numEQ 44554
new line.CTR171492 bus1=BMT177686545.3,bus2=BMT177686589.3,Phases=1,LineCode=tieSwitch1,Length=0.001,Units=km,switch=T !numEQ 44559
new line.CTR171499 bus1=BMT177685515.1.2.3,bus2=BMT177844054.1.2.3,Phases=3,LineCode=tieSwitch,Length=0.001,Units=km,switch=T !numEQ 44560
new line.CTR171513 bus1=BMT177686315.2,bus2=BMT177686989.2,Phases=1,LineCode=tieSwitch1,Length=0.001,Units=km,switch=T !numEQ 44564
new line.CTR171527 bus1=BMT177685534.1.2.3,bus2=BMT177687273.1.2.3,Phases=3,LineCode=tieSwitch,Length=0.001,Units=km,switch=T !numEQ 44570
new line.CTR171534 bus1=BMT177685867.3,bus2=BMT177685869.3,Phases=1,LineCode=tieSwitch1,Length=0.001,Units=km,switch=T !numEQ 44571
new line.CTR171541 bus1=BMT177685874.3,bus2=BMT177685920.3,Phases=1,LineCode=tieSwitch1,Length=0.001,Units=km,switch=T !numEQ 44572
new line.CTR171548 bus1=BMT177685491.1.2.3,bus2=BMT177687304.1.2.3,Phases=3,LineCode=tieSwitch,Length=0.001,Units=km,switch=T !numEQ 295346
new line.CTR171562 bus1=BMT177685538.1.2.3,bus2=BMT177687202.1.2.3,Phases=3,LineCode=tieSwitch,Length=0.001,Units=km,switch=T !numEQ 44580
new line.CTR171569 bus1=BMT177685659.1,bus2=BMT177685788.1,Phases=1,LineCode=tieSwitch1,Length=0.001,Units=km,switch=T !numEQ 44582
new line.CTR171576 bus1=BMT177685540.1.2.3,bus2=BMT177687173.1.2.3,Phases=3,LineCode=tieSwitch,Length=0.001,Units=km,switch=T !numEQ 44585
new line.CTR171583 bus1=BMT177685675.2,bus2=BMT177685771.2,Phases=1,LineCode=tieSwitch1,Length=0.001,Units=km,switch=T !numEQ 44586
new line.CTR171590 bus1=BMT177685800.1,bus2=BMT177685801.1,Phases=1,LineCode=tieSwitch1,Length=0.001,Units=km,switch=T !numEQ 44587
new line.CTR171597 bus1=BMT177686675.3,bus2=BMT177686678.3,Phases=1,LineCode=tieSwitch1,Length=0.001,Units=km,switch=T !numEQ 44589
new line.CTR171604 bus1=BMT177685541.1.2.3,bus2=BMT177687031.1.2.3,Phases=3,LineCode=tieSwitch,Length=0.001,Units=km,switch=T !numEQ 44590
new line.CTR171646 bus1=BMT177686468.3,bus2=BMT177686732.3,Phases=1,LineCode=tieSwitch1,Length=0.001,Units=km,switch=T !numEQ 44597
new line.CTR171660 bus1=BMT177685681.2,bus2=BMT177685764.2,Phases=1,LineCode=tieSwitch1,Length=0.001,Units=km,switch=T !numEQ 44601
new line.CTR171667 bus1=BMT177685682.2,bus2=BMT177685684.2,Phases=1,LineCode=tieSwitch1,Length=0.001,Units=km,switch=T !numEQ 44602
new line.CTR171674 bus1=BMT177685690.2,bus2=BMT177685741.2,Phases=1,LineCode=tieSwitch1,Length=0.001,Units=km,switch=T !numEQ 44603
new line.CTR170351 bus1=BMT177690097.2,bus2=BMT177690227.2,Phases=1,LineCode=tieSwitch1,Length=0.001,Units=km,switch=T !numEQ 44943
new line.CTR170358 bus1=BMT177688855.1,bus2=BMT177688867.1,Phases=1,LineCode=tieSwitch1,Length=0.001,Units=km,switch=T !numEQ 44944
new line.CTR170372 bus1=BMT177690322.3,bus2=BMT177690330.3,Phases=1,LineCode=tieSwitch1,Length=0.001,Units=km,switch=T !numEQ 44949
new line.CTR170407 bus1=BMT177690501.2,bus2=BMT177690741.2,Phases=1,LineCode=tieSwitch1,Length=0.001,Units=km,switch=T !numEQ 44824
new line.CTR170421 bus1=BMT177685523.3,bus2=BMT177687292.3,Phases=1,LineCode=tieSwitch1,Length=0.001,Units=km,switch=T !numEQ 44964
new line.CTR170470 bus1=BMT177686394.2,bus2=BMT177686443.2,Phases=1,LineCode=tieSwitch1,Length=0.001,Units=km,switch=T !numEQ 44974
new line.CTR170554 bus1=BMT177685577.2,bus2=BMT177687001.2,Phases=1,LineCode=tieSwitch1,Length=0.001,Units=km,switch=T !numEQ 44630
new line.CTR170603 bus1=BMT177685591.1.2.3,bus2=BMT177685592.1.2.3,Phases=3,LineCode=tieSwitch,Length=0.001,Units=km,switch=T !numEQ 44660
new line.CTR170610 bus1=BMT177687209.2,bus2=BMT177687211.2,Phases=1,LineCode=tieSwitch1,Length=0.001,Units=km,switch=T !numEQ 44661
new line.CTR170617 bus1=BMT177685593.3,bus2=BMT177685845.3,Phases=1,LineCode=tieSwitch1,Length=0.001,Units=km,switch=T !numEQ 44663
new line.CTR170624 bus1=BMT177685586.3,bus2=BMT177685866.3,Phases=1,LineCode=tieSwitch1,Length=0.001,Units=km,switch=T !numEQ 44665
new line.CTR170631 bus1=BMT177685595.1,bus2=BMT177685822.1,Phases=1,LineCode=tieSwitch1,Length=0.001,Units=km,switch=T !numEQ 44670
new line.CTR170638 bus1=BMT177685949.1,bus2=BMT177686024.1,Phases=1,LineCode=tieSwitch1,Length=0.001,Units=km,switch=T !numEQ 44672
new line.CTR170645 bus1=BMT177685597.1.2.3,bus2=BMT177685641.1.2.3,Phases=3,LineCode=tieSwitch,Length=0.001,Units=km,switch=T !numEQ 44675
new line.CTR170652 bus1=BMT177687208.1.2.3,bus2=BMT177687264.1.2.3,Phases=3,LineCode=tieSwitch,Length=0.001,Units=km,switch=T !numEQ 44676
new line.CTR170666 bus1=BMT177685600.2,bus2=BMT177685625.2,Phases=1,LineCode=tieSwitch1,Length=0.001,Units=km,switch=T !numEQ 44680
new line.CTR170673 bus1=BMT177686779.3,bus2=BMT177686850.3,Phases=1,LineCode=tieSwitch1,Length=0.001,Units=km,switch=T !numEQ 44681
new line.CTR170680 bus1=BMT177685608.2,bus2=BMT177685614.2,Phases=1,LineCode=tieSwitch1,Length=0.001,Units=km,switch=T !numEQ 44685
new line.CTR170687 bus1=BMT177686527.3,bus2=BMT177686664.3,Phases=1,LineCode=tieSwitch1,Length=0.001,Units=km,switch=T !numEQ 44686
new line.CTR170701 bus1=BMT177686341.3,bus2=BMT177686935.3,Phases=1,LineCode=tieSwitch1,Length=0.001,Units=km,switch=T !numEQ 44688
new line.CTR170729 bus1=BMT177686094.2,bus2=BMT177686306.2,Phases=1,LineCode=tieSwitch1,Length=0.001,Units=km,switch=T !numEQ 44691
new line.CTR170736 bus1=BMT177686099.2,bus2=BMT177686302.2,Phases=1,LineCode=tieSwitch1,Length=0.001,Units=km,switch=T !numEQ 44692
new line.CTR170750 bus1=BMT177685555.1,bus2=BMT177687017.1,Phases=1,LineCode=tieSwitch1,Length=0.001,Units=km,switch=T !numEQ 44694
new line.CTR170785 bus1=BMT177690929.1.2.3,bus2=BMT177690930.1.2.3,Phases=3,LineCode=tieSwitch,Length=0.001,Units=km,switch=T !numEQ 44702
new line.CTR170792 bus1=BMT177690928.1.2.3,bus2=BMT177690950.1.2.3,Phases=3,LineCode=tieSwitch,Length=0.001,Units=km,switch=T !numEQ 44704
new line.CTR170799 bus1=BMT177686686.3,bus2=BMT177686690.3,Phases=1,LineCode=tieSwitch1,Length=0.001,Units=km,switch=T !numEQ 44706
new line.CTR170820 bus1=BMT177685879.3,bus2=BMT177685910.3,Phases=1,LineCode=tieSwitch1,Length=0.001,Units=km,switch=T !numEQ 44716
new line.CTR170827 bus1=BMT177686679.3,bus2=BMT177686692.3,Phases=1,LineCode=tieSwitch1,Length=0.001,Units=km,switch=T !numEQ 44719
new line.CTR170848 bus1=BMT177687212.2,bus2=BMT177687214.2,Phases=1,LineCode=tieSwitch1,Length=0.001,Units=km,switch=T !numEQ 44711
new line.CTR170946 bus1=BMT177685710.2,bus2=BMT177685712.2,Phases=1,LineCode=tieSwitch1,Length=0.001,Units=km,switch=T !numEQ 44748
new line.CTR171009 bus1=BMT177685929.1,bus2=BMT177686057.1,Phases=1,LineCode=tieSwitch1,Length=0.001,Units=km,switch=T !numEQ 44773
new line.CTR171044 bus1=BMT177688027.1,bus2=BMT177688039.1,Phases=1,LineCode=tieSwitch1,Length=0.001,Units=km,switch=T !numEQ 44786
new line.CTR171051 bus1=BMT177686273.2,bus2=BMT177742302.2,Phases=1,LineCode=tieSwitch1,Length=0.001,Units=km,switch=T !numEQ 44776
new line.CTR171065 bus1=BMT177685688.2,bus2=BMT177685759.2,Phases=1,LineCode=tieSwitch1,Length=0.001,Units=km,switch=T !numEQ 44797
new line.CTR171072 bus1=BMT177685746.2,bus2=BMT177685755.2,Phases=1,LineCode=tieSwitch1,Length=0.001,Units=km,switch=T !numEQ 44798
new line.CTR171079 bus1=BMT177686029.1,bus2=BMT177686032.1,Phases=1,LineCode=tieSwitch1,Length=0.001,Units=km,switch=T !numEQ 44799
new line.CTR171086 bus1=BMT177688360.1,bus2=BMT177688469.1,Phases=1,LineCode=tieSwitch1,Length=0.001,Units=km,switch=T !numEQ 44800
new line.CTR171093 bus1=BMT177687313.1.2.3,bus2=BMT177690467.1.2.3,Phases=3,LineCode=tieSwitch,Length=0.001,Units=km,switch=T !numEQ 44801
new line.CTR171100 bus1=BMT177687385.2,bus2=BMT177688888.2,Phases=1,LineCode=tieSwitch1,Length=0.001,Units=km,switch=T !numEQ 44812
new line.CTR171107 bus1=BMT177690825.1.2.3,bus2=BMT177690912.1.2.3,Phases=3,LineCode=tieSwitch,Length=0.001,Units=km,switch=T !numEQ 44803
new line.CTR192114 bus1=BMT177690230.2,bus2=BMT177690255.2,Phases=1,LineCode=tieSwitch1,Length=0.001,Units=km,switch=T !numEQ 158586
new line.CTR244922 bus1=BMT177687454.2,bus2=BMT177687458.2,Phases=1,LineCode=tieSwitch1,Length=0.001,Units=km,switch=T !numEQ 156396
new line.CTR245356 bus1=BMT177685959.1,bus2=BMT177686001.1,Phases=1,LineCode=tieSwitch1,Length=0.001,Units=km,switch=T !numEQ 110781
new line.CTR245363 bus1=BMT177685875.3,bus2=BMT177685917.3,Phases=1,LineCode=tieSwitch1,Length=0.001,Units=km,switch=T !numEQ 110793
new line.CTR245629 bus1=BMT177689087.3,bus2=BMT177689089.3,Phases=1,LineCode=tieSwitch1,Length=0.001,Units=km,switch=T !numEQ 44869
new line.CTR245692 bus1=BMT177687281.2,bus2=BMT177687283.2,Phases=1,LineCode=tieSwitch1,Length=0.001,Units=km,switch=T !numEQ 146491
new line.CTR246175 bus1=BMT177690794.2,bus2=BMT177690796.2,Phases=1,LineCode=tieSwitch1,Length=0.001,Units=km,switch=T !numEQ 44922
new line.CTR246238 bus1=BMT177686324.3,bus2=BMT177686977.3,Phases=1,LineCode=tieSwitch1,Length=0.001,Units=km,switch=T !numEQ 44693
new line.CTR131893 bus1=BMT177686083.3,bus2=BMT177686084.3,Phases=1,LineCode=tieSwitch1,Length=0.001,Units=km,switch=T !numEQ 191183
new line.CTR132509 bus1=BMT177686901.3,bus2=BMT177686903.3,Phases=1,LineCode=tieSwitch1,Length=0.001,Units=km,switch=T !numEQ 157698
new line.CTR143604 bus1=BMT177690879.1.2.3,bus2=BMT177690881.1.2.3,Phases=3,LineCode=tieSwitch,Length=0.001,Units=km,switch=T !numEQ 64912
new line.CTR153782 bus1=BMT177688194.1,bus2=BMT177688251.1,Phases=1,LineCode=tieSwitch1,Length=0.001,Units=km,switch=T !numEQ 200629
new line.CTR155168 bus1=BMT177687467.2,bus2=BMT177687691.2,Phases=1,LineCode=tieSwitch1,Length=0.001,Units=km,switch=T !numEQ 44853
new line.CTR168874 bus1=BMT177690900.2,bus2=BMT6376964.2,Phases=1,LineCode=tieSwitch1,Length=0.001,Units=km,switch=T !numEQ 44278
open line.CTR168874 term=1
new line.CTR17891 bus1=BMT177685508.1.2.3,bus2=BMT177687299.1.2.3,Phases=3,LineCode=tieSwitch,Length=0.001,Units=km,switch=T !numEQ 182723
new line.CTR2197 bus1=BMT177688889.2,bus2=BMT177688909.2,Phases=1,LineCode=tieSwitch1,Length=0.001,Units=km,switch=T !numEQ 177143
new line.CTR219813 bus1=BMT177687784.1.2.3,bus2=BMT177687786.1.2.3,Phases=3,LineCode=tieSwitch,Length=0.001,Units=km,switch=T !numEQ 44814
new line.CTR219883 bus1=BMT177690520.2,bus2=BMT177690533.2,Phases=1,LineCode=tieSwitch1,Length=0.001,Units=km,switch=T !numEQ 44892
new line.CTR219974 bus1=BMT177689501.2,bus2=BMT177690266.2,Phases=1,LineCode=tieSwitch1,Length=0.001,Units=km,switch=T !numEQ 44900
new line.CTR220086 bus1=BMT177688189.1,bus2=BMT177688254.1,Phases=1,LineCode=tieSwitch1,Length=0.001,Units=km,switch=T !numEQ 195691
new line.CTR221206 bus1=BMT177687887.2,bus2=BMT177687889.2,Phases=1,LineCode=tieSwitch1,Length=0.001,Units=km,switch=T !numEQ 190289
new line.CTR239385 bus1=BMT177689931.3,bus2=BMT177689932.3,Phases=1,LineCode=tieSwitch1,Length=0.001,Units=km,switch=T !numEQ 158602
new line.CTR258768 bus1=BMT177688127.1,bus2=BMT177688146.1,Phases=1,LineCode=tieSwitch1,Length=0.001,Units=km,switch=T !numEQ 177604
new line.CTR2596 bus1=BMT177690765.2,bus2=BMT177690767.2,Phases=1,LineCode=tieSwitch1,Length=0.001,Units=km,switch=T !numEQ 44674
new line.CTR2757 bus1=BMT177689288.2,bus2=BMT177690353.2,Phases=1,LineCode=tieSwitch1,Length=0.001,Units=km,switch=T !numEQ 44910
new line.CTR276016 bus1=BMT177690011.3,bus2=BMT177690023.3,Phases=1,LineCode=tieSwitch1,Length=0.001,Units=km,switch=T !numEQ 157201
new line.CTR276044 bus1=BMT177688982.3,bus2=BMT177688988.3,Phases=1,LineCode=tieSwitch1,Length=0.001,Units=km,switch=T !numEQ 44932
new line.CTR276065 bus1=BMT177689801.1,bus2=BMT177689802.1,Phases=1,LineCode=tieSwitch1,Length=0.001,Units=km,switch=T !numEQ 158344
new line.CTR276184 bus1=BMT177687747.1,bus2=BMT177687750.1,Phases=1,LineCode=tieSwitch1,Length=0.001,Units=km,switch=T !numEQ 146534
new line.CTR276499 bus1=BMT177686766.3,bus2=BMT177686878.3,Phases=1,LineCode=tieSwitch1,Length=0.001,Units=km,switch=T !numEQ 200500
new line.CTR2771 bus1=BMT177689291.1,bus2=BMT177689296.1,Phases=1,LineCode=tieSwitch1,Length=0.001,Units=km,switch=T !numEQ 159458
new line.CTR277122 bus1=BMT177686547.3,bus2=BMT177686555.3,Phases=1,LineCode=tieSwitch1,Length=0.001,Units=km,switch=T !numEQ 191189
new line.CTR29686 bus1=BMT177689628.1,bus2=BMT177689643.1,Phases=1,LineCode=tieSwitch1,Length=0.001,Units=km,switch=T !numEQ 177378
new line.CTR29959 bus1=BMT177689617.1,bus2=BMT177689692.1,Phases=1,LineCode=tieSwitch1,Length=0.001,Units=km,switch=T !numEQ 176949
new line.CTR29966 bus1=BMT177689698.1,bus2=BMT177689730.1,Phases=1,LineCode=tieSwitch1,Length=0.001,Units=km,switch=T !numEQ 176950
new line.CTR29973 bus1=BMT177689708.1,bus2=BMT177689724.1,Phases=1,LineCode=tieSwitch1,Length=0.001,Units=km,switch=T !numEQ 176951
new line.CTR325128 bus1=BMT177687055.1,bus2=BMT177687138.1,Phases=1,LineCode=tieSwitch1,Length=0.001,Units=km,switch=T !numEQ 281257
new line.CTR325135 bus1=BMT177687083.1,bus2=BMT177687084.1,Phases=1,LineCode=tieSwitch1,Length=0.001,Units=km,switch=T !numEQ 281258
new line.CTR325149 bus1=BMT177687053.1,bus2=BMT177687151.1,Phases=1,LineCode=tieSwitch1,Length=0.001,Units=km,switch=T !numEQ 281259
new line.CTR326031 bus1=BMT177689388.3,bus2=BMT177689389.3,Phases=1,LineCode=tieSwitch1,Length=0.001,Units=km,switch=T !numEQ 230940
new line.CTR326094 bus1=BMT177689410.3,bus2=BMT177689411.3,Phases=1,LineCode=tieSwitch1,Length=0.001,Units=km,switch=T !numEQ 230941
new line.CTR326199 bus1=BMT177689408.3,bus2=BMT177689464.3,Phases=1,LineCode=tieSwitch1,Length=0.001,Units=km,switch=T !numEQ 230943
new line.CTR326269 bus1=BMT177689413.3,bus2=BMT177689460.3,Phases=1,LineCode=tieSwitch1,Length=0.001,Units=km,switch=T !numEQ 230944
new line.CTR326297 bus1=BMT177689415.3,bus2=BMT177689458.3,Phases=1,LineCode=tieSwitch1,Length=0.001,Units=km,switch=T !numEQ 230946
new line.CTR326339 bus1=BMT177689419.3,bus2=BMT177689451.3,Phases=1,LineCode=tieSwitch1,Length=0.001,Units=km,switch=T !numEQ 230947
new line.CTR326395 bus1=BMT177689425.3,bus2=BMT177689449.3,Phases=1,LineCode=tieSwitch1,Length=0.001,Units=km,switch=T !numEQ 230948
new line.CTR326423 bus1=BMT177689427.3,bus2=BMT177689430.3,Phases=1,LineCode=tieSwitch1,Length=0.001,Units=km,switch=T !numEQ 230949
new line.CTR326451 bus1=BMT177689432.3,bus2=BMT177689443.3,Phases=1,LineCode=tieSwitch1,Length=0.001,Units=km,switch=T !numEQ 230950
new line.CTR32780 bus1=BMT177689946.3,bus2=BMT177689948.3,Phases=1,LineCode=tieSwitch1,Length=0.001,Units=km,switch=T !numEQ 175876
new line.CTR32787 bus1=BMT177690267.2,bus2=BMT177690269.2,Phases=1,LineCode=tieSwitch1,Length=0.001,Units=km,switch=T !numEQ 175877
new line.CTR328313 bus1=BMT177688668.1,bus2=BMT177688669.1,Phases=1,LineCode=tieSwitch1,Length=0.001,Units=km,switch=T !numEQ 228517
new line.CTR328439 bus1=BMT177688385.1,bus2=BMT177688387.1,Phases=1,LineCode=tieSwitch1,Length=0.001,Units=km,switch=T !numEQ 228099
new line.CTR328474 bus1=BMT177686345.3,bus2=BMT177686370.3,Phases=1,LineCode=tieSwitch1,Length=0.001,Units=km,switch=T !numEQ 228445
new line.CTR328495 bus1=BMT177687219.2,bus2=BMT177687258.2,Phases=1,LineCode=tieSwitch1,Length=0.001,Units=km,switch=T !numEQ 228446
new line.CTR328509 bus1=BMT177688337.1,bus2=BMT177688338.1,Phases=1,LineCode=tieSwitch1,Length=0.001,Units=km,switch=T !numEQ 228100
new line.CTR329062 bus1=BMT177686844.3,bus2=BMT177686847.3,Phases=1,LineCode=tieSwitch1,Length=0.001,Units=km,switch=T !numEQ 228447
new line.CTR128918 bus1=BMT177686597.3,bus2=BMT177686599.3,Phases=1,LineCode=tieSwitch1,Length=0.001,Units=km,switch=T !numEQ 44736
new line.CTR128932 bus1=BMT177685673.2,bus2=BMT177685778.2,Phases=1,LineCode=tieSwitch1,Length=0.001,Units=km,switch=T !numEQ 44584
new line.CTR128988 bus1=BMT177688232.1,bus2=BMT177688235.1,Phases=1,LineCode=tieSwitch1,Length=0.001,Units=km,switch=T !numEQ 195693
new line.CTR14034 bus1=BMT177686799.3,bus2=BMT177686808.3,Phases=1,LineCode=tieSwitch1,Length=0.001,Units=km,switch=T !numEQ 157104
new line.CTR151318 bus1=BMT177688361.1,bus2=BMT177688389.1,Phases=1,LineCode=tieSwitch1,Length=0.001,Units=km,switch=T !numEQ 44793
new line.CTR152851 bus1=BMT177688353.1,bus2=BMT177688478.1,Phases=1,LineCode=tieSwitch1,Length=0.001,Units=km,switch=T !numEQ 110798
new line.CTR152858 bus1=BMT177688479.1,bus2=BMT177688481.1,Phases=1,LineCode=tieSwitch1,Length=0.001,Units=km,switch=T !numEQ 203052
new line.CTR163288 bus1=BMT177686751.3,bus2=BMT177686884.3,Phases=1,LineCode=tieSwitch1,Length=0.001,Units=km,switch=T !numEQ 47999
new line.CTR163295 bus1=BMT177690608.2,bus2=BMT177690611.2,Phases=1,LineCode=tieSwitch1,Length=0.001,Units=km,switch=T !numEQ 49416
new line.CTR21062 bus1=BMT177687797.3,bus2=BMT177688671.3,Phases=1,LineCode=tieSwitch1,Length=0.001,Units=km,switch=T !numEQ 181718
new line.CTR246945 bus1=BMT177690742.2,bus2=BMT177690756.2,Phases=1,LineCode=tieSwitch1,Length=0.001,Units=km,switch=T !numEQ 44815
new line.CTR266139 bus1=BMT177685544.1.2.3,bus2=BMT177687029.1.2.3,Phases=3,LineCode=tieSwitch,Length=0.001,Units=km,switch=T !numEQ 44595
new line.CTR267042 bus1=BMT177686419.2,bus2=BMT177686421.2,Phases=1,LineCode=tieSwitch1,Length=0.001,Units=km,switch=T !numEQ 157751
new line.CTR267210 bus1=BMT177689518.1,bus2=BMT177689522.1,Phases=1,LineCode=tieSwitch1,Length=0.001,Units=km,switch=T !numEQ 44899
new line.CTR267371 bus1=BMT177689145.1.2.3,bus2=BMT177689154.1.2.3,Phases=3,LineCode=tieSwitch,Length=0.001,Units=km,switch=T !numEQ 123777
new line.CTR285270 bus1=BMT177687874.2,bus2=BMT177687977.2,Phases=1,LineCode=tieSwitch1,Length=0.001,Units=km,switch=T !numEQ 190288
new line.CTR285403 bus1=BMT177685811.1,bus2=BMT177685813.1,Phases=1,LineCode=tieSwitch1,Length=0.001,Units=km,switch=T !numEQ 200413
new line.CTR285676 bus1=BMT177688208.1,bus2=BMT177688241.1,Phases=1,LineCode=tieSwitch1,Length=0.001,Units=km,switch=T !numEQ 195689
new line.CTR285774 bus1=BMT177687066.1,bus2=BMT177687068.1,Phases=1,LineCode=tieSwitch1,Length=0.001,Units=km,switch=T !numEQ 44782
new line.CTR285921 bus1=BMT177685542.1.2.3,bus2=BMT177685543.1.2.3,Phases=3,LineCode=tieSwitch,Length=0.001,Units=km,switch=T !numEQ 44610
new line.CTR286320 bus1=BMT177688184.1,bus2=BMT177688256.1,Phases=1,LineCode=tieSwitch1,Length=0.001,Units=km,switch=T !numEQ 195694
new line.CTR286460 bus1=BMT177688746.3,bus2=BMT177688748.3,Phases=1,LineCode=tieSwitch1,Length=0.001,Units=km,switch=T !numEQ 190292
new line.CTR286488 bus1=BMT177687998.2,bus2=BMT177688000.2,Phases=1,LineCode=tieSwitch1,Length=0.001,Units=km,switch=T !numEQ 190290
new line.CTR286516 bus1=BMT177687708.2,bus2=BMT177687719.2,Phases=1,LineCode=tieSwitch1,Length=0.001,Units=km,switch=T !numEQ 156378
new line.CTR286572 bus1=BMT177688951.3,bus2=BMT177688974.3,Phases=1,LineCode=tieSwitch1,Length=0.001,Units=km,switch=T !numEQ 159562
new line.CTR286579 bus1=BMT177688545.1,bus2=BMT177688548.1,Phases=1,LineCode=tieSwitch1,Length=0.001,Units=km,switch=T !numEQ 190224
new line.CTR286712 bus1=BMT177688955.3,bus2=BMT177688970.3,Phases=1,LineCode=tieSwitch1,Length=0.001,Units=km,switch=T !numEQ 159560
new line.CTR286726 bus1=BMT177688431.1,bus2=BMT177688435.1,Phases=1,LineCode=tieSwitch1,Length=0.001,Units=km,switch=T !numEQ 190291
new line.CTR286775 bus1=BMT177687428.1,bus2=BMT177688884.1,Phases=1,LineCode=tieSwitch1,Length=0.001,Units=km,switch=T !numEQ 176869
new line.CTR286866 bus1=BMT177688991.3,bus2=BMT177688999.3,Phases=1,LineCode=tieSwitch1,Length=0.001,Units=km,switch=T !numEQ 190287
new line.CTR286950 bus1=BMT177689030.2,bus2=BMT177690453.2,Phases=1,LineCode=tieSwitch1,Length=0.001,Units=km,switch=T !numEQ 178222
new line.CTR287111 bus1=BMT177688963.3,bus2=BMT177688966.3,Phases=1,LineCode=tieSwitch1,Length=0.001,Units=km,switch=T !numEQ 176897
new line.CTR287174 bus1=BMT177688511.1,bus2=BMT177688519.1,Phases=1,LineCode=tieSwitch1,Length=0.001,Units=km,switch=T !numEQ 190222