new transformer.1086399 Phases=1,Windings=3,Buses=[BMT177689667.1 BBT138025360.1.0 BBT138025360.0.2],Conns=[wye wye wye],kvs=[7.967 0.12 0.12],kvas=[10.000000000 10.000000000 10.000000000],Taps=[1,1.000000000,1.000000000],XHL=1.560000000,XHT=,XLT=,%loadloss=1.950000000,%noloadloss=0.500000000
new transformer.1098621 Phases=1,Windings=3,Buses=[BMT177689683.1 BBT141035143.1.0 BBT141035143.0.2],Conns=[wye wye wye],kvs=[7.967 0.12 0.12],kvas=[5.000000000 5.000000000 5.000000000],Taps=[1,1.000000000,1.000000000],XHL=1.360000000,XHT=,XLT=,%loadloss=2.100000000,%noloadloss=0.700000000
new transformer.1397814 Phases=1,Windings=3,Buses=[BMT177687568.3 BBT149838221.1.0 BBT149838221.0.2],Conns=[wye wye wye],kvs=[7.967 0.12 0.12],kvas=[10.000000000 10.000000000 10.000000000],Taps=[1,1.000000000,1.000000000],XHL=1.560000000,XHT=,XLT=,%loadloss=1.950000000,%noloadloss=0.500000000
new transformer.1398134 Phases=1,Windings=3,Buses=[BMT177687249.2 BBT149885985.1.0 BBT149885985.0.2],Conns=[wye wye wye],kvs=[7.967 0.12 0.12],kvas=[10.000000000 10.000000000 10.000000000],Taps=[1,1.000000000,1.000000000],XHL=1.560000000,XHT=,XLT=,%loadloss=1.950000000,%noloadloss=0.500000000
new transformer.1402999 Phases=1,Windings=3,Buses=[BMT177686840.3 BBT151163085.1.0 BBT151163085.0.2],Conns=[wye wye wye],kvs=[7.967 0.12 0.12],kvas=[15.000000000 15.000000000 15.000000000],Taps=[1,1.000000000,1.000000000],XHL=1.770000000,XHT=,XLT=,%loadloss=1.770000000,%noloadloss=0.433000000
new transformer.1403078 Phases=3,Windings=2,Buses=[BMT177689151.1.2.3 BBT151178642.1.2.3.0],Conns=[delta wye],kvs=[13.80 0.22],kvas=[30.000000000 30.000000000],Taps=[1,1.000000000],XHL=3.560000000,%loadloss=1.820000000,%noloadloss=0.500000000
new transformer.1403238 Phases=1,Windings=3,Buses=[BMT177687307.2 BBT151214003.1.0 BBT151214003.0.2],Conns=[wye wye wye],kvs=[7.967 0.12 0.12],kvas=[5.000000000 5.000000000 5.000000000],Taps=[1,1.000000000,1.000000000],XHL=1.360000000,XHT=,XLT=,%loadloss=2.100000000,%noloadloss=0.700000000
new transformer.1407747 Phases=3,Windings=2,Buses=[BMT177690414.1.2.3 BBT152337855.1.2.3.0],Conns=[delta wye],kvs=[13.80 0.22],kvas=[45.000000000 45.000000000],Taps=[1,1.000000000],XHL=3.640000000,%loadloss=1.670000000,%noloadloss=0.433000000
new transformer.1411679 Phases=1,Windings=3,Buses=[BMT177686780.3 BBT153186970.1.0 BBT153186970.0.2],Conns=[wye wye wye],kvs=[7.967 0.12 0.12],kvas=[10.000000000 10.000000000 10.000000000],Taps=[1,1.000000000,1.000000000],XHL=1.560000000,XHT=,XLT=,%loadloss=1.950000000,%noloadloss=0.500000000
new transformer.1426073 Phases=1,Windings=3,Buses=[BMT177688126.1 BBT156364971.1.0 BBT156364971.0.2],Conns=[wye wye wye],kvs=[7.967 0.12 0.12],kvas=[10.000000000 10.000000000 10.000000000],Taps=[1,1.000000000,1.000000000],XHL=1.560000000,XHT=,XLT=,%loadloss=1.950000000,%noloadloss=0.500000000
new transformer.1431358 Phases=3,Windings=2,Buses=[BMT177685479.1.2.3 BBT157516984.1.2.3.0],Conns=[delta wye],kvs=[13.80 0.22],kvas=[45.000000000 45.000000000],Taps=[1,1.000000000],XHL=3.640000000,%loadloss=1.670000000,%noloadloss=0.433000000
new transformer.1436891 Phases=1,Windings=3,Buses=[BMT177688457.1 BBT158533235.1.0 BBT158533235.0.2],Conns=[wye wye wye],kvs=[7.967 0.12 0.12],kvas=[10.000000000 10.000000000 10.000000000],Taps=[1,1.000000000,1.000000000],XHL=1.560000000,XHT=,XLT=,%loadloss=1.950000000,%noloadloss=0.500000000
new transformer.1441620 Phases=1,Windings=3,Buses=[BMT177686735.3 BBT159502045.1.0 BBT159502045.0.2],Conns=[wye wye wye],kvs=[7.967 0.12 0.12],kvas=[35.000000000 35.000000000 35.000000000],Taps=[1,1.000000000,1.000000000],XHL=2.060000000,XHT=,XLT=,%loadloss=1.410000000,%noloadloss=0.385000000
new transformer.1446835 Phases=1,Windings=3,Buses=[BMT177690362.2 BBT160942159.1.0 BBT160942159.0.2],Conns=[wye wye wye],kvs=[7.967 0.12 0.12],kvas=[10.000000000 10.000000000 10.000000000],Taps=[1,1.000000000,1.000000000],XHL=1.560000000,XHT=,XLT=,%loadloss=1.950000000,%noloadloss=0.500000000
new transformer.1446848 Phases=1,Windings=3,Buses=[BMT177690360.2 BBT160946237.1.0 BBT160946237.0.2],Conns=[wye wye wye],kvs=[7.967 0.12 0.12],kvas=[10.000000000 10.000000000 10.000000000],Taps=[1,1.000000000,1.000000000],XHL=1.560000000,XHT=,XLT=,%loadloss=1.950000000,%noloadloss=0.500000000
new transformer.1446856 Phases=1,Windings=3,Buses=[BMT177690363.2 BBT160949643.1.0 BBT160949643.0.2],Conns=[wye wye wye],kvs=[7.967 0.12 0.12],kvas=[10.000000000 10.000000000 10.000000000],Taps=[1,1.000000000,1.000000000],XHL=1.560000000,XHT=,XLT=,%loadloss=1.950000000,%noloadloss=0.500000000
new transformer.1447130 Phases=1,Windings=3,Buses=[BMT177690048.3 BBT161015639.1.0 BBT161015639.0.2],Conns=[wye wye wye],kvs=[7.967 0.12 0.12],kvas=[10.000000000 10.000000000 10.000000000],Taps=[1,1.000000000,1.000000000],XHL=1.560000000,XHT=,XLT=,%loadloss=1.950000000,%noloadloss=0.500000000
new transformer.1447138 Phases=1,Windings=3,Buses=[BMT177690047.3 BBT161016554.1.0 BBT161016554.0.2],Conns=[wye wye wye],kvs=[7.967 0.12 0.12],kvas=[10.000000000 10.000000000 10.000000000],Taps=[1,1.000000000,1.000000000],XHL=1.560000000,XHT=,XLT=,%loadloss=1.950000000,%noloadloss=0.500000000
new transformer.1447149 Phases=1,Windings=3,Buses=[BMT177690049.3 BBT161017723.1.0 BBT161017723.0.2],Conns=[wye wye wye],kvs=[7.967 0.12 0.12],kvas=[10.000000000 10.000000000 10.000000000],Taps=[1,1.000000000,1.000000000],XHL=1.560000000,XHT=,XLT=,%loadloss=1.950000000,%noloadloss=0.500000000
new transformer.1447386 Phases=1,Windings=3,Buses=[BMT177689854.1 BBT161062747.1.0 BBT161062747.0.2],Conns=[wye wye wye],kvs=[7.967 0.12 0.12],kvas=[10.000000000 10.000000000 10.000000000],Taps=[1,1.000000000,1.000000000],XHL=1.560000000,XHT=,XLT=,%loadloss=1.950000000,%noloadloss=0.500000000
new transformer.1458607 Phases=1,Windings=3,Buses=[BMT177689303.1 BBT164062355.1.0 BBT164062355.0.2],Conns=[wye wye wye],kvs=[7.967 0.12 0.12],kvas=[10.000000000 10.000000000 10.000000000],Taps=[1,1.000000000,1.000000000],XHL=1.560000000,XHT=,XLT=,%loadloss=1.950000000,%noloadloss=0.500000000
new transformer.1458619 Phases=1,Windings=3,Buses=[BMT177689210.1 BBT164065207.1.0 BBT164065207.0.2],Conns=[wye wye wye],kvs=[7.967 0.12 0.12],kvas=[10.000000000 10.000000000 10.000000000],Taps=[1,1.000000000,1.000000000],XHL=1.560000000,XHT=,XLT=,%loadloss=1.950000000,%noloadloss=0.500000000
new transformer.1458620 Phases=1,Windings=3,Buses=[BMT177689207.1 BBT164065284.1.0 BBT164065284.0.2],Conns=[wye wye wye],kvs=[7.967 0.12 0.12],kvas=[10.000000000 10.000000000 10.000000000],Taps=[1,1.000000000,1.000000000],XHL=1.560000000,XHT=,XLT=,%loadloss=1.950000000,%noloadloss=0.500000000
new transformer.1458623 Phases=1,Windings=3,Buses=[BMT177689209.1 BBT164065465.1.0 BBT164065465.0.2],Conns=[wye wye wye],kvs=[7.967 0.12 0.12],kvas=[10.000000000 10.000000000 10.000000000],Taps=[1,1.000000000,1.000000000],XHL=1.560000000,XHT=,XLT=,%loadloss=1.950000000,%noloadloss=0.500000000
new transformer.1458624 Phases=1,Windings=3,Buses=[BMT177689212.1 BBT164065499.1.0 BBT164065499.0.2],Conns=[wye wye wye],kvs=[7.967 0.12 0.12],kvas=[10.000000000 10.000000000 10.000000000],Taps=[1,1.000000000,1.000000000],XHL=1.560000000,XHT=,XLT=,%loadloss=1.950000000,%noloadloss=0.500000000
new transformer.1092223 Phases=3,Windings=2,Buses=[BMT177685475.1.2.3 BBT139611427.1.2.3.0],Conns=[delta wye],kvs=[13.80 0.22],kvas=[45.000000000 45.000000000],Taps=[1,1.000000000],XHL=3.640000000,%loadloss=1.670000000,%noloadloss=0.433000000
new transformer.1108988 Phases=3,Windings=2,Buses=[BMT177688626.1.2.3 BBT144025851.1.2.3.0],Conns=[delta wye],kvs=[13.80 0.22],kvas=[30.000000000 30.000000000],Taps=[1,1.000000000],XHL=3.560000000,%loadloss=1.820000000,%noloadloss=0.500000000
new transformer.1124234 Phases=1,Windings=3,Buses=[BMT177689487.3 BBT147890747.1.0 BBT147890747.0.2],Conns=[wye wye wye],kvs=[7.967 0.12 0.12],kvas=[10.000000000 10.000000000 10.000000000],Taps=[1,1.000000000,1.000000000],XHL=1.560000000,XHT=,XLT=,%loadloss=1.950000000,%noloadloss=0.500000000
new transformer.1124241 Phases=1,Windings=3,Buses=[BMT177689486.3 BBT147892112.1.0 BBT147892112.0.2],Conns=[wye wye wye],kvs=[7.967 0.12 0.12],kvas=[10.000000000 10.000000000 10.000000000],Taps=[1,1.000000000,1.000000000],XHL=1.560000000,XHT=,XLT=,%loadloss=1.950000000,%noloadloss=0.500000000
new transformer.1124255 Phases=1,Windings=3,Buses=[BMT177689488.3 BBT147892602.1.0 BBT147892602.0.2],Conns=[wye wye wye],kvs=[7.967 0.12 0.12],kvas=[5.000000000 5.000000000 5.000000000],Taps=[1,1.000000000,1.000000000],XHL=1.360000000,XHT=,XLT=,%loadloss=2.100000000,%noloadloss=0.700000000
new transformer.1124262 Phases=1,Windings=3,Buses=[BMT177689484.3 BBT147893932.1.0 BBT147893932.0.2],Conns=[wye wye wye],kvs=[7.967 0.12 0.12],kvas=[5.000000000 5.000000000 5.000000000],Taps=[1,1.000000000,1.000000000],XHL=1.360000000,XHT=,XLT=,%loadloss=2.100000000,%noloadloss=0.700000000
new transformer.1393703 Phases=1,Windings=3,Buses=[BMT177689457.3 BBT148885428.1.0 BBT148885428.0.2],Conns=[wye wye wye],kvs=[7.967 0.12 0.12],kvas=[5.000000000 5.000000000 5.000000000],Taps=[1,1.000000000,1.000000000],XHL=1.360000000,XHT=,XLT=,%loadloss=2.100000000,%noloadloss=0.700000000
new transformer.1393708 Phases=1,Windings=3,Buses=[BMT177685810.1 BBT148886620.1.0 BBT148886620.0.2],Conns=[wye wye wye],kvs=[7.967 0.12 0.12],kvas=[10.000000000 10.000000000 10.000000000],Taps=[1,1.000000000,1.000000000],XHL=1.560000000,XHT=,XLT=,%loadloss=1.950000000,%noloadloss=0.500000000
new transformer.1405551 Phases=1,Windings=3,Buses=[BMT177689337.1 BBT151745245.1.0 BBT151745245.0.2],Conns=[wye wye wye],kvs=[7.967 0.12 0.12],kvas=[15.000000000 15.000000000 15.000000000],Taps=[1,1.000000000,1.000000000],XHL=1.770000000,XHT=,XLT=,%loadloss=1.770000000,%noloadloss=0.433000000
new transformer.1406032 Phases=1,Windings=3,Buses=[BMT177686882.3 BBT151862811.1.0 BBT151862811.0.2],Conns=[wye wye wye],kvs=[7.967 0.12 0.12],kvas=[10.000000000 10.000000000 10.000000000],Taps=[1,1.000000000,1.000000000],XHL=1.560000000,XHT=,XLT=,%loadloss=1.950000000,%noloadloss=0.500000000
new transformer.1406033 Phases=1,Windings=3,Buses=[BMT177686883.3 BBT151862892.1.0 BBT151862892.0.2],Conns=[wye wye wye],kvs=[7.967 0.12 0.12],kvas=[10.000000000 10.000000000 10.000000000],Taps=[1,1.000000000,1.000000000],XHL=1.560000000,XHT=,XLT=,%loadloss=1.950000000,%noloadloss=0.500000000
new transformer.1417544 Phases=1,Windings=3,Buses=[BMT177687024.1 BBT154549361.1.0 BBT154549361.0.2],Conns=[wye wye wye],kvs=[7.967 0.12 0.12],kvas=[10.000000000 10.000000000 10.000000000],Taps=[1,1.000000000,1.000000000],XHL=1.560000000,XHT=,XLT=,%loadloss=1.950000000,%noloadloss=0.500000000
new transformer.1417565 Phases=1,Windings=3,Buses=[BMT177687630.3 BBT154553874.1.0 BBT154553874.0.2],Conns=[wye wye wye],kvs=[7.967 0.12 0.12],kvas=[10.000000000 10.000000000 10.000000000],Taps=[1,1.000000000,1.000000000],XHL=1.560000000,XHT=,XLT=,%loadloss=1.950000000,%noloadloss=0.500000000
new transformer.1423417 Phases=1,Windings=3,Buses=[BMT177690784.2 BBT155790226.1.0 BBT155790226.0.2],Conns=[wye wye wye],kvs=[7.967 0.12 0.12],kvas=[10.000000000 10.000000000 10.000000000],Taps=[1,1.000000000,1.000000000],XHL=1.560000000,XHT=,XLT=,%loadloss=1.950000000,%noloadloss=0.500000000
new transformer.1429305 Phases=1,Windings=3,Buses=[BMT177690288.1 BBT157059311.1.0 BBT157059311.0.2],Conns=[wye wye wye],kvs=[7.967 0.12 0.12],kvas=[10.000000000 10.000000000 10.000000000],Taps=[1,1.000000000,1.000000000],XHL=1.560000000,XHT=,XLT=,%loadloss=1.950000000,%noloadloss=0.500000000
new transformer.1433840 Phases=1,Windings=3,Buses=[BMT177690693.2 BBT157964279.1.0 BBT157964279.0.2],Conns=[wye wye wye],kvs=[7.967 0.12 0.12],kvas=[10.000000000 10.000000000 10.000000000],Taps=[1,1.000000000,1.000000000],XHL=1.560000000,XHT=,XLT=,%loadloss=1.950000000,%noloadloss=0.500000000
new transformer.1434023 Phases=1,Windings=3,Buses=[BMT177690734.2 BBT158002083.1.0 BBT158002083.0.2],Conns=[wye wye wye],kvs=[7.967 0.12 0.12],kvas=[10.000000000 10.000000000 10.000000000],Taps=[1,1.000000000,1.000000000],XHL=1.560000000,XHT=,XLT=,%loadloss=1.950000000,%noloadloss=0.500000000
new transformer.1434025 Phases=1,Windings=3,Buses=[BMT177690733.2 BBT158002518.1.0 BBT158002518.0.2],Conns=[wye wye wye],kvs=[7.967 0.12 0.12],kvas=[10.000000000 10.000000000 10.000000000],Taps=[1,1.000000000,1.000000000],XHL=1.560000000,XHT=,XLT=,%loadloss=1.950000000,%noloadloss=0.500000000
new transformer.1434026 Phases=1,Windings=3,Buses=[BMT177690735.2 BBT158002825.1.0 BBT158002825.0.2],Conns=[wye wye wye],kvs=[7.967 0.12 0.12],kvas=[10.000000000 10.000000000 10.000000000],Taps=[1,1.000000000,1.000000000],XHL=1.560000000,XHT=,XLT=,%loadloss=1.950000000,%noloadloss=0.500000000
new transformer.1444900 Phases=1,Windings=3,Buses=[BMT177688546.1 BBT160261363.1.0 BBT160261363.0.2],Conns=[wye wye wye],kvs=[7.967 0.12 0.12],kvas=[10.000000000 10.000000000 10.000000000],Taps=[1,1.000000000,1.000000000],XHL=1.560000000,XHT=,XLT=,%loadloss=1.950000000,%noloadloss=0.500000000
new transformer.1445179 Phases=1,Windings=3,Buses=[BMT177690399.3 BBT160345316.1.0 BBT160345316.0.2],Conns=[wye wye wye],kvs=[7.967 0.12 0.12],kvas=[10.000000000 10.000000000 10.000000000],Taps=[1,1.000000000,1.000000000],XHL=1.560000000,XHT=,XLT=,%loadloss=1.950000000,%noloadloss=0.500000000
new transformer.1445194 Phases=1,Windings=3,Buses=[BMT177687087.1 BBT160350453.1.0 BBT160350453.0.2],Conns=[wye wye wye],kvs=[7.967 0.12 0.12],kvas=[10.000000000 10.000000000 10.000000000],Taps=[1,1.000000000,1.000000000],XHL=1.560000000,XHT=,XLT=,%loadloss=1.950000000,%noloadloss=0.500000000
new transformer.1445331 Phases=1,Windings=3,Buses=[BMT177690407.3 BBT160400925.1.0 BBT160400925.0.2],Conns=[wye wye wye],kvs=[7.967 0.12 0.12],kvas=[10.000000000 10.000000000 10.000000000],Taps=[1,1.000000000,1.000000000],XHL=1.560000000,XHT=,XLT=,%loadloss=1.950000000,%noloadloss=0.500000000
new transformer.1456280 Phases=1,Windings=3,Buses=[BMT177687598.3 BBT163469416.1.0 BBT163469416.0.2],Conns=[wye wye wye],kvs=[7.967 0.12 0.12],kvas=[10.000000000 10.000000000 10.000000000],Taps=[1,1.000000000,1.000000000],XHL=1.560000000,XHT=,XLT=,%loadloss=1.950000000,%noloadloss=0.500000000
new transformer.1460336 Phases=1,Windings=3,Buses=[BMT177689224.1 BBT164440161.1.0 BBT164440161.0.2],Conns=[wye wye wye],kvs=[7.967 0.12 0.12],kvas=[10.000000000 10.000000000 10.000000000],Taps=[1,1.000000000,1.000000000],XHL=1.560000000,XHT=,XLT=,%loadloss=1.950000000,%noloadloss=0.500000000
new transformer.1031134 Phases=1,Windings=3,Buses=[BMT177689561.1 BBT98735522.1.0 BBT98735522.0.2],Conns=[wye wye wye],kvs=[7.967 0.12 0.12],kvas=[5.000000000 5.000000000 5.000000000],Taps=[1,1.000000000,1.000000000],XHL=1.360000000,XHT=,XLT=,%loadloss=2.100000000,%noloadloss=0.700000000
new transformer.1063859 Phases=1,Windings=3,Buses=[BMT177685482.2 BBT130647528.1.0 BBT130647528.0.2],Conns=[wye wye wye],kvs=[7.967 0.12 0.12],kvas=[5.000000000 5.000000000 5.000000000],Taps=[1,1.000000000,1.000000000],XHL=1.360000000,XHT=,XLT=,%loadloss=2.100000000,%noloadloss=0.700000000
new transformer.1064538 Phases=3,Windings=2,Buses=[BMT177685448.1.2.3 BBT130918750.1.2.3.0],Conns=[delta wye],kvs=[13.80 0.22],kvas=[75.000000000 75.000000000],Taps=[1,1.000000000],XHL=3.720000000,%loadloss=1.470000000,%noloadloss=0.393000000
new transformer.1078314 Phases=1,Windings=3,Buses=[BMT177689796.1 BBT135554444.1.0 BBT135554444.0.2],Conns=[wye wye wye],kvs=[7.967 0.12 0.12],kvas=[10.000000000 10.000000000 10.000000000],Taps=[1,1.000000000,1.000000000],XHL=1.560000000,XHT=,XLT=,%loadloss=1.950000000,%noloadloss=0.500000000
new transformer.1078650 Phases=1,Windings=3,Buses=[BMT177686023.1 BBT135622792.1.0 BBT135622792.0.2],Conns=[wye wye wye],kvs=[7.967 0.12 0.12],kvas=[10.000000000 10.000000000 10.000000000],Taps=[1,1.000000000,1.000000000],XHL=1.560000000,XHT=,XLT=,%loadloss=1.950000000,%noloadloss=0.500000000
new transformer.1107602 Phases=1,Windings=3,Buses=[BMT177685550.3 BBT143671455.1.0 BBT143671455.0.2],Conns=[wye wye wye],kvs=[7.967 0.12 0.12],kvas=[10.000000000 10.000000000 10.000000000],Taps=[1,1.000000000,1.000000000],XHL=1.560000000,XHT=,XLT=,%loadloss=1.950000000,%noloadloss=0.500000000
new transformer.1391411 Phases=1,Windings=3,Buses=[BMT177690780.2 BBT148386895.1.0 BBT148386895.0.2],Conns=[wye wye wye],kvs=[7.967 0.12 0.12],kvas=[15.000000000 15.000000000 15.000000000],Taps=[1,1.000000000,1.000000000],XHL=1.770000000,XHT=,XLT=,%loadloss=1.770000000,%noloadloss=0.433000000
new transformer.1396987 Phases=1,Windings=3,Buses=[BMT177688635.2 BBT149678023.1.0 BBT149678023.0.2],Conns=[wye wye wye],kvs=[7.967 0.12 0.12],kvas=[15.000000000 15.000000000 15.000000000],Taps=[1,1.000000000,1.000000000],XHL=1.770000000,XHT=,XLT=,%loadloss=1.770000000,%noloadloss=0.433000000
new transformer.1401420 Phases=3,Windings=2,Buses=[BMT177689189.1.2.3 BBT150796915.1.2.3.0],Conns=[delta wye],kvs=[13.80 0.22],kvas=[30.000000000 30.000000000],Taps=[1,1.000000000],XHL=3.560000000,%loadloss=1.820000000,%noloadloss=0.500000000
new transformer.1401429 Phases=1,Windings=3,Buses=[BMT177689980.3 BBT150799179.1.0 BBT150799179.0.2],Conns=[wye wye wye],kvs=[7.967 0.12 0.12],kvas=[15.000000000 15.000000000 15.000000000],Taps=[1,1.000000000,1.000000000],XHL=1.770000000,XHT=,XLT=,%loadloss=1.770000000,%noloadloss=0.433000000
new transformer.1401435 Phases=1,Windings=3,Buses=[BMT177689981.3 BBT150800042.1.0 BBT150800042.0.2],Conns=[wye wye wye],kvs=[7.967 0.12 0.12],kvas=[15.000000000 15.000000000 15.000000000],Taps=[1,1.000000000,1.000000000],XHL=1.770000000,XHT=,XLT=,%loadloss=1.770000000,%noloadloss=0.433000000
new transformer.1401552 Phases=3,Windings=2,Buses=[BMT177794704.1.2.3 BBT150842099.1.2.3.0],Conns=[delta wye],kvs=[13.80 0.22],kvas=[45.000000000 45.000000000],Taps=[1,1.000000000],XHL=3.640000000,%loadloss=1.670000000,%noloadloss=0.433000000
new transformer.1401571 Phases=1,Windings=3,Buses=[BMT177688649.2 BBT150847858.1.0 BBT150847858.0.2],Conns=[wye wye wye],kvs=[7.967 0.12 0.12],kvas=[10.000000000 10.000000000 10.000000000],Taps=[1,1.000000000,1.000000000],XHL=1.560000000,XHT=,XLT=,%loadloss=1.950000000,%noloadloss=0.500000000
new transformer.1420768 Phases=1,Windings=3,Buses=[BMT177687649.3 BBT155214178.1.0 BBT155214178.0.2],Conns=[wye wye wye],kvs=[7.967 0.12 0.12],kvas=[10.000000000 10.000000000 10.000000000],Taps=[1,1.000000000,1.000000000],XHL=1.560000000,XHT=,XLT=,%loadloss=1.950000000,%noloadloss=0.500000000
new transformer.1420771 Phases=1,Windings=3,Buses=[BMT177687650.3 BBT155214683.1.0 BBT155214683.0.2],Conns=[wye wye wye],kvs=[7.967 0.12 0.12],kvas=[10.000000000 10.000000000 10.000000000],Taps=[1,1.000000000,1.000000000],XHL=1.560000000,XHT=,XLT=,%loadloss=1.950000000,%noloadloss=0.500000000
new transformer.1428383 Phases=1,Windings=3,Buses=[BMT177689968.3 BBT156875004.1.0 BBT156875004.0.2],Conns=[wye wye wye],kvs=[7.967 0.12 0.12],kvas=[10.000000000 10.000000000 10.000000000],Taps=[1,1.000000000,1.000000000],XHL=1.560000000,XHT=,XLT=,%loadloss=1.950000000,%noloadloss=0.500000000
new transformer.1443777 Phases=1,Windings=3,Buses=[BMT177687127.1 BBT159956231.1.0 BBT159956231.0.2],Conns=[wye wye wye],kvs=[7.967 0.12 0.12],kvas=[10.000000000 10.000000000 10.000000000],Taps=[1,1.000000000,1.000000000],XHL=1.560000000,XHT=,XLT=,%loadloss=1.950000000,%noloadloss=0.500000000
new transformer.1449746 Phases=1,Windings=3,Buses=[BMT177688660.3 BBT161590243.1.0 BBT161590243.0.2],Conns=[wye wye wye],kvs=[7.967 0.12 0.12],kvas=[15.000000000 15.000000000 15.000000000],Taps=[1,1.000000000,1.000000000],XHL=1.770000000,XHT=,XLT=,%loadloss=1.770000000,%noloadloss=0.433000000
new transformer.1450127 Phases=1,Windings=3,Buses=[BMT177688315.1 BBT161688428.1.0 BBT161688428.0.2],Conns=[wye wye wye],kvs=[7.967 0.12 0.12],kvas=[10.000000000 10.000000000 10.000000000],Taps=[1,1.000000000,1.000000000],XHL=1.560000000,XHT=,XLT=,%loadloss=1.950000000,%noloadloss=0.500000000
new transformer.1450150 Phases=1,Windings=3,Buses=[BMT177690275.2 BBT161691627.1.0 BBT161691627.0.2],Conns=[wye wye wye],kvs=[7.967 0.12 0.12],kvas=[10.000000000 10.000000000 10.000000000],Taps=[1,1.000000000,1.000000000],XHL=1.560000000,XHT=,XLT=,%loadloss=1.950000000,%noloadloss=0.500000000
new transformer.1450160 Phases=1,Windings=3,Buses=[BMT177687604.3 BBT161693312.1.0 BBT161693312.0.2],Conns=[wye wye wye],kvs=[7.967 0.12 0.12],kvas=[10.000000000 10.000000000 10.000000000],Taps=[1,1.000000000,1.000000000],XHL=1.560000000,XHT=,XLT=,%loadloss=1.950000000,%noloadloss=0.500000000
new transformer.1455568 Phases=1,Windings=3,Buses=[BMT177686891.3 BBT163251797.1.0 BBT163251797.0.2],Conns=[wye wye wye],kvs=[7.967 0.12 0.12],kvas=[10.000000000 10.000000000 10.000000000],Taps=[1,1.000000000,1.000000000],XHL=1.560000000,XHT=,XLT=,%loadloss=1.950000000,%noloadloss=0.500000000
new transformer.1455636 Phases=1,Windings=3,Buses=[BMT177686889.3 BBT163271550.1.0 BBT163271550.0.2],Conns=[wye wye wye],kvs=[7.967 0.12 0.12],kvas=[10.000000000 10.000000000 10.000000000],Taps=[1,1.000000000,1.000000000],XHL=1.560000000,XHT=,XLT=,%loadloss=1.950000000,%noloadloss=0.500000000
new transformer.1460876 Phases=1,Windings=3,Buses=[BMT177690248.2 BBT164534846.1.0 BBT164534846.0.2],Conns=[wye wye wye],kvs=[7.967 0.12 0.12],kvas=[10.000000000 10.000000000 10.000000000],Taps=[1,1.000000000,1.000000000],XHL=1.560000000,XHT=,XLT=,%loadloss=1.950000000,%noloadloss=0.500000000
new transformer.1460892 Phases=1,Windings=3,Buses=[BMT177689116.3 BBT164537845.1.0 BBT164537845.0.2],Conns=[wye wye wye],kvs=[7.967 0.12 0.12],kvas=[10.000000000 10.000000000 10.000000000],Taps=[1,1.000000000,1.000000000],XHL=1.560000000,XHT=,XLT=,%loadloss=1.950000000,%noloadloss=0.500000000
new transformer.1048382 Phases=1,Windings=3,Buses=[BMT177687253.2 BBT114058165.1.0 BBT114058165.0.2],Conns=[wye wye wye],kvs=[7.967 0.12 0.12],kvas=[10.000000000 10.000000000 10.000000000],Taps=[1,1.000000000,1.000000000],XHL=1.560000000,XHT=,XLT=,%loadloss=1.950000000,%noloadloss=0.500000000
new transformer.1068668 Phases=1,Windings=3,Buses=[BMT177688721.2 BBT132790116.1.0 BBT132790116.0.2],Conns=[wye wye wye],kvs=[7.967 0.12 0.12],kvas=[5.000000000 5.000000000 5.000000000],Taps=[1,1.000000000,1.000000000],XHL=1.360000000,XHT=,XLT=,%loadloss=2.100000000,%noloadloss=0.700000000
new transformer.1097396 Phases=1,Windings=3,Buses=[BMT177688434.1 BBT140751944.1.0 BBT140751944.0.2],Conns=[wye wye wye],kvs=[7.967 0.12 0.12],kvas=[5.000000000 5.000000000 5.000000000],Taps=[1,1.000000000,1.000000000],XHL=1.360000000,XHT=,XLT=,%loadloss=2.100000000,%noloadloss=0.700000000
new transformer.1113685 Phases=1,Windings=3,Buses=[BMT177690203.2 BBT145229956.1.0 BBT145229956.0.2],Conns=[wye wye wye],kvs=[7.967 0.12 0.12],kvas=[15.000000000 15.000000000 15.000000000],Taps=[1,1.000000000,1.000000000],XHL=1.770000000,XHT=,XLT=,%loadloss=1.770000000,%noloadloss=0.433000000
new transformer.1390176 Phases=3,Windings=2,Buses=[BMT177689329.1.2.3 BBT148056090.1.2.3.0],Conns=[delta wye],kvs=[13.80 0.22],kvas=[30.000000000 30.000000000],Taps=[1,1.000000000],XHL=3.560000000,%loadloss=1.820000000,%noloadloss=0.500000000
new transformer.1390725 Phases=1,Windings=3,Buses=[BMT177685889.3 BBT148210044.1.0 BBT148210044.0.2],Conns=[wye wye wye],kvs=[7.967 0.12 0.12],kvas=[5.000000000 5.000000000 5.000000000],Taps=[1,1.000000000,1.000000000],XHL=1.360000000,XHT=,XLT=,%loadloss=2.100000000,%noloadloss=0.700000000
new transformer.1395629 Phases=1,Windings=3,Buses=[BMT177685650.1 BBT149341429.1.0 BBT149341429.0.2],Conns=[wye wye wye],kvs=[7.967 0.12 0.12],kvas=[10.000000000 10.000000000 10.000000000],Taps=[1,1.000000000,1.000000000],XHL=1.560000000,XHT=,XLT=,%loadloss=1.950000000,%noloadloss=0.500000000
new transformer.1395865 Phases=1,Windings=3,Buses=[BMT177686376.3 BBT149393617.1.0 BBT149393617.0.2],Conns=[wye wye wye],kvs=[7.967 0.12 0.12],kvas=[35.000000000 35.000000000 35.000000000],Taps=[1,1.000000000,1.000000000],XHL=2.060000000,XHT=,XLT=,%loadloss=1.410000000,%noloadloss=0.385000000
new transformer.1395884 Phases=1,Windings=3,Buses=[BMT177686639.3 BBT149396766.1.0 BBT149396766.0.2],Conns=[wye wye wye],kvs=[7.967 0.12 0.12],kvas=[10.000000000 10.000000000 10.000000000],Taps=[1,1.000000000,1.000000000],XHL=1.560000000,XHT=,XLT=,%loadloss=1.950000000,%noloadloss=0.500000000
new transformer.1401849 Phases=1,Windings=3,Buses=[BMT177691163.2 BBT150931457.1.0 BBT150931457.0.2],Conns=[wye wye wye],kvs=[7.967 0.12 0.12],kvas=[10.000000000 10.000000000 10.000000000],Taps=[1,1.000000000,1.000000000],XHL=1.560000000,XHT=,XLT=,%loadloss=1.950000000,%noloadloss=0.500000000
new transformer.1402248 Phases=1,Windings=3,Buses=[BMT177690591.2 BBT150984623.1.0 BBT150984623.0.2],Conns=[wye wye wye],kvs=[7.967 0.12 0.12],kvas=[10.000000000 10.000000000 10.000000000],Taps=[1,1.000000000,1.000000000],XHL=1.560000000,XHT=,XLT=,%loadloss=1.950000000,%noloadloss=0.500000000
new transformer.1402337 Phases=1,Windings=3,Buses=[BMT177687198.2 BBT151012858.1.0 BBT151012858.0.2],Conns=[wye wye wye],kvs=[7.967 0.12 0.12],kvas=[10.000000000 10.000000000 10.000000000],Taps=[1,1.000000000,1.000000000],XHL=1.560000000,XHT=,XLT=,%loadloss=1.950000000,%noloadloss=0.500000000
new transformer.1402436 Phases=3,Windings=2,Buses=[BMT177689158.1.2.3 BBT151038619.1.2.3.0],Conns=[delta wye],kvs=[13.80 0.22],kvas=[45.000000000 45.000000000],Taps=[1,1.000000000],XHL=3.640000000,%loadloss=1.670000000,%noloadloss=0.433000000
new transformer.1408768 Phases=1,Windings=3,Buses=[BMT177690711.2 BBT152551170.1.0 BBT152551170.0.2],Conns=[wye wye wye],kvs=[7.967 0.12 0.12],kvas=[10.000000000 10.000000000 10.000000000],Taps=[1,1.000000000,1.000000000],XHL=1.560000000,XHT=,XLT=,%loadloss=1.950000000,%noloadloss=0.500000000
new transformer.1414716 Phases=1,Windings=3,Buses=[BMT177688383.1 BBT153805591.1.0 BBT153805591.0.2],Conns=[wye wye wye],kvs=[7.967 0.12 0.12],kvas=[10.000000000 10.000000000 10.000000000],Taps=[1,1.000000000,1.000000000],XHL=1.560000000,XHT=,XLT=,%loadloss=1.950000000,%noloadloss=0.500000000
new transformer.1431827 Phases=1,Windings=3,Buses=[BMT177687544.3 BBT157608223.1.0 BBT157608223.0.2],Conns=[wye wye wye],kvs=[7.967 0.12 0.12],kvas=[10.000000000 10.000000000 10.000000000],Taps=[1,1.000000000,1.000000000],XHL=1.560000000,XHT=,XLT=,%loadloss=1.950000000,%noloadloss=0.500000000
new transformer.1447546 Phases=1,Windings=3,Buses=[BMT178518570.2 BBT161105073.1.0 BBT161105073.0.2],Conns=[wye wye wye],kvs=[7.967 0.12 0.12],kvas=[10.000000000 10.000000000 10.000000000],Taps=[1,1.000000000,1.000000000],XHL=1.560000000,XHT=,XLT=,%loadloss=1.950000000,%noloadloss=0.500000000
new transformer.1447584 Phases=1,Windings=3,Buses=[BMT177690470.2 BBT161113040.1.0 BBT161113040.0.2],Conns=[wye wye wye],kvs=[7.967 0.12 0.12],kvas=[10.000000000 10.000000000 10.000000000],Taps=[1,1.000000000,1.000000000],XHL=1.560000000,XHT=,XLT=,%loadloss=1.950000000,%noloadloss=0.500000000
new transformer.1447878 Phases=3,Windings=2,Buses=[BMT177687800.1.2.3 BBT161183356.1.2.3.0],Conns=[delta wye],kvs=[13.80 0.22],kvas=[45.000000000 45.000000000],Taps=[1,1.000000000],XHL=3.640000000,%loadloss=1.670000000,%noloadloss=0.433000000
new transformer.1447966 Phases=1,Windings=3,Buses=[BMT177687646.3 BBT161203482.1.0 BBT161203482.0.2],Conns=[wye wye wye],kvs=[7.967 0.12 0.12],kvas=[10.000000000 10.000000000 10.000000000],Taps=[1,1.000000000,1.000000000],XHL=1.560000000,XHT=,XLT=,%loadloss=1.950000000,%noloadloss=0.500000000
new transformer.1447986 Phases=3,Windings=2,Buses=[BMT177689339.1.2.3 BBT161207835.1.2.3.0],Conns=[delta wye],kvs=[13.80 0.22],kvas=[30.000000000 30.000000000],Taps=[1,1.000000000],XHL=3.560000000,%loadloss=1.820000000,%noloadloss=0.500000000
new transformer.1447988 Phases=3,Windings=2,Buses=[BMT177689340.1.2.3 BBT161208780.1.2.3.0],Conns=[delta wye],kvs=[13.80 0.22],kvas=[30.000000000 30.000000000],Taps=[1,1.000000000],XHL=3.560000000,%loadloss=1.820000000,%noloadloss=0.500000000
new transformer.1448109 Phases=1,Windings=3,Buses=[BMT177687973.2 BBT161231346.1.0 BBT161231346.0.2],Conns=[wye wye wye],kvs=[7.967 0.12 0.12],kvas=[10.000000000 10.000000000 10.000000000],Taps=[1,1.000000000,1.000000000],XHL=1.560000000,XHT=,XLT=,%loadloss=1.950000000,%noloadloss=0.500000000
new transformer.1448143 Phases=1,Windings=3,Buses=[BMT177689476.3 BBT161237450.1.0 BBT161237450.0.2],Conns=[wye wye wye],kvs=[7.967 0.12 0.12],kvas=[10.000000000 10.000000000 10.000000000],Taps=[1,1.000000000,1.000000000],XHL=1.560000000,XHT=,XLT=,%loadloss=1.950000000,%noloadloss=0.500000000
new transformer.1459803 Phases=1,Windings=3,Buses=[BMT177690254.2 BBT164340186.1.0 BBT164340186.0.2],Conns=[wye wye wye],kvs=[7.967 0.12 0.12],kvas=[10.000000000 10.000000000 10.000000000],Taps=[1,1.000000000,1.000000000],XHL=1.560000000,XHT=,XLT=,%loadloss=1.950000000,%noloadloss=0.500000000
new transformer.1023196 Phases=1,Windings=3,Buses=[BMT177685568.3 BBT92951289.1.0 BBT92951289.0.2],Conns=[wye wye wye],kvs=[7.967 0.12 0.12],kvas=[5.000000000 5.000000000 5.000000000],Taps=[1,1.000000000,1.000000000],XHL=1.360000000,XHT=,XLT=,%loadloss=2.100000000,%noloadloss=0.700000000
new transformer.1038323 Phases=3,Windings=2,Buses=[BMT177689250.1.2.3 BBT103821442.1.2.3.0],Conns=[delta wye],kvs=[13.80 0.22],kvas=[45.000000000 45.000000000],Taps=[1,1.000000000],XHL=3.640000000,%loadloss=1.670000000,%noloadloss=0.433000000
new transformer.1038330 Phases=3,Windings=2,Buses=[BMT177689249.1.2.3 BBT103822002.1.2.3.0],Conns=[delta wye],kvs=[13.80 0.22],kvas=[30.000000000 30.000000000],Taps=[1,1.000000000],XHL=3.560000000,%loadloss=1.820000000,%noloadloss=0.500000000
new transformer.1088800 Phases=1,Windings=3,Buses=[BMT177689473.3 BBT138547616.1.0 BBT138547616.0.2],Conns=[wye wye wye],kvs=[7.967 0.12 0.12],kvas=[5.000000000 5.000000000 5.000000000],Taps=[1,1.000000000,1.000000000],XHL=1.360000000,XHT=,XLT=,%loadloss=2.100000000,%noloadloss=0.700000000