new load.3000413774M1 bus1=RML1002083794.1.3.0,Phases=2,kv=0.22,kW=1.69918,pf=0.92,Vminpu=0.92,Vmaxpu=1.5,model=1,daily=RES1_6,status=variable
new load.3000413775M1 bus1=RML1002083815.2.0,Phases=1,kv=0.127,kW=2.28916,pf=0.92,Vminpu=0.92,Vmaxpu=1.5,model=1,daily=RES1_6,status=variable
new load.3000413776M1 bus1=RML1002083780.1.0,Phases=1,kv=0.127,kW=0.67258,pf=0.92,Vminpu=0.92,Vmaxpu=1.5,model=1,daily=RES1_6,status=variable
new load.3000413790M1 bus1=RML1002083703.1.2.0,Phases=2,kv=0.22,kW=0.92038,pf=0.92,Vminpu=0.92,Vmaxpu=1.5,model=1,daily=RES1_6,status=variable
new load.3003686083M1 bus1=RML1002083787.3.0,Phases=1,kv=0.127,kW=2.3161,pf=0.92,Vminpu=0.92,Vmaxpu=1.5,model=1,daily=RES1_5,status=variable
new load.3004228870M1 bus1=RML1010251091.1.0,Phases=1,kv=0.127,kW=2.46608,pf=0.92,Vminpu=0.92,Vmaxpu=1.5,model=1,daily=COM1_21,status=variable
new load.3004809023M1 bus1=RML1002083682.3.0,Phases=1,kv=0.127,kW=1.19178,pf=0.92,Vminpu=0.92,Vmaxpu=1.5,model=1,daily=RES1_6,status=variable
new load.3004889109M1 bus1=RML1002083822.1.3.0,Phases=2,kv=0.22,kW=2.61328,pf=0.92,Vminpu=0.92,Vmaxpu=1.5,model=1,daily=RES1_8,status=variable
new load.3005576873M1 bus1=RML1002083836.1.3.0,Phases=2,kv=0.22,kW=1.00018,pf=0.92,Vminpu=0.92,Vmaxpu=1.5,model=1,daily=RES1_2,status=variable
new load.3005721613M1 bus1=RML1002083843.3.0,Phases=1,kv=0.127,kW=0.60528,pf=0.92,Vminpu=0.92,Vmaxpu=1.5,model=1,daily=RES1_3,status=variable
new load.3005778893M1 bus1=RML1002083689.1.0,Phases=1,kv=0.127,kW=1.55416,pf=0.92,Vminpu=0.92,Vmaxpu=1.5,model=1,daily=RES1_4,status=variable
new load.3006112356M1 bus1=RML1003131799.2.3.0,Phases=2,kv=0.22,kW=1.08484,pf=0.92,Vminpu=0.92,Vmaxpu=1.5,model=1,daily=RES1_14,status=variable
new load.3006131410M1 bus1=RML1003131792.3.0,Phases=1,kv=0.127,kW=0.86788,pf=0.92,Vminpu=0.92,Vmaxpu=1.5,model=1,daily=RES1_14,status=variable
new load.3006337073M1 bus1=RML1003328296.2.0,Phases=1,kv=0.127,kW=0.5232,pf=0.92,Vminpu=0.92,Vmaxpu=1.5,model=1,daily=RES1_19,status=variable
new load.3006631929M1 bus1=RML1003131799.2.3.0,Phases=2,kv=0.22,kW=0.353,pf=0.92,Vminpu=0.92,Vmaxpu=1.5,model=1,daily=RES1_2,status=variable
new load.3006665459M1 bus1=RML1002083801.3.0,Phases=1,kv=0.127,kW=0.96096,pf=0.92,Vminpu=0.92,Vmaxpu=1.5,model=1,daily=RES1_2,status=variable
new load.3006114265M1 bus1=RML1002106586.1.0,Phases=1,kv=0.127,kW=0.68346,pf=0.92,Vminpu=0.92,Vmaxpu=1.5,model=1,daily=RES1_14,status=variable
new load.3006090744M1 bus1=RML1003137973.1.0,Phases=1,kv=0.127,kW=0.8669,pf=0.92,Vminpu=0.92,Vmaxpu=1.5,model=1,daily=RES1_13,status=variable
new load.3005224836M1 bus1=RML1002106551.2.0,Phases=1,kv=0.127,kW=0.24588,pf=0.92,Vminpu=0.92,Vmaxpu=1.5,model=1,daily=RES1_18,status=variable
new load.3005227419M1 bus1=RML1002106544.3.0,Phases=1,kv=0.127,kW=0.018,pf=0.92,Vminpu=0.92,Vmaxpu=1.5,model=1,daily=RES1_18,status=variable
new load.3004810833M1 bus1=RML1002106579.1.0,Phases=1,kv=0.127,kW=0.82598,pf=0.92,Vminpu=0.92,Vmaxpu=1.5,model=1,daily=RES1_6,status=variable
new load.3003995677M1 bus1=RML1002106635.2.0,Phases=1,kv=0.127,kW=1.67038,pf=0.92,Vminpu=0.92,Vmaxpu=1.5,model=1,daily=RES1_13,status=variable
new load.3004184728M1 bus1=RML1002106565.2.0,Phases=1,kv=0.127,kW=0.15292,pf=0.92,Vminpu=0.92,Vmaxpu=1.5,model=1,daily=RES1_18,status=variable
new load.3003455126M1 bus1=RML1002106558.2.0,Phases=1,kv=0.127,kW=0.72562,pf=0.92,Vminpu=0.92,Vmaxpu=1.5,model=1,daily=RES1_2,status=variable
new load.3003399558M1 bus1=RML1002106621.2.0,Phases=1,kv=0.127,kW=0.021,pf=0.92,Vminpu=0.92,Vmaxpu=1.5,model=1,daily=RES1_1,status=variable
new load.3003380964M1 bus1=RML1002245438.1.0,Phases=1,kv=0.127,kW=0.49334,pf=0.92,Vminpu=0.92,Vmaxpu=1.5,model=1,daily=RES1_1,status=variable
new load.3003592488M1 bus1=RML1002245928.1.0,Phases=1,kv=0.127,kW=0.5238,pf=0.92,Vminpu=0.92,Vmaxpu=1.5,model=1,daily=RES1_3,status=variable
new load.3004223984M1 bus1=RML1002242337.2.0,Phases=1,kv=0.127,kW=0.1919,pf=0.92,Vminpu=0.92,Vmaxpu=1.5,model=1,daily=RES1_18,status=variable
new load.3004223985M1 bus1=RML1002246061.3.0,Phases=1,kv=0.127,kW=0.29984,pf=0.92,Vminpu=0.92,Vmaxpu=1.5,model=1,daily=RES1_18,status=variable
new load.3004090924M1 bus1=RML1002246075.1.2.0,Phases=2,kv=0.22,kW=0.76044,pf=0.92,Vminpu=0.92,Vmaxpu=1.5,model=1,daily=RES1_16,status=variable
new load.3004097218M1 bus1=RML1002245942.2.0,Phases=1,kv=0.127,kW=0.76044,pf=0.92,Vminpu=0.92,Vmaxpu=1.5,model=1,daily=RES1_16,status=variable
new load.3004130886M1 bus1=RML1002246040.1.0,Phases=1,kv=0.127,kW=0.13908,pf=0.92,Vminpu=0.92,Vmaxpu=1.5,model=1,daily=RES1_17,status=variable
new load.3005193333M1 bus1=RML1002245410.2.0,Phases=1,kv=0.127,kW=0.36572,pf=0.92,Vminpu=0.92,Vmaxpu=1.5,model=1,daily=RES1_17,status=variable
new load.3004853764M1 bus1=RML1002245424.2.0,Phases=1,kv=0.127,kW=0.54034,pf=0.92,Vminpu=0.92,Vmaxpu=1.5,model=1,daily=RES1_7,status=variable
new load.3004853765M1 bus1=RML1002246033.2.0,Phases=1,kv=0.127,kW=1.73434,pf=0.92,Vminpu=0.92,Vmaxpu=1.5,model=1,daily=RES1_7,status=variable
new load.3004880005M1 bus1=RML1002245977.3.0,Phases=1,kv=0.127,kW=2.54796,pf=0.92,Vminpu=0.92,Vmaxpu=1.5,model=1,daily=RES1_8,status=variable
new load.3004882157M1 bus1=RML1002245403.3.0,Phases=1,kv=0.127,kW=1.30664,pf=0.92,Vminpu=0.92,Vmaxpu=1.5,model=1,daily=RES1_8,status=variable
new load.3004416441M1 bus1=RML1002242330.2.0,Phases=1,kv=0.127,kW=0.65078,pf=0.92,Vminpu=0.92,Vmaxpu=1.5,model=1,daily=RES1_1,status=variable
new load.3004728950M1 bus1=RML1002242316.3.0,Phases=1,kv=0.127,kW=0.55896,pf=0.92,Vminpu=0.92,Vmaxpu=1.5,model=1,daily=RES1_4,status=variable
new load.3004760378M1 bus1=RML1003142719.1.2.3.0,Phases=3,kv=0.22,kW=4.07986,pf=0.92,Vminpu=0.92,Vmaxpu=1.5,model=1,daily=SERVP1_4,status=variable
new load.3001847532M1 bus1=RML1002245389.3.0,Phases=1,kv=0.127,kW=1.72908,pf=0.92,Vminpu=0.92,Vmaxpu=1.5,model=1,daily=RES1_15,status=variable
new load.3001847533M1 bus1=RML1002245396.1.2.0,Phases=2,kv=0.22,kW=0.18936,pf=0.92,Vminpu=0.92,Vmaxpu=1.5,model=1,daily=COM1_19,status=variable
new load.3001847536M1 bus1=RML1002245970.3.0,Phases=1,kv=0.127,kW=1.37914,pf=0.92,Vminpu=0.92,Vmaxpu=1.5,model=1,daily=RES1_15,status=variable
new load.3005249161M1 bus1=RML1002245949.1.2.0,Phases=2,kv=0.22,kW=0.16492,pf=0.92,Vminpu=0.92,Vmaxpu=1.5,model=1,daily=RES1_18,status=variable
new load.3005282477M1 bus1=RML1002246068.3.0,Phases=1,kv=0.127,kW=0.13492,pf=0.92,Vminpu=0.92,Vmaxpu=1.5,model=1,daily=RES1_18,status=variable
new load.3005367383M1 bus1=RML1002246082.3.0,Phases=1,kv=0.127,kW=0.69228,pf=0.92,Vminpu=0.92,Vmaxpu=1.5,model=1,daily=RES1_23,status=variable
new load.3005377077M1 bus1=RML1002246096.3.0,Phases=1,kv=0.127,kW=0.1923,pf=0.92,Vminpu=0.92,Vmaxpu=1.5,model=1,daily=RES1_23,status=variable
new load.3005427060M1 bus1=RML1002246026.1.0,Phases=1,kv=0.127,kW=0.64834,pf=0.92,Vminpu=0.92,Vmaxpu=1.5,model=1,daily=RES1_25,status=variable
new load.3005732439M1 bus1=RML1002245998.1.0,Phases=1,kv=0.127,kW=1.18728,pf=0.92,Vminpu=0.92,Vmaxpu=1.5,model=1,daily=RES1_3,status=variable
new load.3005607660M1 bus1=RML1002245984.2.0,Phases=1,kv=0.127,kW=0.32358,pf=0.92,Vminpu=0.92,Vmaxpu=1.5,model=1,daily=RES1_2,status=variable
new load.3005695378M1 bus1=RML1002245963.2.0,Phases=1,kv=0.127,kW=0.50052,pf=0.92,Vminpu=0.92,Vmaxpu=1.5,model=1,daily=RES1_3,status=variable
new load.3005528815M1 bus1=RML1002246075.1.2.0,Phases=2,kv=0.22,kW=1.71094,pf=0.92,Vminpu=0.92,Vmaxpu=1.5,model=1,daily=RES1_1,status=variable
new load.3005801504M1 bus1=RML1002245956.2.0,Phases=1,kv=0.127,kW=2.20582,pf=0.92,Vminpu=0.92,Vmaxpu=1.5,model=1,daily=RES1_5,status=variable
new load.3006351044M1 bus1=RML1003331005.2.0,Phases=1,kv=0.127,kW=0.2507,pf=0.92,Vminpu=0.92,Vmaxpu=1.5,model=1,daily=RES1_20,status=variable
new load.3006330558M1 bus1=RML1003328646.1.0,Phases=1,kv=0.127,kW=0.12556,pf=0.92,Vminpu=0.92,Vmaxpu=1.5,model=1,daily=RES1_19,status=variable
new load.3006288258M1 bus1=RML1003285211.3.0,Phases=1,kv=0.127,kW=0.26086,pf=0.92,Vminpu=0.92,Vmaxpu=1.5,model=1,daily=RES1_18,status=variable
new load.3006733370M1 bus1=RML1003632600.2.0,Phases=1,kv=0.127,kW=1.78092,pf=0.92,Vminpu=0.92,Vmaxpu=1.5,model=1,daily=RES1_3,status=variable
new load.3006593657M1 bus1=RML1003541838.3.0,Phases=1,kv=0.127,kW=0.76484,pf=0.92,Vminpu=0.92,Vmaxpu=1.5,model=1,daily=RES1_2,status=variable
new load.3001847484M1 bus1=RML1002247251.1.0,Phases=1,kv=0.127,kW=2.12018,pf=0.92,Vminpu=0.92,Vmaxpu=1.5,model=1,daily=RES1_15,status=variable
new load.3001847462M1 bus1=RML1002246866.3.0,Phases=1,kv=0.127,kW=2.0996,pf=0.92,Vminpu=0.92,Vmaxpu=1.5,model=1,daily=RES1_15,status=variable
new load.3001847663M1 bus1=RML1002212412.2.0,Phases=1,kv=0.127,kW=0.9263,pf=0.92,Vminpu=0.92,Vmaxpu=1.5,model=1,daily=RES1_15,status=variable
new load.3001847666M1 bus1=RML1002212426.2.0,Phases=1,kv=0.127,kW=2.4907,pf=0.92,Vminpu=0.92,Vmaxpu=1.5,model=1,daily=RES1_15,status=variable
new load.3003380978M1 bus1=RML1002212405.1.0,Phases=1,kv=0.127,kW=1.98386,pf=0.92,Vminpu=0.92,Vmaxpu=1.5,model=1,daily=RES1_1,status=variable
new load.3003380979M1 bus1=RML1002212398.2.0,Phases=1,kv=0.127,kW=0.9552,pf=0.92,Vminpu=0.92,Vmaxpu=1.5,model=1,daily=RES1_1,status=variable
new load.3006713712M1 bus1=RML1003623402.2.0,Phases=1,kv=0.127,kW=0.61692,pf=0.92,Vminpu=0.92,Vmaxpu=1.5,model=1,daily=RES1_3,status=variable
new load.3006516087M1 bus1=RML1003458531.1.2.0,Phases=2,kv=0.22,kW=1.07066,pf=0.92,Vminpu=0.92,Vmaxpu=1.5,model=1,daily=RES1_1,status=variable
new load.3006105977M1 bus1=RML1002212636.1.0,Phases=1,kv=0.127,kW=0.86788,pf=0.92,Vminpu=0.92,Vmaxpu=1.5,model=1,daily=RES1_14,status=variable
new load.3005704845M1 bus1=RML1002212629.1.0,Phases=1,kv=0.127,kW=0.8148,pf=0.92,Vminpu=0.92,Vmaxpu=1.5,model=1,daily=RES1_3,status=variable
new load.3005391771M1 bus1=RML1002212594.1.0,Phases=1,kv=0.127,kW=0.63958,pf=0.92,Vminpu=0.92,Vmaxpu=1.5,model=1,daily=RES1_25,status=variable
new load.3005239635M1 bus1=RML1002212419.1.0,Phases=1,kv=0.127,kW=0.1829,pf=0.92,Vminpu=0.92,Vmaxpu=1.5,model=1,daily=RES1_18,status=variable
new load.3005813504M1 bus1=RML1002212391.1.0,Phases=1,kv=0.127,kW=1.84078,pf=0.92,Vminpu=0.92,Vmaxpu=1.5,model=1,daily=RES1_6,status=variable
new load.3004222288M1 bus1=RML1004217933.1.2.0,Phases=2,kv=0.22,kW=3.76056,pf=0.92,Vminpu=0.92,Vmaxpu=1.5,model=1,daily=RUR1_21,status=variable
new load.3004242004M1 bus1=RML1002109407.1.0,Phases=1,kv=0.127,kW=0.40062,pf=0.92,Vminpu=0.92,Vmaxpu=1.5,model=1,daily=RES1_19,status=variable
new load.3004242005M1 bus1=RML1002109561.2.0,Phases=1,kv=0.127,kW=0.2302,pf=0.92,Vminpu=0.92,Vmaxpu=1.5,model=1,daily=RES1_19,status=variable
new load.3003563127M1 bus1=RML1002109421.2.0,Phases=1,kv=0.127,kW=0.45106,pf=0.92,Vminpu=0.92,Vmaxpu=1.5,model=1,daily=RES1_2,status=variable
new load.3003826891M1 bus1=RML1002109463.2.0,Phases=1,kv=0.127,kW=0.2744,pf=0.92,Vminpu=0.92,Vmaxpu=1.5,model=1,daily=RES1_8,status=variable
new load.3004880011M1 bus1=RML1010751046.2.0,Phases=1,kv=0.127,kW=1.14984,pf=0.92,Vminpu=0.92,Vmaxpu=1.5,model=1,daily=RES1_8,status=variable
new load.3004908669M1 bus1=RML1002109575.2.0,Phases=1,kv=0.127,kW=0.65332,pf=0.92,Vminpu=0.92,Vmaxpu=1.5,model=1,daily=RES1_8,status=variable
new load.3004853766M1 bus1=RML1002109505.2.0,Phases=1,kv=0.127,kW=0.86282,pf=0.92,Vminpu=0.92,Vmaxpu=1.5,model=1,daily=RES1_7,status=variable
new load.3004839969M1 bus1=RML1002109428.1.2.3.0,Phases=3,kv=0.22,kW=0.60136,pf=0.92,Vminpu=0.92,Vmaxpu=1.5,model=1,daily=RES1_7,status=variable
new load.3004849402M1 bus1=RML1002109512.2.0,Phases=1,kv=0.127,kW=1.04584,pf=0.92,Vminpu=0.92,Vmaxpu=1.5,model=1,daily=RES1_7,status=variable
new load.3005068256M1 bus1=RML1002109589.2.0,Phases=1,kv=0.127,kW=0.86534,pf=0.92,Vminpu=0.92,Vmaxpu=1.5,model=1,daily=COM1_18,status=variable
new load.3001847826M1 bus1=RML1002109400.2.0,Phases=1,kv=0.127,kW=0.69986,pf=0.92,Vminpu=0.92,Vmaxpu=1.5,model=1,daily=RES1_15,status=variable
new load.3001847827M1 bus1=RML1002109449.1.2.0,Phases=2,kv=0.22,kW=8.2543,pf=0.92,Vminpu=0.92,Vmaxpu=1.5,model=1,daily=RES1_15,status=variable
new load.3001847806M1 bus1=RML1002109540.3.0,Phases=1,kv=0.127,kW=1.60558,pf=0.92,Vminpu=0.92,Vmaxpu=1.5,model=1,daily=RES1_15,status=variable
new load.3001847807M1 bus1=RML1002109554.2.0,Phases=1,kv=0.127,kW=0.3911,pf=0.92,Vminpu=0.92,Vmaxpu=1.5,model=1,daily=RES1_15,status=variable
new load.3001847808M1 bus1=RML1002109533.3.0,Phases=1,kv=0.127,kW=5.68126,pf=0.92,Vminpu=0.92,Vmaxpu=1.5,model=1,daily=RES1_15,status=variable
new load.3001847809M1 bus1=RML1002109526.2.0,Phases=1,kv=0.127,kW=2.79946,pf=0.92,Vminpu=0.92,Vmaxpu=1.5,model=1,daily=RES1_15,status=variable
new load.3001847810M1 bus1=RML1002109519.1.0,Phases=1,kv=0.127,kW=1.60558,pf=0.92,Vminpu=0.92,Vmaxpu=1.5,model=1,daily=RES1_15,status=variable
new load.3001847811M1 bus1=RML1002109498.1.0,Phases=1,kv=0.127,kW=1.02922,pf=0.92,Vminpu=0.92,Vmaxpu=1.5,model=1,daily=RES1_15,status=variable
new load.3001847812M1 bus1=RML1002109477.1.0,Phases=1,kv=0.127,kW=2.71712,pf=0.92,Vminpu=0.92,Vmaxpu=1.5,model=1,daily=RES1_15,status=variable
new load.3001847813M1 bus1=RML1002109491.1.0,Phases=1,kv=0.127,kW=1.42032,pf=0.92,Vminpu=0.92,Vmaxpu=1.5,model=1,daily=RES1_15,status=variable
new load.3001847822M1 bus1=RML1002109456.3.0,Phases=1,kv=0.127,kW=5.45484,pf=0.92,Vminpu=0.92,Vmaxpu=1.5,model=1,daily=RES1_15,status=variable
new load.3001847823M1 bus1=RML1002109442.3.0,Phases=1,kv=0.127,kW=2.32602,pf=0.92,Vminpu=0.92,Vmaxpu=1.5,model=1,daily=RES1_15,status=variable
new load.3001847824M1 bus1=RML1002109379.2.0,Phases=1,kv=0.127,kW=1.13214,pf=0.92,Vminpu=0.92,Vmaxpu=1.5,model=1,daily=RES1_15,status=variable
new load.3005843014M1 bus1=RML1002109547.3.0,Phases=1,kv=0.127,kW=0.92038,pf=0.92,Vminpu=0.92,Vmaxpu=1.5,model=1,daily=RES1_6,status=variable
new load.3006803988M1 bus1=RML1003673277.1.0,Phases=1,kv=0.127,kW=1.08452,pf=0.92,Vminpu=0.92,Vmaxpu=1.5,model=1,daily=RES1_5,status=variable
new load.3006699706M1 bus1=RML1003616353.3.0,Phases=1,kv=0.127,kW=0.8531,pf=0.92,Vminpu=0.92,Vmaxpu=1.5,model=1,daily=RES1_2,status=variable
new load.3006167040M1 bus1=RML1003122097.2.0,Phases=1,kv=0.127,kW=0.4119,pf=0.92,Vminpu=0.92,Vmaxpu=1.5,model=1,daily=RES1_16,status=variable
new load.3004849404M1 bus1=RML1002110443.2.0,Phases=1,kv=0.127,kW=0.33118,pf=0.92,Vminpu=0.92,Vmaxpu=1.5,model=1,daily=RES1_7,status=variable
new load.3004849405M1 bus1=RML1002110464.3.0,Phases=1,kv=0.127,kW=0.1743,pf=0.92,Vminpu=0.92,Vmaxpu=1.5,model=1,daily=RES1_7,status=variable
new load.3004908670M1 bus1=RML1002110436.1.0,Phases=1,kv=0.127,kW=1.26744,pf=0.92,Vminpu=0.92,Vmaxpu=1.5,model=1,daily=RES1_8,status=variable
new load.3004880012M1 bus1=RML1002110492.3.0,Phases=1,kv=0.127,kW=0.75786,pf=0.92,Vminpu=0.92,Vmaxpu=1.5,model=1,daily=RES1_8,status=variable
new load.3004922858M1 bus1=RML1002110450.3.0,Phases=1,kv=0.127,kW=0.22178,pf=0.92,Vminpu=0.92,Vmaxpu=1.5,model=1,daily=RES1_9,status=variable
new load.3004584544M1 bus1=RML1002110457.1.0,Phases=1,kv=0.127,kW=0.57854,pf=0.92,Vminpu=0.92,Vmaxpu=1.5,model=1,daily=RES1_2,status=variable
new load.3003618635M1 bus1=RML1002110471.1.2.3.0,Phases=3,kv=0.22,kW=0.2038,pf=0.92,Vminpu=0.92,Vmaxpu=1.5,model=1,daily=COM1_6,status=variable
new load.3003380987M1 bus1=RML1011043196.1.0,Phases=1,kv=0.127,kW=1.02866,pf=0.92,Vminpu=0.92,Vmaxpu=1.5,model=1,daily=RES1_1,status=variable
new load.3004242006M1 bus1=RML1002110478.3.0,Phases=1,kv=0.127,kW=0.21226,pf=0.92,Vminpu=0.92,Vmaxpu=1.5,model=1,daily=RES1_19,status=variable
new load.3001124865M1 bus1=RML152864581.1.2.0,Phases=2,kv=0.22,kW=0.30472,pf=0.92,Vminpu=0.92,Vmaxpu=1.5,model=1,daily=COM1_1,status=variable
new load.3004222302M1 bus1=RML1004832456.1.2.0,Phases=2,kv=0.22,kW=2.12836,pf=0.92,Vminpu=0.92,Vmaxpu=1.5,model=1,daily=RUR1_21,status=variable
new load.3003898965M1 bus1=RML1004826975.2.0,Phases=1,kv=0.127,kW=0.96968,pf=0.92,Vminpu=0.92,Vmaxpu=1.5,model=1,daily=RUR1_12,status=variable
new load.3003380962M1 bus1=RML1002246677.1.2.3.0,Phases=3,kv=0.22,kW=0.6403,pf=0.92,Vminpu=0.92,Vmaxpu=1.5,model=1,daily=RES1_1,status=variable
new load.3004167481M1 bus1=RML1002246922.3.0,Phases=1,kv=0.127,kW=0.23688,pf=0.92,Vminpu=0.92,Vmaxpu=1.5,model=1,daily=RES1_18,status=variable
new load.3004130884M1 bus1=RML1002246621.3.0,Phases=1,kv=0.127,kW=0.42752,pf=0.92,Vminpu=0.92,Vmaxpu=1.5,model=1,daily=RES1_17,status=variable
new load.3004242000M1 bus1=RML1002246670.2.0,Phases=1,kv=0.127,kW=0.27504,pf=0.92,Vminpu=0.92,Vmaxpu=1.5,model=1,daily=RES1_19,status=variable
new load.3004281199M1 bus1=RML1002246936.2.0,Phases=1,kv=0.127,kW=0.40514,pf=0.92,Vminpu=0.92,Vmaxpu=1.5,model=1,daily=RES1_21,status=variable
new load.3004362627M1 bus1=RML1002246614.3.0,Phases=1,kv=0.127,kW=0.82358,pf=0.92,Vminpu=0.92,Vmaxpu=1.5,model=1,daily=RES1_25,status=variable
new load.3004743038M1 bus1=RML1002246943.1.0,Phases=1,kv=0.127,kW=1.96686,pf=0.92,Vminpu=0.92,Vmaxpu=1.5,model=1,daily=RES1_5,status=variable
new load.3004621951M1 bus1=RML1002246684.1.2.3.0,Phases=3,kv=0.22,kW=3.13688,pf=0.92,Vminpu=0.92,Vmaxpu=1.5,model=1,daily=SERVP1_3,status=variable
new load.3004880003M1 bus1=RML1002246957.3.0,Phases=1,kv=0.127,kW=1.4765,pf=0.92,Vminpu=0.92,Vmaxpu=1.5,model=1,daily=RES1_8,status=variable
new load.3004860538M1 bus1=RML1004967976.1.0,Phases=1,kv=0.127,kW=0.27888,pf=0.92,Vminpu=0.92,Vmaxpu=1.5,model=1,daily=RES1_7,status=variable
new load.3005072246M1 bus1=RML1002246607.2.0,Phases=1,kv=0.127,kW=0.93296,pf=0.92,Vminpu=0.92,Vmaxpu=1.5,model=1,daily=RES1_14,status=variable
new load.3005135230M1 bus1=RML1002246929.1.2.3.0,Phases=3,kv=0.22,kW=0.11618,pf=0.92,Vminpu=0.92,Vmaxpu=1.5,model=1,daily=RES1_16,status=variable
new load.3001847537M1 bus1=RML1002246656.1.0,Phases=1,kv=0.127,kW=1.13214,pf=0.92,Vminpu=0.92,Vmaxpu=1.5,model=1,daily=RES1_15,status=variable
new load.3001847538M1 bus1=RML1002246663.1.0,Phases=1,kv=0.127,kW=1.25564,pf=0.92,Vminpu=0.92,Vmaxpu=1.5,model=1,daily=RES1_15,status=variable
new load.3001847452M1 bus1=RML1002246635.1.2.3.0,Phases=3,kv=0.22,kW=1.50266,pf=0.92,Vminpu=0.92,Vmaxpu=1.5,model=1,daily=RES1_15,status=variable
new load.3003363164M1 bus1=RML1002246915.1.0,Phases=1,kv=0.127,kW=1.45902,pf=0.92,Vminpu=0.92,Vmaxpu=1.5,model=1,daily=RES1_1,status=variable
new load.3005913394M1 bus1=RML1002246964.3.0,Phases=1,kv=0.127,kW=0.4312,pf=0.92,Vminpu=0.92,Vmaxpu=1.5,model=1,daily=RES1_8,status=variable
new load.3006051732M1 bus1=RML1002246642.3.0,Phases=1,kv=0.127,kW=1.01872,pf=0.92,Vminpu=0.92,Vmaxpu=1.5,model=1,daily=RES1_11,status=variable
new load.3005826658M1 bus1=RML1002246649.1.0,Phases=1,kv=0.127,kW=0.0657,pf=0.92,Vminpu=0.92,Vmaxpu=1.5,model=1,daily=COM1_9,status=variable
new load.3005266803M1 bus1=RML1002246600.1.3.0,Phases=2,kv=0.22,kW=2.13426,pf=0.92,Vminpu=0.92,Vmaxpu=1.5,model=1,daily=COM1_21,status=variable
new load.3006570427M1 bus1=RML1003511017.3.0,Phases=1,kv=0.127,kW=0.01358,pf=0.92,Vminpu=0.92,Vmaxpu=1.5,model=1,daily=COM1_4,status=variable
new load.3005442614M1 bus1=RML1004835865.2.0,Phases=1,kv=0.127,kW=2.06452,pf=0.92,Vminpu=0.92,Vmaxpu=1.5,model=1,daily=RES1_26,status=variable
new load.3006406373M1 bus1=RML1003370205.1.2.3.0,Phases=3,kv=0.22,kW=2.88518,pf=0.92,Vminpu=0.92,Vmaxpu=1.5,model=1,daily=COM1_24,status=variable
new load.3006313357M1 bus1=RML1003307359.2.0,Phases=1,kv=0.127,kW=0.2069,pf=0.92,Vminpu=0.92,Vmaxpu=1.5,model=1,daily=RES1_18,status=variable
new load.3006062107M1 bus1=RML1002211551.2.0,Phases=1,kv=0.127,kW=0.11704,pf=0.92,Vminpu=0.92,Vmaxpu=1.5,model=1,daily=RES1_12,status=variable
new load.3004242001M1 bus1=RML1010716251.1.2.0,Phases=2,kv=0.22,kW=0.2003,pf=0.92,Vminpu=0.92,Vmaxpu=1.5,model=1,daily=RES1_19,status=variable
new load.3001847622M1 bus1=RML1002211565.2.0,Phases=1,kv=0.127,kW=1.21448,pf=0.92,Vminpu=0.92,Vmaxpu=1.5,model=1,daily=RES1_15,status=variable
new load.3004344382M1 bus1=RML1004849767.2.0,Phases=1,kv=0.127,kW=0.03504,pf=0.92,Vminpu=0.92,Vmaxpu=1.5,model=1,daily=RES1_25,status=variable
new load.3004405773M1 bus1=RML1003550203.1.0,Phases=1,kv=0.127,kW=0.31728,pf=0.92,Vminpu=0.92,Vmaxpu=1.5,model=1,daily=RUR1_1,status=variable
new load.3004755567M1 bus1=RML1004844902.2.0,Phases=1,kv=0.127,kW=0.77204,pf=0.92,Vminpu=0.92,Vmaxpu=1.5,model=1,daily=RES1_5,status=variable
new load.3006236065M1 bus1=RML1003364297.1.2.0,Phases=2,kv=0.22,kW=15.41588,pf=0.92,Vminpu=0.92,Vmaxpu=1.5,model=1,daily=RUR1_16,status=variable
new load.3004392584M1 bus1=RML1004828417.2.0,Phases=1,kv=0.127,kW=0.19746,pf=0.92,Vminpu=0.92,Vmaxpu=1.5,model=1,daily=RUR1_1,status=variable
new load.3004405788M1 bus1=RML1004060734.2.0,Phases=1,kv=0.127,kW=0.38826,pf=0.92,Vminpu=0.92,Vmaxpu=1.5,model=1,daily=RUR1_1,status=variable
new load.3005311789M1 bus1=RML1004850159.1.0,Phases=1,kv=0.127,kW=2.40786,pf=0.92,Vminpu=0.92,Vmaxpu=1.5,model=1,daily=RUR1_24,status=variable
new load.3006160923M1 bus1=RML1003114131.1.2.0,Phases=2,kv=0.22,kW=0.44186,pf=0.92,Vminpu=0.92,Vmaxpu=1.5,model=1,daily=COM1_19,status=variable
new load.3006085879M1 bus1=RML1003131764.1.2.3.0,Phases=3,kv=0.22,kW=7.40042,pf=0.92,Vminpu=0.92,Vmaxpu=1.5,model=1,daily=RES1_13,status=variable
new load.3005909784M1 bus1=RML1002086055.2.0,Phases=1,kv=0.127,kW=1.17598,pf=0.92,Vminpu=0.92,Vmaxpu=1.5,model=1,daily=RES1_8,status=variable
new load.3005895936M1 bus1=RML1002086048.1.2.3.0,Phases=3,kv=0.22,kW=3.25952,pf=0.92,Vminpu=0.92,Vmaxpu=1.5,model=1,daily=RES1_7,status=variable
new load.3005895937M1 bus1=RML1002086048.1.2.3.0,Phases=3,kv=0.22,kW=0.34862,pf=0.92,Vminpu=0.92,Vmaxpu=1.5,model=1,daily=RES1_7,status=variable
new load.3005895939M1 bus1=RML1002086048.1.2.3.0,Phases=3,kv=0.22,kW=3.28566,pf=0.92,Vminpu=0.92,Vmaxpu=1.5,model=1,daily=RES1_7,status=variable
new load.3006542137M1 bus1=RML1003490353.1.2.3.0,Phases=3,kv=0.22,kW=2.52968,pf=0.92,Vminpu=0.92,Vmaxpu=1.5,model=1,daily=RES1_1,status=variable
new load.3004664232M1 bus1=RML1002086034.1.0,Phases=1,kv=0.127,kW=4.03906,pf=0.92,Vminpu=0.92,Vmaxpu=1.5,model=1,daily=RES1_3,status=variable
new load.3004703143M1 bus1=RML1002086069.3.0,Phases=1,kv=0.127,kW=2.07222,pf=0.92,Vminpu=0.92,Vmaxpu=1.5,model=1,daily=RES1_4,status=variable
new load.3004832891M1 bus1=RML1002086062.1.0,Phases=1,kv=0.127,kW=3.36294,pf=0.92,Vminpu=0.92,Vmaxpu=1.5,model=1,daily=RES1_6,status=variable
new load.3005311776M1 bus1=RML1002031826.2.0,Phases=1,kv=0.127,kW=0.23648,pf=0.92,Vminpu=0.92,Vmaxpu=1.5,model=1,daily=RUR1_24,status=variable
new load.3005311780M1 bus1=RML1002031840.2.0,Phases=1,kv=0.127,kW=0.32248,pf=0.92,Vminpu=0.92,Vmaxpu=1.5,model=1,daily=RUR1_24,status=variable
new load.3005311783M1 bus1=RML1002031854.2.0,Phases=1,kv=0.127,kW=0.3844,pf=0.92,Vminpu=0.92,Vmaxpu=1.5,model=1,daily=RES1_20,status=variable
new load.3005311774M1 bus1=RML1004852469.2.0,Phases=1,kv=0.127,kW=0.59052,pf=0.92,Vminpu=0.92,Vmaxpu=1.5,model=1,daily=RES1_20,status=variable
new load.3005311771M1 bus1=RML1002031889.1.0,Phases=1,kv=0.127,kW=0.00558,pf=0.92,Vminpu=0.92,Vmaxpu=1.5,model=1,daily=RES1_20,status=variable
new load.3005311792M1 bus1=RML1002031903.1.0,Phases=1,kv=0.127,kW=1.03194,pf=0.92,Vminpu=0.92,Vmaxpu=1.5,model=1,daily=RUR1_24,status=variable
new load.3005372819M1 bus1=RML1002031917.1.2.0,Phases=2,kv=0.22,kW=2.6107,pf=0.92,Vminpu=0.92,Vmaxpu=1.5,model=1,daily=COM1_24,status=variable
new load.3005242809M1 bus1=RML1004850250.2.0,Phases=1,kv=0.127,kW=0.62064,pf=0.92,Vminpu=0.92,Vmaxpu=1.5,model=1,daily=RUR1_20,status=variable
new load.3005242810M1 bus1=RML1004850243.1.0,Phases=1,kv=0.127,kW=0.26746,pf=0.92,Vminpu=0.92,Vmaxpu=1.5,model=1,daily=RUR1_20,status=variable
new load.3005242811M1 bus1=RML1003298042.1.0,Phases=1,kv=0.127,kW=0.05398,pf=0.92,Vminpu=0.92,Vmaxpu=1.5,model=1,daily=RES1_18,status=variable
new load.3004344375M1 bus1=RML1004850271.1.0,Phases=1,kv=0.127,kW=0.46436,pf=0.92,Vminpu=0.92,Vmaxpu=1.5,model=1,daily=RES1_25,status=variable
new load.3004344377M1 bus1=RML1004850278.1.0,Phases=1,kv=0.127,kW=0.54596,pf=0.92,Vminpu=0.92,Vmaxpu=1.5,model=1,daily=RUR1_27,status=variable
new load.3004344378M1 bus1=RML1004850299.1.0,Phases=1,kv=0.127,kW=0.17522,pf=0.92,Vminpu=0.92,Vmaxpu=1.5,model=1,daily=RES1_25,status=variable
new load.3004344379M1 bus1=RML1002031931.1.2.0,Phases=2,kv=0.22,kW=0.02786,pf=0.92,Vminpu=0.92,Vmaxpu=1.5,model=1,daily=RUR1_27,status=variable
new load.3004344380M1 bus1=RML1004850236.1.0,Phases=1,kv=0.127,kW=0.75768,pf=0.92,Vminpu=0.92,Vmaxpu=1.5,model=1,daily=RUR1_27,status=variable
new load.3004344381M1 bus1=RML1004850257.2.0,Phases=1,kv=0.127,kW=0.54596,pf=0.92,Vminpu=0.92,Vmaxpu=1.5,model=1,daily=RUR1_27,status=variable
new load.3005311797M1 bus1=RML1004850075.1.0,Phases=1,kv=0.127,kW=0.56614,pf=0.92,Vminpu=0.92,Vmaxpu=1.5,model=1,daily=RUR1_24,status=variable
new load.3005311800M1 bus1=RML1004850047.1.0,Phases=1,kv=0.127,kW=0.23398,pf=0.92,Vminpu=0.92,Vmaxpu=1.5,model=1,daily=RES1_20,status=variable
new load.3005311801M1 bus1=RML1003298756.2.0,Phases=1,kv=0.127,kW=0.01672,pf=0.92,Vminpu=0.92,Vmaxpu=1.5,model=1,daily=RES1_20,status=variable
new load.3005010820M1 bus1=RML1002047842.1.2.0,Phases=2,kv=0.22,kW=0.80876,pf=0.92,Vminpu=0.92,Vmaxpu=1.5,model=1,daily=RUR1_15,status=variable
new load.3000064058M1 bus1=RML1004055771.2.0,Phases=1,kv=0.127,kW=0.70722,pf=0.92,Vminpu=0.92,Vmaxpu=1.5,model=1,daily=RUR1_3,status=variable
new load.3000064059M1 bus1=RML1004055764.2.0,Phases=1,kv=0.127,kW=2.1413,pf=0.92,Vminpu=0.92,Vmaxpu=1.5,model=1,daily=RES1_1,status=variable
new load.3000064060M1 bus1=RML1002048507.1.2.0,Phases=2,kv=0.22,kW=2.42248,pf=0.92,Vminpu=0.92,Vmaxpu=1.5,model=1,daily=RUR1_3,status=variable
new load.3005781596M1 bus1=RML1002048521.1.0,Phases=1,kv=0.127,kW=0.94068,pf=0.92,Vminpu=0.92,Vmaxpu=1.5,model=1,daily=RES1_4,status=variable
new load.3003898994M1 bus1=RML1004832008.2.0,Phases=1,kv=0.127,kW=0.43866,pf=0.92,Vminpu=0.92,Vmaxpu=1.5,model=1,daily=RUR1_12,status=variable
new load.3003898995M1 bus1=RML1002048549.1.0,Phases=1,kv=0.127,kW=0.23088,pf=0.92,Vminpu=0.92,Vmaxpu=1.5,model=1,daily=RUR1_12,status=variable
new load.3003898996M1 bus1=RML1004832022.1.0,Phases=1,kv=0.127,kW=0.27732,pf=0.92,Vminpu=0.92,Vmaxpu=1.5,model=1,daily=RES1_10,status=variable
new load.3000064088M1 bus1=RML1002048563.1.2.0,Phases=2,kv=0.22,kW=0.66882,pf=0.92,Vminpu=0.92,Vmaxpu=1.5,model=1,daily=RUR1_3,status=variable
new load.3003899002M1 bus1=RML1002048584.1.2.0,Phases=2,kv=0.22,kW=0.66954,pf=0.92,Vminpu=0.92,Vmaxpu=1.5,model=1,daily=RUR1_12,status=variable
new load.3003899003M1 bus1=RML1002048577.1.2.0,Phases=2,kv=0.22,kW=0.39248,pf=0.92,Vminpu=0.92,Vmaxpu=1.5,model=1,daily=RUR1_12,status=variable
new load.3000064247M1 bus1=RML1002048591.1.2.0,Phases=2,kv=0.22,kW=0.2144,pf=0.92,Vminpu=0.92,Vmaxpu=1.5,model=1,daily=RUR1_3,status=variable
new load.3003899004M1 bus1=RML1002048598.1.2.0,Phases=2,kv=0.22,kW=0.80806,pf=0.92,Vminpu=0.92,Vmaxpu=1.5,model=1,daily=RUR1_12,status=variable
new load.3004349810M1 bus1=RML1002048605.1.2.0,Phases=2,kv=0.22,kW=0.76882,pf=0.92,Vminpu=0.92,Vmaxpu=1.5,model=1,daily=RUR1_27,status=variable
new load.3003898991M1 bus1=RML1004831931.1.0,Phases=1,kv=0.127,kW=0.26068,pf=0.92,Vminpu=0.92,Vmaxpu=1.5,model=1,daily=RES1_10,status=variable
new load.3003898992M1 bus1=RML1004831945.2.0,Phases=1,kv=0.127,kW=0.25514,pf=0.92,Vminpu=0.92,Vmaxpu=1.5,model=1,daily=RES1_10,status=variable
new load.3003898993M1 bus1=RML1004831938.2.0,Phases=1,kv=0.127,kW=0.19968,pf=0.92,Vminpu=0.92,Vmaxpu=1.5,model=1,daily=RES1_10,status=variable
new load.3006757860M1 bus1=RML1004831966.2.0,Phases=1,kv=0.127,kW=1.06338,pf=0.92,Vminpu=0.92,Vmaxpu=1.5,model=1,daily=RES1_4,status=variable
new load.3005270464M1 bus1=RML1002048703.1.2.0,Phases=2,kv=0.22,kW=0.88502,pf=0.92,Vminpu=0.92,Vmaxpu=1.5,model=1,daily=RUR1_22,status=variable
new load.3005248674M1 bus1=RML1002048829.1.2.0,Phases=2,kv=0.22,kW=3.39494,pf=0.92,Vminpu=0.92,Vmaxpu=1.5,model=1,daily=RUR1_21,status=variable
new load.3005765052M1 bus1=RML1002048990.1.2.0,Phases=2,kv=0.22,kW=0.21016,pf=0.92,Vminpu=0.92,Vmaxpu=1.5,model=1,daily=RUR1_10,status=variable
new load.3005765059M1 bus1=RML1002049725.2.0,Phases=1,kv=0.127,kW=0.83162,pf=0.92,Vminpu=0.92,Vmaxpu=1.5,model=1,daily=RES1_4,status=variable
new load.3005781597M1 bus1=RML1004825225.1.0,Phases=1,kv=0.127,kW=1.26788,pf=0.92,Vminpu=0.92,Vmaxpu=1.5,model=1,daily=RES1_4,status=variable
new load.3005503820M1 bus1=RML1002049739.1.2.0,Phases=2,kv=0.22,kW=0.85514,pf=0.92,Vminpu=0.92,Vmaxpu=1.5,model=1,daily=COM1_3,status=variable
new load.3005765060M1 bus1=RML1002049753.1.2.0,Phases=2,kv=0.22,kW=2.63094,pf=0.92,Vminpu=0.92,Vmaxpu=1.5,model=1,daily=RUR1_10,status=variable
new load.3005765061M1 bus1=RML1002049753.1.2.0,Phases=2,kv=0.22,kW=0.65438,pf=0.92,Vminpu=0.92,Vmaxpu=1.5,model=1,daily=RES1_4,status=variable
new load.3005765063M1 bus1=RML1002049767.1.2.0,Phases=2,kv=0.22,kW=1.02248,pf=0.92,Vminpu=0.92,Vmaxpu=1.5,model=1,daily=RES1_4,status=variable
new load.3005765064M1 bus1=RML1010041725.1.0,Phases=1,kv=0.127,kW=0.35446,pf=0.92,Vminpu=0.92,Vmaxpu=1.5,model=1,daily=RES1_4,status=variable
new load.3005765065M1 bus1=RML1010041724.1.0,Phases=1,kv=0.127,kW=0.85888,pf=0.92,Vminpu=0.92,Vmaxpu=1.5,model=1,daily=RES1_4,status=variable
new load.3005765070M1 bus1=RML1004825428.1.0,Phases=1,kv=0.127,kW=1.75866,pf=0.92,Vminpu=0.92,Vmaxpu=1.5,model=1,daily=RES1_4,status=variable
new load.3005765066M1 bus1=RML1002049795.2.0,Phases=1,kv=0.127,kW=0.05454,pf=0.92,Vminpu=0.92,Vmaxpu=1.5,model=1,daily=RES1_4,status=variable
new load.3000064112M1 bus1=RML1002049809.1.2.0,Phases=2,kv=0.22,kW=1.03916,pf=0.92,Vminpu=0.92,Vmaxpu=1.5,model=1,daily=RES1_1,status=variable
new load.3004719546M1 bus1=RML1004061154.1.0,Phases=1,kv=0.127,kW=0.69558,pf=0.92,Vminpu=0.92,Vmaxpu=1.5,model=1,daily=RUR1_11,status=variable
new load.3004719547M1 bus1=RML1002049823.2.0,Phases=1,kv=0.127,kW=2.34588,pf=0.92,Vminpu=0.92,Vmaxpu=1.5,model=1,daily=RUR1_11,status=variable
new load.3005478392M1 bus1=RML1003298168.2.0,Phases=1,kv=0.127,kW=0.77674,pf=0.92,Vminpu=0.92,Vmaxpu=1.5,model=1,daily=RES1_1,status=variable
new load.3005765071M1 bus1=RML1004826114.1.0,Phases=1,kv=0.127,kW=1.09064,pf=0.92,Vminpu=0.92,Vmaxpu=1.5,model=1,daily=RES1_4,status=variable