new line.RML10033536 bus1=BBT146384312.1.2.0,bus2=RML1010033536.1.2.0,Phases=2,Linecode=CABBTG13_4_2,Length=0.017000000,Units=km
new line.RML10033613 bus1=BBT1529240.1.0,bus2=RML1010033613.1.0,Phases=1,Linecode=CABBTG02_4_1,Length=0.029000000,Units=km
new line.RML10033753 bus1=BBT6392483.1.0,bus2=RML1010033753.1.0,Phases=1,Linecode=CABBTG02_4_1,Length=0.017000000,Units=km
new line.RML10034092 bus1=BBT9945697.1.0,bus2=RML1010034092.1.0,Phases=1,Linecode=CABBTG02_4_1,Length=0.029000000,Units=km
new line.RML10034143 bus1=BBT140211047.2.0,bus2=RML1010034143.2.0,Phases=1,Linecode=CABBTG02_4_1,Length=0.017000000,Units=km
new line.RML10034172 bus1=BBT4784632.2.0,bus2=RML1010034172.2.0,Phases=1,Linecode=CABBTG02_4_1,Length=0.017000000,Units=km
new line.RML10034176 bus1=BBT4784632.2.0,bus2=RML1010034176.2.0,Phases=1,Linecode=CABBTG02_4_1,Length=0.017000000,Units=km
new line.RML10041660 bus1=BBT1529723.3.0,bus2=RML1010041660.3.0,Phases=1,Linecode=CABBTG02_4_1,Length=0.029000000,Units=km
new line.RML10041673 bus1=BBT1535309.2.0,bus2=RML1010041673.2.0,Phases=1,Linecode=CABBTG02_4_1,Length=0.029000000,Units=km
new line.RML10041675 bus1=BBT6274295.2.0,bus2=RML1010041675.2.0,Phases=1,Linecode=CABBTG02_4_1,Length=0.017000000,Units=km
new line.RML10041676 bus1=BBT2317566.2.0,bus2=RML1010041676.2.0,Phases=1,Linecode=CABBTG02_4_1,Length=0.029000000,Units=km
new line.RML10041709 bus1=BBT1454886.2.0,bus2=RML1010041709.2.0,Phases=1,Linecode=CABBTG02_4_1,Length=0.029000000,Units=km
new line.RML10041710 bus1=BBT1454620.1.2.0,bus2=RML1010041710.1.2.0,Phases=2,Linecode=CABBTG05_4_2,Length=0.029000000,Units=km
new line.RML10041712 bus1=BBT1454459.3.0,bus2=RML1010041712.3.0,Phases=1,Linecode=CABBTG02_4_1,Length=0.029000000,Units=km
new line.RML10041713 bus1=BBT144556920.3.0,bus2=RML1010041713.3.0,Phases=1,Linecode=CABBTG02_4_1,Length=0.029000000,Units=km
new line.RML10041714 bus1=BBT1455705.2.0,bus2=RML1010041714.2.0,Phases=1,Linecode=CABBTG02_4_1,Length=0.029000000,Units=km
new line.RML10041715 bus1=BBT1455726.2.0,bus2=RML1010041715.2.0,Phases=1,Linecode=CABBTG02_4_1,Length=0.029000000,Units=km
new line.RML10041717 bus1=BBT5637568.1.0,bus2=RML1010041717.1.0,Phases=1,Linecode=CABBTG02_4_1,Length=0.029000000,Units=km
new line.RML10041719 bus1=BBT2803331.1.0,bus2=RML1010041719.1.0,Phases=1,Linecode=CABBTG02_4_1,Length=0.029000000,Units=km
new line.RML10041720 bus1=BBT1460885.1.0,bus2=RML1010041720.1.0,Phases=1,Linecode=CABBTG02_4_1,Length=0.029000000,Units=km
new line.RML10041721 bus1=BBT1455558.1.0,bus2=RML1010041721.1.0,Phases=1,Linecode=CABBTG02_4_1,Length=0.029000000,Units=km
new line.RML10041722 bus1=BBT1454732.1.0,bus2=RML1010041722.1.0,Phases=1,Linecode=CABBTG02_4_1,Length=0.029000000,Units=km
new line.RML10041723 bus1=BBT11490751.1.0,bus2=RML1010041723.1.0,Phases=1,Linecode=CABBTG02_4_1,Length=0.017000000,Units=km
new line.RML10041724 bus1=BBT6313068.1.0,bus2=RML1010041724.1.0,Phases=1,Linecode=CABBTG02_4_1,Length=0.017000000,Units=km
new line.RML10041725 bus1=BBT6313068.1.0,bus2=RML1010041725.1.0,Phases=1,Linecode=CABBTG02_4_1,Length=0.017000000,Units=km
new line.RML10041729 bus1=BBT6433587.1.0,bus2=RML1010041729.1.0,Phases=1,Linecode=CABBTG02_4_1,Length=0.017000000,Units=km
new line.RML10041946 bus1=BBT148056367.1.0,bus2=RML1010041946.1.0,Phases=1,Linecode=CABBTG02_4_1,Length=0.017000000,Units=km
new line.RML10041952 bus1=BBT1454564.3.0,bus2=RML1010041952.3.0,Phases=1,Linecode=CABBTG02_4_1,Length=0.029000000,Units=km
new line.RML10041976 bus1=BBT4230890.1.0,bus2=RML1010041976.1.0,Phases=1,Linecode=CABBTG02_4_1,Length=0.017000000,Units=km
new line.RML10042246 bus1=BBT1529786.1.0,bus2=RML1010042246.1.0,Phases=1,Linecode=CABBTG02_4_1,Length=0.029000000,Units=km
new line.RML10055445 bus1=BBT1454963.1.0,bus2=RML1010055445.1.0,Phases=1,Linecode=CABBTG02_4_1,Length=0.029000000,Units=km
new line.RML10055446 bus1=BBT1454963.1.0,bus2=RML1010055446.1.0,Phases=1,Linecode=CABBTG02_4_1,Length=0.029000000,Units=km
new line.RML10056561 bus1=BBT1460451.3.0,bus2=RML1010056561.3.0,Phases=1,Linecode=CABBTG01_4_1,Length=0.029000000,Units=km
new line.RML10056580 bus1=BBT148056335.1.0,bus2=RML1010056580.1.0,Phases=1,Linecode=CABBTG02_4_1,Length=0.017000000,Units=km
new line.RML10056610 bus1=BBT5734812.2.0,bus2=RML1010056610.2.0,Phases=1,Linecode=CABBTG02_4_1,Length=0.029000000,Units=km
new line.RML10056633 bus1=BBT1515128.2.0,bus2=RML1010056633.2.0,Phases=1,Linecode=CABBTG02_4_1,Length=0.029000000,Units=km
new line.RML10056644 bus1=BBT142068798.2.0,bus2=RML1010056644.2.0,Phases=1,Linecode=CABBTG02_4_1,Length=0.017000000,Units=km
new line.RML10056648 bus1=BBT3189178.3.0,bus2=RML1010056648.3.0,Phases=1,Linecode=CABBTG02_4_1,Length=0.029000000,Units=km
new line.RML10035896 bus1=BBT145174026.1.2.0,bus2=RML1010035896.1.2.0,Phases=2,Linecode=CABBTG05_4_2,Length=0.017000000,Units=km
new line.RML10035898 bus1=BBT131632001.1.2.3.0,bus2=RML1010035898.1.2.3.0,Phases=3,Linecode=CABBTG12_4_3,Length=0.017000000,Units=km
new line.RML10035902 bus1=BBT1460234.1.0,bus2=RML1010035902.1.0,Phases=1,Linecode=CABBTG02_4_1,Length=0.029000000,Units=km
new line.RML10035906 bus1=BBT3279198.2.0,bus2=RML1010035906.2.0,Phases=1,Linecode=CABBTG02_4_1,Length=0.029000000,Units=km
new line.RML10038004 bus1=BBT1452233.1.2.0,bus2=RML1010038004.1.2.0,Phases=2,Linecode=CABBTG05_4_2,Length=0.017000000,Units=km
new line.RML10038012 bus1=BBT5403866.1.2.0,bus2=RML1010038012.1.2.0,Phases=2,Linecode=CABBTG05_4_2,Length=0.029000000,Units=km
new line.RML10038186 bus1=BBT4464039.2.0,bus2=RML1010038186.2.0,Phases=1,Linecode=CABBTG02_4_1,Length=0.017000000,Units=km
new line.RML10038858 bus1=BBT148056364.1.0,bus2=RML1010038858.1.0,Phases=1,Linecode=CABBTG02_4_1,Length=0.017000000,Units=km
new line.RML10038863 bus1=BBT1461739.1.0,bus2=RML1010038863.1.0,Phases=1,Linecode=CABBTG02_4_1,Length=0.029000000,Units=km
new line.RML10038865 bus1=BBT148056335.1.0,bus2=RML1010038865.1.0,Phases=1,Linecode=CABBTG02_4_1,Length=0.017000000,Units=km
new line.RML10038866 bus1=BBT6203091.2.3.0,bus2=RML1010038866.2.3.0,Phases=2,Linecode=CABBTG05_4_2,Length=0.029000000,Units=km
new line.RML10038873 bus1=BBT2982881.1.2.3.0,bus2=RML1010038873.1.2.3.0,Phases=3,Linecode=CABBTG06_4_3,Length=0.029000000,Units=km
new line.RML10059396 bus1=BBT142642308.2.0,bus2=RML1010059396.2.0,Phases=1,Linecode=CABBTG02_4_1,Length=0.017000000,Units=km
new line.RML10059402 bus1=BBT140381126.1.2.0,bus2=RML1010059402.1.2.0,Phases=2,Linecode=CABBTG05_4_2,Length=0.017000000,Units=km
new line.RML10059536 bus1=BBT141035150.1.2.0,bus2=RML1010059536.1.2.0,Phases=2,Linecode=CABBTG05_4_2,Length=0.017000000,Units=km
new line.RML10059543 bus1=BBT140751951.1.2.0,bus2=RML1010059543.1.2.0,Phases=2,Linecode=CABBTG05_4_2,Length=0.017000000,Units=km
new line.RML10059544 bus1=BBT4795314.1.0,bus2=RML1010059544.1.0,Phases=1,Linecode=CABBTG02_4_1,Length=0.017000000,Units=km
new line.RML10059631 bus1=BBT134110505.2.0,bus2=RML1010059631.2.0,Phases=1,Linecode=CABBTG02_4_1,Length=0.017000000,Units=km
new line.RML10059752 bus1=BBT147890754.1.2.0,bus2=RML1010059752.1.2.0,Phases=2,Linecode=CABBTG05_4_2,Length=0.017000000,Units=km
new line.RML10059754 bus1=BBT147892119.1.2.0,bus2=RML1010059754.1.2.0,Phases=2,Linecode=CABBTG05_4_2,Length=0.017000000,Units=km
new line.RML10059755 bus1=BBT147892399.1.2.0,bus2=RML1010059755.1.2.0,Phases=2,Linecode=CABBTG05_4_2,Length=0.017000000,Units=km
new line.RML10059756 bus1=BBT147892609.1.2.0,bus2=RML1010059756.1.2.0,Phases=2,Linecode=CABBTG05_4_2,Length=0.017000000,Units=km
new line.RML10073241 bus1=BBT3279240.2.0,bus2=RML1010073241.2.0,Phases=1,Linecode=CABBTG02_4_1,Length=0.029000000,Units=km
new line.RML10073285 bus1=BBT9939810.1.0,bus2=RML1010073285.1.0,Phases=1,Linecode=CABBTG02_4_1,Length=0.029000000,Units=km
new line.RML10073298 bus1=BBT3279240.2.0,bus2=RML1010073298.2.0,Phases=1,Linecode=CABBTG02_4_1,Length=0.029000000,Units=km
new line.RML10073300 bus1=BBT6479864.2.0,bus2=RML1010073300.2.0,Phases=1,Linecode=CABBTG02_4_1,Length=0.017000000,Units=km
new line.RML10073318 bus1=BBT4684952.2.0,bus2=RML1010073318.2.0,Phases=1,Linecode=CABBTG02_4_1,Length=0.017000000,Units=km
new line.RML10073756 bus1=BBT149114801.1.2.0,bus2=RML1010073756.1.2.0,Phases=2,Linecode=CABBTG05_4_2,Length=0.017000000,Units=km
new line.RML10073762 bus1=BBT148887096.1.2.0,bus2=RML1010073762.1.2.0,Phases=2,Linecode=CABBTG05_4_2,Length=0.017000000,Units=km
new line.RML10073775 bus1=BBT148886449.2.0,bus2=RML1010073775.2.0,Phases=1,Linecode=CABBTG02_4_1,Length=0.017000000,Units=km
new line.RML10076155 bus1=BBT3484725.2.0,bus2=RML1010076155.2.0,Phases=1,Linecode=CABBTG02_4_1,Length=0.017000000,Units=km
new line.RML10076187 bus1=BBT1478714.1.2.0,bus2=RML1010076187.1.2.0,Phases=2,Linecode=CABBTG05_4_2,Length=0.017000000,Units=km
new line.RML10076198 bus1=BBT4230890.1.2.0,bus2=RML1010076198.1.2.0,Phases=2,Linecode=CABBTG05_4_2,Length=0.017000000,Units=km
new line.RML10076266 bus1=BBT68857576.1.2.0,bus2=RML1010076266.1.2.0,Phases=2,Linecode=CABBTG05_4_2,Length=0.017000000,Units=km
new line.RML10076317 bus1=BBT148424045.1.2.0,bus2=RML1010076317.1.2.0,Phases=2,Linecode=CABBTG05_4_2,Length=0.017000000,Units=km
new line.RML10076333 bus1=BBT129819176.1.2.0,bus2=RML1010076333.1.2.0,Phases=2,Linecode=CABBTG05_4_2,Length=0.017000000,Units=km
new line.RML10076347 bus1=BBT1532999.1.2.0,bus2=RML1010076347.1.2.0,Phases=2,Linecode=CABBTG05_4_2,Length=0.017000000,Units=km
new line.RML10052952 bus1=BBT2255749.2.0,bus2=RML1010052952.2.0,Phases=1,Linecode=CABBTG02_4_1,Length=0.017000000,Units=km
new line.RML10053103 bus1=BBT1530304.1.2.0,bus2=RML1010053103.1.2.0,Phases=2,Linecode=CABBTG05_4_2,Length=0.029000000,Units=km
new line.RML10053106 bus1=BBT3388643.1.2.0,bus2=RML1010053106.1.2.0,Phases=2,Linecode=CABBTG05_4_2,Length=0.017000000,Units=km
new line.RML10053268 bus1=BBT5675914.2.0,bus2=RML1010053268.2.0,Phases=1,Linecode=CABBTG01_4_1,Length=0.017000000,Units=km
new line.RML10053310 bus1=BBT148523700.1.2.0,bus2=RML1010053310.1.2.0,Phases=2,Linecode=CABBTG05_4_2,Length=0.017000000,Units=km
new line.RML10053314 bus1=BBT148523667.1.2.0,bus2=RML1010053314.1.2.0,Phases=2,Linecode=CABBTG05_4_2,Length=0.017000000,Units=km
new line.RML10053319 bus1=BBT148523750.1.2.0,bus2=RML1010053319.1.2.0,Phases=2,Linecode=CABBTG05_4_2,Length=0.017000000,Units=km
new line.RML10053322 bus1=BBT148523578.1.2.0,bus2=RML1010053322.1.2.0,Phases=2,Linecode=CABBTG05_4_2,Length=0.017000000,Units=km
new line.RML10053324 bus1=BBT148523539.1.2.0,bus2=RML1010053324.1.2.0,Phases=2,Linecode=CABBTG05_4_2,Length=0.017000000,Units=km
new line.RML10053327 bus1=BBT148523539.1.2.0,bus2=RML1010053327.1.2.0,Phases=2,Linecode=CABBTG05_4_2,Length=0.017000000,Units=km
new line.RML10061979 bus1=BBT142351983.1.2.0,bus2=RML1010061979.1.2.0,Phases=2,Linecode=CABBTG05_4_2,Length=0.017000000,Units=km
new line.RML10062325 bus1=BBT147893939.1.2.0,bus2=RML1010062325.1.2.0,Phases=2,Linecode=CABBTG05_4_2,Length=0.017000000,Units=km
new line.RML10062368 bus1=BBT47466346.1.2.0,bus2=RML1010062368.1.2.0,Phases=2,Linecode=CABBTG05_4_2,Length=0.017000000,Units=km
new line.RML10062393 bus1=BBT2194625.2.0,bus2=RML1010062393.2.0,Phases=1,Linecode=CABBTG02_4_1,Length=0.029000000,Units=km
new line.RML10081075 bus1=BBT3279240.2.0,bus2=RML1010081075.2.0,Phases=1,Linecode=CABBTG02_4_1,Length=0.029000000,Units=km
new line.RML10081110 bus1=BBT1461144.2.0,bus2=RML1010081110.2.0,Phases=1,Linecode=CABBTG02_4_1,Length=0.029000000,Units=km
new line.RML10083465 bus1=BBT1455054.1.0,bus2=RML1010083465.1.0,Phases=1,Linecode=CABBTG02_4_1,Length=0.029000000,Units=km
new line.RML10083496 bus1=BBT144025928.2.3.0,bus2=RML1010083496.2.3.0,Phases=2,Linecode=CABBTG05_4_2,Length=0.017000000,Units=km
new line.RML10083498 bus1=BBT2803562.1.0,bus2=RML1010083498.1.0,Phases=1,Linecode=CABBTG02_4_1,Length=0.017000000,Units=km
new line.RML10083526 bus1=BBT1464154.2.0,bus2=RML1010083526.2.0,Phases=1,Linecode=CABBTG02_4_1,Length=0.029000000,Units=km
new line.RML10105999 bus1=BBT7937852.1.0,bus2=RML1010105999.1.0,Phases=1,Linecode=CABBTG02_4_1,Length=0.017000000,Units=km
new line.RML10106842 bus1=BBT1454963.2.0,bus2=RML1010106842.2.0,Phases=1,Linecode=CABBTG02_4_1,Length=0.029000000,Units=km
new line.RML10106846 bus1=BBT1460976.2.0,bus2=RML1010106846.2.0,Phases=1,Linecode=CABBTG02_4_1,Length=0.029000000,Units=km
new line.RML10106883 bus1=BBT149393618.1.2.0,bus2=RML1010106883.1.2.0,Phases=2,Linecode=CABBTG05_4_2,Length=0.017000000,Units=km
new line.RML10106899 bus1=BBT2803338.2.0,bus2=RML1010106899.2.0,Phases=1,Linecode=CABBTG02_4_1,Length=0.029000000,Units=km
new line.RML10106902 bus1=BBT128344276.2.0,bus2=RML1010106902.2.0,Phases=1,Linecode=CABBTG02_4_1,Length=0.017000000,Units=km
new line.RML10106904 bus1=BBT1515800.1.2.0,bus2=RML1010106904.1.2.0,Phases=2,Linecode=CABBTG05_4_2,Length=0.017000000,Units=km
new line.RML10106906 bus1=BBT1515772.1.2.0,bus2=RML1010106906.1.2.0,Phases=2,Linecode=CABBTG05_4_2,Length=0.017000000,Units=km
new line.RML10106908 bus1=BBT1460556.2.0,bus2=RML1010106908.2.0,Phases=1,Linecode=CABBTG02_4_1,Length=0.029000000,Units=km
new line.RML10107041 bus1=BBT5637568.2.0,bus2=RML1010107041.2.0,Phases=1,Linecode=CABBTG02_4_1,Length=0.029000000,Units=km
new line.RML10107060 bus1=BBT2803030.1.0,bus2=RML1010107060.1.0,Phases=1,Linecode=CABBTG02_4_1,Length=0.017000000,Units=km
new line.RML10107084 bus1=BBT2916297.1.0,bus2=RML1010107084.1.0,Phases=1,Linecode=CABBTG02_4_1,Length=0.029000000,Units=km
new line.RML10107373 bus1=BBT1529513.1.2.0,bus2=RML1010107373.1.2.0,Phases=2,Linecode=CABBTG05_4_2,Length=0.029000000,Units=km
new line.RML10153134 bus1=BBT1480905.1.2.0,bus2=RML1010153134.1.2.0,Phases=2,Linecode=CABBTG05_4_2,Length=0.017000000,Units=km
new line.RML10153258 bus1=BBT1455614.3.0,bus2=RML1010153258.3.0,Phases=1,Linecode=CABBTG02_4_1,Length=0.029000000,Units=km
new line.RML10153481 bus1=BBT149885986.1.2.0,bus2=RML1010153481.1.2.0,Phases=2,Linecode=CABBTG05_4_2,Length=0.030000000,Units=km
new line.RML10153692 bus1=BBT1534798.1.2.0,bus2=RML1010153692.1.2.0,Phases=2,Linecode=CABBTG05_4_2,Length=0.029000000,Units=km
new line.RML10071433 bus1=BBT3279240.2.0,bus2=RML1010071433.2.0,Phases=1,Linecode=CABBTG02_4_1,Length=0.029000000,Units=km
new line.RML10071435 bus1=BBT3279240.1.0,bus2=RML1010071435.1.0,Phases=1,Linecode=CABBTG02_4_1,Length=0.029000000,Units=km
new line.RML10071439 bus1=BBT3279247.3.0,bus2=RML1010071439.3.0,Phases=1,Linecode=CABBTG02_4_1,Length=0.029000000,Units=km
new line.RML10071441 bus1=BBT1540559.1.2.0,bus2=RML1010071441.1.2.0,Phases=2,Linecode=CABBTG05_4_2,Length=0.017000000,Units=km
new line.RML10071443 bus1=BBT149203141.1.2.0,bus2=RML1010071443.1.2.0,Phases=2,Linecode=CABBTG05_4_2,Length=0.029000000,Units=km
new line.RML10071444 bus1=BBT149203140.1.0,bus2=RML1010071444.1.0,Phases=1,Linecode=CABBTG02_4_1,Length=0.029000000,Units=km
new line.RML10071447 bus1=BBT149114936.1.2.0,bus2=RML1010071447.1.2.0,Phases=2,Linecode=CABBTG05_4_2,Length=0.017000000,Units=km
new line.RML10071451 bus1=BBT149115056.1.0,bus2=RML1010071451.1.0,Phases=1,Linecode=CABBTG02_4_1,Length=0.017000000,Units=km
new line.RML10071799 bus1=BBT148886945.1.2.0,bus2=RML1010071799.1.2.0,Phases=2,Linecode=CABBTG05_4_2,Length=0.017000000,Units=km
new line.RML10088686 bus1=BBT149212176.1.3.0,bus2=RML1010088686.1.3.0,Phases=2,Linecode=CABBTG04_4_2,Length=0.017000000,Units=km
new line.RML10088697 bus1=BBT149212176.1.3.0,bus2=RML1010088697.1.3.0,Phases=2,Linecode=CABBTG05_4_2,Length=0.017000000,Units=km
new line.RML10091352 bus1=BBT2853255.1.2.0,bus2=RML1010091352.1.2.0,Phases=2,Linecode=CABBTG05_4_2,Length=0.017000000,Units=km
new line.RML10091385 bus1=BBT2470075.1.2.0,bus2=RML1010091385.1.2.0,Phases=2,Linecode=CABBTG05_4_2,Length=0.017000000,Units=km
new line.RML10110071 bus1=BBT3279240.1.0,bus2=RML1010110071.1.0,Phases=1,Linecode=CABBTG02_4_1,Length=0.029000000,Units=km
new line.RML10111216 bus1=BBT1464154.2.0,bus2=RML1010111216.2.0,Phases=1,Linecode=CABBTG02_4_1,Length=0.029000000,Units=km
new line.RML10111878 bus1=BBT2875340.1.0,bus2=RML1010111878.1.0,Phases=1,Linecode=CABBTG02_4_1,Length=0.029000000,Units=km
new line.RML10112460 bus1=BBT134110505.1.2.0,bus2=RML1010112460.1.2.0,Phases=2,Linecode=CABBTG05_4_2,Length=0.017000000,Units=km
new line.RML10112475 bus1=BBT1534959.3.0,bus2=RML1010112475.3.0,Phases=1,Linecode=CABBTG02_4_1,Length=0.029000000,Units=km
new line.RML10112501 bus1=BBT149111172.2.0,bus2=RML1010112501.2.0,Phases=1,Linecode=CABBTG01_4_1,Length=0.017000000,Units=km
new line.RML10113417 bus1=BBT144542864.2.0,bus2=RML1010113417.2.0,Phases=1,Linecode=CABBTG02_4_1,Length=0.029000000,Units=km
new line.RML10113445 bus1=BBT134110505.1.0,bus2=RML1010113445.1.0,Phases=1,Linecode=CABBTG02_4_1,Length=0.017000000,Units=km
new line.RML10113448 bus1=BBT134110505.1.0,bus2=RML1010113448.1.0,Phases=1,Linecode=CABBTG02_4_1,Length=0.017000000,Units=km
new line.RML10113450 bus1=BBT134110477.1.0,bus2=RML1010113450.1.0,Phases=1,Linecode=CABBTG02_4_1,Length=0.017000000,Units=km
new line.RML10113461 bus1=BBT134110365.2.0,bus2=RML1010113461.2.0,Phases=1,Linecode=CABBTG02_4_1,Length=0.029000000,Units=km
new line.RML10113464 bus1=BBT134110477.2.0,bus2=RML1010113464.2.0,Phases=1,Linecode=CABBTG02_4_1,Length=0.017000000,Units=km
new line.RML10113467 bus1=BBT134110477.2.0,bus2=RML1010113467.2.0,Phases=1,Linecode=CABBTG02_4_1,Length=0.017000000,Units=km
new line.RML10113471 bus1=BBT134110414.1.0,bus2=RML1010113471.1.0,Phases=1,Linecode=CABBTG02_4_1,Length=0.017000000,Units=km
new line.RML10113515 bus1=BBT1460906.1.0,bus2=RML1010113515.1.0,Phases=1,Linecode=CABBTG02_4_1,Length=0.029000000,Units=km
new line.RML10118652 bus1=BBT6480340.2.0,bus2=RML1010118652.2.0,Phases=1,Linecode=CABBTG02_4_1,Length=0.017000000,Units=km
new line.RML10143121 bus1=BBT4795314.1.2.0,bus2=RML1010143121.1.2.0,Phases=2,Linecode=CABBTG05_4_2,Length=0.017000000,Units=km
new line.RML10157929 bus1=BBT1460213.3.0,bus2=RML1010157929.3.0,Phases=1,Linecode=CABBTG02_4_1,Length=0.029000000,Units=km
new line.RML10157935 bus1=BBT22023273.1.2.0,bus2=RML1010157935.1.2.0,Phases=2,Linecode=CABBTG05_4_2,Length=0.029000000,Units=km
new line.RML10158096 bus1=BBT1522828.1.0,bus2=RML1010158096.1.0,Phases=1,Linecode=CABBTG02_4_1,Length=0.029000000,Units=km
new line.RML10174956 bus1=BBT30635996.1.0,bus2=RML1010174956.1.0,Phases=1,Linecode=CABBTG02_4_1,Length=0.017000000,Units=km
new line.RML10175734 bus1=BBT1529219.2.3.0,bus2=RML1010175734.2.3.0,Phases=2,Linecode=CABBTG05_4_2,Length=0.029000000,Units=km
new line.RML10175839 bus1=BBT2802869.1.0,bus2=RML1010175839.1.0,Phases=1,Linecode=CABBTG02_4_1,Length=0.029000000,Units=km
new line.RML10175843 bus1=BBT1460962.2.0,bus2=RML1010175843.2.0,Phases=1,Linecode=CABBTG02_4_1,Length=0.029000000,Units=km
new line.RML10057451 bus1=BBT6203091.1.2.3.0,bus2=RML1010057451.1.2.3.0,Phases=3,Linecode=CABBTG06_4_3,Length=0.029000000,Units=km
new line.RML10057962 bus1=BBT4079739.2.0,bus2=RML1010057962.2.0,Phases=1,Linecode=CABBTG01_4_1,Length=0.017000000,Units=km
new line.RML10057963 bus1=BBT4092276.1.0,bus2=RML1010057963.1.0,Phases=1,Linecode=CABBTG01_4_1,Length=0.017000000,Units=km
new line.RML10057965 bus1=BBT31648231.1.2.0,bus2=RML1010057965.1.2.0,Phases=2,Linecode=CABBTG04_4_2,Length=0.017000000,Units=km
new line.RML10057966 bus1=BBT2470012.1.0,bus2=RML1010057966.1.0,Phases=1,Linecode=CABBTG01_4_1,Length=0.017000000,Units=km
new line.RML10076667 bus1=BBT47452556.1.2.0,bus2=RML1010076667.1.2.0,Phases=2,Linecode=CABBTG05_4_2,Length=0.017000000,Units=km
new line.RML10076750 bus1=BBT2969112.2.0,bus2=RML1010076750.2.0,Phases=1,Linecode=CABBTG02_4_1,Length=0.029000000,Units=km
new line.RML10076835 bus1=BBT1462145.1.2.0,bus2=RML1010076835.1.2.0,Phases=2,Linecode=CABBTG05_4_2,Length=0.017000000,Units=km
new line.RML10078378 bus1=BBT1464609.1.2.0,bus2=RML1010078378.1.2.0,Phases=2,Linecode=CABBTG05_4_2,Length=0.017000000,Units=km
new line.RML10078382 bus1=BBT1462677.1.0,bus2=RML1010078382.1.0,Phases=1,Linecode=CABBTG02_4_1,Length=0.029000000,Units=km
new line.RML10078386 bus1=BBT148872060.1.0,bus2=RML1010078386.1.0,Phases=1,Linecode=CABBTG02_4_1,Length=0.029000000,Units=km
new line.RML10078626 bus1=BBT3189220.1.0,bus2=RML1010078626.1.0,Phases=1,Linecode=CABBTG02_4_1,Length=0.029000000,Units=km
new line.RML10096613 bus1=BBT8879184.1.2.0,bus2=RML1010096613.1.2.0,Phases=2,Linecode=CABBTG05_4_2,Length=0.017000000,Units=km
new line.RML10096615 bus1=BBT6215852.1.2.0,bus2=RML1010096615.1.2.0,Phases=2,Linecode=CABBTG05_4_2,Length=0.017000000,Units=km
new line.RML10126714 bus1=BBT3583173.1.0,bus2=RML1010126714.1.0,Phases=1,Linecode=CABBTG02_4_1,Length=0.017000000,Units=km
new line.RML10143559 bus1=BBT134110414.1.0,bus2=RML1010143559.1.0,Phases=1,Linecode=CABBTG02_4_1,Length=0.017000000,Units=km
new line.RML10143624 bus1=BBT2540208.2.0,bus2=RML1010143624.2.0,Phases=1,Linecode=CABBTG02_4_1,Length=0.017000000,Units=km
new line.RML10161901 bus1=BBT1515429.1.0,bus2=RML1010161901.1.0,Phases=1,Linecode=CABBTG02_4_1,Length=0.029000000,Units=km
new line.RML10161911 bus1=BBT103825460.1.0,bus2=RML1010161911.1.0,Phases=1,Linecode=CABBTG02_4_1,Length=0.029000000,Units=km
new line.RML10178648 bus1=BBT128344269.1.0,bus2=RML1010178648.1.0,Phases=1,Linecode=CABBTG02_4_1,Length=0.029000000,Units=km
new line.RML10192195 bus1=BBT1521778.2.0,bus2=RML1010192195.2.0,Phases=1,Linecode=CABBTG02_4_1,Length=0.029000000,Units=km
new line.RML10192302 bus1=BBT149678099.2.0,bus2=RML1010192302.2.0,Phases=1,Linecode=CABBTG02_4_1,Length=0.017000000,Units=km
new line.RML10193157 bus1=BBT2803562.2.0,bus2=RML1010193157.2.0,Phases=1,Linecode=CABBTG02_4_1,Length=0.017000000,Units=km
new line.RML10193163 bus1=BBT149678079.1.0,bus2=RML1010193163.1.0,Phases=1,Linecode=CABBTG02_4_1,Length=0.017000000,Units=km
new line.RML10193506 bus1=BBT5734812.2.0,bus2=RML1010193506.2.0,Phases=1,Linecode=CABBTG02_4_1,Length=0.029000000,Units=km
new line.RML10193932 bus1=BBT131740116.2.3.0,bus2=RML1010193932.2.3.0,Phases=2,Linecode=CABBTG05_4_2,Length=0.017000000,Units=km
new line.RML10193952 bus1=BBT103823507.1.0,bus2=RML1010193952.1.0,Phases=1,Linecode=CABBTG02_4_1,Length=0.029000000,Units=km
new line.RML10193971 bus1=BBT3189052.3.0,bus2=RML1010193971.3.0,Phases=1,Linecode=CABBTG02_4_1,Length=0.029000000,Units=km
new line.RML10193981 bus1=BBT5768552.1.0,bus2=RML1010193981.1.0,Phases=1,Linecode=CABBTG02_4_1,Length=0.029000000,Units=km
new line.RML10211518 bus1=BBT1530129.3.0,bus2=RML1010211518.3.0,Phases=1,Linecode=CABBTG02_4_1,Length=0.029000000,Units=km
new line.RML10211551 bus1=BBT128344283.1.0,bus2=RML1010211551.1.0,Phases=1,Linecode=CABBTG02_4_1,Length=0.017000000,Units=km
new line.RML10211559 bus1=BBT6503314.2.0,bus2=RML1010211559.2.0,Phases=1,Linecode=CABBTG02_4_1,Length=0.029000000,Units=km
new line.RML10211576 bus1=BBT5358947.1.0,bus2=RML1010211576.1.0,Phases=1,Linecode=CABBTG02_4_1,Length=0.017000000,Units=km
new line.RML10211594 bus1=BBT3482457.1.0,bus2=RML1010211594.1.0,Phases=1,Linecode=CABBTG02_4_1,Length=0.017000000,Units=km
new line.RML10236891 bus1=BBT151533505.1.0,bus2=RML1010236891.1.0,Phases=1,Linecode=CABBTG02_4_1,Length=0.029000000,Units=km
new line.RML10236969 bus1=BBT139604553.1.0,bus2=RML1010236969.1.0,Phases=1,Linecode=CABBTG02_4_1,Length=0.017000000,Units=km
new line.RML10236995 bus1=BBT5325060.1.2.0,bus2=RML1010236995.1.2.0,Phases=2,Linecode=CABBTG05_4_2,Length=0.017000000,Units=km
new line.RML10153736 bus1=BBT2891972.1.0,bus2=RML1010153736.1.0,Phases=1,Linecode=CABBTG02_4_1,Length=0.017000000,Units=km
new line.RML10153740 bus1=BBT4795867.2.0,bus2=RML1010153740.2.0,Phases=1,Linecode=CABBTG02_4_1,Length=0.017000000,Units=km
new line.RML10153870 bus1=BBT9941588.3.0,bus2=RML1010153870.3.0,Phases=1,Linecode=CABBTG02_4_1,Length=0.029000000,Units=km
new line.RML10153872 bus1=BBT4684679.2.0,bus2=RML1010153872.2.0,Phases=1,Linecode=CABBTG02_4_1,Length=0.029000000,Units=km
new line.RML10154033 bus1=BBT149655435.2.0,bus2=RML1010154033.2.0,Phases=1,Linecode=CABBTG02_4_1,Length=0.029000000,Units=km
new line.RML10154042 bus1=BBT149655435.1.0,bus2=RML1010154042.1.0,Phases=1,Linecode=CABBTG02_4_1,Length=0.029000000,Units=km
new line.RML10154044 bus1=BBT149655517.1.0,bus2=RML1010154044.1.0,Phases=1,Linecode=CABBTG02_4_1,Length=0.029000000,Units=km
new line.RML10171986 bus1=BBT3474323.1.2.0,bus2=RML1010171986.1.2.0,Phases=2,Linecode=CABBTG05_4_2,Length=0.017000000,Units=km
new line.RML10199334 bus1=BBT6503307.1.0,bus2=RML1010199334.1.0,Phases=1,Linecode=CABBTG02_4_1,Length=0.029000000,Units=km
new line.RML10219046 bus1=BBT150796916.1.0,bus2=RML1010219046.1.0,Phases=1,Linecode=CABBTG02_4_1,Length=0.017000000,Units=km
new line.RML10219138 bus1=BBT150800110.1.0,bus2=RML1010219138.1.0,Phases=1,Linecode=CABBTG02_4_1,Length=0.029000000,Units=km
new line.RML10219209 bus1=BBT5659912.1.0,bus2=RML1010219209.1.0,Phases=1,Linecode=CABBTG02_4_1,Length=0.029000000,Units=km
new line.RML10219481 bus1=BBT1534749.1.0,bus2=RML1010219481.1.0,Phases=1,Linecode=CABBTG02_4_1,Length=0.029000000,Units=km
new line.RML10219608 bus1=BBT1478910.1.2.0,bus2=RML1010219608.1.2.0,Phases=2,Linecode=CABBTG05_4_2,Length=0.017000000,Units=km
new line.RML10219631 bus1=BBT3279247.3.0,bus2=RML1010219631.3.0,Phases=1,Linecode=CABBTG02_4_1,Length=0.029000000,Units=km
new line.RML10219776 bus1=BBT103829401.2.0,bus2=RML1010219776.2.0,Phases=1,Linecode=CABBTG02_4_1,Length=0.029000000,Units=km
new line.RML10220240 bus1=BBT2915562.1.0,bus2=RML1010220240.1.0,Phases=1,Linecode=CABBTG02_4_1,Length=0.029000000,Units=km
new line.RML10221258 bus1=BBT150800129.2.0,bus2=RML1010221258.2.0,Phases=1,Linecode=CABBTG02_4_1,Length=0.029000000,Units=km
new line.RML10246386 bus1=BBT148872060.2.0,bus2=RML1010246386.2.0,Phases=1,Linecode=CABBTG02_4_1,Length=0.029000000,Units=km
new line.RML10246517 bus1=BBT1454928.2.0,bus2=RML1010246517.2.0,Phases=1,Linecode=CABBTG02_4_1,Length=0.029000000,Units=km
new line.RML10246531 bus1=BBT1461151.2.0,bus2=RML1010246531.2.0,Phases=1,Linecode=CABBTG02_4_1,Length=0.029000000,Units=km
new line.RML10246533 bus1=BBT144061901.3.0,bus2=RML1010246533.3.0,Phases=1,Linecode=CABBTG02_4_1,Length=0.017000000,Units=km
new line.RML10246887 bus1=BBT4086200.1.2.0,bus2=RML1010246887.1.2.0,Phases=2,Linecode=CABBTG05_4_2,Length=0.017000000,Units=km
new line.RML10262184 bus1=BBT139606821.2.0,bus2=RML1010262184.2.0,Phases=1,Linecode=CABBTG02_4_1,Length=0.017000000,Units=km
new line.RML10262194 bus1=BBT5637330.2.0,bus2=RML1010262194.2.0,Phases=1,Linecode=CABBTG02_4_1,Length=0.017000000,Units=km
new line.RML10262247 bus1=BBT150797061.2.3.0,bus2=RML1010262247.2.3.0,Phases=2,Linecode=CABBTG05_4_2,Length=0.017000000,Units=km
new line.RML10262258 bus1=BBT151357719.1.2.0,bus2=RML1010262258.1.2.0,Phases=2,Linecode=CABBTG05_4_2,Length=0.017000000,Units=km
new line.RML10263004 bus1=BBT1563022.2.0,bus2=RML1010263004.2.0,Phases=1,Linecode=CABBTG02_4_1,Length=0.017000000,Units=km
new line.RML10263959 bus1=BBT151362220.1.2.0,bus2=RML1010263959.1.2.0,Phases=2,Linecode=CABBTG05_4_2,Length=0.017000000,Units=km
new line.RML10263965 bus1=BBT9931536.3.0,bus2=RML1010263965.3.0,Phases=1,Linecode=CABBTG02_4_1,Length=0.029000000,Units=km
new line.RML10264149 bus1=BBT1535120.1.0,bus2=RML1010264149.1.0,Phases=1,Linecode=CABBTG01_4_1,Length=0.029000000,Units=km
new line.RML10264156 bus1=BBT128344269.1.0,bus2=RML1010264156.1.0,Phases=1,Linecode=CABBTG02_4_1,Length=0.029000000,Units=km
new line.RML10265348 bus1=BBT148876531.1.2.0,bus2=RML1010265348.1.2.0,Phases=2,Linecode=CABBTG05_4_2,Length=0.017000000,Units=km
new line.RML10265390 bus1=BBT1464070.2.0,bus2=RML1010265390.2.0,Phases=1,Linecode=CABBTG02_4_1,Length=0.029000000,Units=km
new line.RML10265514 bus1=BBT3484914.2.0,bus2=RML1010265514.2.0,Phases=1,Linecode=CABBTG02_4_1,Length=0.017000000,Units=km
new line.RML10265552 bus1=BBT1529744.1.3.0,bus2=RML1010265552.1.3.0,Phases=2,Linecode=CABBTG05_4_2,Length=0.029000000,Units=km
new line.RML10265558 bus1=BBT1461151.2.0,bus2=RML1010265558.2.0,Phases=1,Linecode=CABBTG02_4_1,Length=0.029000000,Units=km
new line.RML10065648 bus1=BBT5195084.1.2.0,bus2=RML1010065648.1.2.0,Phases=2,Linecode=CABBTG05_4_2,Length=0.017000000,Units=km
new line.RML10065995 bus1=BBT148386896.1.2.0,bus2=RML1010065995.1.2.0,Phases=2,Linecode=CABBTG05_4_2,Length=0.017000000,Units=km
new line.RML10066366 bus1=BBT2299646.1.2.0,bus2=RML1010066366.1.2.0,Phases=2,Linecode=CABBTG05_4_2,Length=0.017000000,Units=km
new line.RML10067017 bus1=BBT1462768.2.0,bus2=RML1010067017.2.0,Phases=1,Linecode=CABBTG02_4_1,Length=0.029000000,Units=km
new line.RML10067033 bus1=BBT1462663.1.0,bus2=RML1010067033.1.0,Phases=1,Linecode=CABBTG02_4_1,Length=0.029000000,Units=km
new line.RML10067107 bus1=BBT142190787.1.2.0,bus2=RML1010067107.1.2.0,Phases=2,Linecode=CABBTG05_4_2,Length=0.029000000,Units=km
new line.RML10067124 bus1=BBT9931333.1.0,bus2=RML1010067124.1.0,Phases=1,Linecode=CABBTG02_4_1,Length=0.029000000,Units=km
new line.RML10092042 bus1=BBT47457533.2.0,bus2=RML1010092042.2.0,Phases=1,Linecode=CABBTG02_4_1,Length=0.017000000,Units=km
new line.RML10092057 bus1=BBT4049345.2.0,bus2=RML1010092057.2.0,Phases=1,Linecode=CABBTG02_4_1,Length=0.017000000,Units=km
new line.RML10092250 bus1=BBT1477804.1.2.0,bus2=RML1010092250.1.2.0,Phases=2,Linecode=CABBTG05_4_2,Length=0.017000000,Units=km
new line.RML10092251 bus1=BBT4795867.1.0,bus2=RML1010092251.1.0,Phases=1,Linecode=CABBTG02_4_1,Length=0.017000000,Units=km
new line.RML10093808 bus1=BBT2916199.2.3.0,bus2=RML1010093808.2.3.0,Phases=2,Linecode=CABBTG05_4_2,Length=0.014000000,Units=km
new line.RML10093822 bus1=BBT6009653.1.0,bus2=RML1010093822.1.0,Phases=1,Linecode=CABBTG01_4_1,Length=0.017000000,Units=km
new line.RML10093835 bus1=BBT6503314.1.0,bus2=RML1010093835.1.0,Phases=1,Linecode=CABBTG02_4_1,Length=0.027000000,Units=km
new line.RML10093840 bus1=BBT144025928.3.0,bus2=RML1010093840.3.0,Phases=1,Linecode=CABBTG02_4_1,Length=0.011000000,Units=km
new line.RML10093918 bus1=BBT1459870.3.0,bus2=RML1010093918.3.0,Phases=1,Linecode=CABBTG02_4_1,Length=0.017000000,Units=km