new line.CTR10764 bus1=BMT123502229.1.2.3,bus2=BMT123510972.1.2.3,Phases=3,LineCode=tieSwitch,Length=0.001,Units=km,switch=T !numEQ 107160
new line.CTR121616 bus1=BMT171456597.1.2.3,bus2=BMT123502285.1.2.3,Phases=3,LineCode=tieSwitch,Length=0.001,Units=km,switch=T !numEQ 33099
new line.CTR121805 bus1=BMT162220849.1.2.3,bus2=BMT123510461.1.2.3,Phases=3,LineCode=tieSwitch,Length=0.001,Units=km,switch=T !numEQ 33416
open line.CTR121805 term=1
new line.CTR181298 bus1=BMT156396058.1,bus2=BMT156842186.1,Phases=1,LineCode=tieSwitch1,Length=0.001,Units=km,switch=T !numEQ 133644
new line.CTR181305 bus1=BMT123508767.3,bus2=BMT123508977.3,Phases=1,LineCode=tieSwitch1,Length=0.001,Units=km,switch=T !numEQ 133645
new line.CTR195283354 bus1=BMT2195282635.1.2.3,bus2=BMT2389067057.1.2.3,Phases=3,LineCode=tieSwitch,Length=0.001,Units=km,switch=T !numEQ 
new line.CTR195283759 bus1=BMT2389067057.1.2.3,bus2=BMT2195283760.1.2.3,Phases=3,LineCode=tieSwitch,Length=0.001,Units=km,switch=T !numEQ 
new line.CTR195284045 bus1=BMT2195283760.1.2.3,bus2=BMT2195284046.1.2.3,Phases=3,LineCode=tieSwitch,Length=0.001,Units=km,switch=T !numEQ 
new line.CTR32408 bus1=BMT123510608.1.2.3,bus2=BMT162220840.1.2.3,Phases=3,LineCode=tieSwitch,Length=0.001,Units=km,switch=T !numEQ 32169
new line.CTR32534 bus1=BMT123507640.3,bus2=BMT123507934.3,Phases=1,LineCode=tieSwitch1,Length=0.001,Units=km,switch=T !numEQ 32778
new line.CTR32541 bus1=BMT123507654.3,bus2=BMT160216979.3,Phases=1,LineCode=tieSwitch1,Length=0.001,Units=km,switch=T !numEQ 34730
new line.CTR32548 bus1=BMT123507787.3,bus2=BMT159897066.3,Phases=1,LineCode=tieSwitch1,Length=0.001,Units=km,switch=T !numEQ 35520
new line.CTR32611 bus1=BMT123509775.1.2.3,bus2=BMT169388839.1.2.3,Phases=3,LineCode=tieSwitch,Length=0.001,Units=km,switch=T !numEQ 33412
new line.CTR32618 bus1=BMT123509894.1.2.3,bus2=BMT123509915.1.2.3,Phases=3,LineCode=tieSwitch,Length=0.001,Units=km,switch=T !numEQ 96295
new line.CTR32625 bus1=BMT169388854.1.2.3,bus2=BMT123510055.1.2.3,Phases=3,LineCode=tieSwitch,Length=0.001,Units=km,switch=T !numEQ 33415
open line.CTR32625 term=1
new line.CTR32632 bus1=BMT123510139.1.2.3,bus2=BMT165313194.1.2.3,Phases=3,LineCode=tieSwitch,Length=0.001,Units=km,switch=T !numEQ 34408
new line.CTR32639 bus1=BMT163924668.2,bus2=BMT163924675.2,Phases=1,LineCode=tieSwitch1,Length=0.001,Units=km,switch=T !numEQ 32770
new line.CTR32646 bus1=BMT123506387.1,bus2=BMT123506926.1,Phases=1,LineCode=tieSwitch1,Length=0.001,Units=km,switch=T !numEQ 33471
new line.CTR32660 bus1=BMT123510818.2,bus2=BMT148654101.2,Phases=1,LineCode=tieSwitch1,Length=0.001,Units=km,switch=T !numEQ 33421
new line.CTR32674 bus1=BMT123504567.1,bus2=BMT123506345.1,Phases=1,LineCode=tieSwitch1,Length=0.001,Units=km,switch=T !numEQ 33470
new line.CTR32688 bus1=BMT123504805.2,bus2=BMT171896723.2,Phases=1,LineCode=tieSwitch1,Length=0.001,Units=km,switch=T !numEQ 33607
new line.CTR32695 bus1=BMT123504840.2,bus2=BMT160826294.2,Phases=1,LineCode=tieSwitch1,Length=0.001,Units=km,switch=T !numEQ 33485
new line.CTR32702 bus1=BMT123504903.2,bus2=BMT123505911.2,Phases=1,LineCode=tieSwitch1,Length=0.001,Units=km,switch=T !numEQ 33316
new line.CTR32709 bus1=BMT123504987.2,bus2=BMT123505757.2,Phases=1,LineCode=tieSwitch1,Length=0.001,Units=km,switch=T !numEQ 35351
new line.CTR32716 bus1=BMT160826319.2,bus2=BMT142848395.2,Phases=1,LineCode=tieSwitch1,Length=0.001,Units=km,switch=T !numEQ 33487
open line.CTR32716 term=1
new line.CTR32737 bus1=BMT162361548.1,bus2=BMT162361565.1,Phases=1,LineCode=tieSwitch1,Length=0.001,Units=km,switch=T !numEQ 33156
new line.CTR32758 bus1=BMT123506562.1,bus2=BMT123506625.1,Phases=1,LineCode=tieSwitch1,Length=0.001,Units=km,switch=T !numEQ 33449
new line.CTR32772 bus1=BMT123507199.1.2.3,bus2=BMT144131698.1.2.3,Phases=3,LineCode=tieSwitch,Length=0.001,Units=km,switch=T !numEQ 33461
new line.CTR32779 bus1=BMT123508361.1,bus2=BMT167610158.1,Phases=1,LineCode=tieSwitch1,Length=0.001,Units=km,switch=T !numEQ 33611
new line.CTR32786 bus1=BMT123507241.3,bus2=BMT123507402.3,Phases=1,LineCode=tieSwitch1,Length=0.001,Units=km,switch=T !numEQ 33462
new line.CTR45841 bus1=BMT123504280.3,bus2=BMT169802489.3,Phases=1,LineCode=tieSwitch1,Length=0.001,Units=km,switch=T !numEQ 33456
new line.CTR45848 bus1=BMT123508886.3,bus2=BMT156855750.3,Phases=1,LineCode=tieSwitch1,Length=0.001,Units=km,switch=T !numEQ 35411
new line.CTR45897 bus1=BMT123507696.3,bus2=BMT168810000.3,Phases=1,LineCode=tieSwitch1,Length=0.001,Units=km,switch=T !numEQ 34401
new line.CTR45939 bus1=BMT123505267.2,bus2=BMT167735822.2,Phases=1,LineCode=tieSwitch1,Length=0.001,Units=km,switch=T !numEQ 32160
new line.CTR62746 bus1=BMT123502145.1.2.3,bus2=BMT129003746.1.2.3,Phases=3,LineCode=tieSwitch,Length=0.001,Units=km,switch=T !numEQ 33260
new line.CTR62753 bus1=BMT123502201.1.2.3,bus2=BMT123502208.1.2.3,Phases=3,LineCode=tieSwitch,Length=0.001,Units=km,switch=T !numEQ 33310
new line.CTR62774 bus1=BMT123502418.1.2.3,bus2=BMT123502425.1.2.3,Phases=3,LineCode=tieSwitch,Length=0.001,Units=km,switch=T !numEQ 32749
new line.CTR62781 bus1=BMT123502467.1.2.3,bus2=BMT123502474.1.2.3,Phases=3,LineCode=tieSwitch,Length=0.001,Units=km,switch=T !numEQ 33406
new line.CTR62816 bus1=BMT166726323.1.2.3,bus2=BMT123502698.1.2.3,Phases=3,LineCode=tieSwitch,Length=0.001,Units=km,switch=T !numEQ 33453
open line.CTR62816 term=1
new line.CTR62823 bus1=BMT170975944.1.2.3,bus2=BMT123502789.1.2.3,Phases=3,LineCode=tieSwitch,Length=0.001,Units=km,switch=T !numEQ 98575
open line.CTR62823 term=1
new line.CTR62830 bus1=BMT123504084.1.2.3,bus2=BMT160096857.1.2.3,Phases=3,LineCode=tieSwitch,Length=0.001,Units=km,switch=T !numEQ 98336
new line.CTR62858 bus1=BMT123504273.1,bus2=BMT123509026.1,Phases=1,LineCode=tieSwitch1,Length=0.001,Units=km,switch=T !numEQ 33593
new line.CTR62865 bus1=BMT123509173.1,bus2=BMT123509285.1,Phases=1,LineCode=tieSwitch1,Length=0.001,Units=km,switch=T !numEQ 35412
new line.CTR62872 bus1=BMT123507031.3,bus2=BMT148804687.3,Phases=1,LineCode=tieSwitch1,Length=0.001,Units=km,switch=T !numEQ 32168
new line.CTR62879 bus1=BMT123504336.3,bus2=BMT172721876.3,Phases=1,LineCode=tieSwitch1,Length=0.001,Units=km,switch=T !numEQ 33458
new line.CTR62886 bus1=BMT123504399.1.2.3,bus2=BMT123504413.1.2.3,Phases=3,LineCode=tieSwitch,Length=0.001,Units=km,switch=T !numEQ 32151
new line.CTR62893 bus1=BMT123504700.2,bus2=BMT123504735.2,Phases=1,LineCode=tieSwitch1,Length=0.001,Units=km,switch=T !numEQ 33482
new line.CTR62900 bus1=BMT123504833.2,bus2=BMT160887998.2,Phases=1,LineCode=tieSwitch1,Length=0.001,Units=km,switch=T !numEQ 35048
new line.CTR62914 bus1=BMT123505057.2,bus2=BMT172269112.2,Phases=1,LineCode=tieSwitch1,Length=0.001,Units=km,switch=T !numEQ 33431
new line.CTR62928 bus1=BMT172075855.2,bus2=BMT172075856.2,Phases=1,LineCode=tieSwitch1,Length=0.001,Units=km,switch=T !numEQ 35337
new line.CTR62935 bus1=BMT123504609.2,bus2=BMT123506289.2,Phases=1,LineCode=tieSwitch1,Length=0.001,Units=km,switch=T !numEQ 33440
new line.CTR134713 bus1=BMT123504112.2,bus2=BMT139302580.2,Phases=1,LineCode=tieSwitch1,Length=0.001,Units=km,switch=T !numEQ 153266
new line.CTR134720 bus1=BMT123502859.1.2.3,bus2=BMT170975939.1.2.3,Phases=3,LineCode=tieSwitch,Length=0.001,Units=km,switch=T !numEQ 154891
new line.CTR163931 bus1=BMT123505155.1,bus2=BMT148807369.1,Phases=1,LineCode=tieSwitch1,Length=0.001,Units=km,switch=T !numEQ 211876
new line.CTR19304 bus1=BMT123504707.2,bus2=BMT151851801.2,Phases=1,LineCode=tieSwitch1,Length=0.001,Units=km,switch=T !numEQ 134118
new line.CTR26654 bus1=BMT123508340.1,bus2=BMT156514162.1,Phases=1,LineCode=tieSwitch1,Length=0.001,Units=km,switch=T !numEQ 33610
new line.CTR34116 bus1=BMT123509782.1.2.3,bus2=BMT159221417.1.2.3,Phases=3,LineCode=tieSwitch,Length=0.001,Units=km,switch=T !numEQ 33425
new line.CTR43237 bus1=BMT141934153.2,bus2=BMT141947586.2,Phases=1,LineCode=tieSwitch1,Length=0.001,Units=km,switch=T !numEQ 153267
new line.CTR43244 bus1=BMT123504140.1.2.3,bus2=BMT123504147.1.2.3,Phases=3,LineCode=tieSwitch,Length=0.001,Units=km,switch=T !numEQ 154090
new line.CTR47052 bus1=BMT123507689.3,bus2=BMT155359540.3,Phases=1,LineCode=tieSwitch1,Length=0.001,Units=km,switch=T !numEQ 34403
new line.CTR848261 bus1=BMT149362311.1.2.3,bus2=BMT149362519.1.2.3,Phases=3,LineCode=tieSwitch,Length=0.001,Units=km,switch=T !numEQ 305410
new line.CTR86672 bus1=BMT123504511.3,bus2=BMT123506954.3,Phases=1,LineCode=tieSwitch1,Length=0.001,Units=km,switch=T !numEQ 151926
new line.CTR884675 bus1=BMT160888002.2,bus2=BMT162398992.2,Phases=1,LineCode=tieSwitch1,Length=0.001,Units=km,switch=T !numEQ 155582
new line.CTR916880 bus1=BMT172305070.1.2.3,bus2=BMT172305316.1.2.3,Phases=3,LineCode=tieSwitch,Length=0.001,Units=km,switch=T !numEQ 325680
new line.CTR916882 bus1=BMT172305326.1.2.3,bus2=BMT172305327.1.2.3,Phases=3,LineCode=tieSwitch,Length=0.001,Units=km,switch=T !numEQ 325681
new line.CTRR22406 bus1=BMT141895989.1,bus2=BMT144131474.1,Phases=1,LineCode=tieSwitch1,Length=0.001,Units=km,switch=T !numEQ 311574
new line.CTRR2280 bus1=BMT123510643.1.2.3,bus2=BMT148653893.1.2.3,Phases=3,LineCode=tieSwitch,Length=0.001,Units=km,switch=T !numEQ 34735
new line.CTR138234 bus1=BMT123504203.1.2.3,bus2=BMT152555675.1.2.3,Phases=3,LineCode=tieSwitch,Length=0.001,Units=km,switch=T !numEQ 35325
new line.CTR168306 bus1=BMT123509229.1,bus2=BMT154571291.1,Phases=1,LineCode=tieSwitch1,Length=0.001,Units=km,switch=T !numEQ 147587
new line.CTR183342 bus1=BMT123506492.1,bus2=BMT123506702.1,Phases=1,LineCode=tieSwitch1,Length=0.001,Units=km,switch=T !numEQ 191417
new line.CTR902415 bus1=BMT167421703.1,bus2=BMT169589682.1,Phases=1,LineCode=tieSwitch1,Length=0.001,Units=km,switch=T !numEQ 218933
new line.CTR902724 bus1=BMT167534124.3,bus2=BMT167535812.3,Phases=1,LineCode=tieSwitch1,Length=0.001,Units=km,switch=T !numEQ 136303
new line.CTR903419 bus1=BMT167748198.1,bus2=BMT167748206.1,Phases=1,LineCode=tieSwitch1,Length=0.001,Units=km,switch=T !numEQ 217585
new line.CTR155216 bus1=BMT123507668.3,bus2=BMT123507675.3,Phases=1,LineCode=tieSwitch1,Length=0.001,Units=km,switch=T !numEQ 34402
new line.CTR183650 bus1=BMT123505778.2,bus2=BMT123505785.2,Phases=1,LineCode=tieSwitch1,Length=0.001,Units=km,switch=T !numEQ 196489
new line.CTR183874 bus1=BMT123505771.2,bus2=BMT123505806.2,Phases=1,LineCode=tieSwitch1,Length=0.001,Units=km,switch=T !numEQ 196490
new line.CTR19836 bus1=BMT123510552.3,bus2=BMT123510615.3,Phases=1,LineCode=tieSwitch1,Length=0.001,Units=km,switch=T !numEQ 141579
new line.CTR401155 bus1=BMT129918163.1.2.3,bus2=BMT129918170.1.2.3,Phases=3,LineCode=tieSwitch,Length=0.001,Units=km,switch=T !numEQ 300416
new line.CTR401162 bus1=BMT171456565.1.2.3,bus2=BMT171456593.1.2.3,Phases=3,LineCode=tieSwitch,Length=0.001,Units=km,switch=T !numEQ 300415
new line.CTR48823 bus1=BMT142934915.2,bus2=BMT148771173.2,Phases=1,LineCode=tieSwitch1,Length=0.001,Units=km,switch=T !numEQ 35305
new line.CTR4940 bus1=BMT123502313.1.2.3,bus2=BMT151987777.1.2.3,Phases=3,LineCode=tieSwitch,Length=0.001,Units=km,switch=T !numEQ 138921
new line.CTR67086 bus1=BMT123502824.1.2.3,bus2=BMT164191843.1.2.3,Phases=3,LineCode=tieSwitch,Length=0.001,Units=km,switch=T !numEQ 130360
new line.CTR871662 bus1=BMT156929262.1,bus2=BMT156929272.1,Phases=1,LineCode=tieSwitch1,Length=0.001,Units=km,switch=T !numEQ 242353
new line.CTR904917 bus1=BMT168280913.1.2.3,bus2=BMT172305068.1.2.3,Phases=3,LineCode=tieSwitch,Length=0.001,Units=km,switch=T !numEQ 304643
new line.CTRR3624 bus1=BMT123504630.2,bus2=BMT172739549.2,Phases=1,LineCode=tieSwitch1,Length=0.001,Units=km,switch=T !numEQ 154386
new line.CTR62942 bus1=BMT123506401.1,bus2=BMT170746398.1,Phases=1,LineCode=tieSwitch1,Length=0.001,Units=km,switch=T !numEQ 33596
new line.CTR62956 bus1=BMT123508606.3,bus2=BMT123508634.3,Phases=1,LineCode=tieSwitch1,Length=0.001,Units=km,switch=T !numEQ 33314
new line.CTR62977 bus1=BMT123509159.1,bus2=BMT129760859.1,Phases=1,LineCode=tieSwitch1,Length=0.001,Units=km,switch=T !numEQ 98335
new line.CTR62991 bus1=BMT123507444.3,bus2=BMT123508263.3,Phases=1,LineCode=tieSwitch1,Length=0.001,Units=km,switch=T !numEQ 33614
new line.CTR62998 bus1=BMT123507626.3,bus2=BMT159127996.3,Phases=1,LineCode=tieSwitch1,Length=0.001,Units=km,switch=T !numEQ 33446
new line.CTR63005 bus1=BMT123502250.1.2.3,bus2=BMT123510951.1.2.3,Phases=3,LineCode=tieSwitch,Length=0.001,Units=km,switch=T !numEQ 34765
new line.CTR63054 bus1=BMT123510741.1.2.3,bus2=BMT123510790.1.2.3,Phases=3,LineCode=tieSwitch,Length=0.001,Units=km,switch=T !numEQ 33419
new line.CTR63061 bus1=BMT123509789.1.2.3,bus2=BMT142782021.1.2.3,Phases=3,LineCode=tieSwitch,Length=0.001,Units=km,switch=T !numEQ 33424
new line.CTR63068 bus1=BMT123510181.3,bus2=BMT123510300.3,Phases=1,LineCode=tieSwitch1,Length=0.001,Units=km,switch=T !numEQ 32771
new line.CTR63075 bus1=BMT123510391.1.2.3,bus2=BMT123510405.1.2.3,Phases=3,LineCode=tieSwitch,Length=0.001,Units=km,switch=T !numEQ 34762
new line.CTR63082 bus1=BMT123510475.1,bus2=BMT156610528.1,Phases=1,LineCode=tieSwitch1,Length=0.001,Units=km,switch=T !numEQ 33417
new line.CTR63089 bus1=BMT123503937.1.2.3,bus2=BMT123504035.1.2.3,Phases=3,LineCode=tieSwitch,Length=0.001,Units=km,switch=T !numEQ 34407
new line.CTR63096 bus1=BMT123510713.2,bus2=BMT123510860.2,Phases=1,LineCode=tieSwitch1,Length=0.001,Units=km,switch=T !numEQ 33420
new line.CTR859152 bus1=BMT152563572.1.2.3,bus2=BMT155281863.1.2.3,Phases=3,LineCode=tieSwitch,Length=0.001,Units=km,switch=T !numEQ 313284
new line.CTR859195 bus1=BMT152579269.1.2.3,bus2=BMT170143990.1.2.3,Phases=3,LineCode=tieSwitch,Length=0.001,Units=km,switch=T !numEQ 313285
new line.CTR906780 bus1=BMT172305071.1.2.3,bus2=BMT168965068.1.2.3,Phases=3,LineCode=tieSwitch,Length=0.001,Units=km,switch=T !numEQ 304642
new line.CTRR3820 bus1=BMT123502292.1.2.3,bus2=BMT123502306.1.2.3,Phases=3,LineCode=tieSwitch,Length=0.001,Units=km,switch=T !numEQ 138920
new line.CTR11380 bus1=BMT123502271.1.2.3,bus2=BMT123510937.1.2.3,Phases=3,LineCode=tieSwitch,Length=0.001,Units=km,switch=T !numEQ 111833
new line.CTR346170 bus1=BMT123502838.1,bus2=BMT172720602.1,Phases=1,LineCode=tieSwitch1,Length=0.001,Units=km,switch=T !numEQ 232310
new line.CTR36482 bus1=BMT123504070.1.2.3,bus2=BMT123504077.1.2.3,Phases=3,LineCode=tieSwitch,Length=0.001,Units=km,switch=T !numEQ 34406
new line.CTR392804 bus1=BMT127229519.1.2.3,bus2=BMT127229526.1.2.3,Phases=3,LineCode=tieSwitch,Length=0.001,Units=km,switch=T !numEQ 289626
new line.CTR394344 bus1=BMT128323325.1.2.3,bus2=BMT142805093.1.2.3,Phases=3,LineCode=tieSwitch,Length=0.001,Units=km,switch=T !numEQ 283101
new line.CTR394365 bus1=BMT165313208.1.2.3,bus2=BMT142772746.1.2.3,Phases=3,LineCode=tieSwitch,Length=0.001,Units=km,switch=T !numEQ 283103
open line.CTR394365 term=1
new line.CTR394372 bus1=BMT127763668.1.2.3,bus2=BMT142888897.1.2.3,Phases=3,LineCode=tieSwitch,Length=0.001,Units=km,switch=T !numEQ 232371
new line.CTR394911 bus1=BMT127961607.1.2.3,bus2=BMT152577321.1.2.3,Phases=3,LineCode=tieSwitch,Length=0.001,Units=km,switch=T !numEQ 224823
new line.CTR41067 bus1=BMT123502348.1.2.3,bus2=BMT123510923.1.2.3,Phases=3,LineCode=tieSwitch,Length=0.001,Units=km,switch=T !numEQ 154858
new line.CTR448083 bus1=BMT142655370.2,bus2=BMT160520917.2,Phases=1,LineCode=tieSwitch1,Length=0.001,Units=km,switch=T !numEQ 295017
new line.CTR448965 bus1=BMT142811029.1.2.3,bus2=BMT142831826.1.2.3,Phases=3,LineCode=tieSwitch,Length=0.001,Units=km,switch=T !numEQ 283102
new line.CTR448993 bus1=BMT142831588.1.2.3,bus2=BMT142985819.1.2.3,Phases=3,LineCode=tieSwitch,Length=0.001,Units=km,switch=T !numEQ 283104
new line.CTR449266 bus1=BMT142936952.1.2.3,bus2=BMT167748195.1.2.3,Phases=3,LineCode=tieSwitch,Length=0.001,Units=km,switch=T !numEQ 283106
new line.CTR449273 bus1=BMT142938730.3,bus2=BMT142938863.3,Phases=1,LineCode=tieSwitch1,Length=0.001,Units=km,switch=T !numEQ 283105
new line.CTR449280 bus1=BMT142943329.1.2.3,bus2=BMT148809814.1.2.3,Phases=3,LineCode=tieSwitch,Length=0.001,Units=km,switch=T !numEQ 232373
new line.CTR449357 bus1=BMT142961249.1.2.3,bus2=BMT142961298.1.2.3,Phases=3,LineCode=tieSwitch,Length=0.001,Units=km,switch=T !numEQ 311647
new line.CTR449455 bus1=BMT142987877.2,bus2=BMT142987940.2,Phases=1,LineCode=tieSwitch1,Length=0.001,Units=km,switch=T !numEQ 232372
new line.CTR47787 bus1=BMT156918079.1.2.3,bus2=BMT123503860.1.2.3,Phases=3,LineCode=tieSwitch,Length=0.001,Units=km,switch=T !numEQ 130359
new line.CTR6592 bus1=BMT123504504.2,bus2=BMT158471572.2,Phases=1,LineCode=tieSwitch1,Length=0.001,Units=km,switch=T !numEQ 133646
new line.CTR68381 bus1=BMT123509103.1,bus2=BMT123509117.1,Phases=1,LineCode=tieSwitch1,Length=0.001,Units=km,switch=T !numEQ 134119
new line.CTR857155 bus1=BMT151987783.1.2.3,bus2=BMT168957290.1.2.3,Phases=3,LineCode=tieSwitch,Length=0.001,Units=km,switch=T !numEQ 384754
new line.CTR868163 bus1=BMT155151257.2,bus2=BMT156232321.2,Phases=1,LineCode=tieSwitch1,Length=0.001,Units=km,switch=T !numEQ 317879
new line.CTR888419 bus1=BMT162361951.1,bus2=BMT162362108.1,Phases=1,LineCode=tieSwitch1,Length=0.001,Units=km,switch=T !numEQ 242335
new line.CTR907910 bus1=BMT169388855.1.2.3,bus2=BMT169388856.1.2.3,Phases=3,LineCode=tieSwitch,Length=0.001,Units=km,switch=T !numEQ 278877
new line.CTR9588 bus1=BMT123509747.1.2.3,bus2=BMT123510328.1.2.3,Phases=3,LineCode=tieSwitch,Length=0.001,Units=km,switch=T !numEQ 116312
new line.CTRR38898 bus1=BMT165241728.1.2.3,bus2=BMT165241388.1.2.3,Phases=3,LineCode=tieSwitch,Length=0.001,Units=km,switch=T !numEQ 268657
open line.CTRR38898 term=1
new line.CTRR38899 bus1=BMT169613426.1.2.3,bus2=BMT165245963.1.2.3,Phases=3,LineCode=tieSwitch,Length=0.001,Units=km,switch=T !numEQ 268660
open line.CTRR38899 term=1
new line.CTR129897 bus1=BMT123510671.2,bus2=BMT123510881.2,Phases=1,LineCode=tieSwitch1,Length=0.001,Units=km,switch=T !numEQ 34974
new line.CTR14446 bus1=BMT123506443.1,bus2=BMT123506786.1,Phases=1,LineCode=tieSwitch1,Length=0.001,Units=km,switch=T !numEQ 136265
new line.CTR145710 bus1=BMT123504588.2,bus2=BMT123506310.2,Phases=1,LineCode=tieSwitch1,Length=0.001,Units=km,switch=T !numEQ 33437
new line.CTR174305 bus1=BMT123504973.2,bus2=BMT157038614.2,Phases=1,LineCode=tieSwitch1,Length=0.001,Units=km,switch=T !numEQ 142418
new line.CTR19087 bus1=BMT123507143.3,bus2=BMT162445452.3,Phases=1,LineCode=tieSwitch1,Length=0.001,Units=km,switch=T !numEQ 32167
new line.CTR190881 bus1=BMT123503888.1.2.3,bus2=BMT123503895.1.2.3,Phases=3,LineCode=tieSwitch,Length=0.001,Units=km,switch=T !numEQ 154886
new line.CTR21971 bus1=BMT123502159.1.2.3,bus2=BMT123502166.1.2.3,Phases=3,LineCode=tieSwitch,Length=0.001,Units=km,switch=T !numEQ 98175
new line.CTR21978 bus1=BMT123502187.1.2.3,bus2=BMT161789394.1.2.3,Phases=3,LineCode=tieSwitch,Length=0.001,Units=km,switch=T !numEQ 140186
new line.CTR42754 bus1=BMT123502621.1.2.3,bus2=BMT156918070.1.2.3,Phases=3,LineCode=tieSwitch,Length=0.001,Units=km,switch=T !numEQ 32162
new line.CTR864065 bus1=BMT153934169.2,bus2=BMT163331406.2,Phases=1,LineCode=tieSwitch1,Length=0.001,Units=km,switch=T !numEQ 385773
new line.CTR912136 bus1=BMT170814185.1,bus2=BMT170814712.1,Phases=1,LineCode=tieSwitch1,Length=0.001,Units=km,switch=T !numEQ 318583
new line.CTR912417 bus1=BMT171629356.1,bus2=BMT171629376.1,Phases=1,LineCode=tieSwitch1,Length=0.001,Units=km,switch=T !numEQ 320576
new line.CTRR1097 bus1=BMT123509726.1.2.3,bus2=BMT142961242.1.2.3,Phases=3,LineCode=tieSwitch,Length=0.001,Units=km,switch=T !numEQ 311646
new line.CTRR14832 bus1=BMT123502586.1.2.3,bus2=BMT123502593.1.2.3,Phases=3,LineCode=tieSwitch,Length=0.001,Units=km,switch=T !numEQ 229866
new line.CTRR9540 bus1=BMT123507409.3,bus2=BMT148432038.3,Phases=1,LineCode=tieSwitch1,Length=0.001,Units=km,switch=T !numEQ 283194
new line.CTRR9582 bus1=BMT123506373.1,bus2=BMT171629349.1,Phases=1,LineCode=tieSwitch1,Length=0.001,Units=km,switch=T !numEQ 283192
new line.CTRR9596 bus1=BMT123509047.1,bus2=BMT123509138.1,Phases=1,LineCode=tieSwitch1,Length=0.001,Units=km,switch=T !numEQ 283279
new line.CTR14670 bus1=BMT123506884.1,bus2=BMT123506898.1,Phases=1,LineCode=tieSwitch1,Length=0.001,Units=km,switch=T !numEQ 136268
new line.CTR176937 bus1=BMT140060407.1.2.3,bus2=BMT140060533.1.2.3,Phases=3,LineCode=tieSwitch,Length=0.001,Units=km,switch=T !numEQ 194431
new line.CTR191574 bus1=BMT123503874.1.2.3,bus2=BMT123503881.1.2.3,Phases=3,LineCode=tieSwitch,Length=0.001,Units=km,switch=T !numEQ 154800
new line.CTR23147 bus1=BMT123504238.1.2.3,bus2=BMT123504245.1.2.3,Phases=3,LineCode=tieSwitch,Length=0.001,Units=km,switch=T !numEQ 35610
new line.CTR28453 bus1=BMT123510825.1.2.3,bus2=BMT123510146.1.2.3,Phases=3,LineCode=tieSwitch,Length=0.001,Units=km,switch=T !numEQ 33418
open line.CTR28453 term=1
new line.CTR28481 bus1=BMT123502523.1,bus2=BMT123510342.1,Phases=1,LineCode=tieSwitch1,Length=0.001,Units=km,switch=T !numEQ 33746
new line.CTR32793 bus1=BMT123507248.1,bus2=BMT170814182.1,Phases=1,LineCode=tieSwitch1,Length=0.001,Units=km,switch=T !numEQ 33414
new line.CTR32800 bus1=BMT123507556.3,bus2=BMT123508193.3,Phases=1,LineCode=tieSwitch1,Length=0.001,Units=km,switch=T !numEQ 34701
new line.CTR32807 bus1=BMT123502215.1.2.3,bus2=BMT129918156.1.2.3,Phases=3,LineCode=tieSwitch,Length=0.001,Units=km,switch=T !numEQ 98179
new line.CTR32821 bus1=BMT123502355.1.2.3,bus2=BMT123510636.1.2.3,Phases=3,LineCode=tieSwitch,Length=0.001,Units=km,switch=T !numEQ 35061
new line.CTR32828 bus1=BMT123502453.1.2.3,bus2=BMT172908253.1.2.3,Phases=3,LineCode=tieSwitch,Length=0.001,Units=km,switch=T !numEQ 32772
new line.CTR32835 bus1=BMT162591053.1.2.3,bus2=BMT123502544.1.2.3,Phases=3,LineCode=tieSwitch,Length=0.001,Units=km,switch=T !numEQ 96243
new line.CTR32905 bus1=BMT123502572.1.2.3,bus2=BMT142959590.1.2.3,Phases=3,LineCode=tieSwitch,Length=0.001,Units=km,switch=T !numEQ 33410
new line.CTR32912 bus1=BMT123504259.1,bus2=BMT123509432.1,Phases=1,LineCode=tieSwitch1,Length=0.001,Units=km,switch=T !numEQ 34409
new line.CTR32919 bus1=BMT123509033.1,bus2=BMT123509040.1,Phases=1,LineCode=tieSwitch1,Length=0.001,Units=km,switch=T !numEQ 33594
new line.CTR32926 bus1=BMT123504693.2,bus2=BMT170683134.2,Phases=1,LineCode=tieSwitch1,Length=0.001,Units=km,switch=T !numEQ 33311
new line.CTR32933 bus1=BMT123509201.1,bus2=BMT123509208.1,Phases=1,LineCode=tieSwitch1,Length=0.001,Units=km,switch=T !numEQ 33016
new line.CTR32940 bus1=BMT123504539.1.2.3,bus2=BMT165241722.1.2.3,Phases=3,LineCode=tieSwitch,Length=0.001,Units=km,switch=T !numEQ 151927
new line.CTR33080 bus1=BMT123502110.1.2.3,bus2=BMT152560486.1.2.3,Phases=3,LineCode=tieSwitch,Length=0.001,Units=km,switch=T !numEQ 32760
new line.CTR43265 bus1=BMT123504602.2,bus2=BMT123504623.2,Phases=1,LineCode=tieSwitch1,Length=0.001,Units=km,switch=T !numEQ 154385
new line.CTR43349 bus1=BMT123504168.1.2.3,bus2=BMT156851727.1.2.3,Phases=3,LineCode=tieSwitch,Length=0.001,Units=km,switch=T !numEQ 154091
new line.CTR43356 bus1=BMT123504301.1.2.3,bus2=BMT162160381.1.2.3,Phases=3,LineCode=tieSwitch,Length=0.001,Units=km,switch=T !numEQ 151922
new line.CTR43363 bus1=BMT123504350.1.2.3,bus2=BMT172260169.1.2.3,Phases=3,LineCode=tieSwitch,Length=0.001,Units=km,switch=T !numEQ 151923
new line.CTR43384 bus1=BMT123504357.1.2.3,bus2=BMT123504364.1.2.3,Phases=3,LineCode=tieSwitch,Length=0.001,Units=km,switch=T !numEQ 154453
new line.CTR43391 bus1=BMT123504371.3,bus2=BMT168774522.3,Phases=1,LineCode=tieSwitch1,Length=0.001,Units=km,switch=T !numEQ 151924
new line.CTR43398 bus1=BMT123507213.3,bus2=BMT123508585.3,Phases=1,LineCode=tieSwitch1,Length=0.001,Units=km,switch=T !numEQ 151929
new line.CTR43405 bus1=BMT123507227.1,bus2=BMT123508550.1,Phases=1,LineCode=tieSwitch1,Length=0.001,Units=km,switch=T !numEQ 151921
new line.CTR43412 bus1=BMT123507150.1.2.3,bus2=BMT170081779.1.2.3,Phases=3,LineCode=tieSwitch,Length=0.001,Units=km,switch=T !numEQ 151928
new line.CTR453704 bus1=BMT144131712.1,bus2=BMT144131719.1,Phases=1,LineCode=tieSwitch1,Length=0.001,Units=km,switch=T !numEQ 311573
new line.CTR63103 bus1=BMT123510678.1,bus2=BMT123510762.1,Phases=1,LineCode=tieSwitch1,Length=0.001,Units=km,switch=T !numEQ 33422
new line.CTR7110 bus1=BMT160826302.2,bus2=BMT160826509.2,Phases=1,LineCode=tieSwitch1,Length=0.001,Units=km,switch=T !numEQ 33108
new line.CTR876789 bus1=BMT157782616.2,bus2=BMT157782617.2,Phases=1,LineCode=tieSwitch1,Length=0.001,Units=km,switch=T !numEQ 246727
new line.CTR908602 bus1=BMT169634143.1,bus2=BMT170064377.1,Phases=1,LineCode=tieSwitch1,Length=0.001,Units=km,switch=T !numEQ 213271
new line.CTR909041 bus1=BMT169775787.1.2.3,bus2=BMT170333939.1.2.3,Phases=3,LineCode=tieSwitch,Length=0.001,Units=km,switch=T !numEQ 278029
new line.CTR909044 bus1=BMT169777371.1.2.3,bus2=BMT170342196.1.2.3,Phases=3,LineCode=tieSwitch,Length=0.001,Units=km,switch=T !numEQ 278030
new line.CTR909147 bus1=BMT169800035.1.2.3,bus2=BMT170336300.1.2.3,Phases=3,LineCode=tieSwitch,Length=0.001,Units=km,switch=T !numEQ 278035
new line.CTR909148 bus1=BMT169800472.3,bus2=BMT170335995.3,Phases=1,LineCode=tieSwitch1,Length=0.001,Units=km,switch=T !numEQ 278036
new line.CTR909149 bus1=BMT169801068.3,bus2=BMT170334430.3,Phases=1,LineCode=tieSwitch1,Length=0.001,Units=km,switch=T !numEQ 278037
new line.CTR909155 bus1=BMT169801975.3,bus2=BMT170336914.3,Phases=1,LineCode=tieSwitch1,Length=0.001,Units=km,switch=T !numEQ 278039
new line.CTR909156 bus1=BMT169802651.1.2.3,bus2=BMT170335922.1.2.3,Phases=3,LineCode=tieSwitch,Length=0.001,Units=km,switch=T !numEQ 279583
new line.CTR909163 bus1=BMT169806426.1.2.3,bus2=BMT170337081.1.2.3,Phases=3,LineCode=tieSwitch,Length=0.001,Units=km,switch=T !numEQ 278038
new line.CTRR42833 bus1=BMT172260170.1.2.3,bus2=BMT172260171.1.2.3,Phases=3,LineCode=tieSwitch,Length=0.001,Units=km,switch=T !numEQ 323818
new line.CTRR42867 bus1=BMT172305317.1.2.3,bus2=BMT172305325.1.2.3,Phases=3,LineCode=tieSwitch,Length=0.001,Units=km,switch=T !numEQ 323817
new line.CTR100714 bus1=BMT123501669.1.2.3,bus2=BMT123501690.1.2.3,Phases=3,LineCode=tieSwitch,Length=0.001,Units=km,switch=T !numEQ 111832
new line.CTR128063 bus1=BMT142882177.1,bus2=BMT142964602.1,Phases=1,LineCode=tieSwitch1,Length=0.001,Units=km,switch=T !numEQ 32161
new line.CTR142973 bus1=BMT123509054.1,bus2=BMT123509061.1,Phases=1,LineCode=tieSwitch1,Length=0.001,Units=km,switch=T !numEQ 33595
new line.CTR143134 bus1=BMT123501634.1.2.3,bus2=BMT123501641.1.2.3,Phases=3,LineCode=tieSwitch,Length=0.001,Units=km,switch=T !numEQ 98270
new line.CTR20270 bus1=BMT123502488.1.2.3,bus2=BMT123510370.1.2.3,Phases=3,LineCode=tieSwitch,Length=0.001,Units=km,switch=T !numEQ 191658
new line.CTR336692 bus1=BMT123502565.1.2.3,bus2=BMT123502579.1.2.3,Phases=3,LineCode=tieSwitch,Length=0.001,Units=km,switch=T !numEQ 229865
new line.CTR336713 bus1=BMT123502600.1.2.3,bus2=BMT166726313.1.2.3,Phases=3,LineCode=tieSwitch,Length=0.001,Units=km,switch=T !numEQ 229867
new line.CTR45988 bus1=BMT123505974.2,bus2=BMT123506002.2,Phases=1,LineCode=tieSwitch1,Length=0.001,Units=km,switch=T !numEQ 107654
new line.CTR460536 bus1=BMT145981623.1,bus2=BMT171767646.1,Phases=1,LineCode=tieSwitch1,Length=0.001,Units=km,switch=T !numEQ 305486
new line.CTRR4212 bus1=BMT123504154.1.2.3,bus2=BMT123504161.1.2.3,Phases=3,LineCode=tieSwitch,Length=0.001,Units=km,switch=T !numEQ 34404
