new line.10097233 bus1=BBT147797885.1.2.0,bus2=BBT147797892.1.2.0,Phases=2,Linecode=BT521_BT521_7_2_1,Length=0.000501000,Units=km
new line.1712282 bus1=BBT4094501.1.0,bus2=BBT4094529.1.0,Phases=1,Linecode=BT816_BT816_4_1_2,Length=0.072212000,Units=km
new line.18836130 bus1=BBT152576804.1.2.3.0,bus2=BBT152576805.1.2.3.0,Phases=3,Linecode=BT521_BT521_7_3_1,Length=0.000501000,Units=km
new line.18836132 bus1=BBT152576805.1.2.3.0,bus2=BBT152576889.1.2.3.0,Phases=3,Linecode=BT803_BT803_4_3_4,Length=0.039415000,Units=km
new line.18836133 bus1=BBT152576889.1.2.3.0,bus2=BBT152576890.1.2.3.0,Phases=3,Linecode=BT803_BT803_4_3_4,Length=0.025947000,Units=km
new line.18836134 bus1=BBT152576805.1.2.3.0,bus2=BBT152576891.1.2.3.0,Phases=3,Linecode=BT803_BT803_4_3_4,Length=0.036256000,Units=km
new line.18836135 bus1=BBT152576891.1.2.3.0,bus2=BBT152576892.1.2.3.0,Phases=3,Linecode=BT803_BT803_4_3_4,Length=0.024418000,Units=km
new line.18836136 bus1=BBT152576892.1.2.3.0,bus2=BBT152576893.1.2.3.0,Phases=3,Linecode=BT803_BT803_4_3_4,Length=0.026406000,Units=km
new line.18836137 bus1=BBT152576893.1.2.3.0,bus2=BBT152576894.1.2.3.0,Phases=3,Linecode=BT803_BT803_4_3_4,Length=0.039122000,Units=km
new line.18836138 bus1=BBT152576891.1.2.3.0,bus2=BBT152576895.1.2.3.0,Phases=3,Linecode=BT803_BT803_4_3_4,Length=0.020004000,Units=km
new line.18836139 bus1=BBT152576895.1.2.3.0,bus2=BBT152576896.1.2.3.0,Phases=3,Linecode=BT803_BT803_4_3_4,Length=0.019420000,Units=km
new line.18836140 bus1=BBT152576896.1.2.3.0,bus2=BBT152576897.1.2.3.0,Phases=3,Linecode=BT803_BT803_4_3_4,Length=0.039364000,Units=km
new line.18836141 bus1=BBT152576889.1.2.3.0,bus2=BBT152576898.1.2.3.0,Phases=3,Linecode=BT803_BT803_4_3_4,Length=0.034488000,Units=km
new line.18836142 bus1=BBT152576898.1.2.3.0,bus2=BBT152576903.1.2.3.0,Phases=3,Linecode=BT803_BT803_4_3_4,Length=0.033547000,Units=km
new line.18836143 bus1=BBT152576903.1.2.3.0,bus2=BBT152576911.1.2.3.0,Phases=3,Linecode=BT803_BT803_4_3_4,Length=0.034892000,Units=km
new line.18836154 bus1=BBT152577401.1.2.3.0,bus2=BBT152577402.1.2.3.0,Phases=3,Linecode=BT521_BT521_7_3_1,Length=0.000501000,Units=km
new line.18836158 bus1=BBT152577402.1.2.3.0,bus2=BBT152577600.1.2.3.0,Phases=3,Linecode=BT803_BT803_4_3_4,Length=0.019239000,Units=km
new line.18836159 bus1=BBT152577600.1.2.3.0,bus2=BBT152577601.1.2.3.0,Phases=3,Linecode=BT803_BT803_4_3_4,Length=0.020619000,Units=km
new line.18836160 bus1=BBT152577601.1.2.3.0,bus2=BBT152577602.1.2.3.0,Phases=3,Linecode=BT803_BT803_4_3_4,Length=0.026406000,Units=km
new line.18836161 bus1=BBT152577602.1.2.3.0,bus2=BBT152577619.1.2.3.0,Phases=3,Linecode=BT803_BT803_4_3_4,Length=0.033844000,Units=km
new line.18836162 bus1=BBT152577619.1.2.3.0,bus2=BBT152577620.1.2.3.0,Phases=3,Linecode=BT803_BT803_4_3_4,Length=0.038020000,Units=km
new line.18836163 bus1=BBT152577600.1.2.3.0,bus2=BBT152577621.1.2.3.0,Phases=3,Linecode=BT803_BT803_4_3_4,Length=0.014768000,Units=km
new line.18836164 bus1=BBT152577600.1.2.3.0,bus2=BBT152577638.1.2.3.0,Phases=3,Linecode=BT803_BT803_4_3_4,Length=0.024703000,Units=km
new line.18836165 bus1=BBT152577638.1.2.3.0,bus2=BBT152577639.1.2.3.0,Phases=3,Linecode=BT803_BT803_4_3_4,Length=0.035784000,Units=km
new line.18836169 bus1=BBT152577402.1.2.3.0,bus2=BBT152577677.1.2.3.0,Phases=3,Linecode=BT803_BT803_4_3_4,Length=0.033844000,Units=km
new line.18836170 bus1=BBT152577677.1.2.3.0,bus2=BBT152577678.1.2.3.0,Phases=3,Linecode=BT803_BT803_4_3_4,Length=0.038840000,Units=km
new line.18836171 bus1=BBT152577678.1.2.3.0,bus2=BBT152577680.1.2.3.0,Phases=3,Linecode=BT803_BT803_4_3_4,Length=0.036062000,Units=km
new line.18836172 bus1=BBT152577680.1.2.3.0,bus2=BBT152577681.1.2.3.0,Phases=3,Linecode=BT803_BT803_4_3_4,Length=0.041601000,Units=km
new line.18836173 bus1=BBT152577677.1.2.3.0,bus2=BBT152577692.1.2.3.0,Phases=3,Linecode=BT803_BT803_4_3_4,Length=0.029838000,Units=km
new line.18836174 bus1=BBT152577692.1.2.3.0,bus2=BBT152577693.1.2.3.0,Phases=3,Linecode=BT803_BT803_4_3_4,Length=0.033547000,Units=km
new line.18836196 bus1=BBT152578359.1.2.3.0,bus2=BBT152578360.1.2.3.0,Phases=3,Linecode=BT521_BT521_7_3_1,Length=0.000501000,Units=km
new line.18836207 bus1=BBT152578360.1.2.3.0,bus2=BBT152578697.1.2.3.0,Phases=3,Linecode=BT803_BT803_4_3_4,Length=0.044110000,Units=km
new line.18836208 bus1=BBT152578697.1.2.3.0,bus2=BBT152578708.1.2.3.0,Phases=3,Linecode=BT803_BT803_4_3_4,Length=0.039122000,Units=km
new line.18836209 bus1=BBT152578708.1.2.3.0,bus2=BBT152578709.1.2.3.0,Phases=3,Linecode=BT803_BT803_4_3_4,Length=0.031912000,Units=km
new line.18836211 bus1=BBT152578360.1.2.3.0,bus2=BBT152578727.1.2.3.0,Phases=3,Linecode=BT803_BT803_4_3_4,Length=0.041238000,Units=km
new line.18836212 bus1=BBT152578727.1.2.3.0,bus2=BBT152578738.1.2.3.0,Phases=3,Linecode=BT803_BT803_4_3_4,Length=0.036007000,Units=km
new line.18836213 bus1=BBT152578738.1.2.3.0,bus2=BBT152578743.1.2.3.0,Phases=3,Linecode=BT803_BT803_4_3_4,Length=0.034546000,Units=km
new line.18836214 bus1=BBT152578743.1.2.3.0,bus2=BBT152578744.1.2.3.0,Phases=3,Linecode=BT803_BT803_4_3_4,Length=0.039453000,Units=km
new line.18836215 bus1=BBT152578709.1.2.3.0,bus2=BBT152578749.1.2.3.0,Phases=3,Linecode=BT803_BT803_4_3_4,Length=0.030600000,Units=km
new line.18836219 bus1=BBT152578709.1.2.3.0,bus2=BBT152578760.1.2.3.0,Phases=3,Linecode=BT803_BT803_4_3_4,Length=0.028448000,Units=km
new line.18836221 bus1=BBT152578760.1.2.3.0,bus2=BBT152578767.1.2.3.0,Phases=3,Linecode=BT803_BT803_4_3_4,Length=0.019420000,Units=km
new line.18836241 bus1=BBT152578989.1.2.3.0,bus2=BBT152578990.1.2.3.0,Phases=3,Linecode=BT521_BT521_7_3_1,Length=0.000501000,Units=km
new line.18836250 bus1=BBT152578990.1.2.3.0,bus2=BBT152579051.1.2.3.0,Phases=3,Linecode=BT803_BT803_4_3_4,Length=0.025244000,Units=km
new line.18836253 bus1=BBT152579051.1.2.3.0,bus2=BBT152579076.1.2.3.0,Phases=3,Linecode=BT803_BT803_4_3_4,Length=0.029687000,Units=km
new line.18836254 bus1=BBT152578990.1.2.3.0,bus2=BBT152579083.1.2.3.0,Phases=3,Linecode=BT803_BT803_4_3_4,Length=0.030534000,Units=km
new line.18836256 bus1=BBT152579083.1.2.3.0,bus2=BBT152579110.1.2.3.0,Phases=3,Linecode=BT803_BT803_4_3_4,Length=0.036366000,Units=km
new line.18836257 bus1=BBT152579110.1.2.3.0,bus2=BBT152579111.1.2.3.0,Phases=3,Linecode=BT803_BT803_4_3_4,Length=0.037743000,Units=km
new line.18836258 bus1=BBT152579083.1.2.3.0,bus2=BBT152579129.1.2.3.0,Phases=3,Linecode=BT803_BT803_4_3_4,Length=0.041007000,Units=km
new line.18836259 bus1=BBT152579129.1.2.3.0,bus2=BBT152579130.1.2.3.0,Phases=3,Linecode=BT803_BT803_4_3_4,Length=0.035700000,Units=km
new line.18836260 bus1=BBT152579130.1.2.3.0,bus2=BBT152579132.1.2.3.0,Phases=3,Linecode=BT803_BT803_4_3_4,Length=0.035700000,Units=km
new line.18836261 bus1=BBT152579051.1.2.3.0,bus2=BBT152579136.1.2.3.0,Phases=3,Linecode=BT803_BT803_4_3_4,Length=0.038840000,Units=km
new line.18836262 bus1=BBT152579136.1.2.3.0,bus2=BBT152579140.1.2.3.0,Phases=3,Linecode=BT803_BT803_4_3_4,Length=0.035700000,Units=km
new line.18836263 bus1=BBT152579140.1.2.3.0,bus2=BBT152579141.1.2.3.0,Phases=3,Linecode=BT803_BT803_4_3_4,Length=0.036681000,Units=km
new line.18836270 bus1=BBT152579339.1.2.3.0,bus2=BBT152579340.1.2.3.0,Phases=3,Linecode=BT521_BT521_7_3_1,Length=0.000501000,Units=km
new line.18836273 bus1=BBT152579340.1.2.3.0,bus2=BBT152579409.1.2.3.0,Phases=3,Linecode=BT803_BT803_4_3_4,Length=0.023858000,Units=km
new line.18836275 bus1=BBT152579340.1.2.3.0,bus2=BBT152579458.1.2.3.0,Phases=3,Linecode=BT803_BT803_4_3_4,Length=0.029005000,Units=km
new line.18836277 bus1=BBT152579409.1.2.3.0,bus2=BBT152579475.1.2.3.0,Phases=3,Linecode=BT803_BT803_4_3_4,Length=0.008546000,Units=km
new line.18836279 bus1=BBT152579475.1.2.3.0,bus2=BBT152579476.1.2.3.0,Phases=3,Linecode=BT803_BT803_4_3_4,Length=0.027208000,Units=km
new line.18836280 bus1=BBT152579760.1.2.3.0,bus2=BBT152579478.1.2.3.0,Phases=3,Linecode=BT803_BT803_4_3_4,Length=0.024844000,Units=km
new line.18836281 bus1=BBT152579478.1.2.3.0,bus2=BBT152579480.1.2.3.0,Phases=3,Linecode=BT803_BT803_4_3_4,Length=0.031833000,Units=km
new line.18836282 bus1=BBT152579480.1.2.3.0,bus2=BBT152579481.1.2.3.0,Phases=3,Linecode=BT803_BT803_4_3_4,Length=0.027208000,Units=km
new line.18836285 bus1=BBT152579480.1.2.3.0,bus2=BBT152579494.1.2.3.0,Phases=3,Linecode=BT803_BT803_4_3_4,Length=0.033532000,Units=km
new line.18836289 bus1=BBT152579481.1.2.3.0,bus2=BBT152579548.1.2.3.0,Phases=3,Linecode=BT803_BT803_4_3_4,Length=0.028658000,Units=km
new line.18836290 bus1=BBT152579458.1.2.3.0,bus2=BBT152579549.1.2.3.0,Phases=3,Linecode=BT803_BT803_4_3_4,Length=0.035700000,Units=km
new line.18836291 bus1=BBT152579549.1.2.3.0,bus2=BBT152579558.1.2.3.0,Phases=3,Linecode=BT803_BT803_4_3_4,Length=0.036885000,Units=km
new line.18836292 bus1=BBT152579558.1.2.3.0,bus2=BBT152579559.1.2.3.0,Phases=3,Linecode=BT803_BT803_4_3_4,Length=0.037663000,Units=km
new line.18836294 bus1=BBT152579458.1.2.3.0,bus2=BBT152579577.1.2.3.0,Phases=3,Linecode=BT803_BT803_4_3_4,Length=0.012086000,Units=km
new line.18836295 bus1=BBT152579577.1.2.3.0,bus2=BBT152579584.1.2.3.0,Phases=3,Linecode=BT803_BT803_4_3_4,Length=0.039630000,Units=km
new line.18836296 bus1=BBT152579584.1.2.3.0,bus2=BBT152579585.1.2.3.0,Phases=3,Linecode=BT803_BT803_4_3_4,Length=0.037663000,Units=km
new line.18836297 bus1=BBT152579475.1.2.3.0,bus2=BBT152579628.1.2.3.0,Phases=3,Linecode=BT803_BT803_4_3_4,Length=0.025500000,Units=km
new line.18836301 bus1=BBT152579628.1.2.3.0,bus2=BBT152579635.1.2.3.0,Phases=3,Linecode=BT803_BT803_4_3_4,Length=0.032564000,Units=km
new line.18836303 bus1=BBT152579635.1.2.3.0,bus2=BBT152579636.1.2.3.0,Phases=3,Linecode=BT803_BT803_4_3_4,Length=0.039819000,Units=km
new line.18836305 bus1=BBT152579475.1.2.3.0,bus2=BBT152579648.1.2.3.0,Phases=3,Linecode=BT803_BT803_4_3_4,Length=0.009489000,Units=km
new line.18836312 bus1=BBT152579458.1.2.3.0,bus2=BBT152579760.1.2.3.0,Phases=3,Linecode=BT803_BT803_4_3_4,Length=0.015624000,Units=km
new line.18836320 bus1=BBT152579859.1.2.3.0,bus2=BBT152579860.1.2.3.0,Phases=3,Linecode=BT521_BT521_7_3_1,Length=0.000501000,Units=km
new line.18836324 bus1=BBT152579860.1.2.3.0,bus2=BBT152579924.1.2.3.0,Phases=3,Linecode=BT803_BT803_4_3_4,Length=0.034676000,Units=km
new line.18836325 bus1=BBT152579924.1.2.3.0,bus2=BBT152579925.1.2.3.0,Phases=3,Linecode=BT803_BT803_4_3_4,Length=0.025812000,Units=km
new line.18836340 bus1=BBT152579925.1.2.3.0,bus2=BBT152580855.1.2.3.0,Phases=3,Linecode=BT803_BT803_4_3_4,Length=0.035615000,Units=km
new line.18836341 bus1=BBT152580855.1.2.3.0,bus2=BBT152580856.1.2.3.0,Phases=3,Linecode=BT803_BT803_4_3_4,Length=0.042387000,Units=km
new line.18836342 bus1=BBT152579924.1.2.3.0,bus2=BBT152580866.1.2.3.0,Phases=3,Linecode=BT803_BT803_4_3_4,Length=0.033142000,Units=km
new line.18836343 bus1=BBT152580866.1.2.3.0,bus2=BBT152580867.1.2.3.0,Phases=3,Linecode=BT803_BT803_4_3_4,Length=0.035700000,Units=km
new line.18836344 bus1=BBT152580867.1.2.3.0,bus2=BBT152580873.1.2.3.0,Phases=3,Linecode=BT803_BT803_4_3_4,Length=0.034372000,Units=km
new line.18836346 bus1=BBT152580873.1.2.3.0,bus2=BBT152580874.1.2.3.0,Phases=3,Linecode=BT803_BT803_4_3_4,Length=0.026177000,Units=km
new line.18836348 bus1=BBT152579860.1.2.3.0,bus2=BBT152580875.1.2.3.0,Phases=3,Linecode=BT803_BT803_4_3_4,Length=0.034021000,Units=km
new line.18836350 bus1=BBT152580875.1.2.3.0,bus2=BBT152580884.1.2.3.0,Phases=3,Linecode=BT803_BT803_4_3_4,Length=0.037020000,Units=km
new line.18836351 bus1=BBT152580875.1.2.3.0,bus2=BBT152580906.1.2.3.0,Phases=3,Linecode=BT803_BT803_4_3_4,Length=0.024356000,Units=km
new line.18836352 bus1=BBT152580906.1.2.3.0,bus2=BBT152580907.1.2.3.0,Phases=3,Linecode=BT803_BT803_4_3_4,Length=0.035517000,Units=km
new line.18836353 bus1=BBT152580907.1.2.3.0,bus2=BBT152580921.1.2.3.0,Phases=3,Linecode=BT803_BT803_4_3_4,Length=0.035700000,Units=km
new line.18836354 bus1=BBT152580921.1.2.3.0,bus2=BBT152580922.1.2.3.0,Phases=3,Linecode=BT803_BT803_4_3_4,Length=0.031581000,Units=km
new line.18836360 bus1=BBT152581080.1.2.3.0,bus2=BBT152581081.1.2.3.0,Phases=3,Linecode=BT521_BT521_7_3_1,Length=0.000501000,Units=km
new line.18836362 bus1=BBT152581081.1.2.3.0,bus2=BBT152581095.1.2.3.0,Phases=3,Linecode=BT803_BT803_4_3_4,Length=0.026838000,Units=km
new line.18836363 bus1=BBT152581081.1.2.3.0,bus2=BBT152581096.1.2.3.0,Phases=3,Linecode=BT803_BT803_4_3_4,Length=0.030089000,Units=km
new line.18836364 bus1=BBT152581096.1.2.3.0,bus2=BBT152581115.1.2.3.0,Phases=3,Linecode=BT803_BT803_4_3_4,Length=0.028236000,Units=km
new line.18836365 bus1=BBT152581096.1.2.3.0,bus2=BBT152581116.1.2.3.0,Phases=3,Linecode=BT803_BT803_4_3_4,Length=0.032286000,Units=km
new line.18836366 bus1=BBT152581116.1.2.3.0,bus2=BBT152581117.1.2.3.0,Phases=3,Linecode=BT803_BT803_4_3_4,Length=0.042763000,Units=km
new line.18836367 bus1=BBT152581117.1.2.3.0,bus2=BBT152581118.1.2.3.0,Phases=3,Linecode=BT803_BT803_4_3_4,Length=0.043746000,Units=km
new line.18836369 bus1=BBT152581095.1.2.3.0,bus2=BBT152581119.1.2.3.0,Phases=3,Linecode=BT803_BT803_4_3_4,Length=0.019317000,Units=km
new line.18836370 bus1=BBT152581095.1.2.3.0,bus2=BBT152581120.1.2.3.0,Phases=3,Linecode=BT803_BT803_4_3_4,Length=0.015527000,Units=km
new line.18836371 bus1=BBT152581120.1.2.3.0,bus2=BBT152581131.1.2.3.0,Phases=3,Linecode=BT803_BT803_4_3_4,Length=0.036681000,Units=km
new line.18836372 bus1=BBT152581131.1.2.3.0,bus2=BBT152581132.1.2.3.0,Phases=3,Linecode=BT803_BT803_4_3_4,Length=0.040799000,Units=km
new line.18836373 bus1=BBT152581095.1.2.3.0,bus2=BBT152581133.1.2.3.0,Phases=3,Linecode=BT803_BT803_4_3_4,Length=0.013156000,Units=km
new line.18836374 bus1=BBT152581133.1.2.3.0,bus2=BBT152581134.1.2.3.0,Phases=3,Linecode=BT803_BT803_4_3_4,Length=0.019109000,Units=km
new line.18836375 bus1=BBT152581134.1.2.3.0,bus2=BBT152581135.1.2.3.0,Phases=3,Linecode=BT803_BT803_4_3_4,Length=0.033021000,Units=km
new line.18836377 bus1=BBT152581287.1.2.3.0,bus2=BBT152581288.1.2.3.0,Phases=3,Linecode=BT521_BT521_7_3_1,Length=0.000501000,Units=km
new line.18836378 bus1=BBT152581288.1.2.3.0,bus2=BBT152581289.1.2.3.0,Phases=3,Linecode=BT803_BT803_4_3_4,Length=0.026912000,Units=km
new line.18836379 bus1=BBT152581289.1.2.3.0,bus2=BBT152581290.1.2.3.0,Phases=3,Linecode=BT803_BT803_4_3_4,Length=0.028289000,Units=km
new line.18836380 bus1=BBT152581290.1.2.3.0,bus2=BBT152581291.1.2.3.0,Phases=3,Linecode=BT803_BT803_4_3_4,Length=0.038840000,Units=km
new line.18836381 bus1=BBT152581291.1.2.3.0,bus2=BBT152581292.1.2.3.0,Phases=3,Linecode=BT803_BT803_4_3_4,Length=0.037663000,Units=km
new line.18707471 bus1=BBT148771144.1.2.0,bus2=BBT148771145.1.2.0,Phases=2,Linecode=BT521_BT521_7_2_1,Length=0.000501000,Units=km
new line.18757263 bus1=BBT150132016.1.2.0,bus2=BBT150132017.1.2.0,Phases=2,Linecode=BT521_BT521_7_2_1,Length=0.000501000,Units=km
new line.18757286 bus1=BBT150133151.1.2.0,bus2=BBT150133152.1.2.0,Phases=2,Linecode=BT521_BT521_7_2_1,Length=0.000501000,Units=km
new line.18883497 bus1=BBT153934278.1.2.0,bus2=BBT153934279.1.2.0,Phases=2,Linecode=BT521_BT521_7_2_1,Length=0.000501000,Units=km
new line.18996914 bus1=BBT437869.1.2.3.0,bus2=BBT157366953.1.2.3.0,Phases=3,Linecode=BT514_BT514_5_3_1,Length=0.005832000,Units=km
new line.19103763 bus1=BBT160826519.1.2.0,bus2=BBT160826520.1.2.0,Phases=2,Linecode=BT505_BT505_7_2_1,Length=0.000501000,Units=km
new line.19103995 bus1=BBT500092.1.2.0,bus2=BBT160831585.1.2.0,Phases=2,Linecode=BT808_BT808_4_2_3,Length=0.030468000,Units=km
new line.19105330 bus1=BBT160887711.1.2.0,bus2=BBT160887712.1.2.0,Phases=2,Linecode=BT505_BT505_7_2_1,Length=0.000501000,Units=km
new line.19145428 bus1=BBT162362112.1.2.0,bus2=BBT162362113.1.2.0,Phases=2,Linecode=BT505_BT505_7_2_1,Length=0.000501000,Units=km
new line.19147345 bus1=BBT162445461.1.2.0,bus2=BBT162445462.1.2.0,Phases=2,Linecode=BT505_BT505_7_2_1,Length=0.000501000,Units=km
new line.19317411 bus1=BBT495948.1.2.0,bus2=BBT167953098.1.2.0,Phases=2,Linecode=BT807_BT807_4_2_3,Length=0.040057000,Units=km
new line.19317412 bus1=BBT167953098.1.2.0,bus2=BBT167953099.1.2.0,Phases=2,Linecode=BT807_BT807_4_2_3,Length=0.039059000,Units=km
new line.19317413 bus1=BBT167953099.1.2.0,bus2=BBT167953100.1.2.0,Phases=2,Linecode=BT807_BT807_4_2_3,Length=0.039059000,Units=km
new line.19378281 bus1=BBT169774890.1.2.3.0,bus2=BBT169774891.1.2.3.0,Phases=3,Linecode=BT518_BT518_7_3_1,Length=0.000501000,Units=km
new line.19378285 bus1=BBT169774902.1.2.3.0,bus2=BBT169774903.1.2.3.0,Phases=3,Linecode=BT513_BT513_7_3_1,Length=0.000501000,Units=km
new line.19378286 bus1=BBT169774913.1.2.3.0,bus2=BBT169774914.1.2.3.0,Phases=3,Linecode=BT513_BT513_7_3_1,Length=0.000501000,Units=km
new line.19378288 bus1=BBT169774956.1.2.3.0,bus2=BBT169774957.1.2.3.0,Phases=3,Linecode=BT518_BT518_7_3_1,Length=0.000501000,Units=km
new line.19378291 bus1=BBT169774970.1.2.3.0,bus2=BBT169774971.1.2.3.0,Phases=3,Linecode=BT518_BT518_7_3_1,Length=0.000501000,Units=km
new line.19378292 bus1=BBT169774987.1.2.3.0,bus2=BBT169774988.1.2.3.0,Phases=3,Linecode=BT513_BT513_7_3_1,Length=0.000501000,Units=km
new line.19378293 bus1=BBT169775004.1.2.3.0,bus2=BBT169775005.1.2.3.0,Phases=3,Linecode=BT513_BT513_7_3_1,Length=0.000501000,Units=km
new line.19378327 bus1=BBT169775619.1.2.3.0,bus2=BBT169775620.1.2.3.0,Phases=3,Linecode=BT518_BT518_7_3_1,Length=0.000501000,Units=km
new line.19378328 bus1=BBT169775664.1.2.3.0,bus2=BBT169775665.1.2.3.0,Phases=3,Linecode=BT518_BT518_7_3_1,Length=0.000501000,Units=km
new line.19378340 bus1=BBT169775620.1.2.3.0,bus2=BBT169775826.1.2.3.0,Phases=3,Linecode=BT803_BT803_4_3_4,Length=0.039364000,Units=km
new line.19378341 bus1=BBT169775620.1.2.3.0,bus2=BBT169775892.1.2.3.0,Phases=3,Linecode=BT803_BT803_4_3_4,Length=0.036242000,Units=km
new line.19378343 bus1=BBT169775892.1.2.3.0,bus2=BBT169775894.1.2.3.0,Phases=3,Linecode=BT803_BT803_4_3_4,Length=0.022852000,Units=km
new line.19378344 bus1=BBT169775826.1.2.3.0,bus2=BBT169775897.1.2.3.0,Phases=3,Linecode=BT803_BT803_4_3_4,Length=0.035362000,Units=km
new line.19378345 bus1=BBT169775897.1.2.3.0,bus2=BBT169775898.1.2.3.0,Phases=3,Linecode=BT803_BT803_4_3_4,Length=0.034992000,Units=km
new line.19378346 bus1=BBT169775898.1.2.3.0,bus2=BBT169775910.1.2.3.0,Phases=3,Linecode=BT803_BT803_4_3_4,Length=0.038633000,Units=km
new line.19378347 bus1=BBT169775898.1.2.3.0,bus2=BBT169775913.1.2.3.0,Phases=3,Linecode=BT803_BT803_4_3_4,Length=0.039932000,Units=km
new line.19378348 bus1=BBT169775665.1.2.3.0,bus2=BBT169775919.1.2.3.0,Phases=3,Linecode=BT803_BT803_4_3_4,Length=0.038840000,Units=km
new line.19378349 bus1=BBT169775919.1.2.3.0,bus2=BBT169775922.1.2.3.0,Phases=3,Linecode=BT803_BT803_4_3_4,Length=0.039415000,Units=km
new line.19378350 bus1=BBT169775922.1.2.3.0,bus2=BBT169775926.1.2.3.0,Phases=3,Linecode=BT803_BT803_4_3_4,Length=0.027208000,Units=km
new line.19378351 bus1=BBT169775665.1.2.3.0,bus2=BBT169775929.1.2.3.0,Phases=3,Linecode=BT803_BT803_4_3_4,Length=0.035362000,Units=km
new line.19378352 bus1=BBT169775929.1.2.3.0,bus2=BBT169775930.1.2.3.0,Phases=3,Linecode=BT803_BT803_4_3_4,Length=0.036242000,Units=km
new line.19378353 bus1=BBT169775930.1.2.3.0,bus2=BBT169775933.1.2.3.0,Phases=3,Linecode=BT803_BT803_4_3_4,Length=0.033547000,Units=km
new line.19378354 bus1=BBT169775894.1.2.3.0,bus2=BBT169775934.1.2.3.0,Phases=3,Linecode=BT803_BT803_4_3_4,Length=0.029074000,Units=km
new line.19378356 bus1=BBT169775934.1.2.3.0,bus2=BBT169775952.1.2.3.0,Phases=3,Linecode=BT803_BT803_4_3_4,Length=0.025617000,Units=km
new line.19378421 bus1=BBT169777460.1.2.3.0,bus2=BBT169777461.1.2.3.0,Phases=3,Linecode=BT513_BT513_7_3_1,Length=0.000501000,Units=km
new line.19378425 bus1=BBT169777461.1.2.3.0,bus2=BBT169777505.1.2.3.0,Phases=3,Linecode=BT805_BT805_4_3_4,Length=0.031629000,Units=km
new line.19378428 bus1=BBT169777461.1.2.3.0,bus2=BBT169777506.1.2.3.0,Phases=3,Linecode=BT805_BT805_4_3_4,Length=0.016556000,Units=km
new line.19378431 bus1=BBT169777506.1.2.3.0,bus2=BBT169777507.1.2.3.0,Phases=3,Linecode=BT805_BT805_4_3_4,Length=0.027318000,Units=km
new line.19378433 bus1=BBT169777506.1.2.3.0,bus2=BBT169777508.1.2.3.0,Phases=3,Linecode=BT803_BT803_4_3_4,Length=0.025065000,Units=km
new line.19378435 bus1=BBT169777506.1.2.3.0,bus2=BBT169777517.1.2.3.0,Phases=3,Linecode=BT803_BT803_4_3_4,Length=0.015656000,Units=km
new line.19378436 bus1=BBT169777508.1.2.3.0,bus2=BBT169777518.1.2.3.0,Phases=3,Linecode=BT803_BT803_4_3_4,Length=0.034892000,Units=km
new line.19378439 bus1=BBT169777518.1.2.3.0,bus2=BBT169777535.1.2.3.0,Phases=3,Linecode=BT803_BT803_4_3_4,Length=0.038478000,Units=km
new line.19378441 bus1=BBT169777507.1.2.3.0,bus2=BBT169777539.1.2.3.0,Phases=3,Linecode=BT803_BT803_4_3_4,Length=0.030370000,Units=km
new line.19378442 bus1=BBT169777539.1.2.3.0,bus2=BBT169777567.1.2.3.0,Phases=3,Linecode=BT803_BT803_4_3_4,Length=0.030876000,Units=km
new line.19378443 bus1=BBT169777567.1.2.3.0,bus2=BBT169777568.1.2.3.0,Phases=3,Linecode=BT803_BT803_4_3_4,Length=0.029535000,Units=km
new line.19378444 bus1=BBT169777568.1.2.3.0,bus2=BBT169777569.1.2.3.0,Phases=3,Linecode=BT803_BT803_4_3_4,Length=0.025065000,Units=km
new line.19378445 bus1=BBT169777505.1.2.3.0,bus2=BBT169777570.1.2.3.0,Phases=3,Linecode=BT805_BT805_4_3_4,Length=0.027208000,Units=km
new line.19378447 bus1=BBT169777570.1.2.3.0,bus2=BBT169777599.1.2.3.0,Phases=3,Linecode=BT805_BT805_4_3_4,Length=0.034006000,Units=km
new line.19378448 bus1=BBT169777599.1.2.3.0,bus2=BBT169777600.1.2.3.0,Phases=3,Linecode=BT805_BT805_4_3_4,Length=0.036242000,Units=km
new line.19378449 bus1=BBT169777600.1.2.3.0,bus2=BBT169777608.1.2.3.0,Phases=3,Linecode=BT805_BT805_4_3_4,Length=0.035362000,Units=km
new line.19378450 bus1=BBT169777517.1.2.3.0,bus2=BBT169777618.1.2.3.0,Phases=3,Linecode=BT803_BT803_4_3_4,Length=0.038020000,Units=km
new line.19378498 bus1=BBT169778121.1.2.3.0,bus2=BBT169778122.1.2.3.0,Phases=3,Linecode=BT518_BT518_7_3_1,Length=0.000501000,Units=km
new line.19378500 bus1=BBT169778122.1.2.3.0,bus2=BBT169778127.1.2.3.0,Phases=3,Linecode=BT803_BT803_4_3_4,Length=0.039970000,Units=km
new line.19378501 bus1=BBT169778127.1.2.3.0,bus2=BBT169778128.1.2.3.0,Phases=3,Linecode=BT803_BT803_4_3_4,Length=0.035475000,Units=km
new line.19378502 bus1=BBT169778128.1.2.3.0,bus2=BBT169778129.1.2.3.0,Phases=3,Linecode=BT803_BT803_4_3_4,Length=0.034719000,Units=km
new line.19378505 bus1=BBT169778122.1.2.3.0,bus2=BBT169778150.1.2.3.0,Phases=3,Linecode=BT803_BT803_4_3_4,Length=0.038633000,Units=km
new line.19378506 bus1=BBT169778150.1.2.3.0,bus2=BBT169778151.1.2.3.0,Phases=3,Linecode=BT803_BT803_4_3_4,Length=0.033067000,Units=km
new line.19378508 bus1=BBT169778151.1.2.3.0,bus2=BBT169778153.1.2.3.0,Phases=3,Linecode=BT803_BT803_4_3_4,Length=0.027519000,Units=km
new line.19378510 bus1=BBT169778153.1.2.3.0,bus2=BBT169778162.1.2.3.0,Phases=3,Linecode=BT803_BT803_4_3_4,Length=0.030419000,Units=km
new line.19378538 bus1=BBT169778842.1.2.3.0,bus2=BBT169778843.1.2.3.0,Phases=3,Linecode=BT518_BT518_7_3_1,Length=0.000501000,Units=km
new line.19378539 bus1=BBT169778843.1.2.3.0,bus2=BBT169778859.1.2.3.0,Phases=3,Linecode=BT803_BT803_4_3_4,Length=0.035177000,Units=km
new line.19378540 bus1=BBT169778843.1.2.3.0,bus2=BBT169778874.1.2.3.0,Phases=3,Linecode=BT803_BT803_4_3_4,Length=0.038086000,Units=km
new line.19378541 bus1=BBT169778859.1.2.3.0,bus2=BBT169778875.1.2.3.0,Phases=3,Linecode=BT803_BT803_4_3_4,Length=0.036145000,Units=km
new line.19378542 bus1=BBT169778875.1.2.3.0,bus2=BBT169778883.1.2.3.0,Phases=3,Linecode=BT803_BT803_4_3_4,Length=0.038282000,Units=km
new line.19378543 bus1=BBT169778874.1.2.3.0,bus2=BBT169778892.1.2.3.0,Phases=3,Linecode=BT803_BT803_4_3_4,Length=0.029838000,Units=km
new line.19378544 bus1=BBT169778892.1.2.3.0,bus2=BBT169778893.1.2.3.0,Phases=3,Linecode=BT803_BT803_4_3_4,Length=0.023711000,Units=km
new line.19378545 bus1=BBT169778893.1.2.3.0,bus2=BBT169778902.1.2.3.0,Phases=3,Linecode=BT803_BT803_4_3_4,Length=0.020004000,Units=km
new line.19378546 bus1=BBT169778902.1.2.3.0,bus2=BBT169778903.1.2.3.0,Phases=3,Linecode=BT803_BT803_4_3_4,Length=0.021382000,Units=km
new line.19378547 bus1=BBT169778893.1.2.3.0,bus2=BBT169778919.1.2.3.0,Phases=3,Linecode=BT803_BT803_4_3_4,Length=0.036803000,Units=km
new line.19378551 bus1=BBT169778991.1.2.3.0,bus2=BBT169778992.1.2.3.0,Phases=3,Linecode=BT518_BT518_7_3_1,Length=0.000501000,Units=km
new line.19378552 bus1=BBT169778992.1.2.3.0,bus2=BBT169779051.1.2.3.0,Phases=3,Linecode=BT803_BT803_4_3_4,Length=0.049101000,Units=km
new line.19378553 bus1=BBT169779051.1.2.3.0,bus2=BBT169779052.1.2.3.0,Phases=3,Linecode=BT803_BT803_4_3_4,Length=0.010773000,Units=km
new line.19378554 bus1=BBT169779052.1.2.3.0,bus2=BBT169779053.1.2.3.0,Phases=3,Linecode=BT803_BT803_4_3_4,Length=0.019239000,Units=km
new line.19378558 bus1=BBT169779052.1.2.3.0,bus2=BBT169779072.1.2.3.0,Phases=3,Linecode=BT803_BT803_4_3_4,Length=0.011664000,Units=km
new line.19378561 bus1=BBT169779052.1.2.3.0,bus2=BBT169779075.1.2.3.0,Phases=3,Linecode=BT803_BT803_4_3_4,Length=0.038608000,Units=km
new line.19378583 bus1=BBT169778150.1.2.3.0,bus2=BBT169779327.1.2.3.0,Phases=3,Linecode=BT803_BT803_4_3_4,Length=0.016556000,Units=km
new line.19378584 bus1=BBT169779327.1.2.3.0,bus2=BBT169779329.1.2.3.0,Phases=3,Linecode=BT803_BT803_4_3_4,Length=0.029212000,Units=km
new line.19378586 bus1=BBT169779329.1.2.3.0,bus2=BBT169779338.1.2.3.0,Phases=3,Linecode=BT803_BT803_4_3_4,Length=0.028606000,Units=km
new line.19378590 bus1=BBT169779338.1.2.3.0,bus2=BBT169779343.1.2.3.0,Phases=3,Linecode=BT803_BT803_4_3_4,Length=0.025617000,Units=km
new line.19378595 bus1=BBT169778992.1.2.3.0,bus2=BBT169779347.1.2.3.0,Phases=3,Linecode=BT803_BT803_4_3_4,Length=0.027171000,Units=km
new line.19378597 bus1=BBT169779347.1.2.3.0,bus2=BBT169779385.1.2.3.0,Phases=3,Linecode=BT803_BT803_4_3_4,Length=0.030271000,Units=km
new line.19378600 bus1=BBT169779385.1.2.3.0,bus2=BBT169779474.1.2.3.0,Phases=3,Linecode=BT803_BT803_4_3_4,Length=0.025244000,Units=km
new line.19378603 bus1=BBT169779474.1.2.3.0,bus2=BBT169779500.1.2.3.0,Phases=3,Linecode=BT803_BT803_4_3_4,Length=0.030006000,Units=km
new line.19378605 bus1=BBT169779500.1.2.3.0,bus2=BBT169779501.1.2.3.0,Phases=3,Linecode=BT803_BT803_4_3_4,Length=0.026311000,Units=km
new line.19378606 bus1=BBT169778992.1.2.3.0,bus2=BBT169779516.1.2.3.0,Phases=3,Linecode=BT803_BT803_4_3_4,Length=0.033977000,Units=km
new line.19378607 bus1=BBT169779516.1.2.3.0,bus2=BBT169779531.1.2.3.0,Phases=3,Linecode=BT803_BT803_4_3_4,Length=0.040467000,Units=km
new line.19378608 bus1=BBT169779531.1.2.3.0,bus2=BBT169779532.1.2.3.0,Phases=3,Linecode=BT803_BT803_4_3_4,Length=0.039630000,Units=km
new line.19378625 bus1=BBT169779841.1.2.3.0,bus2=BBT169779842.1.2.3.0,Phases=3,Linecode=BT518_BT518_7_3_1,Length=0.000501000,Units=km
new line.19378628 bus1=BBT169779842.1.2.3.0,bus2=BBT169779864.1.2.3.0,Phases=3,Linecode=BT803_BT803_4_3_4,Length=0.028658000,Units=km
new line.19378629 bus1=BBT169779864.1.2.3.0,bus2=BBT169779866.1.2.3.0,Phases=3,Linecode=BT803_BT803_4_3_4,Length=0.027790000,Units=km
new line.19378631 bus1=BBT169779866.1.2.3.0,bus2=BBT169779867.1.2.3.0,Phases=3,Linecode=BT803_BT803_4_3_4,Length=0.030812000,Units=km
new line.19378632 bus1=BBT169779842.1.2.3.0,bus2=BBT169779895.1.2.3.0,Phases=3,Linecode=BT803_BT803_4_3_4,Length=0.024418000,Units=km
new line.19378633 bus1=BBT169779895.1.2.3.0,bus2=BBT169779910.1.2.3.0,Phases=3,Linecode=BT803_BT803_4_3_4,Length=0.030812000,Units=km
new line.19378634 bus1=BBT169779910.1.2.3.0,bus2=BBT169779911.1.2.3.0,Phases=3,Linecode=BT803_BT803_4_3_4,Length=0.030006000,Units=km
new line.19378636 bus1=BBT169779911.1.2.3.0,bus2=BBT169779912.1.2.3.0,Phases=3,Linecode=BT803_BT803_4_3_4,Length=0.036062000,Units=km
new line.19379465 bus1=BBT152576894.1.2.3.0,bus2=BBT169799376.1.2.3.0,Phases=3,Linecode=BT803_BT803_4_3_4,Length=0.044830000,Units=km
new line.19379466 bus1=BBT169774891.1.2.3.0,bus2=BBT169799522.1.2.3.0,Phases=3,Linecode=BT803_BT803_4_3_4,Length=0.026406000,Units=km
new line.19379471 bus1=BBT169774891.1.2.3.0,bus2=BBT169799585.1.2.3.0,Phases=3,Linecode=BT803_BT803_4_3_4,Length=0.026931000,Units=km
new line.19379473 bus1=BBT169799522.1.2.3.0,bus2=BBT169799616.1.2.3.0,Phases=3,Linecode=BT803_BT803_4_3_4,Length=0.027664000,Units=km
new line.19379474 bus1=BBT169799616.1.2.3.0,bus2=BBT169799617.1.2.3.0,Phases=3,Linecode=BT803_BT803_4_3_4,Length=0.023774000,Units=km
new line.19379475 bus1=BBT169799617.1.2.3.0,bus2=BBT169799653.1.2.3.0,Phases=3,Linecode=BT803_BT803_4_3_4,Length=0.039819000,Units=km
new line.19379476 bus1=BBT169799585.1.2.3.0,bus2=BBT169799699.1.2.3.0,Phases=3,Linecode=BT803_BT803_4_3_4,Length=0.041117000,Units=km
new line.19379661 bus1=BBT169799699.1.2.3.0,bus2=BBT169803659.1.2.3.0,Phases=3,Linecode=BT803_BT803_4_3_4,Length=0.031006000,Units=km
new line.19379665 bus1=BBT169803659.1.2.3.0,bus2=BBT169803663.1.2.3.0,Phases=3,Linecode=BT803_BT803_4_3_4,Length=0.030155000,Units=km
new line.19379667 bus1=BBT169803663.1.2.3.0,bus2=BBT169803666.1.2.3.0,Phases=3,Linecode=BT803_BT803_4_3_4,Length=0.023774000,Units=km
new line.19379673 bus1=BBT169774903.1.2.3.0,bus2=BBT169803687.1.2.3.0,Phases=3,Linecode=BT803_BT803_4_3_4,Length=0.035362000,Units=km
new line.19379675 bus1=BBT169774903.1.2.3.0,bus2=BBT169803837.1.2.3.0,Phases=3,Linecode=BT803_BT803_4_3_4,Length=0.037663000,Units=km
new line.19379684 bus1=BBT169774914.1.2.3.0,bus2=BBT169804005.1.2.3.0,Phases=3,Linecode=BT803_BT803_4_3_4,Length=0.020029000,Units=km
new line.19379685 bus1=BBT169804005.1.2.3.0,bus2=BBT169804027.1.2.3.0,Phases=3,Linecode=BT803_BT803_4_3_4,Length=0.038840000,Units=km
new line.19379686 bus1=BBT169774914.1.2.3.0,bus2=BBT169804030.1.2.3.0,Phases=3,Linecode=BT803_BT803_4_3_4,Length=0.032564000,Units=km
new line.19379688 bus1=BBT169774957.1.2.3.0,bus2=BBT169804051.1.2.3.0,Phases=3,Linecode=BT803_BT803_4_3_4,Length=0.029005000,Units=km
new line.19379690 bus1=BBT169774957.1.2.3.0,bus2=BBT169804088.1.2.3.0,Phases=3,Linecode=BT803_BT803_4_3_4,Length=0.029074000,Units=km
new line.19379691 bus1=BBT169804088.1.2.3.0,bus2=BBT169804127.1.2.3.0,Phases=3,Linecode=BT803_BT803_4_3_4,Length=0.029535000,Units=km