new load.3001106803M1 bus1=RML1050718506.1.2.0,Phases=2,kv=0.24,kW=0.69126,pf=0.92,Vminpu=0.92,Vmaxpu=1.5,model=1,daily=RES2_1,status=variable
new load.3001106836M1 bus1=RML1052811639.1.0,Phases=1,kv=0.127,kW=0.33328,pf=0.92,Vminpu=0.92,Vmaxpu=1.5,model=1,daily=RES2_1,status=variable
new load.3001106864M1 bus1=RML1050692935.1.2.0,Phases=2,kv=0.22,kW=0.95048,pf=0.92,Vminpu=0.92,Vmaxpu=1.5,model=1,daily=RES2_1,status=variable
new load.3001106872M1 bus1=RML1050692872.1.2.3.0,Phases=3,kv=0.22,kW=3.38164,pf=0.92,Vminpu=0.92,Vmaxpu=1.5,model=1,daily=RES3_1,status=variable
new load.3001106880M1 bus1=RML1050693054.1.3.0,Phases=2,kv=0.22,kW=0.85172,pf=0.92,Vminpu=0.92,Vmaxpu=1.5,model=1,daily=RES2_1,status=variable
new load.3001106889M1 bus1=RML1050678480.1.2.0,Phases=2,kv=0.24,kW=0.93558,pf=0.92,Vminpu=0.92,Vmaxpu=1.5,model=1,daily=RES1_1,status=variable
new load.3001106897M1 bus1=RML1050676429.1.0,Phases=1,kv=0.127,kW=0.7674,pf=0.92,Vminpu=0.92,Vmaxpu=1.5,model=1,daily=RES1_1,status=variable
new load.3001106913M1 bus1=RML1050677003.2.3.0,Phases=2,kv=0.22,kW=3.02738,pf=0.92,Vminpu=0.92,Vmaxpu=1.5,model=1,daily=RES3_1,status=variable
new load.3001106921M1 bus1=RML1050677227.2.0,Phases=1,kv=0.127,kW=0.48758,pf=0.92,Vminpu=0.92,Vmaxpu=1.5,model=1,daily=RES2_1,status=variable
new load.3001106930M1 bus1=RML1050677276.1.2.0,Phases=2,kv=0.22,kW=0.71594,pf=0.92,Vminpu=0.92,Vmaxpu=1.5,model=1,daily=RES2_1,status=variable
new load.3001106938M1 bus1=RML1050677297.1.2.0,Phases=2,kv=0.22,kW=1.23438,pf=0.92,Vminpu=0.92,Vmaxpu=1.5,model=1,daily=RES2_1,status=variable
new load.3001106946M1 bus1=RML1050677157.1.2.0,Phases=2,kv=0.22,kW=2.96296,pf=0.92,Vminpu=0.92,Vmaxpu=1.5,model=1,daily=RES3_1,status=variable
new load.3001106954M1 bus1=RML1050677031.3.0,Phases=1,kv=0.127,kW=2.6248,pf=0.92,Vminpu=0.92,Vmaxpu=1.5,model=1,daily=RES3_1,status=variable
new load.3001106962M1 bus1=RML1050678466.1.2.0,Phases=2,kv=0.24,kW=2.6892,pf=0.92,Vminpu=0.92,Vmaxpu=1.5,model=1,daily=RES3_1,status=variable
new load.3001106970M1 bus1=RML1050678564.1.2.0,Phases=2,kv=0.24,kW=0.79618,pf=0.92,Vminpu=0.92,Vmaxpu=1.5,model=1,daily=RES2_1,status=variable
new load.3001106978M1 bus1=RML1050693159.2.0,Phases=1,kv=0.127,kW=4.7987,pf=0.92,Vminpu=0.92,Vmaxpu=1.5,model=1,daily=RES3_1,status=variable
new load.3001106986M1 bus1=RML1050693236.2.3.0,Phases=2,kv=0.22,kW=0.5061,pf=0.92,Vminpu=0.92,Vmaxpu=1.5,model=1,daily=RES2_1,status=variable
new load.3001106995M1 bus1=RML1050693040.1.2.0,Phases=2,kv=0.22,kW=0.46254,pf=0.92,Vminpu=0.92,Vmaxpu=1.5,model=1,daily=RES1_1,status=variable
new load.3001107003M1 bus1=RML1050680629.1.2.0,Phases=2,kv=0.24,kW=0.53696,pf=0.92,Vminpu=0.92,Vmaxpu=1.5,model=1,daily=RES2_1,status=variable
new load.3001107012M1 bus1=RML1050680538.1.2.0,Phases=2,kv=0.24,kW=0.2523,pf=0.92,Vminpu=0.92,Vmaxpu=1.5,model=1,daily=RES1_1,status=variable
new load.3001107021M1 bus1=RML1050680755.1.3.0,Phases=2,kv=0.22,kW=2.89854,pf=0.92,Vminpu=0.92,Vmaxpu=1.5,model=1,daily=RES3_1,status=variable
new load.3001107029M1 bus1=RML1050680811.2.3.0,Phases=2,kv=0.22,kW=0.55548,pf=0.92,Vminpu=0.92,Vmaxpu=1.5,model=1,daily=RES2_1,status=variable
new load.3001107037M1 bus1=RML1050681315.2.3.0,Phases=2,kv=0.22,kW=2.94686,pf=0.92,Vminpu=0.92,Vmaxpu=1.5,model=1,daily=RES3_1,status=variable
new load.3001107045M1 bus1=RML1050681182.2.3.0,Phases=2,kv=0.22,kW=3.1401,pf=0.92,Vminpu=0.92,Vmaxpu=1.5,model=1,daily=RES3_1,status=variable
new load.3001107053M1 bus1=RML1050681385.1.3.0,Phases=2,kv=0.22,kW=0.6172,pf=0.92,Vminpu=0.92,Vmaxpu=1.5,model=1,daily=RES2_1,status=variable
new load.3001106798M1 bus1=RML1050718471.1.2.0,Phases=2,kv=0.24,kW=0.6172,pf=0.92,Vminpu=0.92,Vmaxpu=1.5,model=1,daily=RES2_1,status=variable
new load.3001106806M1 bus1=RML1050718527.2.0,Phases=1,kv=0.12,kW=0.69126,pf=0.92,Vminpu=0.92,Vmaxpu=1.5,model=1,daily=RES2_1,status=variable
new load.3001106830M1 bus1=RML1050671998.1.2.3.0,Phases=3,kv=0.22,kW=0.61102,pf=0.92,Vminpu=0.92,Vmaxpu=1.5,model=1,daily=RES2_1,status=variable
new load.3001106850M1 bus1=RML1050674035.1.2.3.0,Phases=3,kv=0.22,kW=0.5925,pf=0.92,Vminpu=0.92,Vmaxpu=1.5,model=1,daily=RES2_1,status=variable
new load.3001106867M1 bus1=RML1050692921.1.2.0,Phases=2,kv=0.22,kW=1.12722,pf=0.92,Vminpu=0.92,Vmaxpu=1.5,model=1,daily=RES3_1,status=variable
new load.3001106875M1 bus1=RML1050692823.1.2.0,Phases=2,kv=0.22,kW=0.42048,pf=0.92,Vminpu=0.92,Vmaxpu=1.5,model=1,daily=RES1_1,status=variable
new load.3001106884M1 bus1=RML1050693131.1.3.0,Phases=2,kv=0.22,kW=0.67892,pf=0.92,Vminpu=0.92,Vmaxpu=1.5,model=1,daily=RES2_1,status=variable
new load.3001106892M1 bus1=RML1050678508.1.2.0,Phases=2,kv=0.24,kW=0.78384,pf=0.92,Vminpu=0.92,Vmaxpu=1.5,model=1,daily=RES2_1,status=variable
new load.3001106900M1 bus1=RML1050676464.1.2.0,Phases=2,kv=0.22,kW=2.94686,pf=0.92,Vminpu=0.92,Vmaxpu=1.5,model=1,daily=RES3_1,status=variable
new load.3001106908M1 bus1=RML1050677052.1.2.0,Phases=2,kv=0.22,kW=0.86406,pf=0.92,Vminpu=0.92,Vmaxpu=1.5,model=1,daily=RES2_1,status=variable
new load.3001106925M1 bus1=RML1050677241.1.2.0,Phases=2,kv=0.22,kW=0.80852,pf=0.92,Vminpu=0.92,Vmaxpu=1.5,model=1,daily=RES2_1,status=variable
new load.3001106933M1 bus1=RML1050680608.1.2.0,Phases=2,kv=0.24,kW=1.08008,pf=0.92,Vminpu=0.92,Vmaxpu=1.5,model=1,daily=RES2_1,status=variable
new load.3001106941M1 bus1=RML1050677192.1.2.0,Phases=2,kv=0.22,kW=0.78384,pf=0.92,Vminpu=0.92,Vmaxpu=1.5,model=1,daily=RES2_1,status=variable
new load.3001106957M1 bus1=RML1050676506.1.2.0,Phases=2,kv=0.22,kW=4.7665,pf=0.92,Vminpu=0.92,Vmaxpu=1.5,model=1,daily=RES3_1,status=variable
new load.3001106965M1 bus1=RML1050678536.1.2.0,Phases=2,kv=0.24,kW=0.74062,pf=0.92,Vminpu=0.92,Vmaxpu=1.5,model=1,daily=RES2_1,status=variable
new load.3001106973M1 bus1=RML1050693194.1.0,Phases=1,kv=0.127,kW=3.1562,pf=0.92,Vminpu=0.92,Vmaxpu=1.5,model=1,daily=RES3_1,status=variable
new load.3001106981M1 bus1=RML1050693096.1.3.0,Phases=2,kv=0.22,kW=0.51844,pf=0.92,Vminpu=0.92,Vmaxpu=1.5,model=1,daily=RES2_1,status=variable
new load.3001106989M1 bus1=RML1050692837.1.2.0,Phases=2,kv=0.22,kW=0.05256,pf=0.92,Vminpu=0.92,Vmaxpu=1.5,model=1,daily=RES1_1,status=variable
new load.3001106998M1 bus1=RML1050693019.1.2.0,Phases=2,kv=0.22,kW=1.09242,pf=0.92,Vminpu=0.92,Vmaxpu=1.5,model=1,daily=RES2_1,status=variable
new load.3001107006M1 bus1=RML1050680650.1.2.0,Phases=2,kv=0.24,kW=0.91344,pf=0.92,Vminpu=0.92,Vmaxpu=1.5,model=1,daily=RES2_1,status=variable
new load.3001107015M1 bus1=RML1050680559.1.2.0,Phases=2,kv=0.24,kW=0.85172,pf=0.92,Vminpu=0.92,Vmaxpu=1.5,model=1,daily=RES2_1,status=variable
new load.3001107024M1 bus1=RML1050680762.1.3.0,Phases=2,kv=0.22,kW=0.6833,pf=0.92,Vminpu=0.92,Vmaxpu=1.5,model=1,daily=RES1_1,status=variable
new load.3001107032M1 bus1=RML1050681322.1.2.0,Phases=2,kv=0.22,kW=0.87024,pf=0.92,Vminpu=0.92,Vmaxpu=1.5,model=1,daily=RES2_1,status=variable
new load.3001107040M1 bus1=RML1050681266.1.3.0,Phases=2,kv=0.22,kW=0.6172,pf=0.92,Vminpu=0.92,Vmaxpu=1.5,model=1,daily=RES2_1,status=variable
new load.3001107048M1 bus1=RML1050681147.1.3.0,Phases=2,kv=0.22,kW=1.06156,pf=0.92,Vminpu=0.92,Vmaxpu=1.5,model=1,daily=RES2_1,status=variable
new load.3001106799M1 bus1=RML1050718478.1.2.0,Phases=2,kv=0.24,kW=0.65176,pf=0.92,Vminpu=0.92,Vmaxpu=1.5,model=1,daily=RES1_1,status=variable
new load.3001106807M1 bus1=RML1050718534.1.2.0,Phases=2,kv=0.24,kW=0.87024,pf=0.92,Vminpu=0.92,Vmaxpu=1.5,model=1,daily=RES2_1,status=variable
new load.3001106815M1 bus1=RML1050718597.1.2.0,Phases=2,kv=0.24,kW=0.90728,pf=0.92,Vminpu=0.92,Vmaxpu=1.5,model=1,daily=RES2_1,status=variable
new load.3001106831M1 bus1=RML1050671928.1.2.3.0,Phases=3,kv=0.22,kW=0.73446,pf=0.92,Vminpu=0.92,Vmaxpu=1.5,model=1,daily=RES2_1,status=variable
new load.3001106841M1 bus1=RML1050673517.1.2.3.0,Phases=3,kv=0.22,kW=0.67274,pf=0.92,Vminpu=0.92,Vmaxpu=1.5,model=1,daily=RES2_1,status=variable
new load.3001106868M1 bus1=RML1050692914.1.3.0,Phases=2,kv=0.22,kW=0.85172,pf=0.92,Vminpu=0.92,Vmaxpu=1.5,model=1,daily=RES2_1,status=variable
new load.3001106876M1 bus1=RML1050693215.3.0,Phases=1,kv=0.127,kW=0.75914,pf=0.92,Vminpu=0.92,Vmaxpu=1.5,model=1,daily=RES2_1,status=variable
new load.3001106885M1 bus1=RML1050693124.1.2.0,Phases=2,kv=0.22,kW=2.65724,pf=0.92,Vminpu=0.92,Vmaxpu=1.5,model=1,daily=RES4_1,status=variable
new load.3001106893M1 bus1=RML1050676485.1.2.0,Phases=2,kv=0.22,kW=0.56782,pf=0.92,Vminpu=0.92,Vmaxpu=1.5,model=1,daily=RES2_1,status=variable
new load.3001106901M1 bus1=RML1050676471.1.2.0,Phases=2,kv=0.22,kW=0.87642,pf=0.92,Vminpu=0.92,Vmaxpu=1.5,model=1,daily=RES2_1,status=variable
new load.3001106909M1 bus1=RML1050677059.1.2.0,Phases=2,kv=0.22,kW=0.92578,pf=0.92,Vminpu=0.92,Vmaxpu=1.5,model=1,daily=RES2_1,status=variable
new load.3001106917M1 bus1=RML1050677150.1.2.0,Phases=2,kv=0.22,kW=0.67892,pf=0.92,Vminpu=0.92,Vmaxpu=1.5,model=1,daily=RES2_1,status=variable
new load.3001106926M1 bus1=RML1050677234.1.2.0,Phases=2,kv=0.22,kW=0.87024,pf=0.92,Vminpu=0.92,Vmaxpu=1.5,model=1,daily=RES2_1,status=variable
new load.3001106934M1 bus1=RML1050680601.1.2.0,Phases=2,kv=0.24,kW=0.56766,pf=0.92,Vminpu=0.92,Vmaxpu=1.5,model=1,daily=RES1_1,status=variable
new load.3001106942M1 bus1=RML1050677185.1.2.0,Phases=2,kv=0.22,kW=0.02102,pf=0.92,Vminpu=0.92,Vmaxpu=1.5,model=1,daily=RES1_1,status=variable
new load.3001106950M1 bus1=RML1050676989.1.2.0,Phases=2,kv=0.22,kW=3.81642,pf=0.92,Vminpu=0.92,Vmaxpu=1.5,model=1,daily=RES3_1,status=variable
new load.3001106966M1 bus1=RML1050678529.1.2.0,Phases=2,kv=0.24,kW=3.41384,pf=0.92,Vminpu=0.92,Vmaxpu=1.5,model=1,daily=RES3_1,status=variable
new load.3001106974M1 bus1=RML1050693187.1.2.0,Phases=2,kv=0.22,kW=0.8579,pf=0.92,Vminpu=0.92,Vmaxpu=1.5,model=1,daily=RES2_1,status=variable
new load.3001106982M1 bus1=RML1050693089.1.3.0,Phases=2,kv=0.22,kW=1.06774,pf=0.92,Vminpu=0.92,Vmaxpu=1.5,model=1,daily=RES2_1,status=variable
new load.3001106990M1 bus1=RML1050692844.1.2.0,Phases=2,kv=0.22,kW=0.41968,pf=0.92,Vminpu=0.92,Vmaxpu=1.5,model=1,daily=RES2_1,status=variable
new load.3001106999M1 bus1=RML1050680657.1.2.0,Phases=2,kv=0.24,kW=0.6604,pf=0.92,Vminpu=0.92,Vmaxpu=1.5,model=1,daily=RES2_1,status=variable
new load.3001107008M1 bus1=RML1050680510.1.0,Phases=1,kv=0.12,kW=0.73446,pf=0.92,Vminpu=0.92,Vmaxpu=1.5,model=1,daily=RES2_1,status=variable
new load.3001107016M1 bus1=RML1050680566.1.0,Phases=1,kv=0.12,kW=3.07568,pf=0.92,Vminpu=0.92,Vmaxpu=1.5,model=1,daily=RES3_1,status=variable
new load.3001107025M1 bus1=RML1050680769.1.3.0,Phases=2,kv=0.22,kW=0.58016,pf=0.92,Vminpu=0.92,Vmaxpu=1.5,model=1,daily=RES2_1,status=variable
new load.3001107033M1 bus1=RML1050681329.1.2.0,Phases=2,kv=0.22,kW=0.85172,pf=0.92,Vminpu=0.92,Vmaxpu=1.5,model=1,daily=RES2_1,status=variable
new load.3001107041M1 bus1=RML1050681273.1.3.0,Phases=2,kv=0.22,kW=1.16032,pf=0.92,Vminpu=0.92,Vmaxpu=1.5,model=1,daily=RES2_1,status=variable
new load.3001107049M1 bus1=RML1050681154.1.3.0,Phases=2,kv=0.22,kW=1.12328,pf=0.92,Vminpu=0.92,Vmaxpu=1.5,model=1,daily=RES2_1,status=variable
new load.3001106804M1 bus1=RML1050718513.1.2.0,Phases=2,kv=0.24,kW=0.6938,pf=0.92,Vminpu=0.92,Vmaxpu=1.5,model=1,daily=RES1_1,status=variable
new load.3001106812M1 bus1=RML1050718576.1.2.0,Phases=2,kv=0.24,kW=4.00966,pf=0.92,Vminpu=0.92,Vmaxpu=1.5,model=1,daily=RES3_1,status=variable
new load.3001106838M1 bus1=RML1050672866.1.2.3.0,Phases=3,kv=0.22,kW=0.41352,pf=0.92,Vminpu=0.92,Vmaxpu=1.5,model=1,daily=RES2_1,status=variable
new load.3001106865M1 bus1=RML1050692942.1.2.0,Phases=2,kv=0.22,kW=0.2523,pf=0.92,Vminpu=0.92,Vmaxpu=1.5,model=1,daily=RES1_1,status=variable
new load.3001106873M1 bus1=RML1050692879.2.0,Phases=1,kv=0.127,kW=0.8147,pf=0.92,Vminpu=0.92,Vmaxpu=1.5,model=1,daily=RES2_1,status=variable
new load.3001106881M1 bus1=RML1050693061.1.3.0,Phases=2,kv=0.22,kW=3.41384,pf=0.92,Vminpu=0.92,Vmaxpu=1.5,model=1,daily=RES3_1,status=variable
new load.3001106890M1 bus1=RML1050678487.1.2.0,Phases=2,kv=0.24,kW=0.53696,pf=0.92,Vminpu=0.92,Vmaxpu=1.5,model=1,daily=RES2_1,status=variable
new load.3001106898M1 bus1=RML1050676457.1.2.0,Phases=2,kv=0.22,kW=1.13564,pf=0.92,Vminpu=0.92,Vmaxpu=1.5,model=1,daily=RES2_1,status=variable
new load.3001106906M1 bus1=RML1050677080.1.0,Phases=1,kv=0.127,kW=1.20352,pf=0.92,Vminpu=0.92,Vmaxpu=1.5,model=1,daily=RES2_1,status=variable
new load.3001106914M1 bus1=RML1050677101.3.0,Phases=1,kv=0.127,kW=1.10478,pf=0.92,Vminpu=0.92,Vmaxpu=1.5,model=1,daily=RES2_1,status=variable
new load.3001106923M1 bus1=RML1050677220.1.2.0,Phases=2,kv=0.22,kW=0.62954,pf=0.92,Vminpu=0.92,Vmaxpu=1.5,model=1,daily=RES2_1,status=variable
new load.3001106931M1 bus1=RML1050680594.1.2.0,Phases=2,kv=0.24,kW=0.95664,pf=0.92,Vminpu=0.92,Vmaxpu=1.5,model=1,daily=RES2_1,status=variable
new load.3001106947M1 bus1=RML1050677171.1.2.0,Phases=2,kv=0.22,kW=0.59868,pf=0.92,Vminpu=0.92,Vmaxpu=1.5,model=1,daily=RES2_1,status=variable
new load.3001106955M1 bus1=RML1050676415.1.2.0,Phases=2,kv=0.22,kW=0.4814,pf=0.92,Vminpu=0.92,Vmaxpu=1.5,model=1,daily=RES2_1,status=variable
new load.3001106963M1 bus1=RML1050678459.1.2.0,Phases=2,kv=0.24,kW=1.0122,pf=0.92,Vminpu=0.92,Vmaxpu=1.5,model=1,daily=RES2_1,status=variable
new load.3001106971M1 bus1=RML1050693201.1.2.0,Phases=2,kv=0.22,kW=1.08626,pf=0.92,Vminpu=0.92,Vmaxpu=1.5,model=1,daily=RES2_1,status=variable
new load.3001106979M1 bus1=RML1050693110.1.2.0,Phases=2,kv=0.22,kW=0.6833,pf=0.92,Vminpu=0.92,Vmaxpu=1.5,model=1,daily=RES1_1,status=variable
new load.3001106987M1 bus1=RML1050693243.2.3.0,Phases=2,kv=0.22,kW=4.46054,pf=0.92,Vminpu=0.92,Vmaxpu=1.5,model=1,daily=RES3_1,status=variable
new load.3001106996M1 bus1=RML1050693033.1.2.0,Phases=2,kv=0.22,kW=0.64124,pf=0.92,Vminpu=0.92,Vmaxpu=1.5,model=1,daily=RES1_1,status=variable
new load.3001107004M1 bus1=RML1050680636.1.2.0,Phases=2,kv=0.24,kW=0.93196,pf=0.92,Vminpu=0.92,Vmaxpu=1.5,model=1,daily=RES2_1,status=variable
new load.3001107013M1 bus1=RML1050680545.2.0,Phases=1,kv=0.12,kW=0.88876,pf=0.92,Vminpu=0.92,Vmaxpu=1.5,model=1,daily=RES2_1,status=variable
new load.3001107022M1 bus1=RML1050680727.1.2.0,Phases=2,kv=0.22,kW=3.63928,pf=0.92,Vminpu=0.92,Vmaxpu=1.5,model=1,daily=RES3_1,status=variable
new load.3001107030M1 bus1=RML1050680804.1.3.0,Phases=2,kv=0.22,kW=0.27156,pf=0.92,Vminpu=0.92,Vmaxpu=1.5,model=1,daily=RES2_1,status=variable
new load.3001107038M1 bus1=RML1050681252.1.2.0,Phases=2,kv=0.22,kW=0.99368,pf=0.92,Vminpu=0.92,Vmaxpu=1.5,model=1,daily=RES2_1,status=variable
new load.3001107046M1 bus1=RML1050681189.1.2.0,Phases=2,kv=0.22,kW=0.67274,pf=0.92,Vminpu=0.92,Vmaxpu=1.5,model=1,daily=RES2_1,status=variable
new load.3001106800M1 bus1=RML1050718485.1.2.0,Phases=2,kv=0.24,kW=1.12328,pf=0.92,Vminpu=0.92,Vmaxpu=1.5,model=1,daily=RES2_1,status=variable
new load.3001106808M1 bus1=RML1050718541.1.2.0,Phases=2,kv=0.24,kW=0.44438,pf=0.92,Vminpu=0.92,Vmaxpu=1.5,model=1,daily=RES2_1,status=variable
new load.3001106833M1 bus1=RML1050671984.1.2.3.0,Phases=3,kv=0.22,kW=0.84556,pf=0.92,Vminpu=0.92,Vmaxpu=1.5,model=1,daily=RES2_1,status=variable
new load.3001106842M1 bus1=RML1050673517.1.2.3.0,Phases=3,kv=0.22,kW=0.75914,pf=0.92,Vminpu=0.92,Vmaxpu=1.5,model=1,daily=RES2_1,status=variable
new load.3001106852M1 bus1=RML1050674035.1.2.3.0,Phases=3,kv=0.22,kW=0.84098,pf=0.92,Vminpu=0.92,Vmaxpu=1.5,model=1,daily=RES1_1,status=variable
new load.3001106869M1 bus1=RML1050692907.1.3.0,Phases=2,kv=0.22,kW=0.89354,pf=0.92,Vminpu=0.92,Vmaxpu=1.5,model=1,daily=RES1_1,status=variable
new load.3001106877M1 bus1=RML1050693222.1.2.0,Phases=2,kv=0.22,kW=0.55714,pf=0.92,Vminpu=0.92,Vmaxpu=1.5,model=1,daily=RES1_1,status=variable
new load.3001106886M1 bus1=RML1050693117.1.2.0,Phases=2,kv=0.22,kW=2.35104,pf=0.92,Vminpu=0.92,Vmaxpu=1.5,model=1,daily=RES3_1,status=variable
new load.3001106894M1 bus1=RML1050676492.1.2.0,Phases=2,kv=0.22,kW=3.55878,pf=0.92,Vminpu=0.92,Vmaxpu=1.5,model=1,daily=RES3_1,status=variable
new load.3001106902M1 bus1=RML1050676478.2.0,Phases=1,kv=0.127,kW=1.0986,pf=0.92,Vminpu=0.92,Vmaxpu=1.5,model=1,daily=RES2_1,status=variable
new load.3001106910M1 bus1=RML1050677017.1.2.0,Phases=2,kv=0.22,kW=0.49992,pf=0.92,Vminpu=0.92,Vmaxpu=1.5,model=1,daily=RES2_1,status=variable
new load.3001106918M1 bus1=RML1050677143.1.2.0,Phases=2,kv=0.22,kW=3.39774,pf=0.92,Vminpu=0.92,Vmaxpu=1.5,model=1,daily=RES3_1,status=variable
new load.3001106927M1 bus1=RML1050677269.1.2.0,Phases=2,kv=0.22,kW=0.48356,pf=0.92,Vminpu=0.92,Vmaxpu=1.5,model=1,daily=RES1_1,status=variable
new load.3001106935M1 bus1=RML1050680615.1.2.0,Phases=2,kv=0.24,kW=0.57398,pf=0.92,Vminpu=0.92,Vmaxpu=1.5,model=1,daily=RES2_1,status=variable
new load.3001106943M1 bus1=RML1050677199.1.2.0,Phases=2,kv=0.22,kW=3.42994,pf=0.92,Vminpu=0.92,Vmaxpu=1.5,model=1,daily=RES3_1,status=variable
new load.3001106951M1 bus1=RML1050676996.1.2.0,Phases=2,kv=0.22,kW=5.12076,pf=0.92,Vminpu=0.92,Vmaxpu=1.5,model=1,daily=RES3_1,status=variable
new load.3001106959M1 bus1=RML1050678494.1.2.0,Phases=2,kv=0.24,kW=0.92578,pf=0.92,Vminpu=0.92,Vmaxpu=1.5,model=1,daily=RES2_1,status=variable
new load.3001106967M1 bus1=RML1050678543.1.2.0,Phases=2,kv=0.24,kW=0.88258,pf=0.92,Vminpu=0.92,Vmaxpu=1.5,model=1,daily=RES2_1,status=variable
new load.3001106975M1 bus1=RML1050693180.1.2.0,Phases=2,kv=0.22,kW=0.82086,pf=0.92,Vminpu=0.92,Vmaxpu=1.5,model=1,daily=RES2_1,status=variable
new load.3001106983M1 bus1=RML1050693068.1.3.0,Phases=2,kv=0.22,kW=4.37028,pf=0.92,Vminpu=0.92,Vmaxpu=1.5,model=1,daily=RES4_1,status=variable
new load.3001106992M1 bus1=RML1050692900.2.0,Phases=1,kv=0.127,kW=0.79618,pf=0.92,Vminpu=0.92,Vmaxpu=1.5,model=1,daily=RES2_1,status=variable
new load.3001107000M1 bus1=RML1050680664.1.2.0,Phases=2,kv=0.24,kW=1.10606,pf=0.92,Vminpu=0.92,Vmaxpu=1.5,model=1,daily=RES4_1,status=variable
new load.3001107009M1 bus1=RML1050680517.1.2.0,Phases=2,kv=0.24,kW=0.82086,pf=0.92,Vminpu=0.92,Vmaxpu=1.5,model=1,daily=RES2_1,status=variable
new load.3001107017M1 bus1=RML1050680573.1.2.0,Phases=2,kv=0.24,kW=1.08008,pf=0.92,Vminpu=0.92,Vmaxpu=1.5,model=1,daily=RES2_1,status=variable
new load.3001107026M1 bus1=RML1050680776.1.3.0,Phases=2,kv=0.22,kW=2.59258,pf=0.92,Vminpu=0.92,Vmaxpu=1.5,model=1,daily=RES3_1,status=variable
new load.3001107034M1 bus1=RML1050681294.1.2.0,Phases=2,kv=0.22,kW=0.88876,pf=0.92,Vminpu=0.92,Vmaxpu=1.5,model=1,daily=RES2_1,status=variable
new load.3001107042M1 bus1=RML1050681245.1.3.0,Phases=2,kv=0.22,kW=0.70432,pf=0.92,Vminpu=0.92,Vmaxpu=1.5,model=1,daily=RES1_1,status=variable
new load.3001107050M1 bus1=RML1050681364.3.0,Phases=1,kv=0.127,kW=3.6876,pf=0.92,Vminpu=0.92,Vmaxpu=1.5,model=1,daily=RES3_1,status=variable
new load.3001106797M1 bus1=RML1050718464.1.2.0,Phases=2,kv=0.24,kW=0.91344,pf=0.92,Vminpu=0.92,Vmaxpu=1.5,model=1,daily=RES2_1,status=variable
new load.3001106805M1 bus1=RML1050718520.1.0,Phases=1,kv=0.12,kW=0.5925,pf=0.92,Vminpu=0.92,Vmaxpu=1.5,model=1,daily=RES2_1,status=variable
new load.3001106813M1 bus1=RML1050718583.1.2.0,Phases=2,kv=0.24,kW=3.51046,pf=0.92,Vminpu=0.92,Vmaxpu=1.5,model=1,daily=RES3_1,status=variable
new load.3001106828M1 bus1=RML1050673503.1.2.3.0,Phases=3,kv=0.22,kW=0.64806,pf=0.92,Vminpu=0.92,Vmaxpu=1.5,model=1,daily=RES2_1,status=variable
new load.3001106866M1 bus1=RML1050692928.1.2.0,Phases=2,kv=0.22,kW=0.4382,pf=0.92,Vminpu=0.92,Vmaxpu=1.5,model=1,daily=RES2_1,status=variable
new load.3001106874M1 bus1=RML1050692816.1.2.0,Phases=2,kv=0.22,kW=0.97516,pf=0.92,Vminpu=0.92,Vmaxpu=1.5,model=1,daily=RES2_1,status=variable
new load.3001106883M1 bus1=RML1050693138.1.3.0,Phases=2,kv=0.22,kW=0.99984,pf=0.92,Vminpu=0.92,Vmaxpu=1.5,model=1,daily=RES2_1,status=variable
new load.3001106891M1 bus1=RML1050678515.1.2.0,Phases=2,kv=0.24,kW=0.8332,pf=0.92,Vminpu=0.92,Vmaxpu=1.5,model=1,daily=RES2_1,status=variable
new load.3001106899M1 bus1=RML1050676450.1.2.0,Phases=2,kv=0.22,kW=0.64744,pf=0.92,Vminpu=0.92,Vmaxpu=1.5,model=1,daily=RES4_1,status=variable
new load.3001106907M1 bus1=RML1053827052.1.2.3.0,Phases=3,kv=0.22,kW=11.2936,pf=0.92,Vminpu=0.92,Vmaxpu=1.5,model=1,daily=COM4_1,status=variable
new load.3001106915M1 bus1=RML1050677108.1.2.0,Phases=2,kv=0.22,kW=3.83252,pf=0.92,Vminpu=0.92,Vmaxpu=1.5,model=1,daily=RES3_1,status=variable
new load.3001106924M1 bus1=RML1050677213.1.2.0,Phases=2,kv=0.22,kW=3.57488,pf=0.92,Vminpu=0.92,Vmaxpu=1.5,model=1,daily=RES3_1,status=variable
new load.3001106932M1 bus1=RML1050680587.1.2.0,Phases=2,kv=0.24,kW=0.56766,pf=0.92,Vminpu=0.92,Vmaxpu=1.5,model=1,daily=RES1_1,status=variable
new load.3001106940M1 bus1=RML1050677255.1.2.0,Phases=2,kv=0.22,kW=4.13848,pf=0.92,Vminpu=0.92,Vmaxpu=1.5,model=1,daily=RES3_1,status=variable
new load.3001106948M1 bus1=RML1050677178.1.2.0,Phases=2,kv=0.22,kW=0.64188,pf=0.92,Vminpu=0.92,Vmaxpu=1.5,model=1,daily=RES2_1,status=variable
new load.3001106964M1 bus1=RML1050678452.1.2.0,Phases=2,kv=0.24,kW=0.92578,pf=0.92,Vminpu=0.92,Vmaxpu=1.5,model=1,daily=RES2_1,status=variable
new load.3001106972M1 bus1=RML1050693208.1.2.0,Phases=2,kv=0.22,kW=3.37214,pf=0.92,Vminpu=0.92,Vmaxpu=1.5,model=1,daily=RES4_1,status=variable
new load.3001106980M1 bus1=RML1050693103.2.0,Phases=1,kv=0.127,kW=3.7359,pf=0.92,Vminpu=0.92,Vmaxpu=1.5,model=1,daily=RES3_1,status=variable
new load.3001106988M1 bus1=RML1050692830.1.2.0,Phases=2,kv=0.22,kW=0.45054,pf=0.92,Vminpu=0.92,Vmaxpu=1.5,model=1,daily=RES2_1,status=variable
new load.3001106997M1 bus1=RML1050693026.1.2.0,Phases=2,kv=0.22,kW=3.2045,pf=0.92,Vminpu=0.92,Vmaxpu=1.5,model=1,daily=RES3_1,status=variable
new load.3001107005M1 bus1=RML1050680643.1.2.0,Phases=2,kv=0.24,kW=3.6876,pf=0.92,Vminpu=0.92,Vmaxpu=1.5,model=1,daily=RES3_1,status=variable
new load.3001107014M1 bus1=RML1050680552.1.2.0,Phases=2,kv=0.24,kW=1.0986,pf=0.92,Vminpu=0.92,Vmaxpu=1.5,model=1,daily=RES2_1,status=variable
new load.3001107023M1 bus1=RML1050680734.1.2.0,Phases=2,kv=0.22,kW=4.02576,pf=0.92,Vminpu=0.92,Vmaxpu=1.5,model=1,daily=RES3_1,status=variable
new load.3001107031M1 bus1=RML1050680797.1.3.0,Phases=2,kv=0.22,kW=3.94524,pf=0.92,Vminpu=0.92,Vmaxpu=1.5,model=1,daily=RES3_1,status=variable
new load.3001107039M1 bus1=RML1050681259.1.2.0,Phases=2,kv=0.22,kW=0.51226,pf=0.92,Vminpu=0.92,Vmaxpu=1.5,model=1,daily=RES2_1,status=variable
new load.3001107047M1 bus1=RML1050681196.1.2.0,Phases=2,kv=0.22,kW=0.77148,pf=0.92,Vminpu=0.92,Vmaxpu=1.5,model=1,daily=RES2_1,status=variable
new load.3001107055M1 bus1=RML1050681406.2.0,Phases=1,kv=0.127,kW=0.93814,pf=0.92,Vminpu=0.92,Vmaxpu=1.5,model=1,daily=RES2_1,status=variable
new load.3001107063M1 bus1=RML1050681560.1.2.0,Phases=2,kv=0.22,kW=0.80234,pf=0.92,Vminpu=0.92,Vmaxpu=1.5,model=1,daily=RES2_1,status=variable
new load.3001107072M1 bus1=RML1050681469.1.2.0,Phases=2,kv=0.22,kW=3.02738,pf=0.92,Vminpu=0.92,Vmaxpu=1.5,model=1,daily=RES3_1,status=variable
new load.3001107080M1 bus1=RML1050681350.1.3.0,Phases=2,kv=0.22,kW=0.95048,pf=0.92,Vminpu=0.92,Vmaxpu=1.5,model=1,daily=RES2_1,status=variable
new load.3001107089M1 bus1=RML1050681224.1.3.0,Phases=2,kv=0.22,kW=0.82086,pf=0.92,Vminpu=0.92,Vmaxpu=1.5,model=1,daily=RES2_1,status=variable
new load.3001107105M1 bus1=RML1050674462.1.0,Phases=1,kv=0.127,kW=0.80852,pf=0.92,Vminpu=0.92,Vmaxpu=1.5,model=1,daily=RES2_1,status=variable
new load.3001107113M1 bus1=RML1050674518.1.2.0,Phases=2,kv=0.22,kW=1.10478,pf=0.92,Vminpu=0.92,Vmaxpu=1.5,model=1,daily=RES2_1,status=variable
new load.3001107129M1 bus1=RML1050674728.2.3.0,Phases=2,kv=0.22,kW=4.2512,pf=0.92,Vminpu=0.92,Vmaxpu=1.5,model=1,daily=RES3_1,status=variable
new load.3001107137M1 bus1=RML1050680839.1.2.0,Phases=2,kv=0.22,kW=1.1418,pf=0.92,Vminpu=0.92,Vmaxpu=1.5,model=1,daily=RES2_1,status=variable
new load.3001107145M1 bus1=RML1050680720.1.2.0,Phases=2,kv=0.24,kW=1.02454,pf=0.92,Vminpu=0.92,Vmaxpu=1.5,model=1,daily=RES2_1,status=variable
new load.3001107153M1 bus1=RML1050676275.1.2.0,Phases=2,kv=0.22,kW=6.42926,pf=0.92,Vminpu=0.92,Vmaxpu=1.5,model=1,daily=RES6_1,status=variable
new load.3001107161M1 bus1=RML1050679803.1.2.0,Phases=2,kv=0.24,kW=0.07358,pf=0.92,Vminpu=0.92,Vmaxpu=1.5,model=1,daily=RES1_1,status=variable
new load.3001107169M1 bus1=RML1050679915.1.2.0,Phases=2,kv=0.24,kW=2.20612,pf=0.92,Vminpu=0.92,Vmaxpu=1.5,model=1,daily=RES3_1,status=variable
new load.3001107177M1 bus1=RML1050679138.1.2.0,Phases=2,kv=0.24,kW=0.45054,pf=0.92,Vminpu=0.92,Vmaxpu=1.5,model=1,daily=RES2_1,status=variable
new load.3001107185M1 bus1=RML1050679054.1.2.0,Phases=2,kv=0.24,kW=0.48758,pf=0.92,Vminpu=0.92,Vmaxpu=1.5,model=1,daily=RES2_1,status=variable
new load.3001107193M1 bus1=RML1050678879.1.2.0,Phases=2,kv=0.24,kW=0.70976,pf=0.92,Vminpu=0.92,Vmaxpu=1.5,model=1,daily=RES2_1,status=variable
new load.3001107202M1 bus1=RML1050678823.1.2.0,Phases=2,kv=0.24,kW=0.9011,pf=0.92,Vminpu=0.92,Vmaxpu=1.5,model=1,daily=RES2_1,status=variable
new load.3001107210M1 bus1=RML1050678788.1.2.0,Phases=2,kv=0.24,kW=2.6731,pf=0.92,Vminpu=0.92,Vmaxpu=1.5,model=1,daily=RES3_1,status=variable
new load.3001107219M1 bus1=RML1050678921.1.2.0,Phases=2,kv=0.24,kW=0.62336,pf=0.92,Vminpu=0.92,Vmaxpu=1.5,model=1,daily=RES2_1,status=variable
new load.3001107227M1 bus1=RML1050679026.1.2.0,Phases=2,kv=0.24,kW=0.32712,pf=0.92,Vminpu=0.92,Vmaxpu=1.5,model=1,daily=RES2_1,status=variable
new load.3001107237M1 bus1=RML1050679859.1.2.0,Phases=2,kv=0.24,kW=0.82086,pf=0.92,Vminpu=0.92,Vmaxpu=1.5,model=1,daily=RES2_1,status=variable
new load.3001107246M1 bus1=RML1050679579.1.2.0,Phases=2,kv=0.24,kW=5.13686,pf=0.92,Vminpu=0.92,Vmaxpu=1.5,model=1,daily=RES3_1,status=variable
new load.3001107254M1 bus1=RML1050692963.1.2.0,Phases=2,kv=0.22,kW=3.80032,pf=0.92,Vminpu=0.92,Vmaxpu=1.5,model=1,daily=RES3_1,status=variable
new load.3001107263M1 bus1=RML1050678830.1.2.0,Phases=2,kv=0.24,kW=0.64188,pf=0.92,Vminpu=0.92,Vmaxpu=1.5,model=1,daily=RES2_1,status=variable
new load.3001107271M1 bus1=RML1050679628.1.2.0,Phases=2,kv=0.24,kW=0.80234,pf=0.92,Vminpu=0.92,Vmaxpu=1.5,model=1,daily=RES2_1,status=variable
new load.3001107280M1 bus1=RML1050679677.1.2.0,Phases=2,kv=0.24,kW=1.04922,pf=0.92,Vminpu=0.92,Vmaxpu=1.5,model=1,daily=RES2_1,status=variable
new load.3001107288M1 bus1=RML1050679691.1.2.0,Phases=2,kv=0.24,kW=3.5205,pf=0.92,Vminpu=0.92,Vmaxpu=1.5,model=1,daily=RES4_1,status=variable
new load.3001107057M1 bus1=RML1050681413.1.3.0,Phases=2,kv=0.22,kW=0.88258,pf=0.92,Vminpu=0.92,Vmaxpu=1.5,model=1,daily=RES2_1,status=variable
new load.3001107065M1 bus1=RML1050681546.1.2.0,Phases=2,kv=0.22,kW=2.6087,pf=0.92,Vminpu=0.92,Vmaxpu=1.5,model=1,daily=RES3_1,status=variable
new load.3001107074M1 bus1=RML1050681434.1.2.0,Phases=2,kv=0.22,kW=4.92752,pf=0.92,Vminpu=0.92,Vmaxpu=1.5,model=1,daily=RES3_1,status=variable
new load.3001107082M1 bus1=RML1050681336.2.0,Phases=1,kv=0.127,kW=0.56782,pf=0.92,Vminpu=0.92,Vmaxpu=1.5,model=1,daily=RES2_1,status=variable
new load.3001107091M1 bus1=RML1050681287.1.2.0,Phases=2,kv=0.22,kW=0.80234,pf=0.92,Vminpu=0.92,Vmaxpu=1.5,model=1,daily=RES2_1,status=variable
new load.3001107099M1 bus1=RML1050674644.1.3.0,Phases=2,kv=0.22,kW=0.8579,pf=0.92,Vminpu=0.92,Vmaxpu=1.5,model=1,daily=RES2_1,status=variable
new load.3001107107M1 bus1=RML1050674476.2.3.0,Phases=2,kv=0.22,kW=2.75362,pf=0.92,Vminpu=0.92,Vmaxpu=1.5,model=1,daily=RES3_1,status=variable
new load.3001107115M1 bus1=RML1050674539.1.3.0,Phases=2,kv=0.22,kW=0.72828,pf=0.92,Vminpu=0.92,Vmaxpu=1.5,model=1,daily=RES2_1,status=variable
new load.3001107123M1 bus1=RML1050674595.3.0,Phases=1,kv=0.127,kW=2.1256,pf=0.92,Vminpu=0.92,Vmaxpu=1.5,model=1,daily=RES3_1,status=variable
new load.3001107131M1 bus1=RML1050674742.1.3.0,Phases=2,kv=0.22,kW=0.86406,pf=0.92,Vminpu=0.92,Vmaxpu=1.5,model=1,daily=RES2_1,status=variable
new load.3001107139M1 bus1=RML1050680825.1.0,Phases=1,kv=0.127,kW=4.34782,pf=0.92,Vminpu=0.92,Vmaxpu=1.5,model=1,daily=RES3_1,status=variable
new load.3001107155M1 bus1=RML1050676359.1.2.0,Phases=2,kv=0.22,kW=0.69126,pf=0.92,Vminpu=0.92,Vmaxpu=1.5,model=1,daily=RES2_1,status=variable
new load.3001107163M1 bus1=RML1050679789.1.2.0,Phases=2,kv=0.24,kW=0.84556,pf=0.92,Vminpu=0.92,Vmaxpu=1.5,model=1,daily=RES2_1,status=variable
new load.3001107171M1 bus1=RML1050679943.1.2.0,Phases=2,kv=0.24,kW=0.96282,pf=0.92,Vminpu=0.92,Vmaxpu=1.5,model=1,daily=RES2_1,status=variable
new load.3001107179M1 bus1=RML1050679082.1.0,Phases=1,kv=0.12,kW=0.85172,pf=0.92,Vminpu=0.92,Vmaxpu=1.5,model=1,daily=RES2_1,status=variable
new load.3001107187M1 bus1=RML1050678977.1.2.0,Phases=2,kv=0.24,kW=1.12946,pf=0.92,Vminpu=0.92,Vmaxpu=1.5,model=1,daily=RES2_1,status=variable
new load.3001107195M1 bus1=RML1050678711.1.2.0,Phases=2,kv=0.24,kW=1.03688,pf=0.92,Vminpu=0.92,Vmaxpu=1.5,model=1,daily=RES2_1,status=variable
new load.3001107204M1 bus1=RML1050678809.2.0,Phases=1,kv=0.12,kW=3.60708,pf=0.92,Vminpu=0.92,Vmaxpu=1.5,model=1,daily=RES3_1,status=variable
new load.3001107213M1 bus1=RML1050678746.2.0,Phases=1,kv=0.12,kW=1.06774,pf=0.92,Vminpu=0.92,Vmaxpu=1.5,model=1,daily=RES2_1,status=variable
new load.3001107221M1 bus1=RML1050678991.1.2.0,Phases=2,kv=0.24,kW=0.74636,pf=0.92,Vminpu=0.92,Vmaxpu=1.5,model=1,daily=RES1_1,status=variable
new load.3001107229M1 bus1=RML1050679950.1.2.0,Phases=2,kv=0.24,kW=3.6715,pf=0.92,Vminpu=0.92,Vmaxpu=1.5,model=1,daily=RES3_1,status=variable
new load.3001107248M1 bus1=RML1050692998.1.2.0,Phases=2,kv=0.22,kW=0.6604,pf=0.92,Vminpu=0.92,Vmaxpu=1.5,model=1,daily=RES2_1,status=variable
new load.3001107256M1 bus1=RML1050692956.1.2.0,Phases=2,kv=0.22,kW=1.04922,pf=0.92,Vminpu=0.92,Vmaxpu=1.5,model=1,daily=RES2_1,status=variable
new load.3001107265M1 bus1=RML1050679663.1.2.0,Phases=2,kv=0.24,kW=0.72212,pf=0.92,Vminpu=0.92,Vmaxpu=1.5,model=1,daily=RES2_1,status=variable
new load.3001107282M1 bus1=RML1050679712.1.2.0,Phases=2,kv=0.24,kW=4.55716,pf=0.92,Vminpu=0.92,Vmaxpu=1.5,model=1,daily=RES3_1,status=variable
new load.3001106802M1 bus1=RML1050718499.1.2.0,Phases=2,kv=0.24,kW=0.89354,pf=0.92,Vminpu=0.92,Vmaxpu=1.5,model=1,daily=RES1_1,status=variable
new load.3001106810M1 bus1=RML1050718562.2.0,Phases=1,kv=0.12,kW=0.87024,pf=0.92,Vminpu=0.92,Vmaxpu=1.5,model=1,daily=RES2_1,status=variable