new line.RML10037897 bus1=BBT2380047.1.3.0,bus2=RML1060037897.1.3.0,Phases=2,Linecode=CABBTG05_4_2,Length=0.017000000,Units=km
new line.RML10037898 bus1=BBT53146223.1.2.0,bus2=RML1060037898.1.2.0,Phases=2,Linecode=CABBTG05_4_2,Length=0.017000000,Units=km
new line.RML10038348 bus1=BBT54917482.1.2.0,bus2=RML1060038348.1.2.0,Phases=2,Linecode=CABBTG05_4_2,Length=0.017000000,Units=km
new line.RML10038352 bus1=BBT432325.2.0,bus2=RML1060038352.2.0,Phases=1,Linecode=CABBTG01_4_1,Length=0.017000000,Units=km
new line.RML10038356 bus1=BBT432444.1.2.0,bus2=RML1060038356.1.2.0,Phases=2,Linecode=CABBTG05_4_2,Length=0.014000000,Units=km
new line.RML10039475 bus1=BBT2859246.1.0,bus2=RML1060039475.1.0,Phases=1,Linecode=CABBTG02_4_1,Length=0.017000000,Units=km
new line.RML10040197 bus1=BBT446241.1.2.0,bus2=RML1060040197.1.2.0,Phases=2,Linecode=CABBTG05_4_2,Length=0.017000000,Units=km
new line.RML10040201 bus1=BBT429476.1.2.0,bus2=RML1060040201.1.2.0,Phases=2,Linecode=CABBTG05_4_2,Length=0.017000000,Units=km
new line.RML10040698 bus1=BBT584687.1.0,bus2=RML1060040698.1.0,Phases=1,Linecode=CABBTG02_4_1,Length=0.017000000,Units=km
new line.RML10041769 bus1=BBT145976821.1.3.0,bus2=RML1060041769.1.3.0,Phases=2,Linecode=CABBTG05_4_2,Length=0.017000000,Units=km
new line.RML10041899 bus1=BBT2539997.1.2.0,bus2=RML1060041899.1.2.0,Phases=2,Linecode=CABBTG05_4_2,Length=0.017000000,Units=km
new line.RML10042135 bus1=BBT2291742.1.3.0,bus2=RML1060042135.1.3.0,Phases=2,Linecode=CABBTG05_4_2,Length=0.017000000,Units=km
new line.RML10042189 bus1=BBT429672.2.0,bus2=RML1060042189.2.0,Phases=1,Linecode=CABBTG02_4_1,Length=0.017000000,Units=km
new line.RML10042630 bus1=BBT3092535.3.0,bus2=RML1060042630.3.0,Phases=1,Linecode=CABBTG01_4_1,Length=0.017000000,Units=km
new line.RML10055880 bus1=BBT3280352.1.0,bus2=RML1060055880.1.0,Phases=1,Linecode=CABBTG02_4_1,Length=0.017000000,Units=km
new line.RML10058651 bus1=BBT3093165.1.2.0,bus2=RML1060058651.1.2.0,Phases=2,Linecode=CABBTG05_4_2,Length=0.018000000,Units=km
new line.RML10058717 bus1=BBT432276.1.2.0,bus2=RML1060058717.1.2.0,Phases=2,Linecode=CABBTG04_4_2,Length=0.015000000,Units=km
new line.RML10058724 bus1=BBT428846.2.0,bus2=RML1060058724.2.0,Phases=1,Linecode=CABBTG02_4_1,Length=0.020000000,Units=km
new line.RML10058748 bus1=BBT437540.3.0,bus2=RML1060058748.3.0,Phases=1,Linecode=CABBTG02_4_1,Length=0.017000000,Units=km
new line.RML10058760 bus1=BBT3336296.1.2.0,bus2=RML1060058760.1.2.0,Phases=2,Linecode=CABBTG05_4_2,Length=0.006000000,Units=km
new line.RML10058779 bus1=BBT3293211.1.0,bus2=RML1060058779.1.0,Phases=1,Linecode=CABBTG02_4_1,Length=0.006000000,Units=km
new line.RML10059310 bus1=BBT65910646.1.2.3.0,bus2=RML1060059310.1.2.3.0,Phases=3,Linecode=CABBTG06_4_3,Length=0.017000000,Units=km
new line.RML10059313 bus1=BBT2380124.1.2.0,bus2=RML1060059313.1.2.0,Phases=2,Linecode=CABBTG05_4_2,Length=0.017000000,Units=km
new line.RML10059688 bus1=BBT606730.1.2.0,bus2=RML1060059688.1.2.0,Phases=2,Linecode=CABBTG05_4_2,Length=0.017000000,Units=km
new line.RML10059702 bus1=BBT433529.1.2.0,bus2=RML1060059702.1.2.0,Phases=2,Linecode=CABBTG05_4_2,Length=0.017000000,Units=km
new line.RML10061022 bus1=BBT6267245.1.2.0,bus2=RML1060061022.1.2.0,Phases=2,Linecode=CABBTG05_4_2,Length=0.017000000,Units=km
new line.RML10061023 bus1=BBT6267245.1.2.3.0,bus2=RML1060061023.1.2.3.0,Phases=3,Linecode=CABBTG06_4_3,Length=0.020000000,Units=km
new line.RML10061375 bus1=BBT466373.1.2.0,bus2=RML1060061375.1.2.0,Phases=2,Linecode=CABBTG05_4_2,Length=0.017000000,Units=km
new line.RML10062108 bus1=BBT436665.1.2.3.0,bus2=RML1060062108.1.2.3.0,Phases=3,Linecode=CABBTG06_4_3,Length=0.017000000,Units=km
new line.RML10062823 bus1=BBT432332.1.2.0,bus2=RML1060062823.1.2.0,Phases=2,Linecode=CABBTG04_4_2,Length=0.017000000,Units=km
new line.RML10062826 bus1=BBT429672.1.2.0,bus2=RML1060062826.1.2.0,Phases=2,Linecode=CABBTG04_4_2,Length=0.017000000,Units=km
new line.RML10063674 bus1=BBT435272.1.0,bus2=RML1060063674.1.0,Phases=1,Linecode=CABBTG02_4_1,Length=0.017000000,Units=km
new line.RML10063682 bus1=BBT435097.1.2.3.0,bus2=RML1060063682.1.2.3.0,Phases=3,Linecode=CABBTG08_4_3,Length=0.017000000,Units=km
new line.RML10063683 bus1=BBT436287.1.2.0,bus2=RML1060063683.1.2.0,Phases=2,Linecode=CABBTG05_4_2,Length=0.017000000,Units=km
new line.RML10063693 bus1=BBT434768.1.2.3.0,bus2=RML1060063693.1.2.3.0,Phases=3,Linecode=CABBTG06_4_3,Length=0.017000000,Units=km
new line.RML10063699 bus1=BBT3239129.1.2.0,bus2=RML1060063699.1.2.0,Phases=2,Linecode=CABBTG05_4_2,Length=0.017000000,Units=km
new line.RML10064211 bus1=BBT2379809.1.0,bus2=RML1060064211.1.0,Phases=1,Linecode=CABBTG02_4_1,Length=0.017000000,Units=km
new line.RML10064213 bus1=BBT430960.1.0,bus2=RML1060064213.1.0,Phases=1,Linecode=CABBTG02_4_1,Length=0.017000000,Units=km
new line.RML10064215 bus1=BBT3092360.1.2.0,bus2=RML1060064215.1.2.0,Phases=2,Linecode=CABBTG05_4_2,Length=0.017000000,Units=km
new line.RML10064216 bus1=BBT3031432.1.2.0,bus2=RML1060064216.1.2.0,Phases=2,Linecode=CABBTG05_4_2,Length=0.017000000,Units=km
new line.RML10064219 bus1=BBT3031432.1.2.0,bus2=RML1060064219.1.2.0,Phases=2,Linecode=CABBTG05_4_2,Length=0.017000000,Units=km
new line.RML10067025 bus1=BBT2268145.2.0,bus2=RML1060067025.2.0,Phases=1,Linecode=CABBTG01_4_1,Length=0.015000000,Units=km
new line.RML10067330 bus1=BBT436644.1.2.3.0,bus2=RML1060067330.1.2.3.0,Phases=3,Linecode=CABBTG11_4_3,Length=0.029000000,Units=km
new line.RML10067337 bus1=BBT436644.1.2.3.0,bus2=RML1060067337.1.2.3.0,Phases=3,Linecode=CABBTG06_4_3,Length=0.029000000,Units=km
new line.RML10067352 bus1=BBT501947.1.2.0,bus2=RML1060067352.1.2.0,Phases=2,Linecode=CABBTG05_4_2,Length=0.010000000,Units=km
new line.RML10067353 bus1=BBT139302909.1.2.0,bus2=RML1060067353.1.2.0,Phases=2,Linecode=CABBTG05_4_2,Length=0.010000000,Units=km
new line.RML10070347 bus1=BBT606681.1.0,bus2=RML1060070347.1.0,Phases=1,Linecode=CABBTG02_4_1,Length=0.017000000,Units=km
new line.RML10070351 bus1=BBT434229.1.0,bus2=RML1060070351.1.0,Phases=1,Linecode=CABBTG02_4_1,Length=0.017000000,Units=km
new line.RML10070352 bus1=BBT2379788.1.0,bus2=RML1060070352.1.0,Phases=1,Linecode=CABBTG02_4_1,Length=0.017000000,Units=km
new line.RML10070353 bus1=BBT2379788.1.0,bus2=RML1060070353.1.0,Phases=1,Linecode=CABBTG02_4_1,Length=0.017000000,Units=km
new line.RML10070356 bus1=BBT2379802.1.0,bus2=RML1060070356.1.0,Phases=1,Linecode=CABBTG02_4_1,Length=0.017000000,Units=km
new line.RML10070364 bus1=BBT2379802.1.0,bus2=RML1060070364.1.0,Phases=1,Linecode=CABBTG02_4_1,Length=0.017000000,Units=km
new line.RML10070370 bus1=BBT3092787.1.2.0,bus2=RML1060070370.1.2.0,Phases=2,Linecode=CABBTG05_4_2,Length=0.017000000,Units=km
new line.RML10070375 bus1=BBT3092843.1.2.0,bus2=RML1060070375.1.2.0,Phases=2,Linecode=CABBTG05_4_2,Length=0.017000000,Units=km
new line.RML10070376 bus1=BBT3092843.1.2.0,bus2=RML1060070376.1.2.0,Phases=2,Linecode=CABBTG05_4_2,Length=0.017000000,Units=km
new line.RML10070882 bus1=BBT465617.1.2.0,bus2=RML1060070882.1.2.0,Phases=2,Linecode=CABBTG04_4_2,Length=0.020000000,Units=km
new line.RML10071307 bus1=BBT432325.1.0,bus2=RML1060071307.1.0,Phases=1,Linecode=CABBTG02_4_1,Length=0.017000000,Units=km
new line.RML10072172 bus1=BBT148771145.1.2.0,bus2=RML1060072172.1.2.0,Phases=2,Linecode=CABBTG04_4_2,Length=0.017000000,Units=km
new line.RML10072185 bus1=BBT501821.1.0,bus2=RML1060072185.1.0,Phases=1,Linecode=CABBTG02_4_1,Length=0.017000000,Units=km
new line.RML10072419 bus1=BBT142944232.1.2.3.0,bus2=RML1060072419.1.2.3.0,Phases=3,Linecode=CABBTG12_4_3,Length=0.017000000,Units=km
new line.RML10072988 bus1=BBT466786.1.0,bus2=RML1060072988.1.0,Phases=1,Linecode=CABBTG01_4_1,Length=0.018000000,Units=km
new line.RML10074183 bus1=BBT3293197.1.2.0,bus2=RML1060074183.1.2.0,Phases=2,Linecode=CABBTG05_4_2,Length=0.017000000,Units=km
new line.RML10074860 bus1=BBT149191252.1.2.0,bus2=RML1060074860.1.2.0,Phases=2,Linecode=CABBTG05_4_2,Length=0.017000000,Units=km
new line.RML10074865 bus1=BBT149191232.1.2.0,bus2=RML1060074865.1.2.0,Phases=2,Linecode=CABBTG05_4_2,Length=0.017000000,Units=km
new line.RML10074866 bus1=BBT149191232.1.2.0,bus2=RML1060074866.1.2.0,Phases=2,Linecode=CABBTG05_4_2,Length=0.017000000,Units=km
new line.RML10079491 bus1=BBT2953935.1.2.0,bus2=RML1060079491.1.2.0,Phases=2,Linecode=CABBTG05_4_2,Length=0.017000000,Units=km
new line.RML10080261 bus1=BBT2954040.1.2.0,bus2=RML1060080261.1.2.0,Phases=2,Linecode=CABBTG05_4_2,Length=0.017000000,Units=km
new line.RML10080549 bus1=BBT504236.1.2.0,bus2=RML1060080549.1.2.0,Phases=2,Linecode=CABBTG05_4_2,Length=0.017000000,Units=km
new line.RML10081162 bus1=BBT149191252.1.0,bus2=RML1060081162.1.0,Phases=1,Linecode=CABBTG02_4_1,Length=0.017000000,Units=km
new line.RML10081163 bus1=BBT149191252.1.0,bus2=RML1060081163.1.0,Phases=1,Linecode=CABBTG02_4_1,Length=0.017000000,Units=km
new line.RML10081166 bus1=BBT149191232.1.0,bus2=RML1060081166.1.0,Phases=1,Linecode=CABBTG02_4_1,Length=0.017000000,Units=km
new line.RML10081347 bus1=BBT501541.1.2.0,bus2=RML1060081347.1.2.0,Phases=2,Linecode=CABBTG04_4_2,Length=0.017000000,Units=km
new line.RML10081430 bus1=BBT2379802.1.0,bus2=RML1060081430.1.0,Phases=1,Linecode=CABBTG02_4_1,Length=0.017000000,Units=km
new line.RML10081767 bus1=BBT429420.2.0,bus2=RML1060081767.2.0,Phases=1,Linecode=CABBTG01_4_1,Length=0.017000000,Units=km
new line.RML10081899 bus1=BBT3851657.1.2.0,bus2=RML1060081899.1.2.0,Phases=2,Linecode=CABBTG05_4_2,Length=0.017000000,Units=km
new line.RML10084972 bus1=BBT431002.1.2.0,bus2=RML1060084972.1.2.0,Phases=2,Linecode=CABBTG04_4_2,Length=0.017000000,Units=km
new line.RML10084983 bus1=BBT53153517.1.2.0,bus2=RML1060084983.1.2.0,Phases=2,Linecode=CABBTG04_4_2,Length=0.017000000,Units=km
new line.RML10084991 bus1=BBT428104.1.2.0,bus2=RML1060084991.1.2.0,Phases=2,Linecode=CABBTG04_4_2,Length=0.017000000,Units=km
new line.RML10096478 bus1=BBT139360078.1.2.0,bus2=RML1060096478.1.2.0,Phases=2,Linecode=CABBTG05_4_2,Length=0.017000000,Units=km
new line.RML10096531 bus1=BBT428944.1.2.3.0,bus2=RML1060096531.1.2.3.0,Phases=3,Linecode=CABBTG07_4_3,Length=0.020000000,Units=km
new line.RML10096537 bus1=BBT3093151.2.0,bus2=RML1060096537.2.0,Phases=1,Linecode=CABBTG01_4_1,Length=0.012000000,Units=km
new line.RML10096538 bus1=BBT3093151.1.0,bus2=RML1060096538.1.0,Phases=1,Linecode=CABBTG01_4_1,Length=0.017000000,Units=km
new line.RML10097422 bus1=BBT77506111.1.0,bus2=RML1060097422.1.0,Phases=1,Linecode=CABBTG01_4_1,Length=0.015000000,Units=km
new line.RML10121870 bus1=BBT159120235.1.2.0,bus2=RML1060121870.1.2.0,Phases=2,Linecode=CABBTG04_4_2,Length=0.017000000,Units=km
new line.RML10126684 bus1=BBT435398.1.2.0,bus2=RML1060126684.1.2.0,Phases=2,Linecode=CABBTG05_4_2,Length=0.017000000,Units=km
new line.RML10126692 bus1=BBT435748.1.2.0,bus2=RML1060126692.1.2.0,Phases=2,Linecode=CABBTG05_4_2,Length=0.017000000,Units=km
new line.RML10127688 bus1=BBT436651.1.3.0,bus2=RML1060127688.1.3.0,Phases=2,Linecode=CABBTG05_4_2,Length=0.017000000,Units=km
new line.RML10134574 bus1=BBT431016.1.2.3.0,bus2=RML1060134574.1.2.3.0,Phases=3,Linecode=CABBTG06_4_3,Length=0.017000000,Units=km
new line.RML10134587 bus1=BBT429833.1.0,bus2=RML1060134587.1.0,Phases=1,Linecode=CABBTG02_4_1,Length=0.017000000,Units=km
new line.RML10134592 bus1=BBT606989.1.2.0,bus2=RML1060134592.1.2.0,Phases=2,Linecode=CABBTG05_4_2,Length=0.017000000,Units=km
new line.RML10134624 bus1=BBT606996.1.3.0,bus2=RML1060134624.1.3.0,Phases=2,Linecode=CABBTG04_4_2,Length=0.017000000,Units=km
new line.RML10134633 bus1=BBT2312973.1.0,bus2=RML1060134633.1.0,Phases=1,Linecode=CABBTG02_4_1,Length=0.017000000,Units=km
new line.RML10134646 bus1=BBT53153517.1.0,bus2=RML1060134646.1.0,Phases=1,Linecode=CABBTG02_4_1,Length=0.017000000,Units=km
new line.RML10134649 bus1=BBT53153517.1.0,bus2=RML1060134649.1.0,Phases=1,Linecode=CABBTG01_4_1,Length=0.017000000,Units=km
new line.RML10134667 bus1=BBT53153517.1.2.0,bus2=RML1060134667.1.2.0,Phases=2,Linecode=CABBTG04_4_2,Length=0.017000000,Units=km
new line.RML10134673 bus1=BBT53144718.1.0,bus2=RML1060134673.1.0,Phases=1,Linecode=CABBTG02_4_1,Length=0.017000000,Units=km
new line.RML10136599 bus1=BBT439150.1.2.3.0,bus2=RML1060136599.1.2.3.0,Phases=3,Linecode=CABBTG12_4_3,Length=0.018000000,Units=km
new line.RML10136631 bus1=BBT431275.1.2.3.0,bus2=RML1060136631.1.2.3.0,Phases=3,Linecode=CABBTG10_4_3,Length=0.012000000,Units=km
new line.RML10137372 bus1=BBT3098835.1.2.0,bus2=RML1060137372.1.2.0,Phases=2,Linecode=CABBTG05_4_2,Length=0.012000000,Units=km
new line.RML10137382 bus1=BBT467689.1.0,bus2=RML1060137382.1.0,Phases=1,Linecode=CABBTG01_4_1,Length=0.012000000,Units=km
new line.RML10138439 bus1=BBT53144564.1.2.0,bus2=RML1060138439.1.2.0,Phases=2,Linecode=CABBTG04_4_2,Length=0.017000000,Units=km
new line.RML10138443 bus1=BBT53144564.2.0,bus2=RML1060138443.2.0,Phases=1,Linecode=CABBTG02_4_1,Length=0.017000000,Units=km
new line.RML10138446 bus1=BBT53144564.1.2.0,bus2=RML1060138446.1.2.0,Phases=2,Linecode=CABBTG04_4_2,Length=0.018000000,Units=km
new line.RML10138468 bus1=BBT3020722.2.0,bus2=RML1060138468.2.0,Phases=1,Linecode=CABBTG01_4_1,Length=0.017000000,Units=km
new line.RML10138475 bus1=BBT436238.1.2.3.0,bus2=RML1060138475.1.2.3.0,Phases=3,Linecode=CABBTG06_4_3,Length=0.017000000,Units=km
new line.RML10138477 bus1=BBT429728.1.2.0,bus2=RML1060138477.1.2.0,Phases=2,Linecode=CABBTG05_4_2,Length=0.012000000,Units=km
new line.RML10138480 bus1=BBT429294.1.2.0,bus2=RML1060138480.1.2.0,Phases=2,Linecode=CABBTG05_4_2,Length=0.017000000,Units=km
new line.RML10138481 bus1=BBT429287.1.2.0,bus2=RML1060138481.1.2.0,Phases=2,Linecode=CABBTG05_4_2,Length=0.017000000,Units=km
new line.RML10138508 bus1=BBT3700597.1.0,bus2=RML1060138508.1.0,Phases=1,Linecode=CABBTG02_4_1,Length=0.017000000,Units=km
new line.RML10138548 bus1=BBT54919841.1.2.0,bus2=RML1060138548.1.2.0,Phases=2,Linecode=CABBTG05_4_2,Length=0.017000000,Units=km
new line.RML10138577 bus1=BBT2953963.1.2.0,bus2=RML1060138577.1.2.0,Phases=2,Linecode=CABBTG05_4_2,Length=0.017000000,Units=km
new line.RML10138580 bus1=BBT3280681.1.2.0,bus2=RML1060138580.1.2.0,Phases=2,Linecode=CABBTG05_4_2,Length=0.018000000,Units=km
new line.RML10138600 bus1=BBT3092577.1.2.0,bus2=RML1060138600.1.2.0,Phases=2,Linecode=CABBTG05_4_2,Length=0.017000000,Units=km
new line.RML10138725 bus1=BBT464525.1.2.0,bus2=RML1060138725.1.2.0,Phases=2,Linecode=CABBTG05_4_2,Length=0.017000000,Units=km
new line.RML10138748 bus1=BBT466541.1.0,bus2=RML1060138748.1.0,Phases=1,Linecode=CABBTG02_4_1,Length=0.017000000,Units=km
new line.RML10139239 bus1=BBT523206.1.2.0,bus2=RML1060139239.1.2.0,Phases=2,Linecode=CABBTG05_4_2,Length=0.017000000,Units=km
new line.RML10139430 bus1=BBT523150.1.2.0,bus2=RML1060139430.1.2.0,Phases=2,Linecode=CABBTG05_4_2,Length=0.017000000,Units=km
new line.RML10139472 bus1=BBT501415.1.2.0,bus2=RML1060139472.1.2.0,Phases=2,Linecode=CABBTG05_4_2,Length=0.017000000,Units=km
new line.RML10139499 bus1=BBT501681.1.2.0,bus2=RML1060139499.1.2.0,Phases=2,Linecode=CABBTG05_4_2,Length=0.017000000,Units=km
new line.RML10139570 bus1=BBT2261943.1.2.0,bus2=RML1060139570.1.2.0,Phases=2,Linecode=CABBTG04_4_2,Length=0.008000000,Units=km
new line.RML10139573 bus1=BBT2261943.2.0,bus2=RML1060139573.2.0,Phases=1,Linecode=CABBTG01_4_1,Length=0.017000000,Units=km
new line.RML10139575 bus1=BBT2261950.1.0,bus2=RML1060139575.1.0,Phases=1,Linecode=CABBTG01_4_1,Length=0.017000000,Units=km
new line.RML10139616 bus1=BBT430316.1.2.0,bus2=RML1060139616.1.2.0,Phases=2,Linecode=CABBTG05_4_2,Length=0.023000000,Units=km
new line.RML10139800 bus1=BBT604224.1.2.0,bus2=RML1060139800.1.2.0,Phases=2,Linecode=CABBTG04_4_2,Length=0.017000000,Units=km
new line.RML10139893 bus1=BBT586248.1.2.0,bus2=RML1060139893.1.2.0,Phases=2,Linecode=CABBTG05_4_2,Length=0.017000000,Units=km
new line.RML10140155 bus1=BBT438240.1.2.0,bus2=RML1060140155.1.2.0,Phases=2,Linecode=CABBTG04_4_2,Length=0.013000000,Units=km
new line.RML10140242 bus1=BBT3700632.1.2.0,bus2=RML1060140242.1.2.0,Phases=2,Linecode=CABBTG05_4_2,Length=0.017000000,Units=km
new line.RML10140494 bus1=BBT95725585.1.2.0,bus2=RML1060140494.1.2.0,Phases=2,Linecode=CABBTG05_4_2,Length=0.017000000,Units=km
new line.RML10140585 bus1=BBT104428223.1.2.0,bus2=RML1060140585.1.2.0,Phases=2,Linecode=CABBTG05_4_2,Length=0.017000000,Units=km
new line.RML10140729 bus1=BBT466884.1.2.0,bus2=RML1060140729.1.2.0,Phases=2,Linecode=CABBTG05_4_2,Length=0.017000000,Units=km
new line.RML10140734 bus1=BBT501429.1.2.0,bus2=RML1060140734.1.2.0,Phases=2,Linecode=CABBTG05_4_2,Length=0.017000000,Units=km
new line.RML10140757 bus1=BBT3020771.1.2.0,bus2=RML1060140757.1.2.0,Phases=2,Linecode=CABBTG05_4_2,Length=0.017000000,Units=km
new line.RML10141156 bus1=BBT119447157.1.2.0,bus2=RML1060141156.1.2.0,Phases=2,Linecode=CABBTG05_4_2,Length=0.017000000,Units=km
new line.RML10141181 bus1=BBT2137882.1.2.0,bus2=RML1060141181.1.2.0,Phases=2,Linecode=CABBTG05_4_2,Length=0.017000000,Units=km
new line.RML10141385 bus1=BBT586178.1.2.0,bus2=RML1060141385.1.2.0,Phases=2,Linecode=CABBTG05_4_2,Length=0.017000000,Units=km
new line.RML10141412 bus1=BBT466737.1.2.0,bus2=RML1060141412.1.2.0,Phases=2,Linecode=CABBTG05_4_2,Length=0.017000000,Units=km
new line.RML10141442 bus1=BBT464525.1.2.0,bus2=RML1060141442.1.2.0,Phases=2,Linecode=CABBTG05_4_2,Length=0.017000000,Units=km
new line.RML10141451 bus1=BBT501457.1.2.0,bus2=RML1060141451.1.2.0,Phases=2,Linecode=CABBTG05_4_2,Length=0.017000000,Units=km
new line.RML10141498 bus1=BBT501457.1.2.0,bus2=RML1060141498.1.2.0,Phases=2,Linecode=CABBTG05_4_2,Length=0.017000000,Units=km
new line.RML10142282 bus1=BBT466569.1.2.0,bus2=RML1060142282.1.2.0,Phases=2,Linecode=CABBTG05_4_2,Length=0.017000000,Units=km
new line.RML10142361 bus1=BBT3293211.1.2.0,bus2=RML1060142361.1.2.0,Phases=2,Linecode=CABBTG05_4_2,Length=0.017000000,Units=km
new line.RML10142600 bus1=BBT2953963.1.2.0,bus2=RML1060142600.1.2.0,Phases=2,Linecode=CABBTG05_4_2,Length=0.017000000,Units=km
new line.RML10142609 bus1=BBT2953963.1.2.0,bus2=RML1060142609.1.2.0,Phases=2,Linecode=CABBTG05_4_2,Length=0.017000000,Units=km
new line.RML10142754 bus1=BBT3293239.1.2.0,bus2=RML1060142754.1.2.0,Phases=2,Linecode=CABBTG05_4_2,Length=0.017000000,Units=km
new line.RML10142803 bus1=BBT145981070.1.2.0,bus2=RML1060142803.1.2.0,Phases=2,Linecode=CABBTG05_4_2,Length=0.017000000,Units=km
new line.RML10142867 bus1=BBT501541.1.2.0,bus2=RML1060142867.1.2.0,Phases=2,Linecode=CABBTG05_4_2,Length=0.017000000,Units=km
new line.RML10143022 bus1=BBT501261.1.2.0,bus2=RML1060143022.1.2.0,Phases=2,Linecode=CABBTG05_4_2,Length=0.017000000,Units=km
new line.RML10146421 bus1=BBT437386.1.0,bus2=RML1060146421.1.0,Phases=1,Linecode=CABBTG01_4_1,Length=0.029000000,Units=km
new line.RML10146427 bus1=BBT437141.1.2.0,bus2=RML1060146427.1.2.0,Phases=2,Linecode=CABBTG05_4_2,Length=0.017000000,Units=km
new line.RML10146432 bus1=BBT2380145.1.0,bus2=RML1060146432.1.0,Phases=1,Linecode=CABBTG01_4_1,Length=0.017000000,Units=km
new line.RML10146434 bus1=BBT2380089.1.0,bus2=RML1060146434.1.0,Phases=1,Linecode=CABBTG01_4_1,Length=0.017000000,Units=km
new line.RML10146436 bus1=BBT2380117.1.0,bus2=RML1060146436.1.0,Phases=1,Linecode=CABBTG01_4_1,Length=0.017000000,Units=km
new line.RML10146438 bus1=BBT2380075.1.2.3.0,bus2=RML1060146438.1.2.3.0,Phases=3,Linecode=CABBTG06_4_3,Length=0.017000000,Units=km
new line.RML10146441 bus1=BBT2380075.1.2.3.0,bus2=RML1060146441.1.2.3.0,Phases=3,Linecode=CABBTG06_4_3,Length=0.017000000,Units=km
new line.RML10146456 bus1=BBT465540.1.2.0,bus2=RML1060146456.1.2.0,Phases=2,Linecode=CABBTG05_4_2,Length=0.017000000,Units=km
new line.RML10146458 bus1=BBT3908581.1.2.0,bus2=RML1060146458.1.2.0,Phases=2,Linecode=CABBTG05_4_2,Length=0.017000000,Units=km
new line.RML10148971 bus1=BBT139302909.1.2.0,bus2=RML1060148971.1.2.0,Phases=2,Linecode=CABBTG05_4_2,Length=0.013000000,Units=km
new line.RML10149123 bus1=BBT523136.1.2.0,bus2=RML1060149123.1.2.0,Phases=2,Linecode=CABBTG05_4_2,Length=0.017000000,Units=km
new line.RML10160882 bus1=BBT53546777.1.0,bus2=RML1060160882.1.0,Phases=1,Linecode=CABBTG02_4_1,Length=0.017000000,Units=km
new line.RML10160889 bus1=BBT449580.1.2.3.0,bus2=RML1060160889.1.2.3.0,Phases=3,Linecode=CABBTG06_4_3,Length=0.017000000,Units=km
new line.RML10160894 bus1=BBT448320.1.0,bus2=RML1060160894.1.0,Phases=1,Linecode=CABBTG02_4_1,Length=0.017000000,Units=km
new line.RML10160901 bus1=BBT448635.1.2.0,bus2=RML1060160901.1.2.0,Phases=2,Linecode=CABBTG05_4_2,Length=0.017000000,Units=km
new line.RML10160908 bus1=BBT453486.1.2.0,bus2=RML1060160908.1.2.0,Phases=2,Linecode=CABBTG05_4_2,Length=0.017000000,Units=km
new line.RML10161942 bus1=BBT452975.1.2.0,bus2=RML1060161942.1.2.0,Phases=2,Linecode=CABBTG05_4_2,Length=0.017000000,Units=km
new line.RML10161951 bus1=BBT454690.1.0,bus2=RML1060161951.1.0,Phases=1,Linecode=CABBTG02_4_1,Length=0.017000000,Units=km
new line.RML10161955 bus1=BBT453038.1.0,bus2=RML1060161955.1.0,Phases=1,Linecode=CABBTG01_4_1,Length=0.017000000,Units=km
new line.RML10162024 bus1=BBT429469.1.2.0,bus2=RML1060162024.1.2.0,Phases=2,Linecode=CABBTG05_4_2,Length=0.017000000,Units=km
new line.RML10162034 bus1=BBT429364.1.0,bus2=RML1060162034.1.0,Phases=1,Linecode=CABBTG02_4_1,Length=0.017000000,Units=km
new line.RML10162036 bus1=BBT438086.1.0,bus2=RML1060162036.1.0,Phases=1,Linecode=CABBTG01_4_1,Length=0.017000000,Units=km
new line.RML10162043 bus1=BBT439262.1.2.0,bus2=RML1060162043.1.2.0,Phases=2,Linecode=CABBTG05_4_2,Length=0.017000000,Units=km
new line.RML10162051 bus1=BBT437540.1.2.3.0,bus2=RML1060162051.1.2.3.0,Phases=3,Linecode=CABBTG06_4_3,Length=0.017000000,Units=km
new line.RML10162076 bus1=BBT429630.1.0,bus2=RML1060162076.1.0,Phases=1,Linecode=CABBTG02_4_1,Length=0.017000000,Units=km
new line.RML10162080 bus1=BBT429630.1.2.3.0,bus2=RML1060162080.1.2.3.0,Phases=3,Linecode=CABBTG06_4_3,Length=0.017000000,Units=km
new line.RML10162090 bus1=BBT430449.1.0,bus2=RML1060162090.1.0,Phases=1,Linecode=CABBTG02_4_1,Length=0.017000000,Units=km
new line.RML10162840 bus1=BBT492308.1.2.0,bus2=RML1060162840.1.2.0,Phases=2,Linecode=CABBTG05_4_2,Length=0.017000000,Units=km
new line.RML10163464 bus1=BBT429602.2.0,bus2=RML1060163464.2.0,Phases=1,Linecode=CABBTG02_4_1,Length=0.017000000,Units=km
new line.RML10163472 bus1=BBT429616.1.2.3.0,bus2=RML1060163472.1.2.3.0,Phases=3,Linecode=CABBTG06_4_3,Length=0.017000000,Units=km
new line.RML10163474 bus1=BBT430407.1.2.0,bus2=RML1060163474.1.2.0,Phases=2,Linecode=CABBTG05_4_2,Length=0.017000000,Units=km
new line.RML10163482 bus1=BBT436266.1.2.0,bus2=RML1060163482.1.2.0,Phases=2,Linecode=CABBTG05_4_2,Length=0.017000000,Units=km
new line.RML10163486 bus1=BBT436245.2.0,bus2=RML1060163486.2.0,Phases=1,Linecode=CABBTG02_4_1,Length=0.017000000,Units=km
new line.RML10163524 bus1=BBT428783.1.2.0,bus2=RML1060163524.1.2.0,Phases=2,Linecode=CABBTG05_4_2,Length=0.017000000,Units=km
new line.RML10163600 bus1=BBT3092857.2.0,bus2=RML1060163600.2.0,Phases=1,Linecode=CABBTG02_4_1,Length=0.017000000,Units=km
new line.RML10163605 bus1=BBT3092857.2.0,bus2=RML1060163605.2.0,Phases=1,Linecode=CABBTG02_4_1,Length=0.017000000,Units=km
new line.RML10163610 bus1=BBT3092857.1.0,bus2=RML1060163610.1.0,Phases=1,Linecode=CABBTG02_4_1,Length=0.017000000,Units=km
new line.RML10163626 bus1=BBT3092941.1.2.0,bus2=RML1060163626.1.2.0,Phases=2,Linecode=CABBTG05_4_2,Length=0.017000000,Units=km
new line.RML10163782 bus1=BBT2262405.1.0,bus2=RML1060163782.1.0,Phases=1,Linecode=CABBTG02_4_1,Length=0.017000000,Units=km
new line.RML10163898 bus1=BBT53145334.2.0,bus2=RML1060163898.2.0,Phases=1,Linecode=CABBTG02_4_1,Length=0.017000000,Units=km
new line.RML10163902 bus1=BBT53145334.1.2.0,bus2=RML1060163902.1.2.0,Phases=2,Linecode=CABBTG05_4_2,Length=0.017000000,Units=km
new line.RML10163912 bus1=BBT446248.1.2.0,bus2=RML1060163912.1.2.0,Phases=2,Linecode=CABBTG13_4_2,Length=0.010000000,Units=km
new line.RML10164410 bus1=BBT439283.2.0,bus2=RML1060164410.2.0,Phases=1,Linecode=CABBTG02_4_1,Length=0.017000000,Units=km
new line.RML10164456 bus1=BBT434992.1.0,bus2=RML1060164456.1.0,Phases=1,Linecode=CABBTG02_4_1,Length=0.017000000,Units=km
new line.RML10164544 bus1=BBT429252.1.2.0,bus2=RML1060164544.1.2.0,Phases=2,Linecode=CABBTG05_4_2,Length=0.017000000,Units=km
new line.RML10164557 bus1=BBT429315.1.2.0,bus2=RML1060164557.1.2.0,Phases=2,Linecode=CABBTG05_4_2,Length=0.017000000,Units=km
new line.RML10164562 bus1=BBT429308.1.2.0,bus2=RML1060164562.1.2.0,Phases=2,Linecode=CABBTG05_4_2,Length=0.017000000,Units=km
new line.RML10164567 bus1=BBT429406.2.0,bus2=RML1060164567.2.0,Phases=1,Linecode=CABBTG02_4_1,Length=0.017000000,Units=km
new line.RML10164575 bus1=BBT439304.1.2.3.0,bus2=RML1060164575.1.2.3.0,Phases=3,Linecode=CABBTG08_4_3,Length=0.017000000,Units=km
new line.RML10164581 bus1=BBT439297.1.2.0,bus2=RML1060164581.1.2.0,Phases=2,Linecode=CABBTG05_4_2,Length=0.017000000,Units=km
new line.RML10164586 bus1=BBT439276.1.2.0,bus2=RML1060164586.1.2.0,Phases=2,Linecode=CABBTG05_4_2,Length=0.017000000,Units=km
new line.RML10164587 bus1=BBT428853.1.2.0,bus2=RML1060164587.1.2.0,Phases=2,Linecode=CABBTG05_4_2,Length=0.017000000,Units=km
new line.RML10164589 bus1=BBT429427.2.0,bus2=RML1060164589.2.0,Phases=1,Linecode=CABBTG02_4_1,Length=0.017000000,Units=km
new line.RML10164620 bus1=BBT2291742.2.0,bus2=RML1060164620.2.0,Phases=1,Linecode=CABBTG02_4_1,Length=0.017000000,Units=km
new line.RML10164622 bus1=BBT2291735.1.0,bus2=RML1060164622.1.0,Phases=1,Linecode=CABBTG02_4_1,Length=0.017000000,Units=km
new line.RML10164624 bus1=BBT465372.1.0,bus2=RML1060164624.1.0,Phases=1,Linecode=CABBTG02_4_1,Length=0.017000000,Units=km
new line.RML10164636 bus1=BBT437071.2.0,bus2=RML1060164636.2.0,Phases=1,Linecode=CABBTG02_4_1,Length=0.017000000,Units=km
new line.RML10164640 bus1=BBT437071.2.0,bus2=RML1060164640.2.0,Phases=1,Linecode=CABBTG02_4_1,Length=0.017000000,Units=km
new line.RML10164658 bus1=BBT2380019.2.0,bus2=RML1060164658.2.0,Phases=1,Linecode=CABBTG02_4_1,Length=0.017000000,Units=km
new line.RML10164722 bus1=BBT2662455.1.2.0,bus2=RML1060164722.1.2.0,Phases=2,Linecode=CABBTG05_4_2,Length=0.017000000,Units=km
new line.RML10164733 bus1=BBT65913313.1.0,bus2=RML1060164733.1.0,Phases=1,Linecode=CABBTG02_4_1,Length=0.017000000,Units=km
new line.RML10164741 bus1=BBT437120.1.2.0,bus2=RML1060164741.1.2.0,Phases=2,Linecode=CABBTG05_4_2,Length=0.017000000,Units=km
new line.RML10164745 bus1=BBT2380047.2.0,bus2=RML1060164745.2.0,Phases=1,Linecode=CABBTG02_4_1,Length=0.017000000,Units=km
new line.RML10164756 bus1=BBT437127.2.0,bus2=RML1060164756.2.0,Phases=1,Linecode=CABBTG02_4_1,Length=0.017000000,Units=km
new line.RML10164786 bus1=BBT440578.1.0,bus2=RML1060164786.1.0,Phases=1,Linecode=CABBTG02_4_1,Length=0.017000000,Units=km
new line.RML10164852 bus1=BBT468739.1.2.0,bus2=RML1060164852.1.2.0,Phases=2,Linecode=CABBTG05_4_2,Length=0.017000000,Units=km
new line.RML10164887 bus1=BBT2379998.1.2.0,bus2=RML1060164887.1.2.0,Phases=2,Linecode=CABBTG05_4_2,Length=0.017000000,Units=km
new line.RML10164892 bus1=BBT2379998.1.2.0,bus2=RML1060164892.1.2.0,Phases=2,Linecode=CABBTG05_4_2,Length=0.017000000,Units=km
new line.RML10164893 bus1=BBT2379991.1.2.0,bus2=RML1060164893.1.2.0,Phases=2,Linecode=CABBTG05_4_2,Length=0.017000000,Units=km
new line.RML10164896 bus1=BBT2379991.2.0,bus2=RML1060164896.2.0,Phases=1,Linecode=CABBTG02_4_1,Length=0.017000000,Units=km
new line.RML10164955 bus1=BBT6267322.2.0,bus2=RML1060164955.2.0,Phases=1,Linecode=CABBTG02_4_1,Length=0.017000000,Units=km
new line.RML10164998 bus1=BBT3092360.1.2.0,bus2=RML1060164998.1.2.0,Phases=2,Linecode=CABBTG05_4_2,Length=0.017000000,Units=km
new line.RML10165006 bus1=BBT436049.2.0,bus2=RML1060165006.2.0,Phases=1,Linecode=CABBTG02_4_1,Length=0.017000000,Units=km
new line.RML10165078 bus1=BBT430386.1.2.0,bus2=RML1060165078.1.2.0,Phases=2,Linecode=CABBTG05_4_2,Length=0.017000000,Units=km
new line.RML10165088 bus1=BBT430442.1.2.0,bus2=RML1060165088.1.2.0,Phases=2,Linecode=CABBTG05_4_2,Length=0.017000000,Units=km
new line.RML10165101 bus1=BBT435167.1.2.0,bus2=RML1060165101.1.2.0,Phases=2,Linecode=CABBTG05_4_2,Length=0.017000000,Units=km
new line.RML10165102 bus1=BBT435111.1.2.3.0,bus2=RML1060165102.1.2.3.0,Phases=3,Linecode=CABBTG06_4_3,Length=0.017000000,Units=km
new line.RML10165625 bus1=BBT3293218.2.0,bus2=RML1060165625.2.0,Phases=1,Linecode=CABBTG02_4_1,Length=0.017000000,Units=km
new line.RML10165634 bus1=BBT3280562.2.0,bus2=RML1060165634.2.0,Phases=1,Linecode=CABBTG02_4_1,Length=0.017000000,Units=km
new line.RML10165655 bus1=BBT431016.1.2.0,bus2=RML1060165655.1.2.0,Phases=2,Linecode=CABBTG05_4_2,Length=0.008000000,Units=km
new line.RML10165678 bus1=BBT466814.1.0,bus2=RML1060165678.1.0,Phases=1,Linecode=CABBTG02_4_1,Length=0.027000000,Units=km
new line.RML10165703 bus1=BBT135455982.1.2.0,bus2=RML1060165703.1.2.0,Phases=2,Linecode=CABBTG05_4_2,Length=0.008000000,Units=km
new line.RML10165864 bus1=BBT466163.1.2.0,bus2=RML1060165864.1.2.0,Phases=2,Linecode=CABBTG05_4_2,Length=0.017000000,Units=km
new line.RML10165868 bus1=BBT466212.1.2.0,bus2=RML1060165868.1.2.0,Phases=2,Linecode=CABBTG05_4_2,Length=0.017000000,Units=km
new line.RML10165914 bus1=BBT3092682.1.2.0,bus2=RML1060165914.1.2.0,Phases=2,Linecode=CABBTG05_4_2,Length=0.017000000,Units=km
new line.RML10166036 bus1=BBT436679.1.2.0,bus2=RML1060166036.1.2.0,Phases=2,Linecode=CABBTG05_4_2,Length=0.017000000,Units=km
new line.RML10166115 bus1=BBT432227.2.0,bus2=RML1060166115.2.0,Phases=1,Linecode=CABBTG02_4_1,Length=0.017000000,Units=km
new line.RML10166118 bus1=BBT432220.1.2.0,bus2=RML1060166118.1.2.0,Phases=2,Linecode=CABBTG05_4_2,Length=0.017000000,Units=km
new line.RML10166129 bus1=BBT432269.2.0,bus2=RML1060166129.2.0,Phases=1,Linecode=CABBTG02_4_1,Length=0.017000000,Units=km
new line.RML10166130 bus1=BBT432269.1.0,bus2=RML1060166130.1.0,Phases=1,Linecode=CABBTG02_4_1,Length=0.017000000,Units=km
new line.RML10166132 bus1=BBT432276.1.0,bus2=RML1060166132.1.0,Phases=1,Linecode=CABBTG02_4_1,Length=0.017000000,Units=km