new line.TR12234026 bus1=BMT152657543.1.2.3,bus2=BMT152657544.1.2.3,Phases=3,Linecode=CAB204_3_3,Length=0.022808000,Units=km
new line.TR12234027 bus1=BMT152657544.1.2.3,bus2=BMT123504238.1.2.3,Phases=3,Linecode=CAB204_3_3,Length=0.019213000,Units=km
new line.TR12234240 bus1=BMT152657544.1.2.3,bus2=BMT152563572.1.2.3,Phases=3,Linecode=CABA06_3_3,Length=0.039212000,Units=km
new line.TR12234241 bus1=BMT155281863.1.2.3,bus2=BMT8835444B.1.2.3,Phases=3,Linecode=CABA06_3_3,Length=0.029838000,Units=km
new line.TR12234242 bus1=BMT8835444B.1.2.3,bus2=BMT155281864.1.2.3,Phases=3,Linecode=CABA06_3_3,Length=0.030811000,Units=km
new line.TR12234243 bus1=BMT155281864.1.2.3,bus2=BMT8835457B.1.2.3,Phases=3,Linecode=CABA06_3_3,Length=0.033021000,Units=km
new line.TR12234244 bus1=BMT8835457B.1.2.3,bus2=BMT8835459B.1.2.3,Phases=3,Linecode=CABA06_3_3,Length=0.019109000,Units=km
new line.TR12234249 bus1=BMT8835459B.1.2.3,bus2=BMT155281865.1.2.3,Phases=3,Linecode=CABA06_3_3,Length=0.011048000,Units=km
new line.TR12234257 bus1=BMT155281865.1.2.3,bus2=BMT8835469B.1.2.3,Phases=3,Linecode=CABA06_3_3,Length=0.015815000,Units=km
new line.TR12234258 bus1=BMT8835469B.1.2.3,bus2=BMT8835471B.1.2.3,Phases=3,Linecode=CABA06_3_3,Length=0.037020000,Units=km
new line.TR12234259 bus1=BMT8835471B.1.2.3,bus2=BMT155281866.1.2.3,Phases=3,Linecode=CABA06_3_3,Length=0.034021000,Units=km
new line.TR12234264 bus1=BMT155281865.1.2.3,bus2=BMT155281867.1.2.3,Phases=3,Linecode=CABA06_3_3,Length=0.030419000,Units=km
new line.TR12234265 bus1=BMT155281867.1.2.3,bus2=BMT8835466B.1.2.3,Phases=3,Linecode=CABA06_3_3,Length=0.030089000,Units=km
new line.TR12234266 bus1=BMT8835466B.1.2.3,bus2=BMT8835516B.1.2.3,Phases=3,Linecode=CABA06_3_3,Length=0.028236000,Units=km
new line.TR12234267 bus1=BMT8835516B.1.2.3,bus2=BMT8835520B.1.2.3,Phases=3,Linecode=CABA06_3_3,Length=0.028850000,Units=km
new line.TR12234268 bus1=BMT8835520B.1.2.3,bus2=BMT155281871.1.2.3,Phases=3,Linecode=CABA06_3_3,Length=0.027208000,Units=km
new line.TR12234273 bus1=BMT155281865.1.2.3,bus2=BMT8835460B.1.2.3,Phases=3,Linecode=CABA06_3_3,Length=0.017033000,Units=km
new line.TR12234274 bus1=BMT8835460B.1.2.3,bus2=BMT8835501B.1.2.3,Phases=3,Linecode=CABA06_3_3,Length=0.036681000,Units=km
new line.TR12234275 bus1=BMT8835501B.1.2.3,bus2=BMT8835504B.1.2.3,Phases=3,Linecode=CABA06_3_3,Length=0.040799000,Units=km
new line.TR12234276 bus1=BMT8835504B.1.2.3,bus2=BMT8835505B.1.2.3,Phases=3,Linecode=CABA06_3_3,Length=0.037663000,Units=km
new line.TR12234277 bus1=BMT8835505B.1.2.3,bus2=BMT8835506B.1.2.3,Phases=3,Linecode=CABA06_3_3,Length=0.036885000,Units=km
new line.TR12234279 bus1=BMT8835506B.1.2.3,bus2=BMT8835760B.1.2.3,Phases=3,Linecode=CABA06_3_3,Length=0.036145000,Units=km
new line.TR12234280 bus1=BMT8835760B.1.2.3,bus2=BMT8835631B.1.2.3,Phases=3,Linecode=CABA06_3_3,Length=0.014145000,Units=km
new line.TR12234281 bus1=BMT8835760B.1.2.3,bus2=BMT8835508B.1.2.3,Phases=3,Linecode=CABA06_3_3,Length=0.011404000,Units=km
new line.TR12234283 bus1=BMT8835760B.1.2.3,bus2=BMT155281868.1.2.3,Phases=3,Linecode=CABA06_3_3,Length=0.030485000,Units=km
new line.TR12234285 bus1=BMT155281868.1.2.3,bus2=BMT8835627B.1.2.3,Phases=3,Linecode=CABA06_3_3,Length=0.023858000,Units=km
new line.TR12234286 bus1=BMT8835627B.1.2.3,bus2=BMT155281869.1.2.3,Phases=3,Linecode=CABA06_3_3,Length=0.008604000,Units=km
new line.TR12234287 bus1=BMT155281869.1.2.3,bus2=BMT8835570B.1.2.3,Phases=3,Linecode=CABA06_3_3,Length=0.027664000,Units=km
new line.TR12234296 bus1=BMT155281869.1.2.3,bus2=BMT8835626B.1.2.3,Phases=3,Linecode=CABA06_3_3,Length=0.026931000,Units=km
new line.TR12234299 bus1=BMT8835626B.1.2.3,bus2=BMT8835583B.1.2.3,Phases=3,Linecode=CABA06_3_3,Length=0.029687000,Units=km
new line.TR12234300 bus1=BMT8835583B.1.2.3,bus2=BMT155281870.1.2.3,Phases=3,Linecode=CABA06_3_3,Length=0.025244000,Units=km
new line.TR12234322 bus1=BMT155281869.1.2.3,bus2=BMT8835687B.1.2.3,Phases=3,Linecode=CABA06_3_3,Length=0.007282000,Units=km
new line.TR12234323 bus1=BMT8835687B.1.2.3,bus2=BMT152579269.1.2.3,Phases=3,Linecode=CABA06_3_3,Length=0.019420000,Units=km
new line.TR12234324 bus1=BMT170143990.1.2.3,bus2=BMT170143991.1.2.3,Phases=3,Linecode=CABA06_3_3,Length=0.028448000,Units=km
new line.TR12234325 bus1=BMT170143991.1.2.3,bus2=BMT8835692B.1.2.3,Phases=3,Linecode=CABA06_3_3,Length=0.030600000,Units=km
new line.TR12234326 bus1=BMT8835692B.1.2.3,bus2=BMT8835693B.1.2.3,Phases=3,Linecode=CABA06_3_3,Length=0.033547000,Units=km
new line.TR12234327 bus1=BMT8835693B.1.2.3,bus2=BMT8835684B.1.2.3,Phases=3,Linecode=CABA06_3_3,Length=0.029838000,Units=km
new line.TR12234328 bus1=BMT8835684B.1.2.3,bus2=BMT170143992.1.2.3,Phases=3,Linecode=CABA06_3_3,Length=0.033844000,Units=km
new line.TR12234331 bus1=BMT170143991.1.2.3,bus2=BMT8835706B.1.2.3,Phases=3,Linecode=CABA06_3_3,Length=0.031912000,Units=km
new line.TR12234332 bus1=BMT8835706B.1.2.3,bus2=BMT8835704B.1.2.3,Phases=3,Linecode=CABA06_3_3,Length=0.039122000,Units=km
new line.TR12234333 bus1=BMT8835704B.1.2.3,bus2=BMT170143993.1.2.3,Phases=3,Linecode=CABA06_3_3,Length=0.044110000,Units=km
new line.TR12234345 bus1=BMT170143992.1.2.3,bus2=BMT8835710B.1.2.3,Phases=3,Linecode=CABA06_3_3,Length=0.039668000,Units=km
new line.TR12234346 bus1=BMT8835710B.1.2.3,bus2=BMT8835711B.1.2.3,Phases=3,Linecode=CABA06_3_3,Length=0.026406000,Units=km
new line.TR12234352 bus1=BMT8835711B.1.2.3,bus2=BMT8835712B.1.2.3,Phases=3,Linecode=CABA06_3_3,Length=0.033844000,Units=km
new line.TR12234359 bus1=BMT8835712B.1.2.3,bus2=BMT8835713B.1.2.3,Phases=3,Linecode=CABA06_3_3,Length=0.038020000,Units=km
new line.TR12234360 bus1=BMT8835713B.1.2.3,bus2=BMT8835714B.1.2.3,Phases=3,Linecode=CABA06_3_3,Length=0.034892000,Units=km
new line.TR12234361 bus1=BMT8835714B.1.2.3,bus2=BMT8835715B.1.2.3,Phases=3,Linecode=CABA06_3_3,Length=0.033547000,Units=km
new line.TR12234365 bus1=BMT8835715B.1.2.3,bus2=BMT170143994.1.2.3,Phases=3,Linecode=CABA06_3_3,Length=0.034488000,Units=km
new line.TR12234366 bus1=BMT170143994.1.2.3,bus2=BMT170143995.1.2.3,Phases=3,Linecode=CABA06_3_3,Length=0.039415000,Units=km
new line.TR12325543 bus1=BMT170081781.1.2.3,bus2=BMT170081782.1.2.3,Phases=3,Linecode=CAB202_3_3,Length=0.136000000,Units=km
new line.TR12325544 bus1=BMT170081782.1.2.3,bus2=BMT170081783.1.2.3,Phases=3,Linecode=CAB202_3_3,Length=0.184079000,Units=km
new line.TR12358867 bus1=BMT172721901.3,bus2=BMT172721904.3,Phases=1,Linecode=CAB103_3_1,Length=0.050229000,Units=km
new line.TR12360207 bus1=BMT354366B.1.2.3,bus2=BMT156918072.1.2.3,Phases=3,Linecode=CABA06_3_3,Length=0.024212000,Units=km
new line.TR12360208 bus1=BMT156918072.1.2.3,bus2=BMT354359B.1.2.3,Phases=3,Linecode=CABA06_3_3,Length=0.014869000,Units=km
new line.TR12229536 bus1=BMT170814196.1,bus2=BMT170814198.1,Phases=1,Linecode=CAB202_3_1,Length=0.132855000,Units=km
new line.TR12229537 bus1=BMT170814198.1,bus2=BMT170814199.1,Phases=1,Linecode=CAB202_3_1,Length=0.063963000,Units=km
new line.TR12229538 bus1=BMT170814198.1,bus2=BMT170814200.1,Phases=1,Linecode=CAB103_3_1,Length=0.030811000,Units=km
new line.TR12341152 bus1=BMT163331409.2,bus2=BMT163331413.2,Phases=1,Linecode=CAB103_3_1,Length=0.010298000,Units=km
new line.TR12526305 bus1=BMT170746404.1,bus2=BMT170746406.1,Phases=1,Linecode=CAB102_3_1,Length=0.049202000,Units=km
new line.TR12526306 bus1=BMT170746406.1,bus2=BMT170746407.1,Phases=1,Linecode=CAB102_3_1,Length=0.021475000,Units=km
new line.TR12526319 bus1=BMT170746406.1,bus2=BMT9134081B.1,Phases=1,Linecode=CAB202_3_1,Length=0.070467000,Units=km
new line.TR12526329 bus1=BMT9134081B.1,bus2=BMT9134090B.1,Phases=1,Linecode=CAB202_3_1,Length=0.200031000,Units=km
new line.TR12526344 bus1=BMT9134090B.1,bus2=BMT170746408.1,Phases=1,Linecode=CAB202_3_1,Length=0.082013000,Units=km
new line.TR12634093 bus1=BMT167535813.3,bus2=BMT9244242B.3,Phases=1,Linecode=CAB202_3_1,Length=0.092493000,Units=km
new line.TR12634094 bus1=BMT9244242B.3,bus2=BMT167535815.3,Phases=1,Linecode=CAB202_3_1,Length=0.093793000,Units=km
new line.TR12636619 bus1=BMT156929262.1,bus2=BMT167610159.1,Phases=1,Linecode=CAB202_3_1,Length=0.031581000,Units=km
new line.TR12636620 bus1=BMT167610159.1,bus2=BMT167610160.1,Phases=1,Linecode=CAB202_3_1,Length=0.188117000,Units=km
new line.TR12636623 bus1=BMT167610159.1,bus2=BMT167610161.1,Phases=1,Linecode=CAB103_3_1,Length=0.039969000,Units=km
new line.TR12702324 bus1=BMT170143995.1.2.3,bus2=BMT8835721B.1.2.3,Phases=3,Linecode=CABA06_3_3,Length=0.036256000,Units=km
new line.TR12702325 bus1=BMT8835721B.1.2.3,bus2=BMT169800035.1.2.3,Phases=3,Linecode=CABA06_3_3,Length=0.024418000,Units=km
new line.TR12702327 bus1=BMT170336300.1.2.3,bus2=BMT8835730B.1.2.3,Phases=3,Linecode=CABA06_3_3,Length=0.026406000,Units=km
new line.TR12702328 bus1=BMT8835730B.1.2.3,bus2=BMT8835731B.1.2.3,Phases=3,Linecode=CABA06_3_3,Length=0.039122000,Units=km
new line.TR12702330 bus1=BMT8835731B.1.2.3,bus2=BMT170336301.1.2.3,Phases=3,Linecode=CABA06_3_3,Length=0.044830000,Units=km
new line.TR12702331 bus1=BMT170336301.1.2.3,bus2=BMT9310530B.1.2.3,Phases=3,Linecode=CABA06_3_3,Length=0.039819000,Units=km
new line.TR12702332 bus1=BMT9310530B.1.2.3,bus2=BMT9310532B.1.2.3,Phases=3,Linecode=CABA06_3_3,Length=0.023774000,Units=km
new line.TR12702333 bus1=BMT9310532B.1.2.3,bus2=BMT9310533B.1.2.3,Phases=3,Linecode=CABA06_3_3,Length=0.027664000,Units=km
new line.TR12702334 bus1=BMT9310533B.1.2.3,bus2=BMT170336302.1.2.3,Phases=3,Linecode=CABA06_3_3,Length=0.026406000,Units=km
new line.TR12702335 bus1=BMT170336302.1.2.3,bus2=BMT169800472.1.2.3,Phases=3,Linecode=CABA06_3_3,Length=0.026931000,Units=km
new line.TR12702336 bus1=BMT169800472.1.2.3,bus2=BMT9310538B.1.2.3,Phases=3,Linecode=CABA06_3_3,Length=0.041117000,Units=km
new line.TR12702337 bus1=BMT9310538B.1.2.3,bus2=BMT169801068.1.2.3,Phases=3,Linecode=CABA06_3_3,Length=0.031006000,Units=km
new line.TR12702338 bus1=BMT169801068.1.2.3,bus2=BMT9310540B.1.2.3,Phases=3,Linecode=CABA06_3_3,Length=0.030155000,Units=km
new line.TR12702339 bus1=BMT9310540B.1.2.3,bus2=BMT9310541B.1.2.3,Phases=3,Linecode=CABA06_3_3,Length=0.023774000,Units=km
new line.TR12702343 bus1=BMT9310541B.1.2.3,bus2=BMT9310547B.1.2.3,Phases=3,Linecode=CABA06_3_3,Length=0.025244000,Units=km
new line.TR12702346 bus1=BMT9310547B.1.2.3,bus2=BMT170336304.1.2.3,Phases=3,Linecode=CABA06_3_3,Length=0.008064000,Units=km
new line.TR12702348 bus1=BMT170336304.1.2.3,bus2=BMT169802651.1.2.3,Phases=3,Linecode=CABA06_3_3,Length=0.041601000,Units=km
new line.TR12702349 bus1=BMT170335922.1.2.3,bus2=BMT9310552B.1.2.3,Phases=3,Linecode=CABA06_3_3,Length=0.039630000,Units=km
new line.TR12702350 bus1=BMT9310552B.1.2.3,bus2=BMT170335923.1.2.3,Phases=3,Linecode=CABA06_3_3,Length=0.035362000,Units=km
new line.TR12702361 bus1=BMT170335923.1.2.3,bus2=BMT9310562B.1.2.3,Phases=3,Linecode=CABA06_3_3,Length=0.037663000,Units=km
new line.TR12702363 bus1=BMT9310562B.1.2.3,bus2=BMT9310564B.1.2.3,Phases=3,Linecode=CABA06_3_3,Length=0.032564000,Units=km
new line.TR12702391 bus1=BMT170336304.1.2.3,bus2=BMT9310611B.1.2.3,Phases=3,Linecode=CABA06_3_3,Length=0.028166000,Units=km
new line.TR12702392 bus1=BMT9310611B.1.2.3,bus2=BMT170336305.1.2.3,Phases=3,Linecode=CABA06_3_3,Length=0.016766000,Units=km
new line.TR12702393 bus1=BMT170336305.1.2.3,bus2=BMT9310617B.1.2.3,Phases=3,Linecode=CABA06_3_3,Length=0.017468000,Units=km
new line.TR12702395 bus1=BMT9310617B.1.2.3,bus2=BMT9310619B.1.2.3,Phases=3,Linecode=CABA06_3_3,Length=0.041601000,Units=km
new line.TR12702396 bus1=BMT9310619B.1.2.3,bus2=BMT9310621B.1.2.3,Phases=3,Linecode=CABA06_3_3,Length=0.043574000,Units=km
new line.TR12702397 bus1=BMT9310621B.1.2.3,bus2=BMT9310624B.1.2.3,Phases=3,Linecode=CABA06_3_3,Length=0.038646000,Units=km
new line.TR12702398 bus1=BMT9310624B.1.2.3,bus2=BMT170336306.1.2.3,Phases=3,Linecode=CABA06_3_3,Length=0.032564000,Units=km
new line.TR12702399 bus1=BMT9310564B.1.2.3,bus2=BMT9310634B.1.2.3,Phases=3,Linecode=CABA06_3_3,Length=0.037663000,Units=km
new line.TR12702400 bus1=BMT9310634B.1.2.3,bus2=BMT9310635B.1.2.3,Phases=3,Linecode=CABA06_3_3,Length=0.036503000,Units=km
new line.TR12702401 bus1=BMT9310635B.1.2.3,bus2=BMT9310604B.1.2.3,Phases=3,Linecode=CABA06_3_3,Length=0.038335000,Units=km
new line.TR12702402 bus1=BMT9310604B.1.2.3,bus2=BMT9310601B.1.2.3,Phases=3,Linecode=CABA06_3_3,Length=0.040032000,Units=km
new line.TR12702403 bus1=BMT9310601B.1.2.3,bus2=BMT9310600B.1.2.3,Phases=3,Linecode=CABA06_3_3,Length=0.039630000,Units=km
new line.TR12702404 bus1=BMT9310600B.1.2.3,bus2=BMT9310594B.1.2.3,Phases=3,Linecode=CABA06_3_3,Length=0.037115000,Units=km
new line.TR12702405 bus1=BMT9310594B.1.2.3,bus2=BMT9310592B.1.2.3,Phases=3,Linecode=CABA06_3_3,Length=0.021936000,Units=km
new line.TR12702406 bus1=BMT9310592B.1.2.3,bus2=BMT9310589B.1.2.3,Phases=3,Linecode=CABA06_3_3,Length=0.029535000,Units=km
new line.TR12702407 bus1=BMT9310589B.1.2.3,bus2=BMT170335924.1.2.3,Phases=3,Linecode=CABA06_3_3,Length=0.029074000,Units=km
new line.TR12702411 bus1=BMT170336305.1.2.3,bus2=BMT9310642B.1.2.3,Phases=3,Linecode=CABA06_3_3,Length=0.039668000,Units=km
new line.TR12702412 bus1=BMT9310642B.1.2.3,bus2=BMT9310643B.1.2.3,Phases=3,Linecode=CABA06_3_3,Length=0.038086000,Units=km
new line.TR12702413 bus1=BMT9310643B.1.2.3,bus2=BMT169806426.1.2.3,Phases=3,Linecode=CABA06_3_3,Length=0.038125000,Units=km
new line.TR12702414 bus1=BMT170337081.1.2.3,bus2=BMT9310648B.1.2.3,Phases=3,Linecode=CABA06_3_3,Length=0.040032000,Units=km
new line.TR12702415 bus1=BMT9310648B.1.2.3,bus2=BMT170337082.1.2.3,Phases=3,Linecode=CABA06_3_3,Length=0.030812000,Units=km
new line.TR12702416 bus1=BMT170337082.1.2.3,bus2=BMT9310653B.1.2.3,Phases=3,Linecode=CABA06_3_3,Length=0.032022000,Units=km
new line.TR12702417 bus1=BMT9310653B.1.2.3,bus2=BMT9310655B.1.2.3,Phases=3,Linecode=CABA06_3_3,Length=0.027300000,Units=km
new line.TR12702424 bus1=BMT9310655B.1.2.3,bus2=BMT9310661B.1.2.3,Phases=3,Linecode=CABA06_3_3,Length=0.033547000,Units=km
new line.TR12702425 bus1=BMT9310661B.1.2.3,bus2=BMT169777371.1.2.3,Phases=3,Linecode=CABA06_3_3,Length=0.028641000,Units=km
new line.TR12702426 bus1=BMT169777371.1.2.3,bus2=BMT170337083.1.2.3,Phases=3,Linecode=CABA06_3_3,Length=0.024520000,Units=km
new line.TR12702427 bus1=BMT170337083.1.2.3,bus2=BMT9310664B.1.2.3,Phases=3,Linecode=CABA06_3_3,Length=0.041781000,Units=km
new line.TR12702428 bus1=BMT9310664B.1.2.3,bus2=BMT9310666B.1.2.3,Phases=3,Linecode=CABA06_3_3,Length=0.035700000,Units=km
new line.TR12702429 bus1=BMT170337083.1.2.3,bus2=BMT9310703B.1.2.3,Phases=3,Linecode=CABA06_3_3,Length=0.011404000,Units=km
new line.TR12702431 bus1=BMT9310703B.1.2.3,bus2=BMT9310706B.1.2.3,Phases=3,Linecode=CABA06_3_3,Length=0.032456000,Units=km
new line.TR12702432 bus1=BMT9310706B.1.2.3,bus2=BMT9310708B.1.2.3,Phases=3,Linecode=CABA06_3_3,Length=0.039122000,Units=km
new line.TR12702433 bus1=BMT9310708B.1.2.3,bus2=BMT9310710B.1.2.3,Phases=3,Linecode=CABA06_3_3,Length=0.044110000,Units=km
new line.TR12702434 bus1=BMT9310710B.1.2.3,bus2=BMT170337085.1.2.3,Phases=3,Linecode=CABA06_3_3,Length=0.041625000,Units=km
new line.TR12702448 bus1=BMT9310666B.1.2.3,bus2=BMT9310723B.1.2.3,Phases=3,Linecode=CABA06_3_3,Length=0.012168000,Units=km
new line.TR12702449 bus1=BMT9310723B.1.2.3,bus2=BMT170337084.1.2.3,Phases=3,Linecode=CABA06_3_3,Length=0.027790000,Units=km
new line.TR12702450 bus1=BMT170337084.1.2.3,bus2=BMT9310728B.1.2.3,Phases=3,Linecode=CABA06_3_3,Length=0.024418000,Units=km
new line.TR12702451 bus1=BMT9310728B.1.2.3,bus2=BMT9310736B.1.2.3,Phases=3,Linecode=CABA06_3_3,Length=0.029687000,Units=km
new line.TR12702452 bus1=BMT9310736B.1.2.3,bus2=BMT9310738B.1.2.3,Phases=3,Linecode=CABA06_3_3,Length=0.027464000,Units=km
new line.TR12702453 bus1=BMT9310738B.1.2.3,bus2=BMT9310739B.1.2.3,Phases=3,Linecode=CABA06_3_3,Length=0.023858000,Units=km
new line.TR12702455 bus1=BMT9310739B.1.2.3,bus2=BMT170337086.1.2.3,Phases=3,Linecode=CABA06_3_3,Length=0.026425000,Units=km
new line.TR12702461 bus1=BMT170336914.3,bus2=BMT170336915.3,Phases=1,Linecode=CAB202_3_1,Length=0.087947000,Units=km
new line.TR12702462 bus1=BMT170336915.3,bus2=BMT463055B.3,Phases=1,Linecode=CAB202_3_1,Length=0.109951000,Units=km
new line.TR12702499 bus1=BMT170143994.1.2.3,bus2=BMT169775787.1.2.3,Phases=3,Linecode=CABA06_3_3,Length=0.025947000,Units=km
new line.TR12702501 bus1=BMT170333939.1.2.3,bus2=BMT170333940.1.2.3,Phases=3,Linecode=CABA06_3_3,Length=0.038633000,Units=km
new line.TR12702502 bus1=BMT170333940.1.2.3,bus2=BMT9310784B.1.2.3,Phases=3,Linecode=CABA06_3_3,Length=0.039932000,Units=km
new line.TR12702503 bus1=BMT170333940.1.2.3,bus2=BMT9310788B.1.2.3,Phases=3,Linecode=CABA06_3_3,Length=0.034992000,Units=km
new line.TR12702505 bus1=BMT9310788B.1.2.3,bus2=BMT9310790B.1.2.3,Phases=3,Linecode=CABA06_3_3,Length=0.035362000,Units=km
new line.TR12702506 bus1=BMT9310790B.1.2.3,bus2=BMT170333942.1.2.3,Phases=3,Linecode=CABA06_3_3,Length=0.039364000,Units=km
new line.TR12702511 bus1=BMT9310784B.1.2.3,bus2=BMT9310802B.1.2.3,Phases=3,Linecode=CABA06_3_3,Length=0.039415000,Units=km
new line.TR12702512 bus1=BMT9310802B.1.2.3,bus2=BMT170333941.1.2.3,Phases=3,Linecode=CABA06_3_3,Length=0.038840000,Units=km
new line.TR12702567 bus1=BMT170342196.1.2.3,bus2=BMT9310872B.1.2.3,Phases=3,Linecode=CABA06_3_3,Length=0.025065000,Units=km
new line.TR12702568 bus1=BMT9310872B.1.2.3,bus2=BMT9310874B.1.2.3,Phases=3,Linecode=CABA06_3_3,Length=0.029535000,Units=km
new line.TR12702569 bus1=BMT9310874B.1.2.3,bus2=BMT9310876B.1.2.3,Phases=3,Linecode=CABA06_3_3,Length=0.030876000,Units=km
new line.TR12702570 bus1=BMT9310876B.1.2.3,bus2=BMT9310877B.1.2.3,Phases=3,Linecode=CABA06_3_3,Length=0.030370000,Units=km
new line.TR12702571 bus1=BMT9310877B.1.2.3,bus2=BMT170342197.1.2.3,Phases=3,Linecode=CABA06_3_3,Length=0.027318000,Units=km
new line.TR12702572 bus1=BMT170342197.1.2.3,bus2=BMT170342198.1.2.3,Phases=3,Linecode=CABA06_3_3,Length=0.016556000,Units=km
new line.TR12702573 bus1=BMT170342197.1.2.3,bus2=BMT9310911B.1.2.3,Phases=3,Linecode=CABA06_3_3,Length=0.025065000,Units=km
new line.TR12702574 bus1=BMT170342197.1.2.3,bus2=BMT9310918B.1.2.3,Phases=3,Linecode=CABA06_3_3,Length=0.015656000,Units=km
new line.TR12702588 bus1=BMT9310918B.1.2.3,bus2=BMT9310926B.1.2.3,Phases=3,Linecode=CABA06_3_3,Length=0.038020000,Units=km
new line.TR12702591 bus1=BMT9310926B.1.2.3,bus2=BMT170342199.1.2.3,Phases=3,Linecode=CABA06_3_3,Length=0.038608000,Units=km
new line.TR12702592 bus1=BMT170342199.1.2.3,bus2=BMT9310941B.1.2.3,Phases=3,Linecode=CABA06_3_3,Length=0.011664000,Units=km
new line.TR12702593 bus1=BMT9310941B.1.2.3,bus2=BMT9310943B.1.2.3,Phases=3,Linecode=CABA06_3_3,Length=0.034719000,Units=km
new line.TR12702603 bus1=BMT9310943B.1.2.3,bus2=BMT9310949B.1.2.3,Phases=3,Linecode=CABA06_3_3,Length=0.035475000,Units=km
new line.TR12702604 bus1=BMT9310949B.1.2.3,bus2=BMT170342200.1.2.3,Phases=3,Linecode=CABA06_3_3,Length=0.039970000,Units=km
new line.TR12702613 bus1=BMT170342199.1.2.3,bus2=BMT9310947B.1.2.3,Phases=3,Linecode=CABA06_3_3,Length=0.010773000,Units=km
new line.TR12702614 bus1=BMT170342199.1.2.3,bus2=BMT9310948B.1.2.3,Phases=3,Linecode=CABA06_3_3,Length=0.019239000,Units=km
new line.TR12702615 bus1=BMT9310948B.1.2.3,bus2=BMT9310970B.1.2.3,Phases=3,Linecode=CABA06_3_3,Length=0.021382000,Units=km
new line.TR12702616 bus1=BMT9310970B.1.2.3,bus2=BMT9310971B.1.2.3,Phases=3,Linecode=CABA06_3_3,Length=0.020004000,Units=km
new line.TR12702619 bus1=BMT9310971B.1.2.3,bus2=BMT9310973B.1.2.3,Phases=3,Linecode=CABA06_3_3,Length=0.023711000,Units=km
new line.TR12702621 bus1=BMT9310973B.1.2.3,bus2=BMT9310975B.1.2.3,Phases=3,Linecode=CABA06_3_3,Length=0.029838000,Units=km
new line.TR12702623 bus1=BMT9310975B.1.2.3,bus2=BMT170342202.1.2.3,Phases=3,Linecode=CABA06_3_3,Length=0.038086000,Units=km
new line.TR12702625 bus1=BMT170342202.1.2.3,bus2=BMT9310979B.1.2.3,Phases=3,Linecode=CABA06_3_3,Length=0.035177000,Units=km
new line.TR12702626 bus1=BMT9310979B.1.2.3,bus2=BMT9310982B.1.2.3,Phases=3,Linecode=CABA06_3_3,Length=0.036145000,Units=km
new line.TR12702627 bus1=BMT9310982B.1.2.3,bus2=BMT9310983B.1.2.3,Phases=3,Linecode=CABA06_3_3,Length=0.038282000,Units=km
new line.TR12702632 bus1=BMT9310947B.1.2.3,bus2=BMT170342201.1.2.3,Phases=3,Linecode=CABA06_3_3,Length=0.049101000,Units=km
new line.TR12127899 bus1=BMT1957625B.2,bus2=BMT148771177.2,Phases=1,Linecode=CAB202_3_1,Length=0.097758000,Units=km
new line.TR12127900 bus1=BMT148771177.2,bus2=BMT148771178.2,Phases=1,Linecode=CAB202_3_1,Length=0.099743000,Units=km
new line.TR12159446 bus1=BMT168774525.3,bus2=BMT378488B.3,Phases=1,Linecode=CABA06_3_1,Length=0.039832000,Units=km
new line.TR12159447 bus1=BMT378488B.3,bus2=BMT168774526.3,Phases=1,Linecode=CABA06_3_1,Length=0.043837000,Units=km
new line.TR12202369 bus1=BMT160216982.3,bus2=BMT8803869B.3,Phases=1,Linecode=CAB103_3_1,Length=0.038281000,Units=km
new line.TR12202370 bus1=BMT8803869B.3,bus2=BMT8803870B.3,Phases=1,Linecode=CAB103_3_1,Length=0.135700000,Units=km
new line.TR12202371 bus1=BMT8803870B.3,bus2=BMT160216984.3,Phases=1,Linecode=CAB103_3_1,Length=0.041600000,Units=km
new line.TR12275085 bus1=BMT163331406.2,bus2=BMT163331409.2,Phases=1,Linecode=CAB202_3_1,Length=0.091066000,Units=km
new line.TR12275086 bus1=BMT163331409.2,bus2=BMT8878492B.2,Phases=1,Linecode=CAB202_3_1,Length=0.298019000,Units=km
new line.TR12275087 bus1=BMT8878492B.2,bus2=BMT8878494B.2,Phases=1,Linecode=CAB202_3_1,Length=0.042493000,Units=km
new line.TR12275088 bus1=BMT8878494B.2,bus2=BMT163331412.2,Phases=1,Linecode=CAB202_3_1,Length=0.027736000,Units=km
new line.TR12275089 bus1=BMT163331412.2,bus2=BMT163331415.2,Phases=1,Linecode=CAB202_3_1,Length=0.227147000,Units=km
new line.TR12309947 bus1=BMT8912477B.2,bus2=BMT8912481B.2,Phases=1,Linecode=CAB103_3_1,Length=0.049668000,Units=km
new line.TR12309952 bus1=BMT8912481B.2,bus2=BMT2163579B.2,Phases=1,Linecode=CAB103_3_1,Length=0.038905000,Units=km
new line.TR12309953 bus1=BMT2163579B.2,bus2=BMT156232322.2,Phases=1,Linecode=CAB103_3_1,Length=0.039212000,Units=km
new line.TR12309955 bus1=BMT156232322.2,bus2=BMT156232323.2,Phases=1,Linecode=CAB103_3_1,Length=0.028005000,Units=km
new line.TR12309958 bus1=BMT156232322.2,bus2=BMT3083295B.2,Phases=1,Linecode=CAB103_3_1,Length=0.041117000,Units=km
new line.TR12309959 bus1=BMT3083295B.2,bus2=BMT2083002B.2,Phases=1,Linecode=CAB103_3_1,Length=0.048092000,Units=km
new line.TR12309960 bus1=BMT2083002B.2,bus2=BMT2083009B.2,Phases=1,Linecode=CAB103_3_1,Length=0.048009000,Units=km
new line.TR12309966 bus1=BMT2083009B.2,bus2=BMT8912436B.2,Phases=1,Linecode=CAB103_3_1,Length=0.039631000,Units=km
new line.TR12309967 bus1=BMT8912436B.2,bus2=BMT8912442B.2,Phases=1,Linecode=CAB103_3_1,Length=0.045407000,Units=km
new line.TR12309968 bus1=BMT8912442B.2,bus2=BMT8912445B.2,Phases=1,Linecode=CAB103_3_1,Length=0.078251000,Units=km
new line.TR12309972 bus1=BMT8912445B.2,bus2=BMT8912453B.2,Phases=1,Linecode=CAB103_3_1,Length=0.051555000,Units=km
new line.TR12309975 bus1=BMT8912453B.2,bus2=BMT8912457B.2,Phases=1,Linecode=CAB103_3_1,Length=0.064207000,Units=km
new line.TR12309976 bus1=BMT8912457B.2,bus2=BMT8912460B.2,Phases=1,Linecode=CAB103_3_1,Length=0.061142000,Units=km
new line.TR12309980 bus1=BMT8912460B.2,bus2=BMT8912468B.2,Phases=1,Linecode=CAB103_3_1,Length=0.078461000,Units=km
new line.TR12309983 bus1=BMT8912468B.2,bus2=BMT156232324.2,Phases=1,Linecode=CAB103_3_1,Length=0.077506000,Units=km
new line.TR12310010 bus1=BMT160826298.2,bus2=BMT155151257.2,Phases=1,Linecode=CAB103_3_1,Length=0.005001000,Units=km
new line.TR12310012 bus1=BMT156232321.2,bus2=BMT8912477B.2,Phases=1,Linecode=CAB103_3_1,Length=0.028290000,Units=km
new line.TR12343703 bus1=BMT156842187.1,bus2=BMT156842190.1,Phases=1,Linecode=CAB202_3_1,Length=0.134010000,Units=km
new line.TR12385342 bus1=BMT2923464B.2,bus2=BMT157782618.2,Phases=1,Linecode=CAB202_3_1,Length=0.016282000,Units=km
new line.TR12385347 bus1=BMT157782618.2,bus2=BMT157782619.2,Phases=1,Linecode=CAB202_3_1,Length=0.032656000,Units=km
new line.TR12385353 bus1=BMT157782618.2,bus2=BMT157782620.2,Phases=1,Linecode=CAB103_3_1,Length=0.051049000,Units=km
new line.TR12427455 bus1=BMT159221429.1.2.3,bus2=BMT159221431.1.2.3,Phases=3,Linecode=CAB103_3_3,Length=0.035362000,Units=km
new line.TR12427458 bus1=BMT159221431.1.2.3,bus2=BMT9033419B.1.2.3,Phases=3,Linecode=CABA06_3_3,Length=0.016128000,Units=km
new line.TR12427460 bus1=BMT9033419B.1.2.3,bus2=BMT159221432.1.2.3,Phases=3,Linecode=CABA06_3_3,Length=0.020004000,Units=km
new line.TR12427462 bus1=BMT9033419B.1.2.3,bus2=BMT348836B.1.2.3,Phases=3,Linecode=CABA06_3_3,Length=0.019004000,Units=km
new line.TR12427463 bus1=BMT9033419B.1.2.3,bus2=BMT9033417B.1.2.3,Phases=3,Linecode=CABA06_3_3,Length=0.008064000,Units=km
new line.TR12462798 bus1=BMT160826509.2,bus2=BMT160826510.2,Phases=1,Linecode=CAB202_3_1,Length=0.039605000,Units=km
new line.TR12462799 bus1=BMT160826510.2,bus2=BMT1955399B.2,Phases=1,Linecode=CAB202_3_1,Length=0.306938000,Units=km
new line.TR12463878 bus1=BMT162398993.2,bus2=BMT162398995.2,Phases=1,Linecode=CAB103_3_1,Length=0.039567000,Units=km
new line.TR12499261 bus1=BMT162362108.1,bus2=BMT162362109.1,Phases=1,Linecode=CAB102_3_1,Length=0.281022000,Units=km
new line.TR12499273 bus1=BMT162362109.1,bus2=BMT162362111.1,Phases=1,Linecode=CAB103_3_1,Length=0.040713000,Units=km
new line.TR12500771 bus1=BMT162445455.3,bus2=BMT162445458.3,Phases=1,Linecode=CAB202_3_1,Length=0.285327000,Units=km
new line.TR12500772 bus1=BMT162445458.3,bus2=BMT162445459.3,Phases=1,Linecode=CAB202_3_1,Length=0.017003000,Units=km
new line.TR12500773 bus1=BMT162445458.3,bus2=BMT162445460.3,Phases=1,Linecode=CAB103_3_1,Length=0.079493000,Units=km
new line.TR12682359 bus1=BMT1380867B.3,bus2=BMT172721883.3,Phases=1,Linecode=CAB202_3_1,Length=0.144153000,Units=km
new line.TR12682360 bus1=BMT172721883.3,bus2=BMT172721884.3,Phases=1,Linecode=CAB103_3_1,Length=0.067376000,Units=km
new line.TR12682415 bus1=BMT172721883.3,bus2=BMT9291270B.3,Phases=1,Linecode=CAB103_3_1,Length=0.080413000,Units=km
new line.TR12682417 bus1=BMT9291270B.3,bus2=BMT172721885.3,Phases=1,Linecode=CAB103_3_1,Length=0.079525000,Units=km
new line.TR12751281 bus1=BMT171456593.1.2.3,bus2=BMT171456594.1.2.3,Phases=3,Linecode=CAB107_3_3,Length=0.091565000,Units=km
new line.TR12789614 bus1=BMT172720605.1,bus2=BMT2527733B.1,Phases=1,Linecode=CABA06_3_1,Length=0.028431000,Units=km
new line.TR12789616 bus1=BMT2527733B.1,bus2=BMT7232742B.1,Phases=1,Linecode=CABA06_3_1,Length=0.045008000,Units=km
new line.TR12789618 bus1=BMT7232742B.1,bus2=BMT7232749B.1,Phases=1,Linecode=CABA06_3_1,Length=0.045019000,Units=km
new line.TR12789619 bus1=BMT7232749B.1,bus2=BMT7232763B.1,Phases=1,Linecode=CABA06_3_1,Length=0.044415000,Units=km
new line.TR12789621 bus1=BMT7232763B.1,bus2=BMT9053936B.1,Phases=1,Linecode=CABA06_3_1,Length=0.044729000,Units=km
new line.TR12702644 bus1=BMT9310983B.1.2.3,bus2=BMT9311014B.1.2.3,Phases=3,Linecode=CABA06_3_3,Length=0.030812000,Units=km
new line.TR12702645 bus1=BMT9311014B.1.2.3,bus2=BMT9311015B.1.2.3,Phases=3,Linecode=CABA06_3_3,Length=0.027790000,Units=km
new line.TR12702646 bus1=BMT9311015B.1.2.3,bus2=BMT170342203.1.2.3,Phases=3,Linecode=CABA06_3_3,Length=0.028658000,Units=km
new line.TR12703517 bus1=BMT170336301.1,bus2=BMT170336303.1,Phases=1,Linecode=CAB103_3_1,Length=0.019030000,Units=km
new line.TR12703580 bus1=BMT170335995.3,bus2=BMT170335996.3,Phases=1,Linecode=CAB103_3_1,Length=0.040120000,Units=km
new line.TR12703630 bus1=BMT170334430.3,bus2=BMT170334431.3,Phases=1,Linecode=CAB103_3_1,Length=0.037650000,Units=km
new line.TR12703648 bus1=BMT170337086.3,bus2=BMT169801975.3,Phases=1,Linecode=CABA06_3_1,Length=0.063800000,Units=km
new line.TR12703656 bus1=BMT170336915.3,bus2=BMT463076B.3,Phases=1,Linecode=CAB202_3_1,Length=0.121849000,Units=km
new line.TR1521518 bus1=BMT1956939B.2,bus2=BMT123504812.2,Phases=1,Linecode=CAB202_3_1,Length=0.259460000,Units=km
new line.TR1521721 bus1=BMT1957184B.1.2.3,bus2=BMT123504427.1.2.3,Phases=3,Linecode=CAB204_3_3,Length=0.074012000,Units=km
new line.TR1521735 bus1=BMT123504427.3,bus2=BMT123504441.3,Phases=1,Linecode=CAB202_3_1,Length=0.066381000,Units=km
new line.TR1521742 bus1=BMT123504427.1.2.3,bus2=BMT2998406B.1.2.3,Phases=3,Linecode=CAB204_3_3,Length=0.129048000,Units=km
new line.TR1521756 bus1=BMT1957240B.3,bus2=BMT123504462.3,Phases=1,Linecode=CAB202_3_1,Length=0.125037000,Units=km
new line.TR1521763 bus1=BMT123504476.3,bus2=BMT123504490.3,Phases=1,Linecode=CAB202_3_1,Length=0.161334000,Units=km
new line.TR1521861 bus1=BMT1957394B.3,bus2=BMT123504532.3,Phases=1,Linecode=CAB202_3_1,Length=0.062043000,Units=km
new line.TR1521882 bus1=BMT1957443B.1.2.3,bus2=BMT1379936B.1.2.3,Phases=3,Linecode=CAB204_3_3,Length=0.107581000,Units=km
new line.TR1521889 bus1=BMT1957450B.1.2.3,bus2=BMT123504539.1.2.3,Phases=3,Linecode=CAB204_3_3,Length=0.123729000,Units=km
new line.TR1521910 bus1=BMT1957471B.2,bus2=BMT160826310.2,Phases=1,Linecode=CABD02_3_1,Length=0.184912000,Units=km
new line.TR1521987 bus1=BMT1957583B.2,bus2=BMT160826314.2,Phases=1,Linecode=CAB202_3_1,Length=0.168711000,Units=km
new line.TR1521994 bus1=BMT1957590B.2,bus2=BMT123505057.2,Phases=1,Linecode=CAB202_3_1,Length=0.258987000,Units=km
new line.TR1522008 bus1=BMT1957604B.2,bus2=BMT160826318.2,Phases=1,Linecode=CAB202_3_1,Length=0.104106000,Units=km
new line.TR1522057 bus1=BMT1957709B.1,bus2=BMT1962077B.1,Phases=1,Linecode=CAB202_3_1,Length=0.187713000,Units=km
new line.TR1522064 bus1=BMT1957716B.2,bus2=BMT1957723B.2,Phases=1,Linecode=CAB202_3_1,Length=0.161306000,Units=km
new line.TR1522071 bus1=BMT1957723B.2,bus2=BMT167735825.2,Phases=1,Linecode=CAB202_3_1,Length=0.141701000,Units=km
new line.TR1522078 bus1=BMT1957730B.2,bus2=BMT167735827.2,Phases=1,Linecode=CABD02_3_1,Length=0.074740000,Units=km
new line.TR1522085 bus1=BMT167735826.2,bus2=BMT1957730B.2,Phases=1,Linecode=CABD02_3_1,Length=0.081360000,Units=km
new line.TR1522099 bus1=BMT1957751B.1,bus2=BMT1957758B.1,Phases=1,Linecode=CAB202_3_1,Length=0.139582000,Units=km
new line.TR1522106 bus1=BMT1957758B.1,bus2=BMT1957765B.1,Phases=1,Linecode=CAB202_3_1,Length=0.125697000,Units=km