new line.RML10036678 bus1=BBT336560.1.0,bus2=RML1010036678.1.0,Phases=1,Linecode=CABBTG02_4_1,Length=0.017000000,Units=km
new line.RML10039544 bus1=BBT103567895.1.0,bus2=RML1010039544.1.0,Phases=1,Linecode=CABBTG02_4_1,Length=0.017000000,Units=km
new line.RML10068894 bus1=BBT149012508.1.2.0,bus2=RML1010068894.1.2.0,Phases=2,Linecode=CABBT808_4_2,Length=0.010000000,Units=km
new line.RML10082875 bus1=BBT111489.1.0,bus2=RML1010082875.1.0,Phases=1,Linecode=CABBTG02_4_1,Length=0.017000000,Units=km
new line.RML10082876 bus1=BBT114562.1.0,bus2=RML1010082876.1.0,Phases=1,Linecode=CABBTG02_4_1,Length=0.017000000,Units=km
new line.RML10082877 bus1=BBT279699.3.0,bus2=RML1010082877.3.0,Phases=1,Linecode=CABBTG02_4_1,Length=0.017000000,Units=km
new line.RML10084558 bus1=BBT120778.2.0,bus2=RML1010084558.2.0,Phases=1,Linecode=CABBTG02_4_1,Length=0.017000000,Units=km
new line.RML10084585 bus1=BBT3565954.1.0,bus2=RML1010084585.1.0,Phases=1,Linecode=CABBTG02_4_1,Length=0.017000000,Units=km
new line.RML10084620 bus1=BBT282541.1.0,bus2=RML1010084620.1.0,Phases=1,Linecode=CABBTG02_4_1,Length=0.017000000,Units=km
new line.RML10084644 bus1=BBT3779538.1.0,bus2=RML1010084644.1.0,Phases=1,Linecode=CABBTG02_4_1,Length=0.017000000,Units=km
new line.RML10084653 bus1=BBT282541.1.0,bus2=RML1010084653.1.0,Phases=1,Linecode=CABBTG02_4_1,Length=0.017000000,Units=km
new line.RML10084722 bus1=BBT339808.1.0,bus2=RML1010084722.1.0,Phases=1,Linecode=CABBTG02_4_1,Length=0.017000000,Units=km
new line.RML10084723 bus1=BBT339808.1.0,bus2=RML1010084723.1.0,Phases=1,Linecode=CABBTG02_4_1,Length=0.017000000,Units=km
new line.RML10084903 bus1=BBT284501.1.0,bus2=RML1010084903.1.0,Phases=1,Linecode=CABBTG02_4_1,Length=0.017000000,Units=km
new line.RML10098888 bus1=BBT295589.2.0,bus2=RML1010098888.2.0,Phases=1,Linecode=CABBTG02_4_1,Length=0.017000000,Units=km
new line.RML10098889 bus1=BBT295596.2.0,bus2=RML1010098889.2.0,Phases=1,Linecode=CABBTG02_4_1,Length=0.017000000,Units=km
new line.RML10099355 bus1=BBT154707.2.0,bus2=RML1010099355.2.0,Phases=1,Linecode=CABBTG02_4_1,Length=0.017000000,Units=km
new line.RML10099469 bus1=BBT296807.1.2.0,bus2=RML1010099469.1.2.0,Phases=2,Linecode=CABBTG05_4_2,Length=0.017000000,Units=km
new line.RML10112635 bus1=BBT112490.2.0,bus2=RML1010112635.2.0,Phases=1,Linecode=CABBTG02_4_1,Length=0.017000000,Units=km
new line.RML10112636 bus1=BBT111293.2.0,bus2=RML1010112636.2.0,Phases=1,Linecode=CABBTG02_4_1,Length=0.017000000,Units=km
new line.RML10112637 bus1=BBT111384.1.2.0,bus2=RML1010112637.1.2.0,Phases=2,Linecode=CABBTG05_4_2,Length=0.017000000,Units=km
new line.RML10112641 bus1=BBT111237.1.2.0,bus2=RML1010112641.1.2.0,Phases=2,Linecode=CABBTG05_4_2,Length=0.017000000,Units=km
new line.RML10112644 bus1=BBT112784.1.2.0,bus2=RML1010112644.1.2.0,Phases=2,Linecode=CABBTG05_4_2,Length=0.017000000,Units=km
new line.RML10112711 bus1=BBT112784.1.0,bus2=RML1010112711.1.0,Phases=1,Linecode=CABBTG02_4_1,Length=0.017000000,Units=km
new line.RML10112894 bus1=BBT3456866.1.2.0,bus2=RML1010112894.1.2.0,Phases=2,Linecode=CABBTG05_4_2,Length=0.017000000,Units=km
new line.RML10113256 bus1=BBT4117470.2.0,bus2=RML1010113256.2.0,Phases=1,Linecode=CABBTG02_4_1,Length=0.017000000,Units=km
new line.RML10113294 bus1=BBT2873395.3.0,bus2=RML1010113294.3.0,Phases=1,Linecode=CABBTG01_4_1,Length=0.017000000,Units=km
new line.RML10114795 bus1=BBT2721124.1.2.0,bus2=RML1010114795.1.2.0,Phases=2,Linecode=CABBTG05_4_2,Length=0.017000000,Units=km
new line.RML10115285 bus1=BBT295505.1.2.0,bus2=RML1010115285.1.2.0,Phases=2,Linecode=CABBTG05_4_2,Length=0.017000000,Units=km
new line.RML10127351 bus1=BBT295680.2.0,bus2=RML1010127351.2.0,Phases=1,Linecode=CABBTG02_4_1,Length=0.017000000,Units=km
new line.RML10127368 bus1=BBT115094.1.2.3.0,bus2=RML1010127368.1.2.3.0,Phases=3,Linecode=CABBTG06_4_3,Length=0.017000000,Units=km
new line.RML10127376 bus1=BBT4919446.1.0,bus2=RML1010127376.1.0,Phases=1,Linecode=CABBTG02_4_1,Length=0.017000000,Units=km
new line.RML10127893 bus1=BBT144648508.1.2.0,bus2=RML1010127893.1.2.0,Phases=2,Linecode=CABBTG05_4_2,Length=0.017000000,Units=km
new line.RML10129148 bus1=BBT4117645.1.3.0,bus2=RML1010129148.1.3.0,Phases=2,Linecode=CABBTG05_4_2,Length=0.017000000,Units=km
new line.RML10129821 bus1=BBT234283.1.2.0,bus2=RML1010129821.1.2.0,Phases=2,Linecode=CABBTG05_4_2,Length=0.017000000,Units=km
new line.RML10143868 bus1=BBT2873458.1.2.0,bus2=RML1010143868.1.2.0,Phases=2,Linecode=CABBTG05_4_2,Length=0.017000000,Units=km
new line.RML10143945 bus1=BBT274862.1.2.3.0,bus2=RML1010143945.1.2.3.0,Phases=3,Linecode=CABBTG06_4_3,Length=0.017000000,Units=km
new line.RML10144915 bus1=BBT295708.1.2.3.0,bus2=RML1010144915.1.2.3.0,Phases=3,Linecode=CABBTG06_4_3,Length=0.017000000,Units=km
new line.RML10158824 bus1=BBT112182.1.2.0,bus2=RML1010158824.1.2.0,Phases=2,Linecode=CABBTG05_4_2,Length=0.017000000,Units=km
new line.RML10158840 bus1=BBT149607470.1.2.0,bus2=RML1010158840.1.2.0,Phases=2,Linecode=CABBTG05_4_2,Length=0.017000000,Units=km
new line.RML10158864 bus1=BBT4115405.1.2.0,bus2=RML1010158864.1.2.0,Phases=2,Linecode=CABBTG05_4_2,Length=0.017000000,Units=km
new line.RML10158889 bus1=BBT4117568.2.3.0,bus2=RML1010158889.2.3.0,Phases=2,Linecode=CABBTG05_4_2,Length=0.017000000,Units=km
new line.RML10158892 bus1=BBT4847234.1.0,bus2=RML1010158892.1.0,Phases=1,Linecode=CABBTG02_4_1,Length=0.017000000,Units=km
new line.RML10160557 bus1=BBT111482.1.2.0,bus2=RML1010160557.1.2.0,Phases=2,Linecode=CABBTG05_4_2,Length=0.017000000,Units=km
new line.RML10172477 bus1=BBT5037739.1.2.0,bus2=RML1010172477.1.2.0,Phases=2,Linecode=CABBTG05_4_2,Length=0.017000000,Units=km
new line.RML10174130 bus1=BBT150098552.1.0,bus2=RML1010174130.1.0,Phases=1,Linecode=CABBTG02_4_1,Length=0.017000000,Units=km
new line.RML10175366 bus1=BBT115402.2.0,bus2=RML1010175366.2.0,Phases=1,Linecode=CABBTG02_4_1,Length=0.017000000,Units=km
new line.RML10175415 bus1=BBT296751.1.2.0,bus2=RML1010175415.1.2.0,Phases=2,Linecode=CABBTG05_4_2,Length=0.017000000,Units=km
new line.RML10175482 bus1=BBT4116994.2.0,bus2=RML1010175482.2.0,Phases=1,Linecode=CABBTG02_4_1,Length=0.017000000,Units=km
new line.RML10175612 bus1=BBT149582415.1.2.0,bus2=RML1010175612.1.2.0,Phases=2,Linecode=CABBTG05_4_2,Length=0.017000000,Units=km
new line.RML10175677 bus1=BBT112966.1.0,bus2=RML1010175677.1.0,Phases=1,Linecode=CABBTG02_4_1,Length=0.017000000,Units=km
new line.RML10175769 bus1=BBT303716.2.0,bus2=RML1010175769.2.0,Phases=1,Linecode=CABBTG02_4_1,Length=0.017000000,Units=km
new line.RML10175790 bus1=BBT4116644.2.0,bus2=RML1010175790.2.0,Phases=1,Linecode=CABBTG02_4_1,Length=0.017000000,Units=km
new line.RML10175938 bus1=BBT154672.1.0,bus2=RML1010175938.1.0,Phases=1,Linecode=CABBTG02_4_1,Length=0.017000000,Units=km
new line.RML10205972 bus1=BBT112623.1.2.0,bus2=RML1010205972.1.2.0,Phases=2,Linecode=CABBTG05_4_2,Length=0.017000000,Units=km
new line.RML10205977 bus1=BBT4115433.1.2.0,bus2=RML1010205977.1.2.0,Phases=2,Linecode=CABBTG05_4_2,Length=0.017000000,Units=km
new line.RML10206122 bus1=BBT2873297.1.0,bus2=RML1010206122.1.0,Phases=1,Linecode=CABBTG02_4_1,Length=0.017000000,Units=km
new line.RML10206124 bus1=BBT154770.1.0,bus2=RML1010206124.1.0,Phases=1,Linecode=CABBTG02_4_1,Length=0.017000000,Units=km
new line.RML10059682 bus1=BBT4116602.2.0,bus2=RML1010059682.2.0,Phases=1,Linecode=CABBTG01_4_1,Length=0.017000000,Units=km
new line.RML10059908 bus1=BBT309323.1.2.0,bus2=RML1010059908.1.2.0,Phases=2,Linecode=CABBTG04_4_2,Length=0.017000000,Units=km
new line.RML10059911 bus1=BBT75591023.1.0,bus2=RML1010059911.1.0,Phases=1,Linecode=CABBTG01_4_1,Length=0.017000000,Units=km
new line.RML10060282 bus1=BBT117355.1.2.0,bus2=RML1010060282.1.2.0,Phases=2,Linecode=CABBTG04_4_2,Length=0.017000000,Units=km
new line.RML10060324 bus1=BBT111916.1.2.0,bus2=RML1010060324.1.2.0,Phases=2,Linecode=CABBTG05_4_2,Length=0.017000000,Units=km
new line.RML10060327 bus1=BBT279643.1.2.3.0,bus2=RML1010060327.1.2.3.0,Phases=3,Linecode=CABBTG06_4_3,Length=0.017000000,Units=km
new line.RML10090701 bus1=BBT3607331.1.0,bus2=RML1010090701.1.0,Phases=1,Linecode=CABBTG02_4_1,Length=0.017000000,Units=km
new line.RML10090704 bus1=BBT3607331.1.0,bus2=RML1010090704.1.0,Phases=1,Linecode=CABBTG02_4_1,Length=0.017000000,Units=km
new line.RML10090706 bus1=BBT2910481.1.0,bus2=RML1010090706.1.0,Phases=1,Linecode=CABBTG02_4_1,Length=0.017000000,Units=km
new line.RML10090779 bus1=BBT277900.1.0,bus2=RML1010090779.1.0,Phases=1,Linecode=CABBTG02_4_1,Length=0.017000000,Units=km
new line.RML10090784 bus1=BBT217308.1.0,bus2=RML1010090784.1.0,Phases=1,Linecode=CABBTG02_4_1,Length=0.017000000,Units=km
new line.RML10090823 bus1=BBT170810350.1.0,bus2=RML1010090823.1.0,Phases=1,Linecode=CABBTG02_4_1,Length=0.017000000,Units=km
new line.RML10090929 bus1=BBT205422.1.0,bus2=RML1010090929.1.0,Phases=1,Linecode=CABBTG02_4_1,Length=0.017000000,Units=km
new line.RML10090938 bus1=BBT117815751.1.0,bus2=RML1010090938.1.0,Phases=1,Linecode=CABBTG02_4_1,Length=0.017000000,Units=km
new line.RML10090956 bus1=BBT214886.1.2.0,bus2=RML1010090956.1.2.0,Phases=2,Linecode=CABBTG05_4_2,Length=0.017000000,Units=km
new line.RML10091071 bus1=BBT3651998.1.2.0,bus2=RML1010091071.1.2.0,Phases=2,Linecode=CABBTG05_4_2,Length=0.017000000,Units=km
new line.RML10106107 bus1=BBT4117568.1.2.0,bus2=RML1010106107.1.2.0,Phases=2,Linecode=CABBTG05_4_2,Length=0.017000000,Units=km
new line.RML10106108 bus1=BBT4116420.2.0,bus2=RML1010106108.2.0,Phases=1,Linecode=CABBTG02_4_1,Length=0.017000000,Units=km
new line.RML10106109 bus1=BBT110971.1.0,bus2=RML1010106109.1.0,Phases=1,Linecode=CABBTG02_4_1,Length=0.017000000,Units=km
new line.RML10106110 bus1=BBT154728.2.0,bus2=RML1010106110.2.0,Phases=1,Linecode=CABBTG02_4_1,Length=0.017000000,Units=km
new line.RML10106111 bus1=BBT154805.2.0,bus2=RML1010106111.2.0,Phases=1,Linecode=CABBTG02_4_1,Length=0.017000000,Units=km
new line.RML10106112 bus1=BBT274890.1.2.0,bus2=RML1010106112.1.2.0,Phases=2,Linecode=CABBTG05_4_2,Length=0.017000000,Units=km
new line.RML10106991 bus1=BBT149515943.2.0,bus2=RML1010106991.2.0,Phases=1,Linecode=CABBTG02_4_1,Length=0.017000000,Units=km
new line.RML10120552 bus1=BBT149639786.1.2.0,bus2=RML1010120552.1.2.0,Phases=2,Linecode=CABBTG05_4_2,Length=0.017000000,Units=km
new line.RML10134729 bus1=BBT4116420.2.0,bus2=RML1010134729.2.0,Phases=1,Linecode=CABBTG02_4_1,Length=0.017000000,Units=km
new line.RML10136226 bus1=BBT4117526.1.2.0,bus2=RML1010136226.1.2.0,Phases=2,Linecode=CABBTG05_4_2,Length=0.017000000,Units=km
new line.RML10136292 bus1=BBT240737.1.0,bus2=RML1010136292.1.0,Phases=1,Linecode=CABBTG02_4_1,Length=0.017000000,Units=km
new line.RML10137296 bus1=BBT2809016.2.0,bus2=RML1010137296.2.0,Phases=1,Linecode=CABBTG02_4_1,Length=0.017000000,Units=km
new line.RML10152778 bus1=BBT276073.1.2.3.0,bus2=RML1010152778.1.2.3.0,Phases=3,Linecode=CABBTG06_4_3,Length=0.017000000,Units=km
new line.RML10152781 bus1=BBT240933.1.0,bus2=RML1010152781.1.0,Phases=1,Linecode=CABBTG02_4_1,Length=0.017000000,Units=km
new line.RML10152789 bus1=BBT214788.1.0,bus2=RML1010152789.1.0,Phases=1,Linecode=CABBTG02_4_1,Length=0.017000000,Units=km
new line.RML10167788 bus1=BBT113918.3.0,bus2=RML1010167788.3.0,Phases=1,Linecode=CABBTG02_4_1,Length=0.017000000,Units=km
new line.RML10167790 bus1=BBT295757.2.0,bus2=RML1010167790.2.0,Phases=1,Linecode=CABBTG02_4_1,Length=0.017000000,Units=km
new line.RML10167793 bus1=BBT4117645.1.2.0,bus2=RML1010167793.1.2.0,Phases=2,Linecode=CABBTG05_4_2,Length=0.017000000,Units=km
new line.RML10195785 bus1=BBT175041615.1.2.0,bus2=RML1010195785.1.2.0,Phases=2,Linecode=CABBTG05_4_2,Length=0.017000000,Units=km
new line.RML10195821 bus1=BBT175041963.1.0,bus2=RML1010195821.1.0,Phases=1,Linecode=CABBTG02_4_1,Length=0.017000000,Units=km
new line.RML10197755 bus1=BBT150095038.1.2.0,bus2=RML1010197755.1.2.0,Phases=2,Linecode=CABBTG05_4_2,Length=0.017000000,Units=km
new line.RML10228511 bus1=BBT2813272.1.2.0,bus2=RML1010228511.1.2.0,Phases=2,Linecode=CABBTG05_4_2,Length=0.017000000,Units=km
new line.RML10228975 bus1=BBT117278.1.2.0,bus2=RML1010228975.1.2.0,Phases=2,Linecode=CABBTG05_4_2,Length=0.017000000,Units=km
new line.RML10228978 bus1=BBT175041963.1.2.0,bus2=RML1010228978.1.2.0,Phases=2,Linecode=CABBTG05_4_2,Length=0.017000000,Units=km
new line.RML10228981 bus1=BBT2873052.1.0,bus2=RML1010228981.1.0,Phases=1,Linecode=CABBTG02_4_1,Length=0.017000000,Units=km
new line.RML10229000 bus1=BBT3966648.1.0,bus2=RML1010229000.1.0,Phases=1,Linecode=CABBTG02_4_1,Length=0.017000000,Units=km
new line.RML10258888 bus1=BBT4117197.1.2.0,bus2=RML1010258888.1.2.0,Phases=2,Linecode=CABBTG05_4_2,Length=0.017000000,Units=km
new line.RML10258889 bus1=BBT295631.1.0,bus2=RML1010258889.1.0,Phases=1,Linecode=CABBTG02_4_1,Length=0.017000000,Units=km
new line.RML10258938 bus1=BBT295694.3.0,bus2=RML1010258938.3.0,Phases=1,Linecode=CABBTG02_4_1,Length=0.017000000,Units=km
new line.RML10286084 bus1=BBT113610.1.3.0,bus2=RML1010286084.1.3.0,Phases=2,Linecode=CABBTG05_4_2,Length=0.017000000,Units=km
new line.RML10286108 bus1=BBT279601.1.3.0,bus2=RML1010286108.1.3.0,Phases=2,Linecode=CABBTG05_4_2,Length=0.017000000,Units=km
new line.RML10286113 bus1=BBT114751.1.0,bus2=RML1010286113.1.0,Phases=1,Linecode=CABBTG02_4_1,Length=0.017000000,Units=km
new line.RML10286236 bus1=BBT114317.1.2.3.0,bus2=RML1010286236.1.2.3.0,Phases=3,Linecode=CABBTG06_4_3,Length=0.017000000,Units=km
new line.RML10286311 bus1=BBT2808932.1.0,bus2=RML1010286311.1.0,Phases=1,Linecode=CABBTG02_4_1,Length=0.017000000,Units=km
new line.RML10286761 bus1=BBT116004.1.2.0,bus2=RML1010286761.1.2.0,Phases=2,Linecode=CABBTG05_4_2,Length=0.017000000,Units=km
new line.RML10287635 bus1=BBT111356.1.2.0,bus2=RML1010287635.1.2.0,Phases=2,Linecode=CABBTG05_4_2,Length=0.017000000,Units=km
new line.RML10300972 bus1=BBT151133189.1.0,bus2=RML1010300972.1.0,Phases=1,Linecode=CABBTG02_4_1,Length=0.017000000,Units=km
new line.RML10300979 bus1=BBT151375306.1.0,bus2=RML1010300979.1.0,Phases=1,Linecode=CABBTG02_4_1,Length=0.017000000,Units=km
new line.RML10332494 bus1=BBT114415.1.2.3.0,bus2=RML1010332494.1.2.3.0,Phases=3,Linecode=CABBTG07_4_3,Length=0.017000000,Units=km
new line.RML10332913 bus1=BBT2808925.1.2.0,bus2=RML1010332913.1.2.0,Phases=2,Linecode=CABBTG05_4_2,Length=0.017000000,Units=km
new line.RML10332937 bus1=BBT242767.1.2.0,bus2=RML1010332937.1.2.0,Phases=2,Linecode=CABBTG05_4_2,Length=0.017000000,Units=km
new line.RML10206126 bus1=BBT80820366.1.0,bus2=RML1010206126.1.0,Phases=1,Linecode=CABBTG02_4_1,Length=0.017000000,Units=km
new line.RML10221318 bus1=BBT111545.3.0,bus2=RML1010221318.3.0,Phases=1,Linecode=CABBTG02_4_1,Length=0.017000000,Units=km
new line.RML10221326 bus1=BBT149582471.1.2.0,bus2=RML1010221326.1.2.0,Phases=2,Linecode=CABBTG05_4_2,Length=0.017000000,Units=km
new line.RML10221407 bus1=BBT2808988.1.2.0,bus2=RML1010221407.1.2.0,Phases=2,Linecode=CABBTG04_4_2,Length=0.017000000,Units=km
new line.RML10236479 bus1=BBT151030019.1.2.0,bus2=RML1010236479.1.2.0,Phases=2,Linecode=CABBTG05_4_2,Length=0.017000000,Units=km
new line.RML10248640 bus1=BBT4115629.1.0,bus2=RML1010248640.1.0,Phases=1,Linecode=CABBTG02_4_1,Length=0.017000000,Units=km
new line.RML10280184 bus1=BBT4116518.2.0,bus2=RML1010280184.2.0,Phases=1,Linecode=CABBTG02_4_1,Length=0.017000000,Units=km
new line.RML10280916 bus1=BBT113561.1.2.0,bus2=RML1010280916.1.2.0,Phases=2,Linecode=CABBTG05_4_2,Length=0.017000000,Units=km
new line.RML10281626 bus1=BBT115444.2.3.0,bus2=RML1010281626.2.3.0,Phases=2,Linecode=CABBTG05_4_2,Length=0.017000000,Units=km
new line.RML10281632 bus1=BBT4115440.1.0,bus2=RML1010281632.1.0,Phases=1,Linecode=CABBTG02_4_1,Length=0.017000000,Units=km
new line.RML10281634 bus1=BBT80820373.1.0,bus2=RML1010281634.1.0,Phases=1,Linecode=CABBTG02_4_1,Length=0.017000000,Units=km
new line.RML10281637 bus1=BBT3965976.1.0,bus2=RML1010281637.1.0,Phases=1,Linecode=CABBTG02_4_1,Length=0.017000000,Units=km
new line.RML10281639 bus1=BBT111587.3.0,bus2=RML1010281639.3.0,Phases=1,Linecode=CABBTG02_4_1,Length=0.017000000,Units=km
new line.RML10281640 bus1=BBT276206.3.0,bus2=RML1010281640.3.0,Phases=1,Linecode=CABBTG02_4_1,Length=0.017000000,Units=km
new line.RML10281641 bus1=BBT112994.3.0,bus2=RML1010281641.3.0,Phases=1,Linecode=CABBTG02_4_1,Length=0.017000000,Units=km
new line.RML10281643 bus1=BBT295463.3.0,bus2=RML1010281643.3.0,Phases=1,Linecode=CABBTG02_4_1,Length=0.017000000,Units=km
new line.RML10281647 bus1=BBT111510.2.3.0,bus2=RML1010281647.2.3.0,Phases=2,Linecode=CABBTG05_4_2,Length=0.017000000,Units=km
new line.RML10281650 bus1=BBT274848.1.3.0,bus2=RML1010281650.1.3.0,Phases=2,Linecode=CABBTG05_4_2,Length=0.017000000,Units=km
new line.RML10281653 bus1=BBT3828454.1.3.0,bus2=RML1010281653.1.3.0,Phases=2,Linecode=CABBTG05_4_2,Length=0.017000000,Units=km
new line.RML10281654 bus1=BBT113736.1.3.0,bus2=RML1010281654.1.3.0,Phases=2,Linecode=CABBTG05_4_2,Length=0.017000000,Units=km
new line.RML10281655 bus1=BBT2873465.1.0,bus2=RML1010281655.1.0,Phases=1,Linecode=CABBTG02_4_1,Length=0.017000000,Units=km
new line.RML10281662 bus1=BBT5191676.1.2.0,bus2=RML1010281662.1.2.0,Phases=2,Linecode=CABBTG05_4_2,Length=0.017000000,Units=km
new line.RML10281663 bus1=BBT5191697.1.2.0,bus2=RML1010281663.1.2.0,Phases=2,Linecode=CABBTG05_4_2,Length=0.017000000,Units=km
new line.RML10281666 bus1=BBT5191928.1.2.0,bus2=RML1010281666.1.2.0,Phases=2,Linecode=CABBTG05_4_2,Length=0.017000000,Units=km
new line.RML10281668 bus1=BBT4116462.1.2.0,bus2=RML1010281668.1.2.0,Phases=2,Linecode=CABBTG05_4_2,Length=0.017000000,Units=km
new line.RML10281674 bus1=BBT117432.1.2.0,bus2=RML1010281674.1.2.0,Phases=2,Linecode=CABBTG05_4_2,Length=0.017000000,Units=km
new line.RML10281677 bus1=BBT5191942.1.2.0,bus2=RML1010281677.1.2.0,Phases=2,Linecode=CABBTG05_4_2,Length=0.017000000,Units=km
new line.RML10281678 bus1=BBT5191858.1.2.0,bus2=RML1010281678.1.2.0,Phases=2,Linecode=CABBTG05_4_2,Length=0.017000000,Units=km
new line.RML10281680 bus1=BBT5191879.1.2.0,bus2=RML1010281680.1.2.0,Phases=2,Linecode=CABBTG05_4_2,Length=0.017000000,Units=km
new line.RML10281681 bus1=BBT5191872.1.2.0,bus2=RML1010281681.1.2.0,Phases=2,Linecode=CABBTG05_4_2,Length=0.017000000,Units=km
new line.RML10281685 bus1=BBT4116595.1.2.0,bus2=RML1010281685.1.2.0,Phases=2,Linecode=CABBTG05_4_2,Length=0.017000000,Units=km
new line.RML10281688 bus1=BBT4117001.1.2.0,bus2=RML1010281688.1.2.0,Phases=2,Linecode=CABBTG05_4_2,Length=0.017000000,Units=km
new line.RML10281692 bus1=BBT205730.1.2.0,bus2=RML1010281692.1.2.0,Phases=2,Linecode=CABBTG05_4_2,Length=0.017000000,Units=km
new line.RML10281697 bus1=BBT112504.1.2.0,bus2=RML1010281697.1.2.0,Phases=2,Linecode=CABBTG05_4_2,Length=0.017000000,Units=km
new line.RML10281703 bus1=BBT308833.1.2.0,bus2=RML1010281703.1.2.0,Phases=2,Linecode=CABBTG05_4_2,Length=0.017000000,Units=km
new line.RML10281707 bus1=BBT117390.1.2.0,bus2=RML1010281707.1.2.0,Phases=2,Linecode=CABBTG05_4_2,Length=0.017000000,Units=km
new line.RML10293397 bus1=BBT80820366.1.2.0,bus2=RML1010293397.1.2.0,Phases=2,Linecode=CABBTG05_4_2,Length=0.017000000,Units=km
new line.RML10293414 bus1=BBT5191704.1.0,bus2=RML1010293414.1.0,Phases=1,Linecode=CABBTG02_4_1,Length=0.017000000,Units=km
new line.RML10293420 bus1=BBT5191865.2.0,bus2=RML1010293420.2.0,Phases=1,Linecode=CABBTG02_4_1,Length=0.017000000,Units=km
new line.RML10293431 bus1=BBT117096.2.0,bus2=RML1010293431.2.0,Phases=1,Linecode=CABBTG02_4_1,Length=0.017000000,Units=km
new line.RML10293627 bus1=BBT240919.3.0,bus2=RML1010293627.3.0,Phases=1,Linecode=CABBTG02_4_1,Length=0.017000000,Units=km
new line.RML10296853 bus1=BBT4116994.1.0,bus2=RML1010296853.1.0,Phases=1,Linecode=CABBTG02_4_1,Length=0.017000000,Units=km
new line.RML10296932 bus1=BBT112623.1.2.3.0,bus2=RML1010296932.1.2.3.0,Phases=3,Linecode=CABBTG06_4_3,Length=0.017000000,Units=km
new line.RML10296994 bus1=BBT279601.1.0,bus2=RML1010296994.1.0,Phases=1,Linecode=CABBTG02_4_1,Length=0.017000000,Units=km
new line.RML10296997 bus1=BBT4117547.2.0,bus2=RML1010296997.2.0,Phases=1,Linecode=CABBTG02_4_1,Length=0.017000000,Units=km
new line.RML10310779 bus1=BBT221074.1.2.0,bus2=RML1010310779.1.2.0,Phases=2,Linecode=CABBTG05_4_2,Length=0.017000000,Units=km
new line.RML10323761 bus1=BBT214592.1.2.0,bus2=RML1010323761.1.2.0,Phases=2,Linecode=CABBTG05_4_2,Length=0.017000000,Units=km
new line.RML10324253 bus1=BBT111422791.1.2.0,bus2=RML1010324253.1.2.0,Phases=2,Linecode=CABBTG05_4_2,Length=0.017000000,Units=km
new line.RML10324300 bus1=BBT4117526.1.2.0,bus2=RML1010324300.1.2.0,Phases=2,Linecode=CABBTG05_4_2,Length=0.017000000,Units=km
new line.RML10324373 bus1=BBT80820366.1.2.0,bus2=RML1010324373.1.2.0,Phases=2,Linecode=CABBTG05_4_2,Length=0.017000000,Units=km
new line.RML10326810 bus1=BBT295582.1.2.0,bus2=RML1010326810.1.2.0,Phases=2,Linecode=CABBTG05_4_2,Length=0.017000000,Units=km
new line.RML10340061 bus1=BBT295554.2.0,bus2=RML1010340061.2.0,Phases=1,Linecode=CABBTG02_4_1,Length=0.017000000,Units=km
new line.RML10340068 bus1=BBT4116462.2.0,bus2=RML1010340068.2.0,Phases=1,Linecode=CABBTG02_4_1,Length=0.017000000,Units=km
new line.RML10340203 bus1=BBT111412.1.0,bus2=RML1010340203.1.0,Phases=1,Linecode=CABBTG02_4_1,Length=0.017000000,Units=km
new line.RML10342068 bus1=BBT112329.1.0,bus2=RML1010342068.1.0,Phases=1,Linecode=CABBTG02_4_1,Length=0.017000000,Units=km
new line.RML10354470 bus1=BBT4115601.1.2.0,bus2=RML1010354470.1.2.0,Phases=2,Linecode=CABBTG05_4_2,Length=0.017000000,Units=km
new line.RML10354475 bus1=BBT111314.1.2.0,bus2=RML1010354475.1.2.0,Phases=2,Linecode=CABBTG05_4_2,Length=0.017000000,Units=km
new line.RML10062757 bus1=BBT4117624.1.2.0,bus2=RML1010062757.1.2.0,Phases=2,Linecode=CABBTG05_4_2,Length=0.017000000,Units=km
new line.RML10063071 bus1=BBT113358.1.0,bus2=RML1010063071.1.0,Phases=1,Linecode=CABBTG02_4_1,Length=0.030000000,Units=km
new line.RML10065586 bus1=BBT148868626.1.2.0,bus2=RML1010065586.1.2.0,Phases=2,Linecode=CABBTG05_4_2,Length=0.017000000,Units=km
new line.RML10093907 bus1=BBT277900.1.2.0,bus2=RML1010093907.1.2.0,Phases=2,Linecode=CABBTG05_4_2,Length=0.017000000,Units=km
new line.RML10094340 bus1=BBT215698.1.2.0,bus2=RML1010094340.1.2.0,Phases=2,Linecode=CABBTG05_4_2,Length=0.017000000,Units=km
new line.RML10094665 bus1=BBT219618.1.2.0,bus2=RML1010094665.1.2.0,Phases=2,Linecode=CABBTG05_4_2,Length=0.017000000,Units=km
new line.RML10108398 bus1=BBT4116476.2.3.0,bus2=RML1010108398.2.3.0,Phases=2,Linecode=CABBTG13_4_2,Length=0.017000000,Units=km
new line.RML10109962 bus1=BBT4115566.2.0,bus2=RML1010109962.2.0,Phases=1,Linecode=CABBTG02_4_1,Length=0.017000000,Units=km
new line.RML10109985 bus1=BBT113960.1.2.3.0,bus2=RML1010109985.1.2.3.0,Phases=3,Linecode=CABBTG07_4_3,Length=0.017000000,Units=km
new line.RML10123057 bus1=BBT154819.2.0,bus2=RML1010123057.2.0,Phases=1,Linecode=CABBTG02_4_1,Length=0.017000000,Units=km
new line.RML10125715 bus1=BBT4117561.2.3.0,bus2=RML1010125715.2.3.0,Phases=2,Linecode=CABBTG05_4_2,Length=0.017000000,Units=km
new line.RML10140044 bus1=BBT221144.1.2.0,bus2=RML1010140044.1.2.0,Phases=2,Linecode=CABBTG05_4_2,Length=0.017000000,Units=km
new line.RML10140609 bus1=BBT4116602.1.0,bus2=RML1010140609.1.0,Phases=1,Linecode=CABBTG02_4_1,Length=0.017000000,Units=km
new line.RML10140621 bus1=BBT4115489.1.2.0,bus2=RML1010140621.1.2.0,Phases=2,Linecode=CABBTG05_4_2,Length=0.017000000,Units=km
new line.RML10140789 bus1=BBT4116602.1.2.0,bus2=RML1010140789.1.2.0,Phases=2,Linecode=CABBTG05_4_2,Length=0.017000000,Units=km
new line.RML10141606 bus1=BBT116725.1.2.3.0,bus2=RML1010141606.1.2.3.0,Phases=3,Linecode=CABBTG06_4_3,Length=0.017000000,Units=km
new line.RML10156435 bus1=BBT113358.1.2.0,bus2=RML1010156435.1.2.0,Phases=2,Linecode=CABBTG05_4_2,Length=0.017000000,Units=km
new line.RML10156439 bus1=BBT111958.1.2.0,bus2=RML1010156439.1.2.0,Phases=2,Linecode=CABBTG05_4_2,Length=0.017000000,Units=km
new line.RML10185172 bus1=BBT133997413.1.2.0,bus2=RML1010185172.1.2.0,Phases=2,Linecode=CABBTG05_4_2,Length=0.017000000,Units=km
new line.RML10185248 bus1=BBT204463.1.2.0,bus2=RML1010185248.1.2.0,Phases=2,Linecode=CABBTG05_4_2,Length=0.017000000,Units=km
new line.RML10185264 bus1=BBT146614465.1.2.0,bus2=RML1010185264.1.2.0,Phases=2,Linecode=CABBTG05_4_2,Length=0.017000000,Units=km
new line.RML10186662 bus1=BBT234255.1.2.0,bus2=RML1010186662.1.2.0,Phases=2,Linecode=CABBTG05_4_2,Length=0.017000000,Units=km
new line.RML10214829 bus1=BBT274883.1.2.0,bus2=RML1010214829.1.2.0,Phases=2,Linecode=CABBTG05_4_2,Length=0.017000000,Units=km
new line.RML10214831 bus1=BBT4117547.1.2.0,bus2=RML1010214831.1.2.0,Phases=2,Linecode=CABBTG05_4_2,Length=0.017000000,Units=km
new line.RML10214834 bus1=BBT295757.1.2.0,bus2=RML1010214834.1.2.0,Phases=2,Linecode=CABBTG05_4_2,Length=0.017000000,Units=km
new line.RML10214837 bus1=BBT8029112.1.2.0,bus2=RML1010214837.1.2.0,Phases=2,Linecode=CABBTG05_4_2,Length=0.017000000,Units=km
new line.RML10214841 bus1=BBT111342.1.0,bus2=RML1010214841.1.0,Phases=1,Linecode=CABBTG02_4_1,Length=0.017000000,Units=km
new line.RML10214844 bus1=BBT111384.1.2.0,bus2=RML1010214844.1.2.0,Phases=2,Linecode=CABBTG05_4_2,Length=0.017000000,Units=km
new line.RML10214849 bus1=BBT117537.1.2.3.0,bus2=RML1010214849.1.2.3.0,Phases=3,Linecode=CABBTG06_4_3,Length=0.017000000,Units=km
new line.RML10215523 bus1=BBT4117617.1.0,bus2=RML1010215523.1.0,Phases=1,Linecode=CABBTG02_4_1,Length=0.017000000,Units=km
new line.RML10215535 bus1=BBT117488.1.2.0,bus2=RML1010215535.1.2.0,Phases=2,Linecode=CABBTG05_4_2,Length=0.017000000,Units=km
new line.RML10215789 bus1=BBT216062.2.0,bus2=RML1010215789.2.0,Phases=1,Linecode=CABBTG02_4_1,Length=0.017000000,Units=km
new line.RML10215824 bus1=BBT216062.1.0,bus2=RML1010215824.1.0,Phases=1,Linecode=CABBTG02_4_1,Length=0.017000000,Units=km
new line.RML10215891 bus1=BBT216062.2.0,bus2=RML1010215891.2.0,Phases=1,Linecode=CABBTG02_4_1,Length=0.017000000,Units=km
new line.RML10217187 bus1=BBT2972578.2.0,bus2=RML1010217187.2.0,Phases=1,Linecode=CABBTG02_4_1,Length=0.017000000,Units=km
new line.RML10244415 bus1=BBT214592.1.0,bus2=RML1010244415.1.0,Phases=1,Linecode=CABBTG02_4_1,Length=0.017000000,Units=km
new line.RML10245421 bus1=BBT296793.2.0,bus2=RML1010245421.2.0,Phases=1,Linecode=CABBTG05_4_1,Length=0.017000000,Units=km
new line.RML10246165 bus1=BBT2428174.1.0,bus2=RML1010246165.1.0,Phases=1,Linecode=CABBTG02_4_1,Length=0.017000000,Units=km
new line.RML10259525 bus1=BBT215110.1.2.0,bus2=RML1010259525.1.2.0,Phases=2,Linecode=CABBTG05_4_2,Length=0.017000000,Units=km
new line.RML10259764 bus1=BBT113876.1.2.3.0,bus2=RML1010259764.1.2.3.0,Phases=3,Linecode=CABBTG06_4_3,Length=0.017000000,Units=km
new line.RML10259768 bus1=BBT341166.1.0,bus2=RML1010259768.1.0,Phases=1,Linecode=CABBTG02_4_1,Length=0.017000000,Units=km
new line.RML10259803 bus1=BBT202559.1.2.0,bus2=RML1010259803.1.2.0,Phases=2,Linecode=CABBTG05_4_2,Length=0.017000000,Units=km
new line.RML10292052 bus1=BBT111769.1.0,bus2=RML1010292052.1.0,Phases=1,Linecode=CABBTG02_4_1,Length=0.017000000,Units=km
new line.RML10292265 bus1=BBT2938845.1.2.0,bus2=RML1010292265.1.2.0,Phases=2,Linecode=CABBTG05_4_2,Length=0.017000000,Units=km
new line.RML10292288 bus1=BBT2837352.1.0,bus2=RML1010292288.1.0,Phases=1,Linecode=CABBTG02_4_1,Length=0.017000000,Units=km
new line.RML10292664 bus1=BBT112098.1.0,bus2=RML1010292664.1.0,Phases=1,Linecode=CABBTG02_4_1,Length=0.017000000,Units=km
new line.RML10293247 bus1=BBT113239.1.2.0,bus2=RML1010293247.1.2.0,Phases=2,Linecode=CABBT503_7_2,Length=0.017000000,Units=km
new line.RML10293337 bus1=BBT116193.2.0,bus2=RML1010293337.2.0,Phases=1,Linecode=CABBTG02_4_1,Length=0.017000000,Units=km
new line.RML10306652 bus1=BBT117152.1.2.0,bus2=RML1010306652.1.2.0,Phases=2,Linecode=CABBTG05_4_2,Length=0.017000000,Units=km
new line.RML10306736 bus1=BBT149582456.2.0,bus2=RML1010306736.2.0,Phases=1,Linecode=CABBTG02_4_1,Length=0.017000000,Units=km
new line.RML10306737 bus1=BBT4116994.1.0,bus2=RML1010306737.1.0,Phases=1,Linecode=CABBTG02_4_1,Length=0.017000000,Units=km
new line.RML10306744 bus1=BBT111062.1.0,bus2=RML1010306744.1.0,Phases=1,Linecode=CABBTG02_4_1,Length=0.017000000,Units=km
new line.RML10306746 bus1=BBT113358.1.2.0,bus2=RML1010306746.1.2.0,Phases=2,Linecode=CABBTG05_4_2,Length=0.017000000,Units=km
new line.RML10323219 bus1=BBT116662.1.2.0,bus2=RML1010323219.1.2.0,Phases=2,Linecode=CABBTG05_4_2,Length=0.017000000,Units=km
new line.RML10323622 bus1=BBT215096.1.2.0,bus2=RML1010323622.1.2.0,Phases=2,Linecode=CABBTG05_4_2,Length=0.017000000,Units=km
new line.RML10335181 bus1=BBT5191914.2.0,bus2=RML1010335181.2.0,Phases=1,Linecode=CABBTG02_4_1,Length=0.017000000,Units=km
new line.RML10362104 bus1=BBT5191928.1.2.0,bus2=RML1010362104.1.2.0,Phases=2,Linecode=CABBTG05_4_2,Length=0.017000000,Units=km
new line.RML10362209 bus1=BBT151256769.1.2.3.0,bus2=RML1010362209.1.2.3.0,Phases=3,Linecode=CABBTG08_4_3,Length=0.017000000,Units=km
new line.RML10040348 bus1=BBT148244011.1.2.0,bus2=RML1010040348.1.2.0,Phases=2,Linecode=CABBTG05_4_2,Length=0.017000000,Units=km
new line.RML10040751 bus1=BBT170810350.1.0,bus2=RML1010040751.1.0,Phases=1,Linecode=CABBTG02_4_1,Length=0.017000000,Units=km
new line.RML10055861 bus1=BBT148607607.1.2.0,bus2=RML1010055861.1.2.0,Phases=2,Linecode=CABBTG05_4_2,Length=0.017000000,Units=km
new line.RML10055979 bus1=BBT148610147.1.2.0,bus2=RML1010055979.1.2.0,Phases=2,Linecode=CABBTG05_4_2,Length=0.017000000,Units=km
new line.RML10085513 bus1=BBT3322627.1.2.0,bus2=RML1010085513.1.2.0,Phases=2,Linecode=CABBTG05_4_2,Length=0.017000000,Units=km
new line.RML10085645 bus1=BBT325073.1.2.0,bus2=RML1010085645.1.2.0,Phases=2,Linecode=CABBTG05_4_2,Length=0.017000000,Units=km
new line.RML10085792 bus1=BBT309421.1.0,bus2=RML1010085792.1.0,Phases=1,Linecode=CABBTG02_4_1,Length=0.017000000,Units=km
new line.RML10102905 bus1=BBT296800.1.2.0,bus2=RML1010102905.1.2.0,Phases=2,Linecode=CABBTG05_4_2,Length=0.017000000,Units=km
new line.RML10103385 bus1=BBT113225.1.2.0,bus2=RML1010103385.1.2.0,Phases=2,Linecode=CABBTG04_4_2,Length=0.017000000,Units=km