new load.3011299593M1 bus1=RML1005966307.1.0,Phases=1,kv=0.12,kW=0.01984,pf=0.92,Vminpu=0.92,Vmaxpu=1.5,model=1,daily=RUR1_9,status=variable
new load.3011392455M1 bus1=RML1006162104.1.0,Phases=1,kv=0.12,kW=1.0119,pf=0.92,Vminpu=0.92,Vmaxpu=1.5,model=1,daily=RUR1_10,status=variable
new load.3004723208M1 bus1=RML1010438313.1.2.0,Phases=2,kv=0.24,kW=6.0011,pf=0.92,Vminpu=0.92,Vmaxpu=1.5,model=1,daily=RUR1_11,status=variable
new load.3011568077M1 bus1=RML1006329215.2.0,Phases=1,kv=0.12,kW=0.8718,pf=0.92,Vminpu=0.92,Vmaxpu=1.5,model=1,daily=RUR2_7,status=variable
new load.3011927800M1 bus1=RML1006827041.1.2.0,Phases=2,kv=0.24,kW=0.8253,pf=0.92,Vminpu=0.92,Vmaxpu=1.5,model=1,daily=RUR1_14,status=variable
new load.3012023219M1 bus1=RML1010174130.1.0,Phases=1,kv=0.12,kW=0.29962,pf=0.92,Vminpu=0.92,Vmaxpu=1.5,model=1,daily=RES1_11,status=variable
new load.3012196163M1 bus1=RML1010158840.1.2.0,Phases=2,kv=0.24,kW=0.04608,pf=0.92,Vminpu=0.92,Vmaxpu=1.5,model=1,daily=RES2_16,status=variable
new load.3013046377M1 bus1=RML1010619672.1.2.0,Phases=2,kv=0.22,kW=1.10954,pf=0.92,Vminpu=0.92,Vmaxpu=1.5,model=1,daily=RES2_6,status=variable
new load.3013006297M1 bus1=RML1010565200.1.2.3.0,Phases=3,kv=0.22,kW=2.05452,pf=0.92,Vminpu=0.92,Vmaxpu=1.5,model=1,daily=RES3_6,status=variable
new load.3013314870M1 bus1=RML1010688813.3.0,Phases=1,kv=0.127,kW=0.91002,pf=0.92,Vminpu=0.92,Vmaxpu=1.5,model=1,daily=RES3_11,status=variable
new load.3013230387M1 bus1=RML1010661162.1.2.0,Phases=2,kv=0.22,kW=1.04382,pf=0.92,Vminpu=0.92,Vmaxpu=1.5,model=1,daily=RES2_8,status=variable
new load.3013260789M1 bus1=RML1010675329.1.3.0,Phases=2,kv=0.22,kW=1.15018,pf=0.92,Vminpu=0.92,Vmaxpu=1.5,model=1,daily=RES3_11,status=variable
new load.3013925231M1 bus1=RML1010980216.1.2.0,Phases=2,kv=0.22,kW=0.49998,pf=0.92,Vminpu=0.92,Vmaxpu=1.5,model=1,daily=RES1_23,status=variable
new load.3014392707M1 bus1=RML1011166637.1.2.0,Phases=2,kv=0.22,kW=0.03886,pf=0.92,Vminpu=0.92,Vmaxpu=1.5,model=1,daily=RES1_19,status=variable
new load.3014130686M1 bus1=RML1011095438.1.0,Phases=1,kv=0.127,kW=1.82386,pf=0.92,Vminpu=0.92,Vmaxpu=1.5,model=1,daily=RES1_2,status=variable
new load.3011489612M1 bus1=RML1006210894.1.2.0,Phases=2,kv=0.24,kW=2.3478,pf=0.92,Vminpu=0.92,Vmaxpu=1.5,model=1,daily=RES4_5,status=variable
new load.3011516721M1 bus1=RML1006258830.1.2.0,Phases=2,kv=0.24,kW=0.4638,pf=0.92,Vminpu=0.92,Vmaxpu=1.5,model=1,daily=RUR4_2,status=variable
new load.3011526425M1 bus1=RML1010725650.1.2.0,Phases=2,kv=0.24,kW=4.09166,pf=0.92,Vminpu=0.92,Vmaxpu=1.5,model=1,daily=RUR1_11,status=variable
new load.3011584797M1 bus1=RML1006363060.1.0,Phases=1,kv=0.12,kW=0.33034,pf=0.92,Vminpu=0.92,Vmaxpu=1.5,model=1,daily=RUR4_3,status=variable
new load.3011553233M1 bus1=RML1006347072.1.2.3.0,Phases=3,kv=0.22,kW=4.67048,pf=0.92,Vminpu=0.92,Vmaxpu=1.5,model=1,daily=COM3_3,status=variable
new load.3011592847M1 bus1=RML1006374659.1.2.0,Phases=2,kv=0.24,kW=0.79916,pf=0.92,Vminpu=0.92,Vmaxpu=1.5,model=1,daily=RUR2_7,status=variable
new load.3011747883M1 bus1=RML1010068894.1.2.0,Phases=2,kv=0.24,kW=0.34006,pf=0.92,Vminpu=0.92,Vmaxpu=1.5,model=1,daily=RUR4_5,status=variable
new load.3012642888M1 bus1=RML1010565211.1.2.0,Phases=2,kv=0.22,kW=0.87694,pf=0.92,Vminpu=0.92,Vmaxpu=1.5,model=1,daily=RES2_1,status=variable
new load.3012652830M1 bus1=RML1010396078.1.2.0,Phases=2,kv=0.22,kW=0.75342,pf=0.92,Vminpu=0.92,Vmaxpu=1.5,model=1,daily=RES2_1,status=variable
new load.3012790574M1 bus1=RML1010466147.1.2.0,Phases=2,kv=0.22,kW=1.57294,pf=0.92,Vminpu=0.92,Vmaxpu=1.5,model=1,daily=RES3_4,status=variable
new load.3012639908M1 bus1=RML1010392354.1.2.0,Phases=2,kv=0.22,kW=2.28754,pf=0.92,Vminpu=0.92,Vmaxpu=1.5,model=1,daily=RES3_2,status=variable
new load.3012829769M1 bus1=RML1010487984.1.2.0,Phases=2,kv=0.22,kW=0.72152,pf=0.92,Vminpu=0.92,Vmaxpu=1.5,model=1,daily=RES2_4,status=variable
new load.3012890452M1 bus1=RML1010511226.1.0,Phases=1,kv=0.127,kW=0.93316,pf=0.92,Vminpu=0.92,Vmaxpu=1.5,model=1,daily=RES2_4,status=variable
new load.3012665300M1 bus1=RML1010980220.1.2.0,Phases=2,kv=0.22,kW=1.6083,pf=0.92,Vminpu=0.92,Vmaxpu=1.5,model=1,daily=RES3_2,status=variable
new load.3012898842M1 bus1=RML1010514538.1.2.0,Phases=2,kv=0.22,kW=1.39494,pf=0.92,Vminpu=0.92,Vmaxpu=1.5,model=1,daily=RES2_4,status=variable
new load.3012770895M1 bus1=RML1010458143.1.2.0,Phases=2,kv=0.22,kW=1.29324,pf=0.92,Vminpu=0.92,Vmaxpu=1.5,model=1,daily=RES2_2,status=variable
new load.3013723670M1 bus1=RML1010895709.1.3.0,Phases=2,kv=0.22,kW=0.9838,pf=0.92,Vminpu=0.92,Vmaxpu=1.5,model=1,daily=RES2_21,status=variable
new load.3011482820M1 bus1=RML1006196180.1.2.0,Phases=2,kv=0.24,kW=1.53146,pf=0.92,Vminpu=0.92,Vmaxpu=1.5,model=1,daily=RUR2_6,status=variable
new load.3011497674M1 bus1=RML1010090938.1.0,Phases=1,kv=0.12,kW=0.68272,pf=0.92,Vminpu=0.92,Vmaxpu=1.5,model=1,daily=RUR4_2,status=variable
new load.3011519301M1 bus1=RML1006284884.1.2.0,Phases=2,kv=0.24,kW=1.67088,pf=0.92,Vminpu=0.92,Vmaxpu=1.5,model=1,daily=RES3_4,status=variable
new load.3011392916M1 bus1=RML1010511269.2.0,Phases=1,kv=0.12,kW=1.13518,pf=0.92,Vminpu=0.92,Vmaxpu=1.5,model=1,daily=RES2_2,status=variable
new load.3011358102M1 bus1=RML1006034466.1.0,Phases=1,kv=0.12,kW=1.5535,pf=0.92,Vminpu=0.92,Vmaxpu=1.5,model=1,daily=RES1_1,status=variable
new load.3006757619M1 bus1=RML1004303173.1.2.0,Phases=2,kv=0.24,kW=0.67314,pf=0.92,Vminpu=0.92,Vmaxpu=1.5,model=1,daily=RES2_5,status=variable
new load.3006820284M1 bus1=RML1004359054.1.0,Phases=1,kv=0.12,kW=2.38832,pf=0.92,Vminpu=0.92,Vmaxpu=1.5,model=1,daily=RES2_6,status=variable
new load.3012154258M1 bus1=RML1010324253.1.2.0,Phases=2,kv=0.24,kW=0.82448,pf=0.92,Vminpu=0.92,Vmaxpu=1.5,model=1,daily=RES1_14,status=variable
new load.3012727403M1 bus1=RML1010435501.1.2.0,Phases=2,kv=0.24,kW=1.02742,pf=0.92,Vminpu=0.92,Vmaxpu=1.5,model=1,daily=RES2_2,status=variable
new load.3012832671M1 bus1=RML1010493246.1.2.0,Phases=2,kv=0.24,kW=1.09672,pf=0.92,Vminpu=0.92,Vmaxpu=1.5,model=1,daily=RES2_4,status=variable
new load.3012860082M1 bus1=RML1010500377.1.2.0,Phases=2,kv=0.24,kW=1.38322,pf=0.92,Vminpu=0.92,Vmaxpu=1.5,model=1,daily=RES3_4,status=variable
new load.3013483831M1 bus1=RML1010785704.1.2.0,Phases=2,kv=0.24,kW=1.76636,pf=0.92,Vminpu=0.92,Vmaxpu=1.5,model=1,daily=RES2_14,status=variable
new load.3013291495M1 bus1=RML1010324253.1.2.0,Phases=2,kv=0.24,kW=2.98452,pf=0.92,Vminpu=0.92,Vmaxpu=1.5,model=1,daily=RES5_11,status=variable
new load.IP2447057M1 bus1=BBT111424226.1.2.0,Phases=2,kv=0.24,kW=0.11292,pf=0.92,Vminpu=0.92,Vmaxpu=1.5,model=1,daily=IP,status=variable,NumCust=0
new load.IP2447113M1 bus1=BBT111424226.1.2.0,Phases=2,kv=0.24,kW=0.11292,pf=0.92,Vminpu=0.92,Vmaxpu=1.5,model=1,daily=IP,status=variable,NumCust=0
new load.IP2398330M1 bus1=BBT111420096.1.2.0,Phases=2,kv=0.24,kW=0.11292,pf=0.92,Vminpu=0.92,Vmaxpu=1.5,model=1,daily=IP,status=variable,NumCust=0
new load.IP2398337M1 bus1=BBT111420012.1.2.0,Phases=2,kv=0.24,kW=0.11292,pf=0.92,Vminpu=0.92,Vmaxpu=1.5,model=1,daily=IP,status=variable,NumCust=0
new load.IP2398344M1 bus1=BBT111418199.1.2.0,Phases=2,kv=0.24,kW=0.11292,pf=0.92,Vminpu=0.92,Vmaxpu=1.5,model=1,daily=IP,status=variable,NumCust=0
new load.IP2398407M1 bus1=BBT111422686.1.2.0,Phases=2,kv=0.24,kW=0.11292,pf=0.92,Vminpu=0.92,Vmaxpu=1.5,model=1,daily=IP,status=variable,NumCust=0
new load.IP2398414M1 bus1=BBT111422161.1.2.0,Phases=2,kv=0.24,kW=0.11292,pf=0.92,Vminpu=0.92,Vmaxpu=1.5,model=1,daily=IP,status=variable,NumCust=0
new load.3011178333M1 bus1=RML1005834224.1.2.0,Phases=2,kv=0.24,kW=0.00558,pf=0.92,Vminpu=0.92,Vmaxpu=1.5,model=1,daily=RUR1_27,status=variable
new load.3013773604M1 bus1=RML1010937697.1.0,Phases=1,kv=0.12,kW=1.32732,pf=0.92,Vminpu=0.92,Vmaxpu=1.5,model=1,daily=COM1_21,status=variable
new load.3013651630M1 bus1=RML1010869528.2.0,Phases=1,kv=0.12,kW=0.85724,pf=0.92,Vminpu=0.92,Vmaxpu=1.5,model=1,daily=RUR1_20,status=variable
new load.3014368153M1 bus1=RML1011165550.1.2.0,Phases=2,kv=0.24,kW=0.00516,pf=0.92,Vminpu=0.92,Vmaxpu=1.5,model=1,daily=RES1_17,status=variable
new load.3011543478M1 bus1=RML1006304652.2.0,Phases=1,kv=0.12,kW=0.65488,pf=0.92,Vminpu=0.92,Vmaxpu=1.5,model=1,daily=RUR4_2,status=variable
new load.IP37870M1 bus1=BBT114639.2.3.0,Phases=2,kv=0.22,kW=0.16554,pf=0.92,Vminpu=0.92,Vmaxpu=1.5,model=1,daily=IP,status=variable,NumCust=0
new load.IP37877M1 bus1=BBT131458373.1.3.0,Phases=2,kv=0.22,kW=0.16554,pf=0.92,Vminpu=0.92,Vmaxpu=1.5,model=1,daily=IP,status=variable,NumCust=0
new load.IP37884M1 bus1=BBT114653.2.3.0,Phases=2,kv=0.22,kW=0.16554,pf=0.92,Vminpu=0.92,Vmaxpu=1.5,model=1,daily=IP,status=variable,NumCust=0
new load.3003028329M1 bus1=RML1000262822.1.2.3.0,Phases=3,kv=0.22,kW=1.01528,pf=0.92,Vminpu=0.92,Vmaxpu=1.5,model=1,daily=COM1_20,status=variable
new load.3003028331M1 bus1=RML1000262843.1.2.3.0,Phases=3,kv=0.22,kW=0.67992,pf=0.92,Vminpu=0.92,Vmaxpu=1.5,model=1,daily=RES1_17,status=variable
new load.3003028332M1 bus1=RML1000262836.1.2.3.0,Phases=3,kv=0.22,kW=0.73006,pf=0.92,Vminpu=0.92,Vmaxpu=1.5,model=1,daily=RES2_19,status=variable
new load.3003028333M1 bus1=RML1000262857.2.0,Phases=1,kv=0.127,kW=0.52024,pf=0.92,Vminpu=0.92,Vmaxpu=1.5,model=1,daily=RES1_17,status=variable
new load.3003300674M1 bus1=RML1000265349.1.2.3.0,Phases=3,kv=0.22,kW=3.35482,pf=0.92,Vminpu=0.92,Vmaxpu=1.5,model=1,daily=COM3_25,status=variable
new load.3003300713M1 bus1=RML1000262829.1.2.3.0,Phases=3,kv=0.22,kW=10.6236,pf=0.92,Vminpu=0.92,Vmaxpu=1.5,model=1,daily=COM3_25,status=variable
new load.3003728254M1 bus1=RML1000262836.1.2.3.0,Phases=3,kv=0.22,kW=10.29876,pf=0.92,Vminpu=0.92,Vmaxpu=1.5,model=1,daily=COM4_8,status=variable
new load.3004745714M1 bus1=RML1000262850.1.0,Phases=1,kv=0.127,kW=0.47452,pf=0.92,Vminpu=0.92,Vmaxpu=1.5,model=1,daily=COM1_9,status=variable
new load.3004999567M1 bus1=RML1000262815.2.0,Phases=1,kv=0.127,kW=1.49812,pf=0.92,Vminpu=0.92,Vmaxpu=1.5,model=1,daily=RES1_11,status=variable
new load.3006192902M1 bus1=RML1000264719.1.2.0,Phases=2,kv=0.22,kW=0.26108,pf=0.92,Vminpu=0.92,Vmaxpu=1.5,model=1,daily=COM1_20,status=variable
new load.IP2398421M1 bus1=BBT111422791.1.2.0,Phases=2,kv=0.24,kW=0.11292,pf=0.92,Vminpu=0.92,Vmaxpu=1.5,model=1,daily=IP,status=variable,NumCust=0
new load.IP2398554M1 bus1=BBT111421776.1.2.0,Phases=2,kv=0.24,kW=0.11292,pf=0.92,Vminpu=0.92,Vmaxpu=1.5,model=1,daily=IP,status=variable,NumCust=0
new load.IP8408836M1 bus1=BBT111423757.1.2.0,Phases=2,kv=0.24,kW=0.11292,pf=0.92,Vminpu=0.92,Vmaxpu=1.5,model=1,daily=IP,status=variable,NumCust=0
new load.3005980969M1 bus1=RML1000258895.2.0,Phases=1,kv=0.12,kW=1.21724,pf=0.92,Vminpu=0.92,Vmaxpu=1.5,model=1,daily=RES2_10,status=variable
new load.3006618917M1 bus1=RML1004209093.1.2.0,Phases=2,kv=0.24,kW=0.88372,pf=0.92,Vminpu=0.92,Vmaxpu=1.5,model=1,daily=RES2_2,status=variable
new load.3006433245M1 bus1=RML1004092662.1.2.0,Phases=2,kv=0.24,kW=0.6571,pf=0.92,Vminpu=0.92,Vmaxpu=1.5,model=1,daily=RES1_25,status=variable
new load.3011669559M1 bus1=RML1010185172.1.2.0,Phases=2,kv=0.24,kW=0.90698,pf=0.92,Vminpu=0.92,Vmaxpu=1.5,model=1,daily=RUR1_11,status=variable
new load.3011568125M1 bus1=RML1006330111.2.0,Phases=1,kv=0.12,kW=0.87698,pf=0.92,Vminpu=0.92,Vmaxpu=1.5,model=1,daily=RUR2_7,status=variable
new load.3011586105M1 bus1=RML1010146838.1.2.0,Phases=2,kv=0.24,kW=3.4124,pf=0.92,Vminpu=0.92,Vmaxpu=1.5,model=1,daily=RUR4_3,status=variable
new load.3011756869M1 bus1=RML1010055861.1.2.0,Phases=2,kv=0.24,kW=4.55458,pf=0.92,Vminpu=0.92,Vmaxpu=1.5,model=1,daily=RUR4_6,status=variable
new load.3012643068M1 bus1=RML1010392380.1.2.0,Phases=2,kv=0.22,kW=1.16102,pf=0.92,Vminpu=0.92,Vmaxpu=1.5,model=1,daily=RES2_1,status=variable
new load.3012990467M1 bus1=RML1010565216.1.2.0,Phases=2,kv=0.22,kW=0.19788,pf=0.92,Vminpu=0.92,Vmaxpu=1.5,model=1,daily=RES1_3,status=variable
new load.3012816930M1 bus1=RML1010484767.1.0,Phases=1,kv=0.127,kW=1.6643,pf=0.92,Vminpu=0.92,Vmaxpu=1.5,model=1,daily=RES2_4,status=variable
new load.3012323254M1 bus1=RML1010221326.1.2.0,Phases=2,kv=0.22,kW=0.91876,pf=0.92,Vminpu=0.92,Vmaxpu=1.5,model=1,daily=RES2_20,status=variable
new load.3012448288M1 bus1=RML1010306736.2.0,Phases=1,kv=0.127,kW=0.44722,pf=0.92,Vminpu=0.92,Vmaxpu=1.5,model=1,daily=RES2_23,status=variable
new load.3012759508M1 bus1=RML1010453356.1.3.0,Phases=2,kv=0.22,kW=1.54898,pf=0.92,Vminpu=0.92,Vmaxpu=1.5,model=1,daily=RES3_3,status=variable
new load.3012814400M1 bus1=RML1010484705.1.2.0,Phases=2,kv=0.22,kW=1.41994,pf=0.92,Vminpu=0.92,Vmaxpu=1.5,model=1,daily=RES3_4,status=variable
new load.3013577776M1 bus1=RML1010849386.1.2.0,Phases=2,kv=0.22,kW=0.08234,pf=0.92,Vminpu=0.92,Vmaxpu=1.5,model=1,daily=RES1_15,status=variable
new load.3012916177M1 bus1=RML1010520052.1.2.0,Phases=2,kv=0.22,kW=1.7509,pf=0.92,Vminpu=0.92,Vmaxpu=1.5,model=1,daily=RES2_4,status=variable
new load.3003766161M1 bus1=RML1000264719.1.2.0,Phases=2,kv=0.22,kW=1.48218,pf=0.92,Vminpu=0.92,Vmaxpu=1.5,model=1,daily=RES2_7,status=variable
new load.3001759847M1 bus1=RML1000264761.3.0,Phases=1,kv=0.127,kW=1.01618,pf=0.92,Vminpu=0.92,Vmaxpu=1.5,model=1,daily=RES2_12,status=variable
new load.3001759848M1 bus1=RML1000264747.1.0,Phases=1,kv=0.127,kW=0.09364,pf=0.92,Vminpu=0.92,Vmaxpu=1.5,model=1,daily=RES1_12,status=variable
new load.3001759849M1 bus1=RML1000264740.3.0,Phases=1,kv=0.127,kW=1.78888,pf=0.92,Vminpu=0.92,Vmaxpu=1.5,model=1,daily=RES2_12,status=variable
new load.3001759850M1 bus1=RML1000264726.1.3.0,Phases=2,kv=0.22,kW=2.01688,pf=0.92,Vminpu=0.92,Vmaxpu=1.5,model=1,daily=RES4_13,status=variable
new load.3001759851M1 bus1=RML1000264712.1.2.3.0,Phases=3,kv=0.22,kW=38.8182,pf=0.92,Vminpu=0.92,Vmaxpu=1.5,model=1,daily=COM4_14,status=variable
new load.3001759853M1 bus1=RML1000264733.1.3.0,Phases=2,kv=0.22,kW=0.12484,pf=0.92,Vminpu=0.92,Vmaxpu=1.5,model=1,daily=RES1_12,status=variable
new load.3001759854M1 bus1=RML1000264754.3.0,Phases=1,kv=0.127,kW=2.16996,pf=0.92,Vminpu=0.92,Vmaxpu=1.5,model=1,daily=RES2_12,status=variable
new load.3001759855M1 bus1=RML1000264768.3.0,Phases=1,kv=0.127,kW=0.42916,pf=0.92,Vminpu=0.92,Vmaxpu=1.5,model=1,daily=RES1_12,status=variable
new load.3001759892M1 bus1=RML1000262570.1.2.3.0,Phases=3,kv=0.22,kW=2.22288,pf=0.92,Vminpu=0.92,Vmaxpu=1.5,model=1,daily=RES2_12,status=variable
new load.3001759893M1 bus1=RML1000262563.1.2.3.0,Phases=3,kv=0.22,kW=0.09222,pf=0.92,Vminpu=0.92,Vmaxpu=1.5,model=1,daily=COM1_16,status=variable
new load.IP38458M1 bus1=BBT115605.1.3.0,Phases=2,kv=0.22,kW=0.133,pf=0.92,Vminpu=0.92,Vmaxpu=1.5,model=1,daily=IP,status=variable,NumCust=0
new load.IP1226974M1 bus1=BBT114520.1.2.0,Phases=2,kv=0.22,kW=0.16554,pf=0.92,Vminpu=0.92,Vmaxpu=1.5,model=1,daily=IP,status=variable,NumCust=0
new load.IP2581779M1 bus1=BBT114513.1.3.0,Phases=2,kv=0.22,kW=0.133,pf=0.92,Vminpu=0.92,Vmaxpu=1.5,model=1,daily=IP,status=variable,NumCust=0
new load.IP37800M1 bus1=BBT3137421.1.3.0,Phases=2,kv=0.22,kW=0.16554,pf=0.92,Vminpu=0.92,Vmaxpu=1.5,model=1,daily=IP,status=variable,NumCust=0
new load.3006419472M1 bus1=RML1004082855.1.0,Phases=1,kv=0.127,kW=0.28166,pf=0.92,Vminpu=0.92,Vmaxpu=1.5,model=1,daily=RES2_27,status=variable
new load.3013778897M1 bus1=RML1011019381.1.2.0,Phases=2,kv=0.24,kW=0.4467,pf=0.92,Vminpu=0.92,Vmaxpu=1.5,model=1,daily=RES4_19,status=variable
new load.3011868252M1 bus1=RML1006827286.1.2.0,Phases=2,kv=0.24,kW=1.16292,pf=0.92,Vminpu=0.92,Vmaxpu=1.5,model=1,daily=RES1_8,status=variable
new load.3013064334M1 bus1=RML1010591197.1.2.0,Phases=2,kv=0.24,kW=2.38486,pf=0.92,Vminpu=0.92,Vmaxpu=1.5,model=1,daily=RES3_7,status=variable
new load.3013321991M1 bus1=RML1010695251.2.3.0,Phases=2,kv=0.22,kW=0.99108,pf=0.92,Vminpu=0.92,Vmaxpu=1.5,model=1,daily=RES2_10,status=variable
new load.3013475387M1 bus1=RML1010782788.1.2.0,Phases=2,kv=0.22,kW=0.87378,pf=0.92,Vminpu=0.92,Vmaxpu=1.5,model=1,daily=RES2_14,status=variable
new load.3012842187M1 bus1=RML1010493267.1.0,Phases=1,kv=0.127,kW=0.59814,pf=0.92,Vminpu=0.92,Vmaxpu=1.5,model=1,daily=RES1_2,status=variable
new load.3013259643M1 bus1=RML1010679960.1.0,Phases=1,kv=0.127,kW=1.31702,pf=0.92,Vminpu=0.92,Vmaxpu=1.5,model=1,daily=RES2_10,status=variable
new load.3013826076M1 bus1=RML1010969485.1.2.0,Phases=2,kv=0.22,kW=0.34914,pf=0.92,Vminpu=0.92,Vmaxpu=1.5,model=1,daily=RES2_23,status=variable
new load.3013977728M1 bus1=RML1011001892.1.2.0,Phases=2,kv=0.22,kW=0.00876,pf=0.92,Vminpu=0.92,Vmaxpu=1.5,model=1,daily=RES1_25,status=variable
new load.3014229425M1 bus1=RML1010904293.1.3.0,Phases=2,kv=0.22,kW=1.06198,pf=0.92,Vminpu=0.92,Vmaxpu=1.5,model=1,daily=RES1_6,status=variable
new load.3013634958M1 bus1=RML1010852909.2.0,Phases=1,kv=0.127,kW=1.03396,pf=0.92,Vminpu=0.92,Vmaxpu=1.5,model=1,daily=RES2_18,status=variable
new load.3013927289M1 bus1=RML1010983620.3.0,Phases=1,kv=0.127,kW=0.03846,pf=0.92,Vminpu=0.92,Vmaxpu=1.5,model=1,daily=RES1_23,status=variable
new load.3013726818M1 bus1=RML1010895708.1.0,Phases=1,kv=0.127,kW=1.35354,pf=0.92,Vminpu=0.92,Vmaxpu=1.5,model=1,daily=RES2_21,status=variable
new load.3013748024M1 bus1=RML1010904293.1.3.0,Phases=2,kv=0.22,kW=0.37238,pf=0.92,Vminpu=0.92,Vmaxpu=1.5,model=1,daily=RES2_22,status=variable
new load.3013782002M1 bus1=RML1010923160.1.2.0,Phases=2,kv=0.22,kW=0.9572,pf=0.92,Vminpu=0.92,Vmaxpu=1.5,model=1,daily=RES2_23,status=variable
new load.IP2784198M1 bus1=BBT149582460.1.2.0,Phases=2,kv=0.22,kW=0.11292,pf=0.92,Vminpu=0.92,Vmaxpu=1.5,model=1,daily=IP,status=variable,NumCust=0
new load.IP2784205M1 bus1=BBT149582459.2.3.0,Phases=2,kv=0.22,kW=0.11292,pf=0.92,Vminpu=0.92,Vmaxpu=1.5,model=1,daily=IP,status=variable,NumCust=0
new load.IP2784212M1 bus1=BBT149582457.1.3.0,Phases=2,kv=0.22,kW=0.11292,pf=0.92,Vminpu=0.92,Vmaxpu=1.5,model=1,daily=IP,status=variable,NumCust=0
new load.IP2784219M1 bus1=BBT149582462.1.3.0,Phases=2,kv=0.22,kW=0.11292,pf=0.92,Vminpu=0.92,Vmaxpu=1.5,model=1,daily=IP,status=variable,NumCust=0
new load.IP2784226M1 bus1=BBT149582456.1.2.0,Phases=2,kv=0.22,kW=0.11292,pf=0.92,Vminpu=0.92,Vmaxpu=1.5,model=1,daily=IP,status=variable,NumCust=0
new load.IP2784240M1 bus1=BBT149582455.2.3.0,Phases=2,kv=0.22,kW=0.11292,pf=0.92,Vminpu=0.92,Vmaxpu=1.5,model=1,daily=IP,status=variable,NumCust=0
new load.IP2784247M1 bus1=BBT149582466.1.3.0,Phases=2,kv=0.22,kW=0.11292,pf=0.92,Vminpu=0.92,Vmaxpu=1.5,model=1,daily=IP,status=variable,NumCust=0
new load.3013845566M1 bus1=RML1010947462.1.2.0,Phases=2,kv=0.22,kW=0.46792,pf=0.92,Vminpu=0.92,Vmaxpu=1.5,model=1,daily=RES2_24,status=variable
new load.3013363969M1 bus1=RML1010710756.1.0,Phases=1,kv=0.127,kW=1.66826,pf=0.92,Vminpu=0.92,Vmaxpu=1.5,model=1,daily=RES2_11,status=variable
new load.3013934587M1 bus1=RML1010983606.1.2.0,Phases=2,kv=0.22,kW=0.26018,pf=0.92,Vminpu=0.92,Vmaxpu=1.5,model=1,daily=RES2_27,status=variable
new load.IP2784016M1 bus1=BBT149582390.1.3.0,Phases=2,kv=0.22,kW=0.11292,pf=0.92,Vminpu=0.92,Vmaxpu=1.5,model=1,daily=IP,status=variable,NumCust=0
new load.IP2784023M1 bus1=BBT149582391.2.3.0,Phases=2,kv=0.22,kW=0.11292,pf=0.92,Vminpu=0.92,Vmaxpu=1.5,model=1,daily=IP,status=variable,NumCust=0
new load.IP2784030M1 bus1=BBT149582392.1.3.0,Phases=2,kv=0.22,kW=0.11292,pf=0.92,Vminpu=0.92,Vmaxpu=1.5,model=1,daily=IP,status=variable,NumCust=0
new load.IP2784037M1 bus1=BBT149582394.2.3.0,Phases=2,kv=0.22,kW=0.11292,pf=0.92,Vminpu=0.92,Vmaxpu=1.5,model=1,daily=IP,status=variable,NumCust=0
new load.IP2784044M1 bus1=BBT149582396.1.2.0,Phases=2,kv=0.22,kW=0.11292,pf=0.92,Vminpu=0.92,Vmaxpu=1.5,model=1,daily=IP,status=variable,NumCust=0
new load.IP2784051M1 bus1=BBT149582397.1.3.0,Phases=2,kv=0.22,kW=0.11292,pf=0.92,Vminpu=0.92,Vmaxpu=1.5,model=1,daily=IP,status=variable,NumCust=0
new load.IP2784058M1 bus1=BBT149582398.2.3.0,Phases=2,kv=0.22,kW=0.11292,pf=0.92,Vminpu=0.92,Vmaxpu=1.5,model=1,daily=IP,status=variable,NumCust=0
new load.IP2784100M1 bus1=BBT149582399.1.2.0,Phases=2,kv=0.22,kW=0.11292,pf=0.92,Vminpu=0.92,Vmaxpu=1.5,model=1,daily=IP,status=variable,NumCust=0
new load.IP2784184M1 bus1=BBT149582393.1.2.0,Phases=2,kv=0.22,kW=0.11292,pf=0.92,Vminpu=0.92,Vmaxpu=1.5,model=1,daily=IP,status=variable,NumCust=0
new load.IP2784191M1 bus1=BBT149582395.2.3.0,Phases=2,kv=0.22,kW=0.11292,pf=0.92,Vminpu=0.92,Vmaxpu=1.5,model=1,daily=IP,status=variable,NumCust=0
new load.IP61572M1 bus1=BBT154651.1.2.0,Phases=2,kv=0.24,kW=0.133,pf=0.92,Vminpu=0.92,Vmaxpu=1.5,model=1,daily=IP,status=variable,NumCust=0
new load.IP61579M1 bus1=BBT154658.1.2.0,Phases=2,kv=0.24,kW=0.133,pf=0.92,Vminpu=0.92,Vmaxpu=1.5,model=1,daily=IP,status=variable,NumCust=0
new load.IP61586M1 bus1=BBT154665.1.2.0,Phases=2,kv=0.24,kW=0.133,pf=0.92,Vminpu=0.92,Vmaxpu=1.5,model=1,daily=IP,status=variable,NumCust=0
new load.IP61593M1 bus1=BBT154672.1.2.0,Phases=2,kv=0.24,kW=0.133,pf=0.92,Vminpu=0.92,Vmaxpu=1.5,model=1,daily=IP,status=variable,NumCust=0
new load.IP61600M1 bus1=BBT154679.1.2.0,Phases=2,kv=0.24,kW=0.133,pf=0.92,Vminpu=0.92,Vmaxpu=1.5,model=1,daily=IP,status=variable,NumCust=0
new load.IP61607M1 bus1=BBT154686.1.2.0,Phases=2,kv=0.24,kW=0.133,pf=0.92,Vminpu=0.92,Vmaxpu=1.5,model=1,daily=IP,status=variable,NumCust=0
new load.IP61614M1 bus1=BBT154693.1.2.0,Phases=2,kv=0.24,kW=0.133,pf=0.92,Vminpu=0.92,Vmaxpu=1.5,model=1,daily=IP,status=variable,NumCust=0
new load.IP8183498M1 bus1=BBT152898237.1.3.0,Phases=2,kv=0.22,kW=0.11292,pf=0.92,Vminpu=0.92,Vmaxpu=1.5,model=1,daily=IP,status=variable,NumCust=0
new load.IP8183524M1 bus1=BBT152898209.2.3.0,Phases=2,kv=0.22,kW=0.11292,pf=0.92,Vminpu=0.92,Vmaxpu=1.5,model=1,daily=IP,status=variable,NumCust=0
new load.IP8183532M1 bus1=BBT152898207.1.3.0,Phases=2,kv=0.22,kW=0.11292,pf=0.92,Vminpu=0.92,Vmaxpu=1.5,model=1,daily=IP,status=variable,NumCust=0
new load.IP8183533M1 bus1=BBT152898206.2.3.0,Phases=2,kv=0.22,kW=0.11292,pf=0.92,Vminpu=0.92,Vmaxpu=1.5,model=1,daily=IP,status=variable,NumCust=0
new load.IP8183543M1 bus1=BBT152898235.1.2.0,Phases=2,kv=0.22,kW=0.11292,pf=0.92,Vminpu=0.92,Vmaxpu=1.5,model=1,daily=IP,status=variable,NumCust=0
new load.IP8183545M1 bus1=BBT152898234.1.3.0,Phases=2,kv=0.22,kW=0.11292,pf=0.92,Vminpu=0.92,Vmaxpu=1.5,model=1,daily=IP,status=variable,NumCust=0
new load.IP8183547M1 bus1=BBT152898221.2.3.0,Phases=2,kv=0.22,kW=0.11292,pf=0.92,Vminpu=0.92,Vmaxpu=1.5,model=1,daily=IP,status=variable,NumCust=0
new load.IP8183549M1 bus1=BBT152898222.1.3.0,Phases=2,kv=0.22,kW=0.11292,pf=0.92,Vminpu=0.92,Vmaxpu=1.5,model=1,daily=IP,status=variable,NumCust=0
new load.IP8183550M1 bus1=BBT152896876.1.2.0,Phases=2,kv=0.22,kW=0.11292,pf=0.92,Vminpu=0.92,Vmaxpu=1.5,model=1,daily=IP,status=variable,NumCust=0
new load.IP2252681M1 bus1=BBT279699.2.3.0,Phases=2,kv=0.22,kW=0.11292,pf=0.92,Vminpu=0.92,Vmaxpu=1.5,model=1,daily=IP,status=variable,NumCust=0
new load.IP2252695M1 bus1=BBT279692.1.2.0,Phases=2,kv=0.22,kW=0.11292,pf=0.92,Vminpu=0.92,Vmaxpu=1.5,model=1,daily=IP,status=variable,NumCust=0
new load.IP2252702M1 bus1=BBT279678.1.3.0,Phases=2,kv=0.22,kW=0.11292,pf=0.92,Vminpu=0.92,Vmaxpu=1.5,model=1,daily=IP,status=variable,NumCust=0
new load.IP2252709M1 bus1=BBT279678.2.3.0,Phases=2,kv=0.22,kW=0.11292,pf=0.92,Vminpu=0.92,Vmaxpu=1.5,model=1,daily=IP,status=variable,NumCust=0
new load.IP2252730M1 bus1=BBT279748.1.2.0,Phases=2,kv=0.22,kW=0.11292,pf=0.92,Vminpu=0.92,Vmaxpu=1.5,model=1,daily=IP,status=variable,NumCust=0
new load.IP2252737M1 bus1=BBT279741.2.3.0,Phases=2,kv=0.22,kW=0.11292,pf=0.92,Vminpu=0.92,Vmaxpu=1.5,model=1,daily=IP,status=variable,NumCust=0
new load.IP2252765M1 bus1=BBT279783.1.2.0,Phases=2,kv=0.22,kW=0.11292,pf=0.92,Vminpu=0.92,Vmaxpu=1.5,model=1,daily=IP,status=variable,NumCust=0
new load.IP2252779M1 bus1=BBT279790.2.3.0,Phases=2,kv=0.22,kW=0.11292,pf=0.92,Vminpu=0.92,Vmaxpu=1.5,model=1,daily=IP,status=variable,NumCust=0
new load.IP2252786M1 bus1=BBT279776.1.3.0,Phases=2,kv=0.22,kW=0.11292,pf=0.92,Vminpu=0.92,Vmaxpu=1.5,model=1,daily=IP,status=variable,NumCust=0
new load.IP2252793M1 bus1=BBT279741.2.3.0,Phases=2,kv=0.22,kW=0.11292,pf=0.92,Vminpu=0.92,Vmaxpu=1.5,model=1,daily=IP,status=variable,NumCust=0
new load.3014114850M1 bus1=RML1011095073.1.0,Phases=1,kv=0.127,kW=0.5001,pf=0.92,Vminpu=0.92,Vmaxpu=1.5,model=1,daily=RES1_2,status=variable
new load.3014026711M1 bus1=RML1011087181.1.2.0,Phases=2,kv=0.22,kW=0.37124,pf=0.92,Vminpu=0.92,Vmaxpu=1.5,model=1,daily=RES2_28,status=variable
new load.IP1576162M1 bus1=BBT4117617.1.2.0,Phases=2,kv=0.22,kW=0.11292,pf=0.92,Vminpu=0.92,Vmaxpu=1.5,model=1,daily=IP,status=variable,NumCust=0
new load.IP1576169M1 bus1=BBT4117624.1.2.0,Phases=2,kv=0.22,kW=0.11292,pf=0.92,Vminpu=0.92,Vmaxpu=1.5,model=1,daily=IP,status=variable,NumCust=0
new load.IP1576176M1 bus1=BBT4117631.1.2.0,Phases=2,kv=0.22,kW=0.11292,pf=0.92,Vminpu=0.92,Vmaxpu=1.5,model=1,daily=IP,status=variable,NumCust=0
new load.IP1576183M1 bus1=BBT4117687.1.2.0,Phases=2,kv=0.22,kW=0.11292,pf=0.92,Vminpu=0.92,Vmaxpu=1.5,model=1,daily=IP,status=variable,NumCust=0
new load.IP1576190M1 bus1=BBT4117638.1.2.0,Phases=2,kv=0.22,kW=0.11292,pf=0.92,Vminpu=0.92,Vmaxpu=1.5,model=1,daily=IP,status=variable,NumCust=0
new load.IP1576197M1 bus1=BBT4117645.1.2.0,Phases=2,kv=0.22,kW=0.11292,pf=0.92,Vminpu=0.92,Vmaxpu=1.5,model=1,daily=IP,status=variable,NumCust=0
new load.IP1576204M1 bus1=BBT4117631.1.2.0,Phases=2,kv=0.22,kW=0.11292,pf=0.92,Vminpu=0.92,Vmaxpu=1.5,model=1,daily=IP,status=variable,NumCust=0
new load.IP1576211M1 bus1=BBT4117568.1.2.0,Phases=2,kv=0.22,kW=0.11292,pf=0.92,Vminpu=0.92,Vmaxpu=1.5,model=1,daily=IP,status=variable,NumCust=0
new load.IP1576218M1 bus1=BBT4117561.1.2.0,Phases=2,kv=0.22,kW=0.11292,pf=0.92,Vminpu=0.92,Vmaxpu=1.5,model=1,daily=IP,status=variable,NumCust=0
new load.IP1576225M1 bus1=BBT4117533.1.2.0,Phases=2,kv=0.22,kW=0.11292,pf=0.92,Vminpu=0.92,Vmaxpu=1.5,model=1,daily=IP,status=variable,NumCust=0
new load.IP1576232M1 bus1=BBT4117533.1.2.0,Phases=2,kv=0.22,kW=0.11292,pf=0.92,Vminpu=0.92,Vmaxpu=1.5,model=1,daily=IP,status=variable,NumCust=0
new load.IP1576239M1 bus1=BBT4117547.1.2.0,Phases=2,kv=0.22,kW=0.11292,pf=0.92,Vminpu=0.92,Vmaxpu=1.5,model=1,daily=IP,status=variable,NumCust=0
new load.IP1576246M1 bus1=BBT4117540.1.2.0,Phases=2,kv=0.22,kW=0.11292,pf=0.92,Vminpu=0.92,Vmaxpu=1.5,model=1,daily=IP,status=variable,NumCust=0
new load.3014019588M1 bus1=RML1010966952.1.2.3.0,Phases=3,kv=0.22,kW=0.27776,pf=0.92,Vminpu=0.92,Vmaxpu=1.5,model=1,daily=RES2_28,status=variable
new load.3013771360M1 bus1=RML1010914230.2.0,Phases=1,kv=0.127,kW=0.5899,pf=0.92,Vminpu=0.92,Vmaxpu=1.5,model=1,daily=RES2_22,status=variable
new load.3013965792M1 bus1=RML1011024524.1.2.3.0,Phases=3,kv=0.22,kW=0.05338,pf=0.92,Vminpu=0.92,Vmaxpu=1.5,model=1,daily=COM1_25,status=variable
new load.3013804172M1 bus1=RML1010936818.1.2.0,Phases=2,kv=0.22,kW=0.6316,pf=0.92,Vminpu=0.92,Vmaxpu=1.5,model=1,daily=RES2_23,status=variable
new load.3014003933M1 bus1=RML1011005162.2.3.0,Phases=2,kv=0.22,kW=0.00876,pf=0.92,Vminpu=0.92,Vmaxpu=1.5,model=1,daily=RES1_25,status=variable
new load.3013136212M1 bus1=RML1010613204.2.3.0,Phases=2,kv=0.22,kW=1.2349,pf=0.92,Vminpu=0.92,Vmaxpu=1.5,model=1,daily=RES2_6,status=variable
new load.3012885237M1 bus1=RML1010504454.1.0,Phases=1,kv=0.127,kW=1.32814,pf=0.92,Vminpu=0.92,Vmaxpu=1.5,model=1,daily=RES3_4,status=variable
new load.3006052111M1 bus1=RML1000348964.2.0,Phases=1,kv=0.127,kW=1.6281,pf=0.92,Vminpu=0.92,Vmaxpu=1.5,model=1,daily=RES1_13,status=variable
new load.3006284674M1 bus1=RML1000349083.1.2.3.0,Phases=3,kv=0.22,kW=0.99548,pf=0.92,Vminpu=0.92,Vmaxpu=1.5,model=1,daily=COM1_21,status=variable
new load.3006069101M1 bus1=RML1000348859.2.0,Phases=1,kv=0.127,kW=1.9391,pf=0.92,Vminpu=0.92,Vmaxpu=1.5,model=1,daily=RES2_11,status=variable
new load.3006770314M1 bus1=RML1004308199.3.0,Phases=1,kv=0.127,kW=0.56656,pf=0.92,Vminpu=0.92,Vmaxpu=1.5,model=1,daily=RES2_5,status=variable
new load.3006644166M1 bus1=RML1004226649.1.2.3.0,Phases=3,kv=0.22,kW=0.30398,pf=0.92,Vminpu=0.92,Vmaxpu=1.5,model=1,daily=RES1_2,status=variable
new load.3006644168M1 bus1=RML1004226649.1.2.3.0,Phases=3,kv=0.22,kW=1.49114,pf=0.92,Vminpu=0.92,Vmaxpu=1.5,model=1,daily=RES2_4,status=variable
new load.3007454971M1 bus1=RML1004572001.3.0,Phases=1,kv=0.127,kW=1.06336,pf=0.92,Vminpu=0.92,Vmaxpu=1.5,model=1,daily=COM1_21,status=variable
new load.3011066277M1 bus1=RML1000349048.2.0,Phases=1,kv=0.127,kW=0.6002,pf=0.92,Vminpu=0.92,Vmaxpu=1.5,model=1,daily=RES2_23,status=variable
new load.3007296828M1 bus1=RML1004500202.3.0,Phases=1,kv=0.127,kW=0.952,pf=0.92,Vminpu=0.92,Vmaxpu=1.5,model=1,daily=RES2_13,status=variable
new load.IP60606M1 bus1=BBT152075.2.3.0,Phases=2,kv=0.22,kW=0.133,pf=0.92,Vminpu=0.92,Vmaxpu=1.5,model=1,daily=IP,status=variable,NumCust=0
new load.IP60613M1 bus1=BBT152082.1.2.0,Phases=2,kv=0.22,kW=0.133,pf=0.92,Vminpu=0.92,Vmaxpu=1.5,model=1,daily=IP,status=variable,NumCust=0
new load.IP60620M1 bus1=BBT152089.1.2.0,Phases=2,kv=0.22,kW=0.133,pf=0.92,Vminpu=0.92,Vmaxpu=1.5,model=1,daily=IP,status=variable,NumCust=0
new load.IP1327410M1 bus1=BBT2873248.2.3.0,Phases=2,kv=0.22,kW=0.11292,pf=0.92,Vminpu=0.92,Vmaxpu=1.5,model=1,daily=IP,status=variable,NumCust=0
new load.IP1327424M1 bus1=BBT152096.1.2.0,Phases=2,kv=0.22,kW=0.133,pf=0.92,Vminpu=0.92,Vmaxpu=1.5,model=1,daily=IP,status=variable,NumCust=0
new load.IP60543M1 bus1=BBT151991.2.3.0,Phases=2,kv=0.22,kW=0.133,pf=0.92,Vminpu=0.92,Vmaxpu=1.5,model=1,daily=IP,status=variable,NumCust=0
new load.IP60550M1 bus1=BBT151998.1.2.0,Phases=2,kv=0.22,kW=0.133,pf=0.92,Vminpu=0.92,Vmaxpu=1.5,model=1,daily=IP,status=variable,NumCust=0
new load.3013880116M1 bus1=RML1010966952.1.2.3.0,Phases=3,kv=0.22,kW=0.56492,pf=0.92,Vminpu=0.92,Vmaxpu=1.5,model=1,daily=RES2_25,status=variable
new load.3012806894M1 bus1=RML1010484129.1.2.0,Phases=2,kv=0.22,kW=2.70644,pf=0.92,Vminpu=0.92,Vmaxpu=1.5,model=1,daily=RES2_3,status=variable
new load.3013268833M1 bus1=RML1010675340.1.0,Phases=1,kv=0.127,kW=0.74498,pf=0.92,Vminpu=0.92,Vmaxpu=1.5,model=1,daily=RES2_10,status=variable
new load.3013377839M1 bus1=RML1010725659.1.0,Phases=1,kv=0.127,kW=2.07992,pf=0.92,Vminpu=0.92,Vmaxpu=1.5,model=1,daily=RES2_11,status=variable