new transformer.1004093 Phases=1,Windings=3,Buses=[BMT169015470.2 BBT103041117.1.0 BBT103041117.0.2],Conns=[wye wye wye],kvs=[7.967 0.12 0.12],kvas=[5.000000000 5.000000000 5.000000000],Taps=[1,1.000000000,1.000000000],%loadloss=1.900000000,%noloadloss=0.600000000
new transformer.1019374 Phases=1,Windings=3,Buses=[BMT169016093.2 BBT91084627.1.0 BBT91084627.0.2],Conns=[wye wye wye],kvs=[7.967 0.12 0.12],kvas=[10.000000000 10.000000000 10.000000000],Taps=[1,1.000000000,1.000000000],%loadloss=1.800000000,%noloadloss=0.450000000
new transformer.1026976 Phases=1,Windings=3,Buses=[BMT170810347.1 BBT110574580.1.0 BBT110574580.0.2],Conns=[wye wye wye],kvs=[7.967 0.12 0.12],kvas=[10.000000000 10.000000000 10.000000000],Taps=[1,1.000000000,1.000000000],%loadloss=1.800000000,%noloadloss=0.450000000
new transformer.1043573 Phases=1,Windings=3,Buses=[BMT169015913.1 BBT119586856.1.0 BBT119586856.0.2],Conns=[wye wye wye],kvs=[7.967 0.12 0.12],kvas=[15.000000000 15.000000000 15.000000000],Taps=[1,1.000000000,1.000000000],%loadloss=1.600000000,%noloadloss=0.400000000
new transformer.1051175 Phases=1,Windings=3,Buses=[BMT169262302.3 BBT129118238.1.0 BBT129118238.0.2],Conns=[wye wye wye],kvs=[7.967 0.12 0.12],kvas=[10.000000000 10.000000000 10.000000000],Taps=[1,1.000000000,1.000000000],%loadloss=1.800000000,%noloadloss=0.450000000
new transformer.1051245 Phases=1,Windings=3,Buses=[BMT176298594.2 BBT129964013.1.0 BBT129964013.0.2],Conns=[wye wye wye],kvs=[7.967 0.12 0.12],kvas=[15.000000000 15.000000000 15.000000000],Taps=[1,1.000000000,1.000000000],%loadloss=1.600000000,%noloadloss=0.400000000
new transformer.1057363 Phases=1,Windings=3,Buses=[BMT176154001.3 BBT132616950.1.0 BBT132616950.0.2],Conns=[wye wye wye],kvs=[7.967 0.12 0.12],kvas=[15.000000000 15.000000000 15.000000000],Taps=[1,1.000000000,1.000000000],%loadloss=1.600000000,%noloadloss=0.400000000
new transformer.1065840 Phases=3,Windings=2,Buses=[BMT169014595.1.2.3 BBT131458366.1.2.3.0],Conns=[delta wye],kvs=[13.8 0.22],kvas=[75.000000000 75.000000000],Taps=[1,1.000000000],%loadloss=1.340000000,%noloadloss=0.340000000
new transformer.10955 Phases=3,Windings=2,Buses=[BMT169014762.1.2.3 BBT151984.1.2.3.0],Conns=[delta wye],kvs=[13.8 0.22],kvas=[45.000000000 45.000000000],Taps=[1,1.000000000],%loadloss=1.522000000,%noloadloss=0.377777778
new transformer.1101911 Phases=3,Windings=2,Buses=[BMT175751202.1.2.3 BBT146579430.1.2.3.0],Conns=[delta wye],kvs=[13.8 0.22],kvas=[45.000000000 45.000000000],Taps=[1,1.000000000],%loadloss=1.522000000,%noloadloss=0.377777778
new transformer.1102268 Phases=1,Windings=3,Buses=[BMT175043532.3 BBT146634597.1.0 BBT146634597.0.2],Conns=[wye wye wye],kvs=[7.967 0.12 0.12],kvas=[15.000000000 15.000000000 15.000000000],Taps=[1,1.000000000,1.000000000],%loadloss=1.600000000,%noloadloss=0.400000000
new transformer.1102695 Phases=3,Windings=2,Buses=[BMT169014682.1.2.3 BBT149582389.1.2.3.0],Conns=[delta wye],kvs=[13.8 0.22],kvas=[45.000000000 45.000000000],Taps=[1,1.000000000],%loadloss=1.522000000,%noloadloss=0.377777778
new transformer.1102702 Phases=3,Windings=2,Buses=[BMT169014681.1.2.3 BBT149582414.1.2.3.0],Conns=[delta wye],kvs=[13.8 0.22],kvas=[45.000000000 45.000000000],Taps=[1,1.000000000],%loadloss=1.522000000,%noloadloss=0.377777778
new transformer.1102709 Phases=3,Windings=2,Buses=[BMT169014679.1.2.3 BBT149582454.1.2.3.0],Conns=[delta wye],kvs=[13.8 0.22],kvas=[45.000000000 45.000000000],Taps=[1,1.000000000],%loadloss=1.522000000,%noloadloss=0.377777778
new transformer.1102716 Phases=3,Windings=2,Buses=[BMT174071235.1.2.3 BBT149582489.1.2.3.0],Conns=[delta wye],kvs=[13.8 0.22],kvas=[45.000000000 45.000000000],Taps=[1,1.000000000],%loadloss=1.522000000,%noloadloss=0.377777778
new transformer.11158 Phases=1,Windings=3,Buses=[BMT169014564.2 BBT154644.1.0 BBT154644.0.2],Conns=[wye wye wye],kvs=[7.967 0.12 0.12],kvas=[25.000000000 25.000000000 25.000000000],Taps=[1,1.000000000,1.000000000],%loadloss=1.420000000,%noloadloss=0.320000000
new transformer.1391173 Phases=1,Windings=3,Buses=[BMT173792276.1 BBT149639785.1.0 BBT149639785.0.2],Conns=[wye wye wye],kvs=[7.967 0.12 0.12],kvas=[35.000000000 35.000000000 35.000000000],Taps=[1,1.000000000,1.000000000],%loadloss=1.410000000,%noloadloss=0.433000000
new transformer.1393001 Phases=3,Windings=2,Buses=[BMT170175406.1.2.3 BBT151256768.1.2.3.0],Conns=[delta wye],kvs=[13.8 0.22],kvas=[75.000000000 75.000000000],Taps=[1,1.000000000],%loadloss=1.340000000,%noloadloss=0.340000000
new transformer.1395394 Phases=3,Windings=2,Buses=[BMT174069724.1.2.3 BBT149720109.1.2.3.0],Conns=[delta wye],kvs=[13.8 0.22],kvas=[75.000000000 75.000000000],Taps=[1,1.000000000],%loadloss=1.340000000,%noloadloss=0.340000000
new transformer.1403356 Phases=1,Windings=3,Buses=[BMT176259732.3 BBT151246880.1.0 BBT151246880.0.2],Conns=[wye wye wye],kvs=[7.967 0.12 0.12],kvas=[10.000000000 10.000000000 10.000000000],Taps=[1,1.000000000,1.000000000],%loadloss=1.800000000,%noloadloss=0.450000000
new transformer.1403653 Phases=3,Windings=2,Buses=[BMT169014530.1.2.3 BBT151339011.1.2.3.0],Conns=[delta wye],kvs=[13.8 0.22],kvas=[75.000000000 75.000000000],Taps=[1,1.000000000],%loadloss=1.340000000,%noloadloss=0.340000000
new transformer.1403838 Phases=1,Windings=3,Buses=[BMT169014570.2 BBT151375305.1.0 BBT151375305.0.2],Conns=[wye wye wye],kvs=[7.967 0.12 0.12],kvas=[15.000000000 15.000000000 15.000000000],Taps=[1,1.000000000,1.000000000],%loadloss=1.600000000,%noloadloss=0.400000000
new transformer.1406337 Phases=1,Windings=3,Buses=[BMT170298227.1 BBT151938490.1.0 BBT151938490.0.2],Conns=[wye wye wye],kvs=[7.967 0.12 0.12],kvas=[10.000000000 10.000000000 10.000000000],Taps=[1,1.000000000,1.000000000],%loadloss=1.800000000,%noloadloss=0.450000000
new transformer.1415843 Phases=1,Windings=3,Buses=[BMT169017524.1 BBT154118942.1.0 BBT154118942.0.2],Conns=[wye wye wye],kvs=[7.967 0.12 0.12],kvas=[10.000000000 10.000000000 10.000000000],Taps=[1,1.000000000,1.000000000],%loadloss=1.800000000,%noloadloss=0.450000000
new transformer.1034291 Phases=1,Windings=3,Buses=[BMT169017394.3 BBT116216426.1.0 BBT116216426.0.2],Conns=[wye wye wye],kvs=[7.967 0.12 0.12],kvas=[10.000000000 10.000000000 10.000000000],Taps=[1,1.000000000,1.000000000],%loadloss=1.800000000,%noloadloss=0.450000000
new transformer.1040255 Phases=1,Windings=3,Buses=[BMT169015862.3 BBT117815744.1.0 BBT117815744.0.2],Conns=[wye wye wye],kvs=[7.967 0.12 0.12],kvas=[15.000000000 15.000000000 15.000000000],Taps=[1,1.000000000,1.000000000],%loadloss=1.600000000,%noloadloss=0.400000000
new transformer.1041102 Phases=1,Windings=3,Buses=[BMT172246076.2 BBT116230034.1.0 BBT116230034.0.2],Conns=[wye wye wye],kvs=[7.967 0.12 0.12],kvas=[10.000000000 10.000000000 10.000000000],Taps=[1,1.000000000,1.000000000],%loadloss=1.800000000,%noloadloss=0.450000000
new transformer.1042026 Phases=1,Windings=3,Buses=[BMT169016292.1 BBT106848137.1.0 BBT106848137.0.2],Conns=[wye wye wye],kvs=[7.967 0.12 0.12],kvas=[35.000000000 35.000000000 35.000000000],Taps=[1,1.000000000,1.000000000],%loadloss=1.410000000,%noloadloss=0.433000000
new transformer.1048844 Phases=1,Windings=3,Buses=[BMT169017467.1 BBT114574373.1.0 BBT114574373.0.2],Conns=[wye wye wye],kvs=[7.967 0.12 0.12],kvas=[5.000000000 5.000000000 5.000000000],Taps=[1,1.000000000,1.000000000],%loadloss=1.900000000,%noloadloss=0.600000000
new transformer.1049348 Phases=1,Windings=3,Buses=[BMT171067113.2 BBT133997406.1.0 BBT133997406.0.2],Conns=[wye wye wye],kvs=[7.967 0.12 0.12],kvas=[15.000000000 15.000000000 15.000000000],Taps=[1,1.000000000,1.000000000],%loadloss=1.600000000,%noloadloss=0.400000000
new transformer.1107938 Phases=1,Windings=3,Buses=[BMT176247918.2 BBT148610146.1.0 BBT148610146.0.2],Conns=[wye wye wye],kvs=[7.967 0.12 0.12],kvas=[10.000000000 10.000000000 10.000000000],Taps=[1,1.000000000,1.000000000],%loadloss=1.800000000,%noloadloss=0.450000000
new transformer.1108911 Phases=1,Windings=3,Buses=[BMT169015886.3 BBT144815038.1.0 BBT144815038.0.2],Conns=[wye wye wye],kvs=[7.967 0.12 0.12],kvas=[35.000000000 35.000000000 35.000000000],Taps=[1,1.000000000,1.000000000],%loadloss=1.410000000,%noloadloss=0.433000000
new transformer.11165 Phases=1,Windings=3,Buses=[BMT169014568.2 BBT154714.1.0 BBT154714.0.2],Conns=[wye wye wye],kvs=[7.967 0.12 0.12],kvas=[25.000000000 25.000000000 25.000000000],Taps=[1,1.000000000,1.000000000],%loadloss=1.420000000,%noloadloss=0.320000000
new transformer.11172 Phases=1,Windings=3,Buses=[BMT169014559.2 BBT154798.1.0 BBT154798.0.2],Conns=[wye wye wye],kvs=[7.967 0.12 0.12],kvas=[15.000000000 15.000000000 15.000000000],Taps=[1,1.000000000,1.000000000],%loadloss=1.600000000,%noloadloss=0.400000000
new transformer.1123856 Phases=1,Windings=3,Buses=[BMT176247754.2 BBT148868625.1.0 BBT148868625.0.2],Conns=[wye wye wye],kvs=[7.967 0.12 0.12],kvas=[15.000000000 15.000000000 15.000000000],Taps=[1,1.000000000,1.000000000],%loadloss=1.600000000,%noloadloss=0.400000000
new transformer.1392115 Phases=1,Windings=3,Buses=[BMT176247848.2 BBT149515942.1.0 BBT149515942.0.2],Conns=[wye wye wye],kvs=[7.967 0.12 0.12],kvas=[10.000000000 10.000000000 10.000000000],Taps=[1,1.000000000,1.000000000],%loadloss=1.800000000,%noloadloss=0.450000000
new transformer.1394570 Phases=1,Windings=3,Buses=[BMT176247869.2 BBT150095037.1.0 BBT150095037.0.2],Conns=[wye wye wye],kvs=[7.967 0.12 0.12],kvas=[35.000000000 35.000000000 35.000000000],Taps=[1,1.000000000,1.000000000],%loadloss=1.410000000,%noloadloss=0.433000000
new transformer.1402875 Phases=1,Windings=3,Buses=[BMT176154013.3 BBT151133188.1.0 BBT151133188.0.2],Conns=[wye wye wye],kvs=[7.967 0.12 0.12],kvas=[15.000000000 15.000000000 15.000000000],Taps=[1,1.000000000,1.000000000],%loadloss=1.600000000,%noloadloss=0.400000000
new transformer.1402962 Phases=3,Windings=2,Buses=[BMT169014528.1.2.3 BBT151153619.1.2.3.0],Conns=[delta wye],kvs=[13.8 0.22],kvas=[45.000000000 45.000000000],Taps=[1,1.000000000],%loadloss=1.522000000,%noloadloss=0.377777778
new transformer.1405280 Phases=1,Windings=3,Buses=[BMT173792288.1 BBT151685581.1.0 BBT151685581.0.2],Conns=[wye wye wye],kvs=[7.967 0.12 0.12],kvas=[10.000000000 10.000000000 10.000000000],Taps=[1,1.000000000,1.000000000],%loadloss=1.800000000,%noloadloss=0.450000000
new transformer.1407972 Phases=1,Windings=3,Buses=[BMT173792201.1 BBT152387385.1.0 BBT152387385.0.2],Conns=[wye wye wye],kvs=[7.967 0.12 0.12],kvas=[10.000000000 10.000000000 10.000000000],Taps=[1,1.000000000,1.000000000],%loadloss=1.800000000,%noloadloss=0.450000000
new transformer.1408241 Phases=1,Windings=3,Buses=[BMT170228130.2 BBT152436490.1.0 BBT152436490.0.2],Conns=[wye wye wye],kvs=[7.967 0.12 0.12],kvas=[10.000000000 10.000000000 10.000000000],Taps=[1,1.000000000,1.000000000],%loadloss=1.800000000,%noloadloss=0.450000000
new transformer.1412052 Phases=3,Windings=2,Buses=[BMT169014675.1.2.3 BBT153236372.1.2.3.0],Conns=[delta wye],kvs=[13.8 0.22],kvas=[45.000000000 45.000000000],Taps=[1,1.000000000],%loadloss=1.522000000,%noloadloss=0.377777778
new transformer.1412118 Phases=3,Windings=2,Buses=[BMT175580444.1.2.3 BBT153246355.1.2.3.0],Conns=[delta wye],kvs=[13.8 0.22],kvas=[45.000000000 45.000000000],Taps=[1,1.000000000],%loadloss=1.522000000,%noloadloss=0.377777778
new transformer.1417302 Phases=3,Windings=2,Buses=[BMT169014676.1.2.3 BBT154490791.1.2.3.0],Conns=[delta wye],kvs=[13.8 0.22],kvas=[45.000000000 45.000000000],Taps=[1,1.000000000],%loadloss=1.522000000,%noloadloss=0.377777778
new transformer.1417474 Phases=1,Windings=3,Buses=[BMT174556142.1 BBT154538335.1.0 BBT154538335.0.2],Conns=[wye wye wye],kvs=[7.967 0.12 0.12],kvas=[10.000000000 10.000000000 10.000000000],Taps=[1,1.000000000,1.000000000],%loadloss=1.800000000,%noloadloss=0.450000000
new transformer.1422993 Phases=1,Windings=3,Buses=[BMT169999659.1 BBT155717008.1.0 BBT155717008.0.2],Conns=[wye wye wye],kvs=[7.967 0.12 0.12],kvas=[10.000000000 10.000000000 10.000000000],Taps=[1,1.000000000,1.000000000],%loadloss=1.800000000,%noloadloss=0.450000000
new transformer.1422997 Phases=1,Windings=3,Buses=[BMT173792303.1 BBT155718760.1.0 BBT155718760.0.2],Conns=[wye wye wye],kvs=[7.967 0.12 0.12],kvas=[15.000000000 15.000000000 15.000000000],Taps=[1,1.000000000,1.000000000],%loadloss=1.600000000,%noloadloss=0.400000000
new transformer.1029881 Phases=1,Windings=3,Buses=[BMT176154020.3 BBT104153921.1.0 BBT104153921.0.2],Conns=[wye wye wye],kvs=[7.967 0.12 0.12],kvas=[10.000000000 10.000000000 10.000000000],Taps=[1,1.000000000,1.000000000],%loadloss=1.800000000,%noloadloss=0.450000000
new transformer.1044980 Phases=1,Windings=3,Buses=[BMT169014434.2 BBT127956805.1.0 BBT127956805.0.2],Conns=[wye wye wye],kvs=[7.967 0.12 0.12],kvas=[15.000000000 15.000000000 15.000000000],Taps=[1,1.000000000,1.000000000],%loadloss=1.600000000,%noloadloss=0.400000000
new transformer.1045708 Phases=1,Windings=3,Buses=[BMT169014580.2 BBT111418192.1.0 BBT111418192.0.2],Conns=[wye wye wye],kvs=[7.967 0.12 0.12],kvas=[35.000000000 35.000000000 35.000000000],Taps=[1,1.000000000,1.000000000],%loadloss=1.410000000,%noloadloss=0.433000000
new transformer.1052148 Phases=3,Windings=2,Buses=[BMT174483580.1.2.3 BBT129743590.1.2.3.0],Conns=[delta wye],kvs=[13.8 0.22],kvas=[75.000000000 75.000000000],Taps=[1,1.000000000],%loadloss=1.340000000,%noloadloss=0.340000000
new transformer.1053086 Phases=1,Windings=3,Buses=[BMT172566709.1 BBT129147001.1.0 BBT129147001.0.2],Conns=[wye wye wye],kvs=[7.967 0.12 0.12],kvas=[15.000000000 15.000000000 15.000000000],Taps=[1,1.000000000,1.000000000],%loadloss=1.600000000,%noloadloss=0.400000000
new transformer.1060226 Phases=1,Windings=3,Buses=[BMT169016843.1 BBT134758166.1.0 BBT134758166.0.2],Conns=[wye wye wye],kvs=[7.967 0.12 0.12],kvas=[5.000000000 5.000000000 5.000000000],Taps=[1,1.000000000,1.000000000],%loadloss=1.900000000,%noloadloss=0.600000000
new transformer.1060443 Phases=1,Windings=3,Buses=[BMT175751203.1 BBT139348248.1.0 BBT139348248.0.2],Conns=[wye wye wye],kvs=[7.967 0.12 0.12],kvas=[5.000000000 5.000000000 5.000000000],Taps=[1,1.000000000,1.000000000],%loadloss=1.900000000,%noloadloss=0.600000000
new transformer.1060590 Phases=1,Windings=3,Buses=[BMT169810110.1 BBT139070439.1.0 BBT139070439.0.2],Conns=[wye wye wye],kvs=[7.967 0.12 0.12],kvas=[5.000000000 5.000000000 5.000000000],Taps=[1,1.000000000,1.000000000],%loadloss=1.900000000,%noloadloss=0.600000000
new transformer.1067555 Phases=3,Windings=2,Buses=[BMT169014778.1.2.3 BBT147366398.1.2.3.0],Conns=[delta wye],kvs=[13.8 0.22],kvas=[45.000000000 45.000000000],Taps=[1,1.000000000],%loadloss=1.522000000,%noloadloss=0.377777778
new transformer.1077117 Phases=1,Windings=3,Buses=[BMT169015814.3 BBT149012507.1.0 BBT149012507.0.2],Conns=[wye wye wye],kvs=[7.967 0.12 0.12],kvas=[15.000000000 15.000000000 15.000000000],Taps=[1,1.000000000,1.000000000],%loadloss=1.600000000,%noloadloss=0.400000000
new transformer.1083872 Phases=1,Windings=3,Buses=[BMT172162087.2 BBT146589475.1.0 BBT146589475.0.2],Conns=[wye wye wye],kvs=[7.967 0.12 0.12],kvas=[10.000000000 10.000000000 10.000000000],Taps=[1,1.000000000,1.000000000],%loadloss=1.800000000,%noloadloss=0.450000000
new transformer.1084040 Phases=1,Windings=3,Buses=[BMT170400769.3 BBT146636242.1.0 BBT146636242.0.2],Conns=[wye wye wye],kvs=[7.967 0.12 0.12],kvas=[15.000000000 15.000000000 15.000000000],Taps=[1,1.000000000,1.000000000],%loadloss=1.600000000,%noloadloss=0.400000000
new transformer.1099391 Phases=1,Windings=3,Buses=[BMT169016094.2 BBT144648501.1.0 BBT144648501.0.2],Conns=[wye wye wye],kvs=[7.967 0.12 0.12],kvas=[35.000000000 35.000000000 35.000000000],Taps=[1,1.000000000,1.000000000],%loadloss=1.410000000,%noloadloss=0.433000000
new transformer.1105614 Phases=1,Windings=3,Buses=[BMT169016118.1 BBT148655253.1.0 BBT148655253.0.2],Conns=[wye wye wye],kvs=[7.967 0.12 0.12],kvas=[10.000000000 10.000000000 10.000000000],Taps=[1,1.000000000,1.000000000],%loadloss=1.800000000,%noloadloss=0.450000000
new transformer.1105796 Phases=1,Windings=3,Buses=[BMT169014467.1 BBT148244010.1.0 BBT148244010.0.2],Conns=[wye wye wye],kvs=[7.967 0.12 0.12],kvas=[15.000000000 15.000000000 15.000000000],Taps=[1,1.000000000,1.000000000],%loadloss=1.600000000,%noloadloss=0.400000000
new transformer.1390144 Phases=1,Windings=3,Buses=[BMT176454064.1 BBT148046860.1.0 BBT148046860.0.2],Conns=[wye wye wye],kvs=[7.967 0.12 0.12],kvas=[10.000000000 10.000000000 10.000000000],Taps=[1,1.000000000,1.000000000],%loadloss=1.800000000,%noloadloss=0.450000000
new transformer.1390158 Phases=1,Windings=3,Buses=[BMT176454052.2 BBT148053418.1.0 BBT148053418.0.2],Conns=[wye wye wye],kvs=[7.967 0.12 0.12],kvas=[5.000000000 5.000000000 5.000000000],Taps=[1,1.000000000,1.000000000],%loadloss=1.900000000,%noloadloss=0.600000000
new transformer.1396506 Phases=1,Windings=3,Buses=[BMT169016073.2 BBT150599909.1.0 BBT150599909.0.2],Conns=[wye wye wye],kvs=[7.967 0.12 0.12],kvas=[10.000000000 10.000000000 10.000000000],Taps=[1,1.000000000,1.000000000],%loadloss=1.800000000,%noloadloss=0.450000000
new transformer.1429633 Phases=1,Windings=3,Buses=[BMT169015417.1 BBT157119817.1.0 BBT157119817.0.2],Conns=[wye wye wye],kvs=[7.967 0.12 0.12],kvas=[15.000000000 15.000000000 15.000000000],Taps=[1,1.000000000,1.000000000],%loadloss=1.600000000,%noloadloss=0.400000000
new transformer.1429666 Phases=1,Windings=3,Buses=[BMT172132210.3 BBT157126261.1.0 BBT157126261.0.2],Conns=[wye wye wye],kvs=[7.967 0.12 0.12],kvas=[15.000000000 15.000000000 15.000000000],Taps=[1,1.000000000,1.000000000],%loadloss=1.600000000,%noloadloss=0.400000000
new transformer.1456432 Phases=1,Windings=3,Buses=[BMT176247742.2 BBT163513297.1.0 BBT163513297.0.2],Conns=[wye wye wye],kvs=[7.967 0.12 0.12],kvas=[10.000000000 10.000000000 10.000000000],Taps=[1,1.000000000,1.000000000],%loadloss=1.800000000,%noloadloss=0.450000000
new transformer.1463240 Phases=1,Windings=3,Buses=[BMT169015370.3 BBT164963960.1.0 BBT164963960.0.2],Conns=[wye wye wye],kvs=[7.967 0.12 0.12],kvas=[15.000000000 15.000000000 15.000000000],Taps=[1,1.000000000,1.000000000],%loadloss=1.600000000,%noloadloss=0.400000000
new transformer.1468367 Phases=1,Windings=3,Buses=[BMT169015406.1 BBT166180075.1.0 BBT166180075.0.2],Conns=[wye wye wye],kvs=[7.967 0.12 0.12],kvas=[10.000000000 10.000000000 10.000000000],Taps=[1,1.000000000,1.000000000],%loadloss=1.800000000,%noloadloss=0.450000000
new transformer.1418039 Phases=1,Windings=3,Buses=[BMT176247805.2 BBT154654129.1.0 BBT154654129.0.2],Conns=[wye wye wye],kvs=[7.967 0.12 0.12],kvas=[10.000000000 10.000000000 10.000000000],Taps=[1,1.000000000,1.000000000],%loadloss=1.800000000,%noloadloss=0.450000000
new transformer.1418375 Phases=1,Windings=3,Buses=[BMT169017517.1 BBT154716252.1.0 BBT154716252.0.2],Conns=[wye wye wye],kvs=[7.967 0.12 0.12],kvas=[35.000000000 35.000000000 35.000000000],Taps=[1,1.000000000,1.000000000],%loadloss=1.410000000,%noloadloss=0.433000000
new transformer.1418440 Phases=1,Windings=3,Buses=[BMT169015421.1 BBT154728123.1.0 BBT154728123.0.2],Conns=[wye wye wye],kvs=[7.967 0.12 0.12],kvas=[10.000000000 10.000000000 10.000000000],Taps=[1,1.000000000,1.000000000],%loadloss=1.800000000,%noloadloss=0.450000000
new transformer.1423757 Phases=3,Windings=2,Buses=[BMT169014699.1.2.3 BBT155845155.1.2.3.0],Conns=[delta wye],kvs=[13.8 0.22],kvas=[75.000000000 75.000000000],Taps=[1,1.000000000],%loadloss=1.340000000,%noloadloss=0.340000000
new transformer.1433646 Phases=3,Windings=2,Buses=[BMT170228121.1.2.3 BBT157930505.1.2.3.0],Conns=[delta wye],kvs=[13.8 0.22],kvas=[75.000000000 75.000000000],Taps=[1,1.000000000],%loadloss=1.340000000,%noloadloss=0.340000000
new transformer.1434190 Phases=1,Windings=3,Buses=[BMT173792183.1 BBT158033297.1.0 BBT158033297.0.2],Conns=[wye wye wye],kvs=[7.967 0.12 0.12],kvas=[15.000000000 15.000000000 15.000000000],Taps=[1,1.000000000,1.000000000],%loadloss=1.600000000,%noloadloss=0.400000000
new transformer.1436558 Phases=1,Windings=3,Buses=[BMT169015887.3 BBT158460968.1.0 BBT158460968.0.2],Conns=[wye wye wye],kvs=[7.967 0.12 0.12],kvas=[35.000000000 35.000000000 35.000000000],Taps=[1,1.000000000,1.000000000],%loadloss=1.410000000,%noloadloss=0.433000000
new transformer.1436847 Phases=1,Windings=3,Buses=[BMT174427744.3 BBT158523903.1.0 BBT158523903.0.2],Conns=[wye wye wye],kvs=[7.967 0.12 0.12],kvas=[35.000000000 35.000000000 35.000000000],Taps=[1,1.000000000,1.000000000],%loadloss=1.410000000,%noloadloss=0.433000000
new transformer.1452598 Phases=1,Windings=3,Buses=[BMT169016858.1 BBT162333346.1.0 BBT162333346.0.2],Conns=[wye wye wye],kvs=[7.967 0.12 0.12],kvas=[10.000000000 10.000000000 10.000000000],Taps=[1,1.000000000,1.000000000],%loadloss=1.800000000,%noloadloss=0.450000000
new transformer.1455536 Phases=1,Windings=3,Buses=[BMT169016891.3 BBT163242897.1.0 BBT163242897.0.2],Conns=[wye wye wye],kvs=[7.967 0.12 0.12],kvas=[15.000000000 15.000000000 15.000000000],Taps=[1,1.000000000,1.000000000],%loadloss=1.600000000,%noloadloss=0.400000000
new transformer.1455736 Phases=1,Windings=3,Buses=[BMT174463572.1 BBT163302212.1.0 BBT163302212.0.2],Conns=[wye wye wye],kvs=[7.967 0.12 0.12],kvas=[10.000000000 10.000000000 10.000000000],Taps=[1,1.000000000,1.000000000],%loadloss=1.800000000,%noloadloss=0.450000000
new transformer.1463586 Phases=3,Windings=2,Buses=[BMT175043528.1.2.3 BBT165023662.1.2.3.0],Conns=[delta wye],kvs=[13.8 0.22],kvas=[45.000000000 45.000000000],Taps=[1,1.000000000],%loadloss=1.522000000,%noloadloss=0.377777778
new transformer.1463635 Phases=1,Windings=3,Buses=[BMT176259714.3 BBT165037290.1.0 BBT165037290.0.2],Conns=[wye wye wye],kvs=[7.967 0.12 0.12],kvas=[35.000000000 35.000000000 35.000000000],Taps=[1,1.000000000,1.000000000],%loadloss=1.410000000,%noloadloss=0.433000000
new transformer.1465797 Phases=1,Windings=3,Buses=[BMT169016910.3 BBT165541055.1.0 BBT165541055.0.2],Conns=[wye wye wye],kvs=[7.967 0.12 0.12],kvas=[10.000000000 10.000000000 10.000000000],Taps=[1,1.000000000,1.000000000],%loadloss=1.800000000,%noloadloss=0.450000000
new transformer.1467398 Phases=1,Windings=3,Buses=[BMT176247721.2 BBT165987191.1.0 BBT165987191.0.2],Conns=[wye wye wye],kvs=[7.967 0.12 0.12],kvas=[15.000000000 15.000000000 15.000000000],Taps=[1,1.000000000,1.000000000],%loadloss=1.600000000,%noloadloss=0.400000000
new transformer.1467660 Phases=1,Windings=3,Buses=[BMT169015425.1 BBT166033349.1.0 BBT166033349.0.2],Conns=[wye wye wye],kvs=[7.967 0.12 0.12],kvas=[10.000000000 10.000000000 10.000000000],Taps=[1,1.000000000,1.000000000],%loadloss=1.800000000,%noloadloss=0.450000000
new transformer.1476178 Phases=1,Windings=3,Buses=[BMT173792197.1 BBT167461877.1.0 BBT167461877.0.2],Conns=[wye wye wye],kvs=[7.967 0.12 0.12],kvas=[10.000000000 10.000000000 10.000000000],Taps=[1,1.000000000,1.000000000],%loadloss=1.800000000,%noloadloss=0.450000000
new transformer.1476262 Phases=1,Windings=3,Buses=[BMT169017509.1 BBT167479030.1.0 BBT167479030.0.2],Conns=[wye wye wye],kvs=[7.967 0.12 0.12],kvas=[10.000000000 10.000000000 10.000000000],Taps=[1,1.000000000,1.000000000],%loadloss=1.800000000,%noloadloss=0.450000000
new transformer.1476361 Phases=1,Windings=3,Buses=[BMT172162041.3 BBT167497732.1.0 BBT167497732.0.2],Conns=[wye wye wye],kvs=[7.967 0.12 0.12],kvas=[10.000000000 10.000000000 10.000000000],Taps=[1,1.000000000,1.000000000],%loadloss=1.800000000,%noloadloss=0.450000000
new transformer.1478219 Phases=1,Windings=3,Buses=[BMT169015509.3 BBT167811010.1.0 BBT167811010.0.2],Conns=[wye wye wye],kvs=[7.967 0.12 0.12],kvas=[35.000000000 35.000000000 35.000000000],Taps=[1,1.000000000,1.000000000],%loadloss=1.410000000,%noloadloss=0.433000000
new transformer.1480290 Phases=1,Windings=3,Buses=[BMT172164423.2 BBT168187783.1.0 BBT168187783.0.2],Conns=[wye wye wye],kvs=[7.967 0.12 0.12],kvas=[10.000000000 10.000000000 10.000000000],Taps=[1,1.000000000,1.000000000],%loadloss=1.800000000,%noloadloss=0.450000000
new transformer.1482224 Phases=1,Windings=3,Buses=[BMT169015374.3 BBT168532781.1.0 BBT168532781.0.2],Conns=[wye wye wye],kvs=[7.967 0.12 0.12],kvas=[10.000000000 10.000000000 10.000000000],Taps=[1,1.000000000,1.000000000],%loadloss=1.800000000,%noloadloss=0.450000000
new transformer.1485693 Phases=1,Windings=3,Buses=[BMT176247707.2 BBT169154141.1.0 BBT169154141.0.2],Conns=[wye wye wye],kvs=[7.967 0.12 0.12],kvas=[10.000000000 10.000000000 10.000000000],Taps=[1,1.000000000,1.000000000],%loadloss=1.800000000,%noloadloss=0.450000000
new transformer.1489426 Phases=3,Windings=2,Buses=[BMT169876621.1.2.3 BBT169809191.1.2.3.0],Conns=[delta wye],kvs=[13.8 0.22],kvas=[45.000000000 45.000000000],Taps=[1,1.000000000],%loadloss=1.522000000,%noloadloss=0.377777778
new transformer.1430648 Phases=1,Windings=3,Buses=[BMT176299061.2 BBT157357807.1.0 BBT157357807.0.2],Conns=[wye wye wye],kvs=[7.967 0.12 0.12],kvas=[10.000000000 10.000000000 10.000000000],Taps=[1,1.000000000,1.000000000],%loadloss=1.800000000,%noloadloss=0.450000000
new transformer.1430651 Phases=1,Windings=3,Buses=[BMT169016120.1 BBT157358138.1.0 BBT157358138.0.2],Conns=[wye wye wye],kvs=[7.967 0.12 0.12],kvas=[10.000000000 10.000000000 10.000000000],Taps=[1,1.000000000,1.000000000],%loadloss=1.800000000,%noloadloss=0.450000000
new transformer.1430768 Phases=1,Windings=3,Buses=[BMT176298956.2 BBT157380202.1.0 BBT157380202.0.2],Conns=[wye wye wye],kvs=[7.967 0.12 0.12],kvas=[35.000000000 35.000000000 35.000000000],Taps=[1,1.000000000,1.000000000],%loadloss=1.410000000,%noloadloss=0.433000000
new transformer.1430778 Phases=3,Windings=2,Buses=[BMT175860492.1.2.3 BBT157381808.1.2.3.0],Conns=[delta wye],kvs=[13.8 0.22],kvas=[45.000000000 45.000000000],Taps=[1,1.000000000],%loadloss=1.522000000,%noloadloss=0.377777778
new transformer.1430790 Phases=1,Windings=3,Buses=[BMT169015378.3 BBT157382506.1.0 BBT157382506.0.2],Conns=[wye wye wye],kvs=[7.967 0.12 0.12],kvas=[10.000000000 10.000000000 10.000000000],Taps=[1,1.000000000,1.000000000],%loadloss=1.800000000,%noloadloss=0.450000000
new transformer.1433295 Phases=3,Windings=2,Buses=[BMT172168498.1.2.3 BBT157867332.1.2.3.0],Conns=[delta wye],kvs=[13.8 0.22],kvas=[150.000000000 150.000000000],Taps=[1,1.000000000],%loadloss=1.127000000,%noloadloss=0.280000000
new transformer.1433301 Phases=3,Windings=2,Buses=[BMT172168502.1.2.3 BBT157869136.1.2.3.0],Conns=[delta wye],kvs=[13.8 0.22],kvas=[45.000000000 45.000000000],Taps=[1,1.000000000],%loadloss=1.522000000,%noloadloss=0.377777778
new transformer.1435160 Phases=1,Windings=3,Buses=[BMT171067121.2 BBT158215895.1.0 BBT158215895.0.2],Conns=[wye wye wye],kvs=[7.967 0.12 0.12],kvas=[10.000000000 10.000000000 10.000000000],Taps=[1,1.000000000,1.000000000],%loadloss=1.800000000,%noloadloss=0.450000000
new transformer.1435200 Phases=1,Windings=3,Buses=[BMT169015323.2 BBT158223635.1.0 BBT158223635.0.2],Conns=[wye wye wye],kvs=[7.967 0.12 0.12],kvas=[10.000000000 10.000000000 10.000000000],Taps=[1,1.000000000,1.000000000],%loadloss=1.800000000,%noloadloss=0.450000000
new transformer.1443657 Phases=1,Windings=3,Buses=[BMT175873214.2 BBT159922434.1.0 BBT159922434.0.2],Conns=[wye wye wye],kvs=[7.967 0.12 0.12],kvas=[15.000000000 15.000000000 15.000000000],Taps=[1,1.000000000,1.000000000],%loadloss=1.600000000,%noloadloss=0.400000000
new transformer.1444004 Phases=1,Windings=3,Buses=[BMT171067124.2 BBT160016316.1.0 BBT160016316.0.2],Conns=[wye wye wye],kvs=[7.967 0.12 0.12],kvas=[10.000000000 10.000000000 10.000000000],Taps=[1,1.000000000,1.000000000],%loadloss=1.800000000,%noloadloss=0.450000000
new transformer.1447116 Phases=1,Windings=3,Buses=[BMT169016270.2 BBT161013288.1.0 BBT161013288.0.2],Conns=[wye wye wye],kvs=[7.967 0.12 0.12],kvas=[15.000000000 15.000000000 15.000000000],Taps=[1,1.000000000,1.000000000],%loadloss=1.600000000,%noloadloss=0.400000000
new transformer.1449495 Phases=1,Windings=3,Buses=[BMT174463617.1 BBT161522598.1.0 BBT161522598.0.2],Conns=[wye wye wye],kvs=[7.967 0.12 0.12],kvas=[10.000000000 10.000000000 10.000000000],Taps=[1,1.000000000,1.000000000],%loadloss=1.800000000,%noloadloss=0.450000000
new transformer.1449710 Phases=1,Windings=3,Buses=[BMT174556150.1 BBT161580904.1.0 BBT161580904.0.2],Conns=[wye wye wye],kvs=[7.967 0.12 0.12],kvas=[35.000000000 35.000000000 35.000000000],Taps=[1,1.000000000,1.000000000],%loadloss=1.410000000,%noloadloss=0.433000000
new transformer.1454914 Phases=1,Windings=3,Buses=[BMT176153304.1 BBT163052849.1.0 BBT163052849.0.2],Conns=[wye wye wye],kvs=[7.967 0.12 0.12],kvas=[10.000000000 10.000000000 10.000000000],Taps=[1,1.000000000,1.000000000],%loadloss=1.800000000,%noloadloss=0.450000000
new transformer.1460300 Phases=1,Windings=3,Buses=[BMT169016062.2 BBT164434823.1.0 BBT164434823.0.2],Conns=[wye wye wye],kvs=[7.967 0.12 0.12],kvas=[10.000000000 10.000000000 10.000000000],Taps=[1,1.000000000,1.000000000],%loadloss=1.800000000,%noloadloss=0.450000000
new transformer.1460633 Phases=3,Windings=2,Buses=[BMT169014531.1.2.3 BBT164490266.1.2.3.0],Conns=[delta wye],kvs=[13.8 0.22],kvas=[45.000000000 45.000000000],Taps=[1,1.000000000],%loadloss=1.522000000,%noloadloss=0.377777778
new transformer.1462556 Phases=1,Windings=3,Buses=[BMT169015473.2 BBT164848557.1.0 BBT164848557.0.2],Conns=[wye wye wye],kvs=[7.967 0.12 0.12],kvas=[10.000000000 10.000000000 10.000000000],Taps=[1,1.000000000,1.000000000],%loadloss=1.800000000,%noloadloss=0.450000000
new transformer.1475001 Phases=1,Windings=3,Buses=[BMT176298610.2 BBT167239709.1.0 BBT167239709.0.2],Conns=[wye wye wye],kvs=[7.967 0.12 0.12],kvas=[10.000000000 10.000000000 10.000000000],Taps=[1,1.000000000,1.000000000],%loadloss=1.800000000,%noloadloss=0.450000000
new transformer.1482310 Phases=1,Windings=3,Buses=[BMT172162045.3 BBT168552808.1.0 BBT168552808.0.2],Conns=[wye wye wye],kvs=[7.967 0.12 0.12],kvas=[10.000000000 10.000000000 10.000000000],Taps=[1,1.000000000,1.000000000],%loadloss=1.800000000,%noloadloss=0.450000000