new line.TR12112855 bus1=BMT1939077B.1.2.3,bus2=BMT169014465.1.2.3,Phases=3,Linecode=CAB204_3_3,Length=0.138043000,Units=km
new line.TR12148026 bus1=BMT169015383.3,bus2=BMT169015384.3,Phases=1,Linecode=CAB202_3_1,Length=0.108121000,Units=km
new line.TR12148027 bus1=BMT169015385.3,bus2=BMT169015386.3,Phases=1,Linecode=CAB202_3_1,Length=0.012453000,Units=km
new line.TR12150716 bus1=BMT169016071.2,bus2=BMT8746401B.2,Phases=1,Linecode=CAB202_3_1,Length=0.127515000,Units=km
new line.TR12150717 bus1=BMT8746401B.2,bus2=BMT8746404B.2,Phases=1,Linecode=CAB202_3_1,Length=0.086398000,Units=km
new line.TR12150719 bus1=BMT8746404B.2,bus2=BMT169016073.2,Phases=1,Linecode=CAB202_3_1,Length=0.078472000,Units=km
new line.TR12223499 bus1=BMT173792184.1,bus2=BMT173792186.1,Phases=1,Linecode=CAB103_3_1,Length=0.050439000,Units=km
new line.TR12242826 bus1=BMT176259713.3,bus2=BMT176259716.3,Phases=1,Linecode=CAB202_3_1,Length=0.370576000,Units=km
new line.TR12242827 bus1=BMT176259716.3,bus2=BMT176259717.3,Phases=1,Linecode=CAB202_3_1,Length=0.172826000,Units=km
new line.TR12242830 bus1=BMT176259716.3,bus2=BMT176259718.3,Phases=1,Linecode=CAB103_3_1,Length=0.078872000,Units=km
new line.TR12243911 bus1=BMT175860489.1.2.3,bus2=BMT96369B.1.2.3,Phases=3,Linecode=CABA06_3_3,Length=0.028414000,Units=km
new line.TR12243912 bus1=BMT96369B.1.2.3,bus2=BMT96348B.1.2.3,Phases=3,Linecode=CABA06_3_3,Length=0.034560000,Units=km
new line.TR12243913 bus1=BMT96348B.1.2.3,bus2=BMT96439B.1.2.3,Phases=3,Linecode=CABA06_3_3,Length=0.026409000,Units=km
new line.TR12243914 bus1=BMT96439B.1.2.3,bus2=BMT96341B.1.2.3,Phases=3,Linecode=CABA06_3_3,Length=0.015560000,Units=km
new line.TR12243915 bus1=BMT96341B.1.2.3,bus2=BMT4117071B.1.2.3,Phases=3,Linecode=CABA06_3_3,Length=0.035625000,Units=km
new line.TR12243916 bus1=BMT4117071B.1.2.3,bus2=BMT175860490.1.2.3,Phases=3,Linecode=CABA06_3_3,Length=0.027182000,Units=km
new line.TR12243917 bus1=BMT175860490.1.2.3,bus2=BMT8845451B.1.2.3,Phases=3,Linecode=CABA06_3_3,Length=0.028313000,Units=km
new line.TR12243921 bus1=BMT175860493.1.2.3,bus2=BMT8845454B.1.2.3,Phases=3,Linecode=CABA06_3_3,Length=0.038909000,Units=km
new line.TR12243922 bus1=BMT8845454B.1.2.3,bus2=BMT8845455B.1.2.3,Phases=3,Linecode=CABA06_3_3,Length=0.042439000,Units=km
new line.TR12243923 bus1=BMT175860493.1.2.3,bus2=BMT8845472B.1.2.3,Phases=3,Linecode=CABA06_3_3,Length=0.022210000,Units=km
new line.TR12243924 bus1=BMT8845472B.1.2.3,bus2=BMT8845475B.1.2.3,Phases=3,Linecode=CABA06_3_3,Length=0.038221000,Units=km
new line.TR12243926 bus1=BMT8845475B.1.2.3,bus2=BMT8845476B.1.2.3,Phases=3,Linecode=CABA06_3_3,Length=0.033146000,Units=km
new line.TR12243927 bus1=BMT8845476B.1.2.3,bus2=BMT8845478B.1.2.3,Phases=3,Linecode=CABA06_3_3,Length=0.027174000,Units=km
new line.TR12243929 bus1=BMT8845478B.1.2.3,bus2=BMT8845479B.1.2.3,Phases=3,Linecode=CABA06_3_3,Length=0.012087000,Units=km
new line.TR12243931 bus1=BMT8845479B.1.2.3,bus2=BMT175860495.1.2.3,Phases=3,Linecode=CABA06_3_3,Length=0.041122000,Units=km
new line.TR12243933 bus1=BMT8845456B.1.2.3,bus2=BMT8845458B.1.2.3,Phases=3,Linecode=CABA06_3_3,Length=0.038909000,Units=km
new line.TR12243936 bus1=BMT8845458B.1.2.3,bus2=BMT8845459B.1.2.3,Phases=3,Linecode=CABA06_3_3,Length=0.036780000,Units=km
new line.TR12243940 bus1=BMT8845460B.1.2.3,bus2=BMT8845461B.1.2.3,Phases=3,Linecode=CABA06_3_3,Length=0.037707000,Units=km
new line.TR12243941 bus1=BMT8845461B.1.2.3,bus2=BMT175860496.1.2.3,Phases=3,Linecode=CABA06_3_3,Length=0.032705000,Units=km
new line.TR12243950 bus1=BMT8845455B.1.2.3,bus2=BMT175860494.1.2.3,Phases=3,Linecode=CABA06_3_3,Length=0.012045000,Units=km
new line.TR12243951 bus1=BMT8845456B.1.2.3,bus2=BMT175860494.1.2.3,Phases=3,Linecode=CABA06_3_3,Length=0.027594000,Units=km
new line.TR12243956 bus1=BMT175860494.1.2.3,bus2=BMT8845514B.1.2.3,Phases=3,Linecode=CABA06_3_3,Length=0.018390000,Units=km
new line.TR12243957 bus1=BMT175860494.1.2.3,bus2=BMT175860497.1.2.3,Phases=3,Linecode=CABA06_3_3,Length=0.022634000,Units=km
new line.TR12243991 bus1=BMT8845459B.1.2.3,bus2=BMT8845571B.1.2.3,Phases=3,Linecode=CABA06_3_3,Length=0.015816000,Units=km
new line.TR12243992 bus1=BMT8845460B.1.2.3,bus2=BMT8845571B.1.2.3,Phases=3,Linecode=CABA06_3_3,Length=0.015625000,Units=km
new line.TR12294907 bus1=BMT176247802.2,bus2=BMT8896561B.2,Phases=1,Linecode=CAB202_3_1,Length=0.217711000,Units=km
new line.TR12294910 bus1=BMT8896561B.2,bus2=BMT176247805.2,Phases=1,Linecode=CAB202_3_1,Length=0.249237000,Units=km
new line.TR12297133 bus1=BMT169017506.1,bus2=BMT169017516.1,Phases=1,Linecode=CAB103_3_1,Length=0.054421000,Units=km
new line.TR12297136 bus1=BMT169017516.1,bus2=BMT169017517.1,Phases=1,Linecode=CAB202_3_1,Length=0.098866000,Units=km
new line.TR12373407 bus1=BMT176299058.2,bus2=BMT176299061.2,Phases=1,Linecode=CAB202_3_1,Length=0.148144000,Units=km
new line.TR12373408 bus1=BMT176299061.2,bus2=BMT176299062.2,Phases=1,Linecode=CAB202_3_1,Length=0.134267000,Units=km
new line.TR12373416 bus1=BMT169016117.1,bus2=BMT169016120.1,Phases=1,Linecode=CAB202_3_1,Length=0.211949000,Units=km
new line.TR12373676 bus1=BMT169016879.2,bus2=BMT8979230B.2,Phases=1,Linecode=CAB202_3_1,Length=0.044296000,Units=km
new line.TR12373677 bus1=BMT8979230B.2,bus2=BMT169016880.2,Phases=1,Linecode=CAB202_3_1,Length=0.038024000,Units=km
new line.TR12374328 bus1=BMT176298954.2,bus2=BMT176298956.2,Phases=1,Linecode=CAB202_3_1,Length=0.239890000,Units=km
new line.TR12374383 bus1=BMT175860490.1.2.3,bus2=BMT8979915B.1.2.3,Phases=3,Linecode=CABA06_3_3,Length=0.032011000,Units=km
new line.TR12374393 bus1=BMT8979915B.1.2.3,bus2=BMT175860492.1.2.3,Phases=3,Linecode=CABA06_3_3,Length=0.039677000,Units=km
new line.TR12374441 bus1=BMT169015376.3,bus2=BMT8979970B.3,Phases=1,Linecode=CAB103_3_1,Length=0.040462000,Units=km
new line.TR12374443 bus1=BMT8979970B.3,bus2=BMT169015378.3,Phases=1,Linecode=CAB103_3_1,Length=0.062273000,Units=km
new line.TR12388573 bus1=BMT98056B.1.2.3,bus2=BMT172168496.1.2.3,Phases=3,Linecode=CABA06_3_3,Length=0.034695000,Units=km
new line.TR12388588 bus1=BMT98091B.1.2.3,bus2=BMT172168498.1.2.3,Phases=3,Linecode=CABA06_3_3,Length=0.035076000,Units=km
new line.TR12388629 bus1=BMT172168500.1.2.3,bus2=BMT97727B.1.2.3,Phases=3,Linecode=CABA06_3_3,Length=0.032773000,Units=km
new line.TR12388630 bus1=BMT97727B.1.2.3,bus2=BMT172168502.1.2.3,Phases=3,Linecode=CABA06_3_3,Length=0.032002000,Units=km
new line.TR12406857 bus1=BMT169015883.3,bus2=BMT169015885.3,Phases=1,Linecode=CAB103_3_1,Length=0.044735000,Units=km
new line.TR12406858 bus1=BMT169015885.3,bus2=BMT169015886.3,Phases=1,Linecode=CAB103_3_1,Length=0.034585000,Units=km
new line.TR12118604 bus1=BMT173792214.1,bus2=BMT173792213.1,Phases=1,Linecode=CAB202_3_1,Length=0.287982000,Units=km
new line.TR12118605 bus1=BMT173792213.1,bus2=BMT173792210.1,Phases=1,Linecode=CAB202_3_1,Length=0.052611000,Units=km
new line.TR12118628 bus1=BMT173792213.1,bus2=BMT173792215.1,Phases=1,Linecode=CAB103_3_1,Length=0.082895000,Units=km
new line.TR12121005 bus1=BMT176247846.2,bus2=BMT176247848.2,Phases=1,Linecode=CAB103_3_1,Length=0.035464000,Units=km
new line.TR12137931 bus1=BMT176247871.2,bus2=BMT176247870.2,Phases=1,Linecode=CAB202_3_1,Length=0.115634000,Units=km
new line.TR12137932 bus1=BMT176247870.2,bus2=BMT176247872.2,Phases=1,Linecode=CAB202_3_1,Length=0.094076000,Units=km
new line.TR12137933 bus1=BMT176247870.2,bus2=BMT176247869.2,Phases=1,Linecode=CAB202_3_1,Length=0.278081000,Units=km
new line.TR12139365 bus1=BMT8733286B.3,bus2=BMT3863461B.3,Phases=1,Linecode=CAB202_3_1,Length=0.051055000,Units=km
new line.TR12140706 bus1=BMT169017696.2,bus2=BMT8734551B.2,Phases=1,Linecode=CAB202_3_1,Length=0.068658000,Units=km
new line.TR12140707 bus1=BMT8734551B.2,bus2=BMT169017697.2,Phases=1,Linecode=CAB202_3_1,Length=0.061738000,Units=km
new line.TR12174516 bus1=BMT171642338.2,bus2=BMT8773237B.2,Phases=1,Linecode=CAB202_3_1,Length=0.020006000,Units=km
new line.TR12174517 bus1=BMT8773237B.2,bus2=BMT171642340.2,Phases=1,Linecode=CAB202_3_1,Length=0.240276000,Units=km
new line.TR12175366 bus1=BMT98525B.1.2.3,bus2=BMT8774327B.1.2.3,Phases=3,Linecode=CABA08_3_3,Length=0.015005000,Units=km
new line.TR12175367 bus1=BMT98518B.1.2.3,bus2=BMT8774327B.1.2.3,Phases=3,Linecode=CABA08_3_3,Length=0.023861000,Units=km
new line.TR12198874 bus1=BMT169014529.1.2.3,bus2=BMT96068B.1.2.3,Phases=3,Linecode=CABA06_3_3,Length=0.038318000,Units=km
new line.TR12198877 bus1=BMT96068B.1.2.3,bus2=BMT169014530.1.2.3,Phases=3,Linecode=CABA06_3_3,Length=0.033711000,Units=km
new line.TR12216978 bus1=BMT170298223.1,bus2=BMT170298226.1,Phases=1,Linecode=CAB103_3_1,Length=0.081067000,Units=km
new line.TR12216979 bus1=BMT170298226.1,bus2=BMT170298227.1,Phases=1,Linecode=CAB202_3_1,Length=0.150019000,Units=km
new line.TR12219501 bus1=BMT176247565.2,bus2=BMT176247566.2,Phases=1,Linecode=CAB202_3_1,Length=0.034010000,Units=km
new line.TR12219502 bus1=BMT169016996.2,bus2=BMT176298945.2,Phases=1,Linecode=CAB202_3_1,Length=0.034010000,Units=km
new line.TR12219517 bus1=BMT8820245B.1,bus2=BMT169017519.1,Phases=1,Linecode=CAB202_3_1,Length=0.030229000,Units=km
new line.TR12219521 bus1=BMT169017514.1,bus2=BMT169017515.1,Phases=1,Linecode=CAB202_3_1,Length=0.039635000,Units=km
new line.TR12219522 bus1=BMT169017518.1,bus2=BMT8820245B.1,Phases=1,Linecode=CAB202_3_1,Length=0.061708000,Units=km
new line.TR12220030 bus1=BMT176247687.2,bus2=BMT176247723.2,Phases=1,Linecode=CAB202_3_1,Length=0.191991000,Units=km
new line.TR12255165 bus1=BMT169014673.1.2.3,bus2=BMT213451B.1.2.3,Phases=3,Linecode=CABA06_3_3,Length=0.029975000,Units=km
new line.TR12255166 bus1=BMT213451B.1.2.3,bus2=BMT213458B.1.2.3,Phases=3,Linecode=CABA06_3_3,Length=0.020131000,Units=km
new line.TR12255167 bus1=BMT213458B.1.2.3,bus2=BMT2855279B.1.2.3,Phases=3,Linecode=CABA06_3_3,Length=0.017894000,Units=km
new line.TR12255168 bus1=BMT2855279B.1.2.3,bus2=BMT169014675.1.2.3,Phases=3,Linecode=CABA06_3_3,Length=0.034492000,Units=km
new line.TR12280541 bus1=BMT169017521.1,bus2=BMT169017524.1,Phases=1,Linecode=CAB202_3_1,Length=0.203207000,Units=km
new line.TR12280542 bus1=BMT169017524.1,bus2=BMT169017525.1,Phases=1,Linecode=CAB202_3_1,Length=0.030439000,Units=km
new line.TR12297490 bus1=BMT169015416.1,bus2=BMT169015419.1,Phases=1,Linecode=CAB202_3_1,Length=0.082049000,Units=km
new line.TR12297491 bus1=BMT169015419.1,bus2=BMT3291071B.1,Phases=1,Linecode=CAB202_3_1,Length=0.077273000,Units=km
new line.TR12297494 bus1=BMT169015419.1,bus2=BMT169015421.1,Phases=1,Linecode=CAB103_3_1,Length=0.023693000,Units=km
new line.TR12299310 bus1=BMT171067107.2,bus2=BMT169015262.2,Phases=1,Linecode=CAB202_3_1,Length=0.052979000,Units=km
new line.TR12299311 bus1=BMT176454065.2,bus2=BMT176454062.2,Phases=1,Linecode=CAB202_3_1,Length=0.002831000,Units=km
new line.TR12299313 bus1=BMT171067108.2,bus2=BMT171067109.2,Phases=1,Linecode=CAB202_3_1,Length=0.165426000,Units=km
new line.TR12299314 bus1=BMT171067108.2,bus2=BMT171067110.2,Phases=1,Linecode=CAB202_3_1,Length=0.038079000,Units=km
new line.TR12299315 bus1=BMT169015262.2,bus2=BMT171067108.2,Phases=1,Linecode=CAB202_3_1,Length=0.003196000,Units=km
new line.TR12329576 bus1=BMT169014698.1.2.3,bus2=BMT169014699.1.2.3,Phases=3,Linecode=CABA06_3_3,Length=0.039216000,Units=km
new line.TR12329577 bus1=BMT169014699.1.2.3,bus2=BMT100303B.1.2.3,Phases=3,Linecode=CAB102_3_3,Length=0.008249000,Units=km
new line.TR12366365 bus1=BMT169015412.1,bus2=BMT169015417.1,Phases=1,Linecode=CAB202_3_1,Length=0.140215000,Units=km
new line.TR12366633 bus1=BMT172132205.3,bus2=BMT172132206.3,Phases=1,Linecode=CAB202_3_1,Length=0.213986000,Units=km
new line.TR12366634 bus1=BMT172132206.3,bus2=BMT172132207.3,Phases=1,Linecode=CAB202_3_1,Length=0.007074000,Units=km
new line.TR12390692 bus1=BMT170228118.2,bus2=BMT170228120.2,Phases=1,Linecode=CAB202_3_1,Length=0.061483000,Units=km
new line.TR12390698 bus1=BMT170228118.1.2.3,bus2=BMT170228121.1.2.3,Phases=3,Linecode=CAB103_3_3,Length=0.014565000,Units=km
new line.TR12393895 bus1=BMT173792180.1,bus2=BMT173792183.1,Phases=1,Linecode=CAB103_3_1,Length=0.040857000,Units=km
new line.TR12412143 bus1=BMT4210395B.1,bus2=BMT173792369.1,Phases=1,Linecode=CAB202_3_1,Length=0.181007000,Units=km
new line.TR12412144 bus1=BMT173792369.1,bus2=BMT173792370.1,Phases=1,Linecode=CAB202_3_1,Length=0.018034000,Units=km
new line.TR12412152 bus1=BMT173792369.1,bus2=BMT173792371.1,Phases=1,Linecode=CAB202_3_1,Length=0.146075000,Units=km
new line.TR12446544 bus1=BMT175873213.2,bus2=BMT175873214.2,Phases=1,Linecode=CAB103_3_1,Length=0.050377000,Units=km
new line.TR12446550 bus1=BMT175873213.1.2.3,bus2=BMT9054638B.1.2.3,Phases=3,Linecode=CAB203_3_3,Length=0.055926000,Units=km
new line.TR12446551 bus1=BMT9054638B.1.2.3,bus2=BMT169016926.1.2.3,Phases=3,Linecode=CAB203_3_3,Length=0.064909000,Units=km
new line.TR12448603 bus1=BMT171067123.2,bus2=BMT171067122.2,Phases=1,Linecode=CAB202_3_1,Length=0.121647000,Units=km
new line.TR12448604 bus1=BMT171067122.2,bus2=BMT171067120.2,Phases=1,Linecode=CAB202_3_1,Length=0.171391000,Units=km
new line.TR12448611 bus1=BMT171067122.2,bus2=BMT171067124.2,Phases=1,Linecode=CAB103_3_1,Length=0.067325000,Units=km
new line.TR12108173 bus1=BMT176454060.1,bus2=BMT176454064.1,Phases=1,Linecode=CAB103_3_1,Length=0.021594000,Units=km
new line.TR12108234 bus1=BMT176454046.1.2.3,bus2=BMT8700769B.1.2.3,Phases=3,Linecode=CAB202_3_3,Length=0.045058000,Units=km
new line.TR12108236 bus1=BMT8700769B.1.2.3,bus2=BMT176454049.1.2.3,Phases=3,Linecode=CAB202_3_3,Length=0.376764000,Units=km
new line.TR12108243 bus1=BMT176454049.2,bus2=BMT176454050.2,Phases=1,Linecode=CAB103_3_1,Length=0.062701000,Units=km
new line.TR12108245 bus1=BMT176454049.1.2.3,bus2=BMT8700772B.1.2.3,Phases=3,Linecode=CAB202_3_3,Length=0.144893000,Units=km
new line.TR12108254 bus1=BMT8700772B.1.2.3,bus2=BMT8700773B.1.2.3,Phases=3,Linecode=CAB202_3_3,Length=0.230007000,Units=km
new line.TR12108255 bus1=BMT8700773B.1.2.3,bus2=BMT8700774B.1.2.3,Phases=3,Linecode=CAB202_3_3,Length=0.238321000,Units=km
new line.TR12108256 bus1=BMT8700774B.1.2.3,bus2=BMT8700776B.1.2.3,Phases=3,Linecode=CAB202_3_3,Length=0.056881000,Units=km
new line.TR12108258 bus1=BMT8700776B.1.2.3,bus2=BMT8700808B.1.2.3,Phases=3,Linecode=CAB202_3_3,Length=0.412687000,Units=km
new line.TR12108259 bus1=BMT8700808B.1.2.3,bus2=BMT8700805B.1.2.3,Phases=3,Linecode=CAB202_3_3,Length=0.078236000,Units=km
new line.TR12108260 bus1=BMT8700805B.1.2.3,bus2=BMT176454051.1.2.3,Phases=3,Linecode=CAB202_3_3,Length=0.057337000,Units=km
new line.TR12108261 bus1=BMT176454051.1.2.3,bus2=BMT176454053.1.2.3,Phases=3,Linecode=CAB202_3_3,Length=0.121545000,Units=km
new line.TR12108295 bus1=BMT176454049.2,bus2=BMT176454052.2,Phases=1,Linecode=CAB103_3_1,Length=0.076508000,Units=km
new line.TR12108327 bus1=BMT176454051.1,bus2=BMT176454054.1,Phases=1,Linecode=CAB103_3_1,Length=0.050329000,Units=km
new line.TR12126870 bus1=BMT170175404.1.2.3,bus2=BMT170175406.1.2.3,Phases=3,Linecode=CABA08_3_3,Length=0.008367000,Units=km
new line.TR12143462 bus1=BMT176149925.1,bus2=BMT176149937.1,Phases=1,Linecode=CAB202_3_1,Length=0.028901000,Units=km
new line.TR12143602 bus1=BMT174069722.1.2.3,bus2=BMT174069724.1.2.3,Phases=3,Linecode=CABA06_3_3,Length=0.019422000,Units=km
new line.TR12193739 bus1=BMT176154011.3,bus2=BMT176154013.3,Phases=1,Linecode=CAB202_3_1,Length=0.028801000,Units=km
new line.TR12193740 bus1=BMT8733286B.3,bus2=BMT176154013.3,Phases=1,Linecode=CAB202_3_1,Length=0.042169000,Units=km
new line.TR12196780 bus1=BMT176259729.3,bus2=BMT176259731.3,Phases=1,Linecode=CAB202_3_1,Length=0.078750000,Units=km
new line.TR12196800 bus1=BMT176259731.3,bus2=BMT176259732.3,Phases=1,Linecode=CAB103_3_1,Length=0.043517000,Units=km
new line.TR12251500 bus1=BMT3061751B.1,bus2=BMT8852844B.1,Phases=1,Linecode=CAB202_3_1,Length=0.145011000,Units=km
new line.TR12251501 bus1=BMT8852844B.1,bus2=BMT169017576.1,Phases=1,Linecode=CAB202_3_1,Length=0.037137000,Units=km
new line.TR12290226 bus1=BMT169014674.1.2.3,bus2=BMT213374B.1.2.3,Phases=3,Linecode=CABA06_3_3,Length=0.025087000,Units=km
new line.TR12290227 bus1=BMT213374B.1.2.3,bus2=BMT213381B.1.2.3,Phases=3,Linecode=CABA06_3_3,Length=0.026841000,Units=km
new line.TR12290228 bus1=BMT213381B.1.2.3,bus2=BMT169014676.1.2.3,Phases=3,Linecode=CABA06_3_3,Length=0.029975000,Units=km
new line.TR12290823 bus1=BMT176155223.2,bus2=BMT8892674B.2,Phases=1,Linecode=CAB202_3_1,Length=0.063599000,Units=km
new line.TR12290824 bus1=BMT8892674B.2,bus2=BMT8892677B.2,Phases=1,Linecode=CAB202_3_1,Length=0.169918000,Units=km
new line.TR12290825 bus1=BMT8892677B.2,bus2=BMT176155225.2,Phases=1,Linecode=CAB202_3_1,Length=0.121164000,Units=km
new line.TR12291307 bus1=BMT174556138.1,bus2=BMT174556142.1,Phases=1,Linecode=CAB202_3_1,Length=0.328419000,Units=km
new line.TR12324982 bus1=BMT169999658.1,bus2=BMT169999659.1,Phases=1,Linecode=CAB103_3_1,Length=0.015835000,Units=km
new line.TR12325027 bus1=BMT173792300.1,bus2=BMT173792302.1,Phases=1,Linecode=CAB202_3_1,Length=0.484770000,Units=km
new line.TR12325032 bus1=BMT173792302.1,bus2=BMT173792303.1,Phases=1,Linecode=CAB103_3_1,Length=0.030159000,Units=km
new line.TR12381330 bus1=BMT176742204.2,bus2=BMT169014542.2,Phases=1,Linecode=CAB202_3_1,Length=0.032424000,Units=km
new line.TR12381331 bus1=BMT169014547.2,bus2=BMT3771719B.2,Phases=1,Linecode=CAB202_3_1,Length=0.068236000,Units=km
new line.TR12384603 bus1=BMT169016853.1.2.3,bus2=BMT169016854.1.2.3,Phases=3,Linecode=CAB204_3_3,Length=0.018813000,Units=km
new line.TR12384604 bus1=BMT169016855.1.2.3,bus2=BMT176153297.1.2.3,Phases=3,Linecode=CAB204_3_3,Length=0.019319000,Units=km
new line.TR12399496 bus1=BMT169015320.2,bus2=BMT169015321.2,Phases=1,Linecode=CAB202_3_1,Length=0.157847000,Units=km
new line.TR12399497 bus1=BMT169015321.2,bus2=BMT169015322.2,Phases=1,Linecode=CAB202_3_1,Length=0.132043000,Units=km
new line.TR12399504 bus1=BMT169015321.2,bus2=BMT9005625B.2,Phases=1,Linecode=CAB202_3_1,Length=0.365041000,Units=km
new line.TR12399507 bus1=BMT9005625B.2,bus2=BMT9005626B.2,Phases=1,Linecode=CAB202_3_1,Length=0.035299000,Units=km
new line.TR12399508 bus1=BMT9005626B.2,bus2=BMT169015323.2,Phases=1,Linecode=CAB202_3_1,Length=0.306119000,Units=km
new line.TR12401553 bus1=BMT176153314.1.2.3,bus2=BMT169014669.1.2.3,Phases=3,Linecode=CABA06_3_3,Length=0.014004000,Units=km
new line.TR12401554 bus1=BMT174071236.1.2.3,bus2=BMT8510550B.1.2.3,Phases=3,Linecode=CABA08_3_3,Length=0.014004000,Units=km
new line.TR12401560 bus1=BMT174071234.1.2.3,bus2=BMT8510557B.1.2.3,Phases=3,Linecode=CABA08_3_3,Length=0.053142000,Units=km
new line.TR12467745 bus1=BMT9077227B.2,bus2=BMT169016270.2,Phases=1,Linecode=CAB202_3_1,Length=0.109194000,Units=km
new line.TR12489025 bus1=BMT176742205.1.2.3,bus2=BMT176742204.1.2.3,Phases=3,Linecode=CAB204_3_3,Length=0.042966000,Units=km
new line.TR12489191 bus1=BMT198856B.1.2.3,bus2=BMT169014574.1.2.3,Phases=3,Linecode=CAB902_4_3,Length=0.012045000,Units=km
new line.TR12489192 bus1=BMT169014574.1.2.3,bus2=BMT169014575.1.2.3,Phases=3,Linecode=CAB902_4_3,Length=0.015152000,Units=km
new line.TR12489193 bus1=BMT169014560.2,bus2=BMT9099354B.2,Phases=1,Linecode=CABA06_3_1,Length=0.029575000,Units=km
new line.TR12489194 bus1=BMT169014560.2,bus2=BMT213962B.2,Phases=1,Linecode=CABA06_3_1,Length=0.033784000,Units=km
new line.TR12489195 bus1=BMT213962B.2,bus2=BMT214018B.2,Phases=1,Linecode=CABA06_3_1,Length=0.031973000,Units=km
new line.TR12489196 bus1=BMT169014574.2,bus2=BMT9099353B.2,Phases=1,Linecode=CABA06_3_1,Length=0.017018000,Units=km
new line.TR12489197 bus1=BMT9099353B.2,bus2=BMT169014563.2,Phases=1,Linecode=CABA06_3_1,Length=0.015833000,Units=km
new line.TR12489323 bus1=BMT214018B.2,bus2=BMT169014562.2,Phases=1,Linecode=CABA06_3_1,Length=0.026312000,Units=km
new line.TR12114911 bus1=BMT173792271.1,bus2=BMT173792276.1,Phases=1,Linecode=CAB103_3_1,Length=0.078898000,Units=km
new line.TR12135732 bus1=BMT176454057.1.2.3,bus2=BMT8729363B.1.2.3,Phases=3,Linecode=CAB202_3_3,Length=0.020674000,Units=km
new line.TR12135733 bus1=BMT3157392B.1.2.3,bus2=BMT8729363B.1.2.3,Phases=3,Linecode=CAB202_3_3,Length=0.348121000,Units=km
new line.TR12151649 bus1=BMT169017383.3,bus2=BMT8747262B.3,Phases=1,Linecode=CAB202_3_1,Length=0.051497000,Units=km
new line.TR12151650 bus1=BMT8747262B.3,bus2=BMT8747263B.3,Phases=1,Linecode=CAB202_3_1,Length=0.184503000,Units=km
new line.TR12151652 bus1=BMT8747263B.3,bus2=BMT8747270B.3,Phases=1,Linecode=CAB202_3_1,Length=0.217409000,Units=km
new line.TR12151655 bus1=BMT8747270B.3,bus2=BMT169017385.3,Phases=1,Linecode=CAB202_3_1,Length=0.113877000,Units=km
new line.TR12151747 bus1=BMT174032979.2,bus2=BMT174032981.2,Phases=1,Linecode=CAB202_3_1,Length=0.033866000,Units=km
new line.TR12151748 bus1=BMT2501625B.2,bus2=BMT174032981.2,Phases=1,Linecode=CAB202_3_1,Length=0.331099000,Units=km
new line.TR12151749 bus1=BMT174032981.2,bus2=BMT8747376B.2,Phases=1,Linecode=CAB202_3_1,Length=0.093141000,Units=km
new line.TR12151753 bus1=BMT8747376B.2,bus2=BMT174032983.2,Phases=1,Linecode=CAB202_3_1,Length=0.086538000,Units=km
new line.TR12190659 bus1=BMT169017500.3,bus2=BMT169017502.3,Phases=1,Linecode=CAB103_3_1,Length=0.052627000,Units=km
new line.TR12209374 bus1=BMT173792286.1,bus2=BMT8810366B.1,Phases=1,Linecode=CAB202_3_1,Length=0.170893000,Units=km
new line.TR12209377 bus1=BMT8810366B.1,bus2=BMT8810367B.1,Phases=1,Linecode=CAB202_3_1,Length=0.287423000,Units=km
new line.TR12209378 bus1=BMT8810367B.1,bus2=BMT173792288.1,Phases=1,Linecode=CAB202_3_1,Length=0.209727000,Units=km
new line.TR12228982 bus1=BMT173792198.1,bus2=BMT173792200.1,Phases=1,Linecode=CAB103_3_1,Length=0.080586000,Units=km
new line.TR12228983 bus1=BMT173792200.1,bus2=BMT173792201.1,Phases=1,Linecode=CAB202_3_1,Length=0.083751000,Units=km
new line.TR12230414 bus1=BMT170228128.2,bus2=BMT170228130.2,Phases=1,Linecode=CAB202_3_1,Length=0.174167000,Units=km
new line.TR12249639 bus1=BMT170400749.3,bus2=BMT8851128B.3,Phases=1,Linecode=CAB202_3_1,Length=0.167969000,Units=km
new line.TR12249640 bus1=BMT8851128B.3,bus2=BMT170400750.3,Phases=1,Linecode=CAB202_3_1,Length=0.153392000,Units=km
new line.TR12319358 bus1=BMT174556133.1,bus2=BMT174556135.1,Phases=1,Linecode=CAB202_3_1,Length=0.218355000,Units=km
new line.TR12319359 bus1=BMT174556135.1,bus2=BMT174556136.1,Phases=1,Linecode=CAB103_3_1,Length=0.018034000,Units=km
new line.TR12319360 bus1=BMT174556136.1,bus2=BMT174556137.1,Phases=1,Linecode=CAB202_3_1,Length=0.111322000,Units=km
new line.TR12350576 bus1=BMT176247866.2,bus2=BMT8954394B.2,Phases=1,Linecode=CAB103_3_1,Length=0.030608000,Units=km
new line.TR12350578 bus1=BMT8954394B.2,bus2=BMT8954395B.2,Phases=1,Linecode=CAB103_3_1,Length=0.042432000,Units=km
new line.TR12350580 bus1=BMT8954395B.2,bus2=BMT176247867.2,Phases=1,Linecode=CAB103_3_1,Length=0.045971000,Units=km
new line.TR12350584 bus1=BMT176247869.2,bus2=BMT8954397B.2,Phases=1,Linecode=CAB103_3_1,Length=0.050020000,Units=km
new line.TR12350585 bus1=BMT8954397B.2,bus2=BMT176247868.2,Phases=1,Linecode=CAB103_3_1,Length=0.037214000,Units=km
new line.TR12350586 bus1=BMT176247867.2,bus2=BMT176247868.2,Phases=1,Linecode=CAB202_3_1,Length=0.259620000,Units=km
new line.TR12377209 bus1=BMT174048071.1.2.3,bus2=BMT169014329.1.2.3,Phases=3,Linecode=CAB103_3_3,Length=0.018717000,Units=km
new line.TR12377211 bus1=BMT169017925.1.2.3,bus2=BMT169017926.1.2.3,Phases=3,Linecode=CAB202_3_3,Length=0.130905000,Units=km
new line.TR12377240 bus1=BMT169017926.1.2.3,bus2=BMT169017928.1.2.3,Phases=3,Linecode=CAB103_3_3,Length=0.045230000,Units=km
new line.TR12377334 bus1=BMT169017929.1.2.3,bus2=BMT169017930.1.2.3,Phases=3,Linecode=CAB103_3_3,Length=0.007083000,Units=km
new line.TR12399229 bus1=BMT171067120.2,bus2=BMT171067107.2,Phases=1,Linecode=CAB202_3_1,Length=0.077214000,Units=km
new line.TR12399233 bus1=BMT171067120.2,bus2=BMT171067121.2,Phases=1,Linecode=CAB103_3_1,Length=0.014990000,Units=km
new line.TR12498574 bus1=BMT169016853.1,bus2=BMT169016856.1,Phases=1,Linecode=CAB202_3_1,Length=0.074465000,Units=km
new line.TR12498576 bus1=BMT169016857.1,bus2=BMT169016858.1,Phases=1,Linecode=CAB202_3_1,Length=0.175310000,Units=km
new line.TR12498579 bus1=BMT3826095B.1.2.3,bus2=BMT9108272B.1.2.3,Phases=3,Linecode=CAB204_3_3,Length=0.371215000,Units=km
new line.TR12498580 bus1=BMT9108272B.1.2.3,bus2=BMT169016853.1.2.3,Phases=3,Linecode=CAB204_3_3,Length=0.036133000,Units=km
new line.TR12518592 bus1=BMT169016888.3,bus2=BMT9126441B.3,Phases=1,Linecode=CAB202_3_1,Length=0.092509000,Units=km
new line.TR12518604 bus1=BMT9126441B.3,bus2=BMT169016891.3,Phases=1,Linecode=CAB202_3_1,Length=0.144725000,Units=km
new line.TR12519752 bus1=BMT174463566.1,bus2=BMT174463570.1,Phases=1,Linecode=CAB202_3_1,Length=0.145962000,Units=km
new line.TR12519753 bus1=BMT174463570.1,bus2=BMT174463571.1,Phases=1,Linecode=CAB202_3_1,Length=0.294982000,Units=km
new line.TR12519783 bus1=BMT174463570.1,bus2=BMT174463572.1,Phases=1,Linecode=CAB103_3_1,Length=0.039635000,Units=km
new line.TR12590762 bus1=BMT169015404.1,bus2=BMT169015406.1,Phases=1,Linecode=CAB202_3_1,Length=0.175222000,Units=km
new line.TR12609083 bus1=BMT173792257.1,bus2=BMT173792263.1,Phases=1,Linecode=CAB103_3_1,Length=0.013005000,Units=km
new line.TR12609091 bus1=BMT173792263.1,bus2=BMT9218113B.1,Phases=1,Linecode=CAB202_3_1,Length=0.330282000,Units=km
new line.TR12609092 bus1=BMT9218113B.1,bus2=BMT9218114B.1,Phases=1,Linecode=CAB202_3_1,Length=0.130058000,Units=km
new line.TR12609093 bus1=BMT9218114B.1,bus2=BMT173792264.1,Phases=1,Linecode=CAB202_3_1,Length=0.302026000,Units=km
new line.TR12625442 bus1=BMT176298605.2,bus2=BMT176298607.2,Phases=1,Linecode=CAB103_3_1,Length=0.025186000,Units=km
new line.TR12625443 bus1=BMT176298607.2,bus2=BMT176298608.2,Phases=1,Linecode=CAB103_3_1,Length=0.036231000,Units=km
new line.TR12625461 bus1=BMT176298607.2,bus2=BMT176298609.2,Phases=1,Linecode=CAB202_3_1,Length=0.350228000,Units=km
new line.TR12625462 bus1=BMT176298609.2,bus2=BMT176298610.2,Phases=1,Linecode=CAB202_3_1,Length=0.037759000,Units=km
new line.TR12643315 bus1=BMT169015506.3,bus2=BMT169015508.3,Phases=1,Linecode=CAB103_3_1,Length=0.029420000,Units=km
new line.TR12643316 bus1=BMT169015508.3,bus2=BMT169015509.3,Phases=1,Linecode=CAB202_3_1,Length=0.260250000,Units=km
new line.TR12467687 bus1=BMT169016268.2,bus2=BMT169016269.2,Phases=1,Linecode=CAB103_3_1,Length=0.012451000,Units=km
new line.TR12467688 bus1=BMT169016269.2,bus2=BMT9077218B.2,Phases=1,Linecode=CAB202_3_1,Length=0.078013000,Units=km
new line.TR12467695 bus1=BMT9077218B.2,bus2=BMT9077221B.2,Phases=1,Linecode=CAB202_3_1,Length=0.079445000,Units=km
new line.TR12467703 bus1=BMT9077221B.2,bus2=BMT9077224B.2,Phases=1,Linecode=CAB202_3_1,Length=0.099845000,Units=km
new line.TR12467704 bus1=BMT9077224B.2,bus2=BMT9077227B.2,Phases=1,Linecode=CAB202_3_1,Length=0.086355000,Units=km
new line.TR12481179 bus1=BMT174463616.1,bus2=BMT200179B.1,Phases=1,Linecode=CAB103_3_1,Length=0.040062000,Units=km
new line.TR12481182 bus1=BMT200179B.1,bus2=BMT200186B.1,Phases=1,Linecode=CAB103_3_1,Length=0.032290000,Units=km
new line.TR12481187 bus1=BMT200186B.1,bus2=BMT9091040B.1,Phases=1,Linecode=CAB103_3_1,Length=0.057601000,Units=km
new line.TR12481192 bus1=BMT9091040B.1,bus2=BMT9091044B.1,Phases=1,Linecode=CAB103_3_1,Length=0.041243000,Units=km
new line.TR12481194 bus1=BMT9091044B.1,bus2=BMT9091045B.1,Phases=1,Linecode=CAB103_3_1,Length=0.041243000,Units=km
new line.TR12481195 bus1=BMT9091045B.1,bus2=BMT174463617.1,Phases=1,Linecode=CAB103_3_1,Length=0.065753000,Units=km
new line.TR12482456 bus1=BMT174556147.1,bus2=BMT9092327B.1,Phases=1,Linecode=CAB202_3_1,Length=0.289789000,Units=km
new line.TR12482459 bus1=BMT9092327B.1,bus2=BMT9092328B.1,Phases=1,Linecode=CAB202_3_1,Length=0.122234000,Units=km
new line.TR12482460 bus1=BMT9092328B.1,bus2=BMT174556150.1,Phases=1,Linecode=CAB202_3_1,Length=0.122234000,Units=km
new line.TR12483842 bus1=BMT169014890.1.2.3,bus2=BMT169014891.1.2.3,Phases=3,Linecode=CAB102_3_3,Length=0.025008000,Units=km
new line.TR12545362 bus1=BMT174032992.2,bus2=BMT169016052.2,Phases=1,Linecode=CAB202_3_1,Length=0.077819000,Units=km
new line.TR12545363 bus1=BMT169016052.2,bus2=BMT169016053.2,Phases=1,Linecode=CAB202_3_1,Length=0.394704000,Units=km
new line.TR12545371 bus1=BMT169016061.2,bus2=BMT169016062.2,Phases=1,Linecode=CAB103_3_1,Length=0.051881000,Units=km
new line.TR12561236 bus1=BMT169015346.3,bus2=BMT169015348.3,Phases=1,Linecode=CAB202_3_1,Length=0.045326000,Units=km
new line.TR12561239 bus1=BMT169015348.3,bus2=BMT169015349.3,Phases=1,Linecode=CAB202_3_1,Length=0.380483000,Units=km
new line.TR12561251 bus1=BMT169015369.3,bus2=BMT169015370.3,Phases=1,Linecode=CAB103_3_1,Length=0.033761000,Units=km
new line.TR12562629 bus1=BMT175043527.1.2.3,bus2=BMT2820685B.1.2.3,Phases=3,Linecode=CABA06_3_3,Length=0.036356000,Units=km
new line.TR12562631 bus1=BMT2820685B.1.2.3,bus2=BMT2820692B.1.2.3,Phases=3,Linecode=CABA06_3_3,Length=0.038064000,Units=km
new line.TR12562633 bus1=BMT2820692B.1.2.3,bus2=BMT3005947B.1.2.3,Phases=3,Linecode=CABA06_3_3,Length=0.031025000,Units=km
new line.TR12562638 bus1=BMT3005947B.1.2.3,bus2=BMT9171863B.1.2.3,Phases=3,Linecode=CABA06_3_3,Length=0.039063000,Units=km
new line.TR12562902 bus1=BMT9171863B.1.2.3,bus2=BMT9172113B.1.2.3,Phases=3,Linecode=CABA06_3_3,Length=0.039229000,Units=km
new line.TR12562903 bus1=BMT9172113B.1.2.3,bus2=BMT175043528.1.2.3,Phases=3,Linecode=CABA06_3_3,Length=0.040323000,Units=km
new line.TR12563211 bus1=BMT176259710.3,bus2=BMT176259714.3,Phases=1,Linecode=CAB103_3_1,Length=0.050770000,Units=km
new line.TR12582357 bus1=BMT169017765.2,bus2=BMT1936074B.2,Phases=1,Linecode=CAB202_3_1,Length=0.267159000,Units=km
new line.TR12654482 bus1=BMT172164421.2,bus2=BMT172164422.2,Phases=1,Linecode=CAB202_3_1,Length=0.242724000,Units=km
new line.TR12654484 bus1=BMT172164422.2,bus2=BMT172164423.2,Phases=1,Linecode=CAB103_3_1,Length=0.055520000,Units=km
new line.TR12689533 bus1=BMT169959013.1.2.3,bus2=BMT169958942.1.2.3,Phases=3,Linecode=CABA08_3_3,Length=0.043025000,Units=km