! manter este comentario para compatibilidade do C#
new circuit.alimMCDD206 bus1=BMT169014303.1.2.3,basekv=13.800000000,pu=1.040000000

