new line.10011728 bus1=BBT145392230.1.2.0,bus2=BBT3205412.1.2.0,Phases=2,Linecode=BT808_BT808_4_2_3,Length=0.042120000,Units=km
new line.10078347 bus1=BBT216986.1.2.0,bus2=BBT147335353.1.2.0,Phases=2,Linecode=BT106_BT106_7_2_1,Length=0.049823000,Units=km
new line.112728 bus1=BBT111118.1.2.0,bus2=BBT111097.1.2.0,Phases=2,Linecode=BT107_BT107_7_2_1,Length=0.014871000,Units=km
new line.112735 bus1=BBT111125.1.2.0,bus2=BBT111111.1.2.0,Phases=2,Linecode=BT107_BT107_7_2_1,Length=0.031790000,Units=km
new line.112742 bus1=BBT111139.1.2.0,bus2=BBT111132.1.2.0,Phases=2,Linecode=BT108_BT108_7_2_1,Length=0.037374000,Units=km
new line.112749 bus1=BBT111146.1.2.0,bus2=BBT111118.1.2.0,Phases=2,Linecode=BT107_BT107_7_2_1,Length=0.020887000,Units=km
new line.112756 bus1=BBT111153.1.2.0,bus2=BBT111125.1.2.0,Phases=2,Linecode=BT808_BT808_4_2_3,Length=0.019241000,Units=km
new line.112763 bus1=BBT111160.1.2.0,bus2=BBT111167.1.2.0,Phases=2,Linecode=BT108_BT108_7_2_1,Length=0.007074000,Units=km
new line.112770 bus1=BBT111167.1.2.0,bus2=BBT111139.1.2.0,Phases=2,Linecode=BT108_BT108_7_2_1,Length=0.029419000,Units=km
new line.112777 bus1=BBT111167.1.2.0,bus2=BBT111146.1.2.0,Phases=2,Linecode=BT107_BT107_7_2_1,Length=0.009490000,Units=km
new line.112784 bus1=BBT111167.1.2.0,bus2=BBT111195.1.2.0,Phases=2,Linecode=BT107_BT107_7_2_1,Length=0.027905000,Units=km
new line.112791 bus1=BBT111174.1.2.0,bus2=BBT111160.1.2.0,Phases=2,Linecode=BT108_BT108_7_2_1,Length=0.026934000,Units=km
new line.112798 bus1=BBT111076.1.2.0,bus2=BBT111174.1.2.0,Phases=2,Linecode=BT513_BT513_7_2_1,Length=0.000501000,Units=km
new line.112805 bus1=BBT111174.1.2.0,bus2=BBT111181.1.2.0,Phases=2,Linecode=BT108_BT108_7_2_1,Length=0.028168000,Units=km
new line.112812 bus1=BBT111181.1.2.0,bus2=BBT111188.1.2.0,Phases=2,Linecode=BT107_BT107_7_2_1,Length=0.029217000,Units=km
new line.112819 bus1=BBT111188.1.2.0,bus2=BBT111153.1.2.0,Phases=2,Linecode=BT808_BT808_4_2_3,Length=0.025720000,Units=km
new line.112826 bus1=BBT111188.1.2.0,bus2=BBT111202.1.2.0,Phases=2,Linecode=BT107_BT107_7_2_1,Length=0.028158000,Units=km
new line.112847 bus1=BBT111223.1.2.3.0,bus2=BBT111244.1.2.3.0,Phases=3,Linecode=BT107_BT107_7_3_1,Length=0.036884000,Units=km
new line.112854 bus1=BBT111216.1.2.3.0,bus2=BBT111230.1.2.3.0,Phases=3,Linecode=BT513_BT513_7_3_1,Length=0.000501000,Units=km
new line.112861 bus1=BBT111230.1.2.3.0,bus2=BBT111251.1.2.3.0,Phases=3,Linecode=BT108_BT107_7_3_1,Length=0.046704000,Units=km
new line.112868 bus1=BBT111230.1.2.3.0,bus2=BBT3148719.1.2.3.0,Phases=3,Linecode=BT108_BT107_7_3_1,Length=0.036630000,Units=km
new line.112875 bus1=BBT111237.1.2.3.0,bus2=BBT111223.1.2.3.0,Phases=3,Linecode=BT107_BT107_7_3_1,Length=0.028953000,Units=km
new line.112882 bus1=BBT111251.1.2.3.0,bus2=BBT111237.1.2.3.0,Phases=3,Linecode=BT107_BT107_7_3_1,Length=0.031154000,Units=km
new line.112889 bus1=BBT111251.1.2.3.0,bus2=BBT111258.1.2.3.0,Phases=3,Linecode=BT108_BT107_7_3_1,Length=0.050926000,Units=km
new line.112903 bus1=BBT111272.1.2.0,bus2=BBT111279.1.2.0,Phases=2,Linecode=BT807_BT807_4_2_3,Length=0.038462000,Units=km
new line.112910 bus1=BBT111286.1.2.0,bus2=BBT111272.1.2.0,Phases=2,Linecode=BT107_BT107_7_2_1,Length=0.027324000,Units=km
new line.112917 bus1=BBT111293.1.3.0,bus2=BBT3966648.1.3.0,Phases=2,Linecode=BT808_BT808_4_2_3,Length=0.043600000,Units=km
new line.112924 bus1=BBT111300.1.2.3.0,bus2=BBT111293.1.2.3.0,Phases=3,Linecode=BT810_BT810_4_3_4,Length=0.025124000,Units=km
new line.112931 bus1=BBT111307.1.2.0,bus2=BBT111286.1.2.0,Phases=2,Linecode=BT107_BT107_7_2_1,Length=0.026273000,Units=km
new line.112938 bus1=BBT111307.1.2.3.0,bus2=BBT111300.1.2.3.0,Phases=3,Linecode=BT108_BT107_7_3_1,Length=0.018464000,Units=km
new line.112945 bus1=BBT111307.1.2.3.0,bus2=BBT111342.1.2.3.0,Phases=3,Linecode=BT107_BT107_7_3_1,Length=0.039218000,Units=km
new line.112952 bus1=BBT111314.1.2.3.0,bus2=BBT111307.1.2.3.0,Phases=3,Linecode=BT108_BT107_7_3_1,Length=0.004224000,Units=km
new line.112959 bus1=BBT111321.1.2.3.0,bus2=BBT111314.1.2.3.0,Phases=3,Linecode=BT108_BT107_7_3_1,Length=0.033116000,Units=km
new line.112966 bus1=BBT111265.1.2.3.0,bus2=BBT111321.1.2.3.0,Phases=3,Linecode=BT513_BT513_7_3_1,Length=0.000501000,Units=km
new line.113729 bus1=BBT112056.1.2.3.0,bus2=BBT112035.1.2.3.0,Phases=3,Linecode=BT108_BT108_7_3_1,Length=0.036294000,Units=km
new line.113736 bus1=BBT112028.1.2.3.0,bus2=BBT112056.1.2.3.0,Phases=3,Linecode=BT518_BT518_7_3_1,Length=0.000501000,Units=km
new line.113743 bus1=BBT112056.1.2.3.0,bus2=BBT112077.1.2.3.0,Phases=3,Linecode=BT108_BT108_7_3_1,Length=0.029976000,Units=km
new line.113750 bus1=BBT112077.1.2.3.0,bus2=BBT112084.1.2.3.0,Phases=3,Linecode=BT108_BT108_7_3_1,Length=0.007215000,Units=km
new line.113757 bus1=BBT112084.1.2.3.0,bus2=BBT112070.1.2.3.0,Phases=3,Linecode=BT107_BT107_7_3_1,Length=0.021745000,Units=km
new line.113764 bus1=BBT112084.1.2.3.0,bus2=BBT112091.1.2.3.0,Phases=3,Linecode=BT107_BT107_7_3_1,Length=0.006044000,Units=km
new line.113771 bus1=BBT112084.1.2.3.0,bus2=BBT112112.1.2.3.0,Phases=3,Linecode=BT108_BT108_7_3_1,Length=0.036425000,Units=km
new line.113778 bus1=BBT112091.1.2.3.0,bus2=BBT112098.1.2.3.0,Phases=3,Linecode=BT107_BT107_7_3_1,Length=0.038874000,Units=km
new line.113785 bus1=BBT112098.1.2.3.0,bus2=BBT112105.1.2.3.0,Phases=3,Linecode=BT107_BT107_7_3_1,Length=0.035106000,Units=km
new line.113792 bus1=BBT112140.1.2.0,bus2=BBT112133.1.2.0,Phases=2,Linecode=BT107_BT107_7_2_1,Length=0.036092000,Units=km
new line.113806 bus1=BBT112154.1.2.3.0,bus2=BBT112140.1.2.3.0,Phases=3,Linecode=BT107_BT107_7_3_1,Length=0.032667000,Units=km
new line.113813 bus1=BBT112154.1.2.3.0,bus2=BBT112147.1.2.3.0,Phases=3,Linecode=BT107_BT107_7_3_1,Length=0.033588000,Units=km
new line.113820 bus1=BBT112161.1.2.3.0,bus2=BBT112154.1.2.3.0,Phases=3,Linecode=BT107_BT107_7_3_1,Length=0.027003000,Units=km
new line.113827 bus1=BBT112168.1.2.3.0,bus2=BBT112161.1.2.3.0,Phases=3,Linecode=BT108_BT107_7_3_1,Length=0.033335000,Units=km
new line.113834 bus1=BBT112168.1.2.3.0,bus2=BBT4148830.1.2.3.0,Phases=3,Linecode=BT810_BT810_4_3_4,Length=0.034536000,Units=km
new line.113841 bus1=BBT112175.1.2.3.0,bus2=BBT112168.1.2.3.0,Phases=3,Linecode=BT108_BT107_7_3_1,Length=0.026778000,Units=km
new line.113848 bus1=BBT112126.1.2.3.0,bus2=BBT112175.1.2.3.0,Phases=3,Linecode=BT518_BT518_7_3_1,Length=0.000506000,Units=km
new line.113855 bus1=BBT112175.1.2.3.0,bus2=BBT112189.1.2.3.0,Phases=3,Linecode=BT108_BT107_7_3_1,Length=0.036208000,Units=km
new line.113862 bus1=BBT112189.1.2.3.0,bus2=BBT112182.1.2.3.0,Phases=3,Linecode=BT107_BT107_7_3_1,Length=0.035523000,Units=km
new line.113869 bus1=BBT112189.1.2.3.0,bus2=BBT112196.1.2.3.0,Phases=3,Linecode=BT108_BT107_7_3_1,Length=0.020460000,Units=km
new line.113876 bus1=BBT112196.1.2.3.0,bus2=BBT112203.1.2.3.0,Phases=3,Linecode=BT809_BT809_4_3_4,Length=0.040076000,Units=km
new line.113883 bus1=BBT112203.1.2.3.0,bus2=BBT53067977.1.2.3.0,Phases=3,Linecode=BT810_BT810_4_3_4,Length=0.029810000,Units=km
new line.113890 bus1=BBT113484.1.2.3.0,bus2=BBT113505.1.2.3.0,Phases=3,Linecode=BT803_BT803_4_3_4,Length=0.018036000,Units=km
new line.113897 bus1=BBT5285035.1.2.3.0,bus2=BBT5285042.1.2.3.0,Phases=3,Linecode=BT810_BT810_4_3_4,Length=0.035406000,Units=km
new line.113904 bus1=BBT112217.1.2.3.0,bus2=BBT3142272.1.2.3.0,Phases=3,Linecode=BT809_BT809_4_3_4,Length=0.032593000,Units=km
new line.113911 bus1=BBT112217.1.2.3.0,bus2=BBT5285035.1.2.3.0,Phases=3,Linecode=BT810_BT810_4_3_4,Length=0.036734000,Units=km
new line.113918 bus1=BBT112217.1.2.3.0,bus2=BBT112224.1.2.3.0,Phases=3,Linecode=BT107_BT107_7_3_1,Length=0.034819000,Units=km
new line.10052867 bus1=BBT146614458.1.2.0,bus2=BBT146614465.1.2.0,Phases=2,Linecode=BT518_BT518_7_2_1,Length=0.000501000,Units=km
new line.112553 bus1=BBT5191963.1.2.0,bus2=BBT5191970.1.2.0,Phases=2,Linecode=BT808_BT808_4_2_3,Length=0.028933000,Units=km
new line.112560 bus1=BBT110978.1.2.0,bus2=BBT110971.1.2.0,Phases=2,Linecode=BT107_BT107_7_2_1,Length=0.040923000,Units=km
new line.112567 bus1=BBT110978.1.2.0,bus2=BBT111069.1.2.0,Phases=2,Linecode=BT801_BT801_4_2_3,Length=0.026101000,Units=km
new line.112574 bus1=BBT110978.1.2.0,bus2=BBT5191676.1.2.0,Phases=2,Linecode=BT808_BT808_4_2_3,Length=0.029274000,Units=km
new line.112581 bus1=BBT110985.1.2.0,bus2=BBT110978.1.2.0,Phases=2,Linecode=BT107_BT107_7_2_1,Length=0.023640000,Units=km
new line.112588 bus1=BBT110992.1.2.0,bus2=BBT110985.1.2.0,Phases=2,Linecode=BT108_BT108_7_2_1,Length=0.022987000,Units=km
new line.112595 bus1=BBT110992.1.2.0,bus2=BBT110999.1.2.0,Phases=2,Linecode=BT108_BT108_7_2_1,Length=0.032069000,Units=km
new line.112602 bus1=BBT110999.1.2.0,bus2=BBT111006.1.2.0,Phases=2,Linecode=BT108_BT108_7_2_1,Length=0.037977000,Units=km
new line.112609 bus1=BBT111006.1.2.0,bus2=BBT111020.1.2.0,Phases=2,Linecode=BT108_BT108_7_2_1,Length=0.038612000,Units=km
new line.112616 bus1=BBT111013.1.2.0,bus2=BBT110992.1.2.0,Phases=2,Linecode=BT108_BT108_7_2_1,Length=0.024535000,Units=km
new line.112623 bus1=BBT110964.1.2.0,bus2=BBT111013.1.2.0,Phases=2,Linecode=BT513_BT513_7_2_1,Length=0.000504000,Units=km
new line.112630 bus1=BBT111013.1.2.0,bus2=BBT111027.1.2.0,Phases=2,Linecode=BT108_BT108_7_2_1,Length=0.027023000,Units=km
new line.112637 bus1=BBT111027.1.2.0,bus2=BBT111034.1.2.0,Phases=2,Linecode=BT108_BT108_7_2_1,Length=0.037373000,Units=km
new line.112644 bus1=BBT111027.1.2.0,bus2=BBT111048.1.2.0,Phases=2,Linecode=BT809_BT809_4_2_4,Length=0.026967000,Units=km
new line.112651 bus1=BBT111034.1.2.0,bus2=BBT111041.1.2.0,Phases=2,Linecode=BT107_BT107_7_2_1,Length=0.044133000,Units=km
new line.112665 bus1=BBT111041.1.2.0,bus2=BBT4347196.1.2.0,Phases=2,Linecode=BT808_BT808_4_2_3,Length=0.039655000,Units=km
new line.112672 bus1=BBT111048.1.2.0,bus2=BBT111055.1.2.0,Phases=2,Linecode=BT809_BT809_4_2_4,Length=0.029294000,Units=km
new line.112679 bus1=BBT111055.1.2.0,bus2=BBT111062.1.2.0,Phases=2,Linecode=BT801_BT801_4_2_3,Length=0.031332000,Units=km
new line.112686 bus1=BBT111083.1.2.0,bus2=BBT111209.1.2.0,Phases=2,Linecode=BT801_BT801_4_2_3,Length=0.035497000,Units=km
new line.112693 bus1=BBT111097.1.2.0,bus2=BBT111083.1.2.0,Phases=2,Linecode=BT107_BT107_7_2_1,Length=0.019653000,Units=km
new line.112700 bus1=BBT111097.1.2.0,bus2=BBT111090.1.2.0,Phases=2,Linecode=BT107_BT107_7_2_1,Length=0.025007000,Units=km
new line.112707 bus1=BBT111097.1.2.0,bus2=BBT111104.1.2.0,Phases=2,Linecode=BT107_BT107_7_2_1,Length=0.012373000,Units=km
new line.112714 bus1=BBT111111.1.2.0,bus2=BBT2873367.1.2.0,Phases=2,Linecode=BT107_BT107_7_2_1,Length=0.039861000,Units=km
new line.112721 bus1=BBT111111.1.2.0,bus2=BBT2873325.1.2.0,Phases=2,Linecode=BT808_BT808_4_2_3,Length=0.033536000,Units=km
new line.113463 bus1=BBT111811.1.2.3.0,bus2=BBT111902.1.2.3.0,Phases=3,Linecode=BT809_BT809_4_3_4,Length=0.026409000,Units=km
new line.113470 bus1=BBT111825.1.2.3.0,bus2=BBT111818.1.2.3.0,Phases=3,Linecode=BT107_BT107_7_3_1,Length=0.033606000,Units=km
new line.113477 bus1=BBT111832.1.2.3.0,bus2=BBT111811.1.2.3.0,Phases=3,Linecode=BT107_BT107_7_3_1,Length=0.034560000,Units=km
new line.113484 bus1=BBT111832.1.2.3.0,bus2=BBT111825.1.2.3.0,Phases=3,Linecode=BT107_BT107_7_3_1,Length=0.031774000,Units=km
new line.113491 bus1=BBT111839.1.2.3.0,bus2=BBT111832.1.2.3.0,Phases=3,Linecode=BT803_BT803_4_3_4,Length=0.028414000,Units=km
new line.113498 bus1=BBT111797.1.2.3.0,bus2=BBT111839.1.2.3.0,Phases=3,Linecode=BT518_BT518_7_3_1,Length=0.000508000,Units=km
new line.113505 bus1=BBT111839.1.2.3.0,bus2=BBT111853.1.2.3.0,Phases=3,Linecode=BT803_BT803_4_3_4,Length=0.035249000,Units=km
new line.113512 bus1=BBT111853.1.2.3.0,bus2=BBT111846.1.2.3.0,Phases=3,Linecode=BT803_BT803_4_3_4,Length=0.035525000,Units=km
new line.113519 bus1=BBT111853.1.2.3.0,bus2=BBT111860.1.2.3.0,Phases=3,Linecode=BT803_BT803_4_3_4,Length=0.027756000,Units=km
new line.113526 bus1=BBT111853.1.2.3.0,bus2=BBT2873493.1.2.3.0,Phases=3,Linecode=BT810_BT810_4_3_4,Length=0.032599000,Units=km
new line.113533 bus1=BBT111860.1.2.3.0,bus2=BBT111874.1.2.3.0,Phases=3,Linecode=BT803_BT803_4_3_4,Length=0.033940000,Units=km
new line.113540 bus1=BBT111874.1.2.3.0,bus2=BBT111867.1.2.3.0,Phases=3,Linecode=BT803_BT803_4_3_4,Length=0.033569000,Units=km
new line.113547 bus1=BBT111874.1.2.3.0,bus2=BBT111881.1.2.3.0,Phases=3,Linecode=BT803_BT803_4_3_4,Length=0.036511000,Units=km
new line.113554 bus1=BBT111874.1.2.3.0,bus2=BBT111895.1.2.3.0,Phases=3,Linecode=BT803_BT803_4_3_4,Length=0.035579000,Units=km
new line.113561 bus1=BBT111881.1.2.3.0,bus2=BBT111888.1.2.3.0,Phases=3,Linecode=BT810_BT810_4_3_4,Length=0.032568000,Units=km
new line.113568 bus1=BBT111902.1.2.3.0,bus2=BBT111804.1.2.3.0,Phases=3,Linecode=BT809_BT809_4_3_4,Length=0.015560000,Units=km
new line.113575 bus1=BBT111902.1.2.3.0,bus2=BBT111909.1.2.3.0,Phases=3,Linecode=BT809_BT809_4_3_4,Length=0.031085000,Units=km
new line.113582 bus1=BBT111902.1.2.3.0,bus2=BBT111916.1.2.3.0,Phases=3,Linecode=BT809_BT809_4_3_4,Length=0.006098000,Units=km
new line.113589 bus1=BBT111916.1.2.3.0,bus2=BBT111923.1.2.3.0,Phases=3,Linecode=BT809_BT809_4_3_4,Length=0.025562000,Units=km
new line.113596 bus1=BBT111944.1.2.3.0,bus2=BBT111937.1.2.3.0,Phases=3,Linecode=BT107_BT107_7_3_1,Length=0.024195000,Units=km
new line.113603 bus1=BBT111951.1.2.3.0,bus2=BBT111944.1.2.3.0,Phases=3,Linecode=BT107_BT107_7_3_1,Length=0.028310000,Units=km
new line.113610 bus1=BBT111965.1.2.3.0,bus2=BBT111951.1.2.3.0,Phases=3,Linecode=BT107_BT107_7_3_1,Length=0.034142000,Units=km
new line.113617 bus1=BBT111972.1.2.3.0,bus2=BBT111958.1.2.3.0,Phases=3,Linecode=BT107_BT107_7_3_1,Length=0.026614000,Units=km
new line.113624 bus1=BBT111972.1.2.3.0,bus2=BBT111965.1.2.3.0,Phases=3,Linecode=BT107_BT107_7_3_1,Length=0.034284000,Units=km
new line.113631 bus1=BBT111979.1.2.3.0,bus2=BBT111972.1.2.3.0,Phases=3,Linecode=BT108_BT107_7_3_1,Length=0.017707000,Units=km
new line.113638 bus1=BBT111930.1.2.3.0,bus2=BBT111979.1.2.3.0,Phases=3,Linecode=BT518_BT518_7_3_1,Length=0.000524000,Units=km
new line.113645 bus1=BBT111979.1.2.3.0,bus2=BBT111986.1.2.3.0,Phases=3,Linecode=BT108_BT107_7_3_1,Length=0.021541000,Units=km
new line.113652 bus1=BBT111986.1.2.3.0,bus2=BBT111993.1.2.3.0,Phases=3,Linecode=BT106_BT106_7_3_1,Length=0.036781000,Units=km
new line.113659 bus1=BBT111986.1.2.3.0,bus2=BBT112007.1.2.3.0,Phases=3,Linecode=BT108_BT107_7_3_1,Length=0.035394000,Units=km
new line.113666 bus1=BBT111993.1.2.3.0,bus2=BBT112000.1.2.3.0,Phases=3,Linecode=BT106_BT106_7_3_1,Length=0.034314000,Units=km
new line.113673 bus1=BBT112000.1.2.3.0,bus2=BBT112014.1.2.3.0,Phases=3,Linecode=BT106_BT106_7_3_1,Length=0.037701000,Units=km
new line.113680 bus1=BBT112007.1.2.3.0,bus2=BBT112021.1.2.3.0,Phases=3,Linecode=BT108_BT107_7_3_1,Length=0.035369000,Units=km
new line.113687 bus1=BBT113344.1.2.3.0,bus2=BBT113337.1.2.3.0,Phases=3,Linecode=BT107_BT107_7_3_1,Length=0.037604000,Units=km
new line.113694 bus1=BBT113344.1.2.3.0,bus2=BBT113351.1.2.3.0,Phases=3,Linecode=BT107_BT107_7_3_1,Length=0.028214000,Units=km
new line.113701 bus1=BBT112035.1.2.3.0,bus2=BBT112042.1.2.3.0,Phases=3,Linecode=BT107_BT107_7_3_1,Length=0.007871000,Units=km
new line.113708 bus1=BBT112035.1.2.3.0,bus2=BBT112119.1.2.3.0,Phases=3,Linecode=BT108_BT108_7_3_1,Length=0.023116000,Units=km
new line.10086516 bus1=BBT3642037.1.2.0,bus2=BBT147496507.1.2.0,Phases=2,Linecode=BT808_BT808_4_2_3,Length=0.042821000,Units=km
new line.10097366 bus1=BBT148868625.1.2.0,bus2=BBT148868626.1.2.0,Phases=2,Linecode=BT518_BT518_7_2_1,Length=0.000504000,Units=km
new line.112973 bus1=BBT111321.1.2.3.0,bus2=BBT111328.1.2.3.0,Phases=3,Linecode=BT108_BT107_7_3_1,Length=0.040006000,Units=km
new line.112980 bus1=BBT111328.1.2.3.0,bus2=BBT111335.1.2.3.0,Phases=3,Linecode=BT108_BT107_7_3_1,Length=0.037100000,Units=km
new line.112987 bus1=BBT111328.1.2.3.0,bus2=BBT111349.1.2.3.0,Phases=3,Linecode=BT107_BT107_7_3_1,Length=0.040392000,Units=km
new line.112994 bus1=BBT111328.1.2.3.0,bus2=BBT2873255.1.2.3.0,Phases=3,Linecode=BT810_BT810_4_3_4,Length=0.031978000,Units=km
new line.113001 bus1=BBT111342.1.2.3.0,bus2=BBT111356.1.2.3.0,Phases=3,Linecode=BT107_BT107_7_3_1,Length=0.036413000,Units=km
new line.113008 bus1=BBT111349.1.2.3.0,bus2=BBT111370.1.2.3.0,Phases=3,Linecode=BT107_BT107_7_3_1,Length=0.036071000,Units=km
new line.113015 bus1=BBT111356.1.2.0,bus2=BBT111363.1.2.0,Phases=2,Linecode=BT107_BT107_7_2_1,Length=0.034918000,Units=km
new line.113022 bus1=BBT111356.1.2.3.0,bus2=BBT111377.1.2.3.0,Phases=3,Linecode=BT107_BT107_7_3_1,Length=0.036417000,Units=km
new line.113029 bus1=BBT111356.1.2.3.0,bus2=BBT111391.1.2.3.0,Phases=3,Linecode=BT809_BT809_4_3_4,Length=0.028837000,Units=km
new line.113036 bus1=BBT111370.1.2.3.0,bus2=BBT3139262.1.2.3.0,Phases=3,Linecode=BT107_BT107_7_3_1,Length=0.038120000,Units=km
new line.113043 bus1=BBT111370.1.2.0,bus2=BBT111384.1.2.0,Phases=2,Linecode=BT107_BT107_7_2_1,Length=0.044005000,Units=km
new line.113050 bus1=BBT111419.1.2.3.0,bus2=BBT111405.1.2.3.0,Phases=3,Linecode=BT108_BT107_7_3_1,Length=0.030880000,Units=km
new line.113057 bus1=BBT111419.1.2.3.0,bus2=BBT111412.1.2.3.0,Phases=3,Linecode=BT107_BT107_7_3_1,Length=0.037347000,Units=km
new line.113064 bus1=BBT111426.1.2.3.0,bus2=BBT111419.1.2.3.0,Phases=3,Linecode=BT108_BT107_7_3_1,Length=0.027768000,Units=km
new line.113071 bus1=BBT111398.1.2.3.0,bus2=BBT111426.1.2.3.0,Phases=3,Linecode=BT518_BT518_7_3_1,Length=0.000519000,Units=km
new line.113078 bus1=BBT111426.1.2.3.0,bus2=BBT111440.1.2.3.0,Phases=3,Linecode=BT108_BT107_7_3_1,Length=0.027855000,Units=km
new line.113085 bus1=BBT111440.1.2.3.0,bus2=BBT111433.1.2.3.0,Phases=3,Linecode=BT106_BT106_7_3_1,Length=0.037423000,Units=km
new line.113092 bus1=BBT111440.1.2.3.0,bus2=BBT111447.1.2.3.0,Phases=3,Linecode=BT108_BT107_7_3_1,Length=0.034758000,Units=km
new line.113099 bus1=BBT111447.1.2.3.0,bus2=BBT111454.1.2.3.0,Phases=3,Linecode=BT108_BT107_7_3_1,Length=0.043394000,Units=km
new line.113106 bus1=BBT111454.1.2.3.0,bus2=BBT111461.1.2.3.0,Phases=3,Linecode=BT108_BT107_7_3_1,Length=0.034850000,Units=km
new line.113113 bus1=BBT111461.1.2.3.0,bus2=BBT111468.1.2.3.0,Phases=3,Linecode=BT108_BT107_7_3_1,Length=0.037011000,Units=km
new line.113120 bus1=BBT111482.1.2.3.0,bus2=BBT151153631.1.2.3.0,Phases=3,Linecode=BT803_BT803_4_3_4,Length=0.035144000,Units=km
new line.113127 bus1=BBT111496.1.2.3.0,bus2=BBT151339025.1.2.3.0,Phases=3,Linecode=BT810_BT810_4_3_4,Length=0.033711000,Units=km
new line.113134 bus1=BBT165011010.1.2.3.0,bus2=BBT4347217.1.2.3.0,Phases=3,Linecode=BT810_BT810_4_3_4,Length=0.026484000,Units=km
new line.113141 bus1=BBT111510.1.2.3.0,bus2=BBT111503.1.2.3.0,Phases=3,Linecode=BT803_BT803_4_3_4,Length=0.038318000,Units=km
new line.113148 bus1=BBT111475.1.2.3.0,bus2=BBT111510.1.2.3.0,Phases=3,Linecode=BT309_BT309_7_3_1,Length=0.000501000,Units=km
new line.113155 bus1=BBT111510.1.2.3.0,bus2=BBT2791292.1.2.3.0,Phases=3,Linecode=BT803_BT803_4_3_4,Length=0.034993000,Units=km
new line.113162 bus1=BBT111538.1.2.3.0,bus2=BBT111531.1.2.3.0,Phases=3,Linecode=BT108_BT107_7_3_1,Length=0.037071000,Units=km
new line.113169 bus1=BBT111524.1.2.3.0,bus2=BBT111538.1.2.3.0,Phases=3,Linecode=BT513_BT513_7_3_1,Length=0.000502000,Units=km
new line.113176 bus1=BBT111538.1.2.3.0,bus2=BBT111545.1.2.3.0,Phases=3,Linecode=BT108_BT107_7_3_1,Length=0.025730000,Units=km
new line.113183 bus1=BBT111545.1.2.3.0,bus2=BBT3066231.1.2.3.0,Phases=3,Linecode=BT108_BT107_7_3_1,Length=0.027365000,Units=km
new line.113190 bus1=BBT111552.1.2.3.0,bus2=BBT111559.1.2.3.0,Phases=3,Linecode=BT108_BT107_7_3_1,Length=0.039121000,Units=km
new line.113197 bus1=BBT112301.1.2.3.0,bus2=BBT112315.1.2.3.0,Phases=3,Linecode=BT107_BT107_7_3_1,Length=0.037813000,Units=km
new line.113204 bus1=BBT111559.1.2.3.0,bus2=BBT2938845.1.2.3.0,Phases=3,Linecode=BT810_BT810_4_3_4,Length=0.033610000,Units=km
new line.113211 bus1=BBT111580.1.2.3.0,bus2=BBT111573.1.2.3.0,Phases=3,Linecode=BT107_BT107_7_3_1,Length=0.031962000,Units=km
new line.114002 bus1=BBT112308.1.2.3.0,bus2=BBT112301.1.2.3.0,Phases=3,Linecode=BT108_BT107_7_3_1,Length=0.021938000,Units=km
new line.114009 bus1=BBT112322.1.2.3.0,bus2=BBT112308.1.2.3.0,Phases=3,Linecode=BT108_BT107_7_3_1,Length=0.029009000,Units=km
new line.114016 bus1=BBT112294.1.2.3.0,bus2=BBT112322.1.2.3.0,Phases=3,Linecode=BT518_BT518_7_3_1,Length=0.000501000,Units=km
new line.114023 bus1=BBT112322.1.2.3.0,bus2=BBT112329.1.2.3.0,Phases=3,Linecode=BT108_BT107_7_3_1,Length=0.029077000,Units=km
new line.114030 bus1=BBT112329.1.2.3.0,bus2=BBT112336.1.2.3.0,Phases=3,Linecode=BT108_BT107_7_3_1,Length=0.036080000,Units=km
new line.114037 bus1=BBT112329.1.2.3.0,bus2=BBT112343.1.2.3.0,Phases=3,Linecode=BT107_BT107_7_3_1,Length=0.038909000,Units=km
new line.114044 bus1=BBT112336.1.2.3.0,bus2=BBT112350.1.2.3.0,Phases=3,Linecode=BT108_BT107_7_3_1,Length=0.024847000,Units=km
new line.114058 bus1=BBT112364.1.2.3.0,bus2=BBT112441.1.2.3.0,Phases=3,Linecode=BT809_BT809_4_3_4,Length=0.030935000,Units=km
new line.114065 bus1=BBT112371.1.2.3.0,bus2=BBT2873444.1.2.3.0,Phases=3,Linecode=BT810_BT810_4_3_4,Length=0.030440000,Units=km
new line.114072 bus1=BBT112378.1.2.3.0,bus2=BBT112364.1.2.3.0,Phases=3,Linecode=BT803_BT803_4_3_4,Length=0.033220000,Units=km
new line.114079 bus1=BBT112378.1.2.3.0,bus2=BBT112371.1.2.3.0,Phases=3,Linecode=BT803_BT803_4_3_4,Length=0.033405000,Units=km
new line.114086 bus1=BBT112378.1.2.3.0,bus2=BBT112385.1.2.3.0,Phases=3,Linecode=BT107_BT107_7_3_1,Length=0.039851000,Units=km
new line.114093 bus1=BBT112385.1.2.3.0,bus2=BBT112392.1.2.3.0,Phases=3,Linecode=BT107_BT107_7_3_1,Length=0.033554000,Units=km
new line.114100 bus1=BBT112399.1.2.3.0,bus2=BBT112378.1.2.3.0,Phases=3,Linecode=BT803_BT803_4_3_4,Length=0.024625000,Units=km
new line.114107 bus1=BBT112357.1.2.3.0,bus2=BBT112399.1.2.3.0,Phases=3,Linecode=BT518_BT518_7_3_1,Length=0.000507000,Units=km
new line.114114 bus1=BBT112399.1.2.3.0,bus2=BBT112413.1.2.3.0,Phases=3,Linecode=BT803_BT803_4_3_4,Length=0.035938000,Units=km
new line.114121 bus1=BBT112406.1.2.3.0,bus2=BBT112427.1.2.3.0,Phases=3,Linecode=BT809_BT809_4_3_4,Length=0.034750000,Units=km
new line.114128 bus1=BBT112413.1.2.3.0,bus2=BBT112406.1.2.3.0,Phases=3,Linecode=BT809_BT809_4_3_4,Length=0.038527000,Units=km
new line.114135 bus1=BBT112413.1.2.3.0,bus2=BBT112434.1.2.3.0,Phases=3,Linecode=BT809_BT809_4_3_4,Length=0.032627000,Units=km
new line.114142 bus1=BBT112413.1.2.3.0,bus2=BBT112448.1.2.3.0,Phases=3,Linecode=BT803_BT803_4_3_4,Length=0.010554000,Units=km
new line.114149 bus1=BBT112441.1.2.0,bus2=BBT3065944.1.2.0,Phases=2,Linecode=BT808_BT808_4_2_3,Length=0.030730000,Units=km
new line.114156 bus1=BBT112448.1.2.3.0,bus2=BBT112420.1.2.3.0,Phases=3,Linecode=BT803_BT803_4_3_4,Length=0.023482000,Units=km
new line.114163 bus1=BBT112469.1.2.3.0,bus2=BBT112462.1.2.3.0,Phases=3,Linecode=BT107_BT107_7_3_1,Length=0.031203000,Units=km
new line.114170 bus1=BBT112483.1.2.3.0,bus2=BBT112469.1.2.3.0,Phases=3,Linecode=BT107_BT107_7_3_1,Length=0.038723000,Units=km
new line.113218 bus1=BBT111587.1.2.0,bus2=BBT3066252.1.2.0,Phases=2,Linecode=BT808_BT808_4_2_3,Length=0.032766000,Units=km
new line.113225 bus1=BBT111594.1.2.3.0,bus2=BBT111615.1.2.3.0,Phases=3,Linecode=BT107_BT107_7_3_1,Length=0.037331000,Units=km
new line.113232 bus1=BBT111601.1.2.3.0,bus2=BBT111580.1.2.3.0,Phases=3,Linecode=BT107_BT107_7_3_1,Length=0.034244000,Units=km
new line.113239 bus1=BBT111608.1.2.3.0,bus2=BBT111587.1.2.3.0,Phases=3,Linecode=BT107_BT107_7_3_1,Length=0.035303000,Units=km
new line.113246 bus1=BBT111608.1.2.3.0,bus2=BBT111650.1.2.3.0,Phases=3,Linecode=BT107_BT107_7_3_1,Length=0.030030000,Units=km
new line.113253 bus1=BBT111615.1.2.3.0,bus2=BBT111643.1.2.3.0,Phases=3,Linecode=BT107_BT107_7_3_1,Length=0.037170000,Units=km
new line.113260 bus1=BBT111622.1.2.3.0,bus2=BBT111608.1.2.3.0,Phases=3,Linecode=BT107_BT107_7_3_1,Length=0.026297000,Units=km
new line.113267 bus1=BBT111629.1.2.3.0,bus2=BBT111594.1.2.3.0,Phases=3,Linecode=BT107_BT107_7_3_1,Length=0.029995000,Units=km
new line.113274 bus1=BBT111636.1.2.3.0,bus2=BBT111601.1.2.3.0,Phases=3,Linecode=BT107_BT107_7_3_1,Length=0.031144000,Units=km
new line.113281 bus1=BBT111636.1.2.3.0,bus2=BBT111622.1.2.3.0,Phases=3,Linecode=BT108_BT107_7_3_1,Length=0.026439000,Units=km
new line.113288 bus1=BBT111636.1.2.3.0,bus2=BBT111671.1.2.3.0,Phases=3,Linecode=BT107_BT107_7_3_1,Length=0.026573000,Units=km
new line.113302 bus1=BBT111650.1.2.3.0,bus2=BBT111678.1.2.3.0,Phases=3,Linecode=BT107_BT107_7_3_1,Length=0.029477000,Units=km
new line.113309 bus1=BBT111657.1.2.3.0,bus2=BBT111636.1.2.3.0,Phases=3,Linecode=BT108_BT107_7_3_1,Length=0.018486000,Units=km
new line.113316 bus1=BBT111566.1.2.3.0,bus2=BBT111657.1.2.3.0,Phases=3,Linecode=BT513_BT513_7_3_1,Length=0.000510000,Units=km
new line.113323 bus1=BBT111657.1.2.3.0,bus2=BBT111664.1.2.3.0,Phases=3,Linecode=BT108_BT107_7_3_1,Length=0.025690000,Units=km
new line.113330 bus1=BBT111664.1.2.3.0,bus2=BBT111629.1.2.3.0,Phases=3,Linecode=BT107_BT107_7_3_1,Length=0.026964000,Units=km
new line.113337 bus1=BBT111664.1.2.3.0,bus2=BBT111685.1.2.3.0,Phases=3,Linecode=BT108_BT107_7_3_1,Length=0.036678000,Units=km
new line.113344 bus1=BBT111664.1.2.3.0,bus2=BBT111692.1.2.3.0,Phases=3,Linecode=BT107_BT107_7_3_1,Length=0.031750000,Units=km
new line.113351 bus1=BBT111671.1.2.3.0,bus2=BBT111706.1.2.3.0,Phases=3,Linecode=BT107_BT107_7_3_1,Length=0.035144000,Units=km
new line.113358 bus1=BBT111685.1.2.3.0,bus2=BBT111699.1.2.3.0,Phases=3,Linecode=BT107_BT107_7_3_1,Length=0.047941000,Units=km
new line.113365 bus1=BBT111692.1.2.3.0,bus2=BBT111713.1.2.3.0,Phases=3,Linecode=BT107_BT107_7_3_1,Length=0.033383000,Units=km
new line.113372 bus1=BBT111727.1.2.3.0,bus2=BBT4860709.1.2.3.0,Phases=3,Linecode=BT810_BT810_4_3_4,Length=0.039650000,Units=km
new line.113379 bus1=BBT111734.1.2.3.0,bus2=BBT111727.1.2.3.0,Phases=3,Linecode=BT108_BT106_7_3_1,Length=0.030572000,Units=km
new line.113386 bus1=BBT111741.1.2.3.0,bus2=BBT111734.1.2.3.0,Phases=3,Linecode=BT108_BT106_7_3_1,Length=0.027442000,Units=km
new line.113393 bus1=BBT111741.1.2.3.0,bus2=BBT111748.1.2.3.0,Phases=3,Linecode=BT107_BT107_7_3_1,Length=0.042932000,Units=km
new line.113400 bus1=BBT111755.1.2.3.0,bus2=BBT111741.1.2.3.0,Phases=3,Linecode=BT108_BT106_7_3_1,Length=0.032261000,Units=km
new line.113407 bus1=BBT111720.1.2.3.0,bus2=BBT111755.1.2.3.0,Phases=3,Linecode=BT518_BT518_7_3_1,Length=0.000501000,Units=km
new line.113414 bus1=BBT111755.1.2.3.0,bus2=BBT111762.1.2.3.0,Phases=3,Linecode=BT108_BT106_7_3_1,Length=0.034896000,Units=km
new line.113421 bus1=BBT111762.1.2.3.0,bus2=BBT111769.1.2.3.0,Phases=3,Linecode=BT107_BT107_7_3_1,Length=0.030102000,Units=km
new line.113428 bus1=BBT111762.1.2.3.0,bus2=BBT111783.1.2.3.0,Phases=3,Linecode=BT108_BT106_7_3_1,Length=0.029470000,Units=km
new line.113435 bus1=BBT111762.1.2.3.0,bus2=BBT2873458.1.2.3.0,Phases=3,Linecode=BT810_BT810_4_3_4,Length=0.032821000,Units=km
new line.113442 bus1=BBT111769.1.2.3.0,bus2=BBT111776.1.2.3.0,Phases=3,Linecode=BT107_BT107_7_3_1,Length=0.030669000,Units=km
new line.113449 bus1=BBT111783.1.2.3.0,bus2=BBT111790.1.2.3.0,Phases=3,Linecode=BT108_BT106_7_3_1,Length=0.029193000,Units=km
new line.113456 bus1=BBT111804.1.2.3.0,bus2=BBT4847220.1.2.3.0,Phases=3,Linecode=BT810_BT810_4_3_4,Length=0.035625000,Units=km
new line.114254 bus1=BBT112455.1.2.3.0,bus2=BBT112553.1.2.3.0,Phases=3,Linecode=BT518_BT518_7_3_1,Length=0.000501000,Units=km
new line.114261 bus1=BBT112553.1.2.3.0,bus2=BBT112560.1.2.3.0,Phases=3,Linecode=BT108_BT107_7_3_1,Length=0.026841000,Units=km
new line.114268 bus1=BBT112560.1.2.3.0,bus2=BBT112511.1.2.3.0,Phases=3,Linecode=BT107_BT107_7_3_1,Length=0.028239000,Units=km
new line.114275 bus1=BBT112560.1.2.3.0,bus2=BBT112574.1.2.3.0,Phases=3,Linecode=BT108_BT107_7_3_1,Length=0.036260000,Units=km
new line.114282 bus1=BBT112560.1.2.3.0,bus2=BBT112588.1.2.3.0,Phases=3,Linecode=BT803_BT803_4_3_4,Length=0.033625000,Units=km
new line.114289 bus1=BBT112574.1.2.3.0,bus2=BBT112539.1.2.3.0,Phases=3,Linecode=BT809_BT809_4_3_4,Length=0.034448000,Units=km
new line.114296 bus1=BBT112574.1.2.3.0,bus2=BBT112581.1.2.3.0,Phases=3,Linecode=BT108_BT107_7_3_1,Length=0.032212000,Units=km
new line.114303 bus1=BBT112581.1.2.3.0,bus2=BBT112595.1.2.3.0,Phases=3,Linecode=BT108_BT107_7_3_1,Length=0.029975000,Units=km
new line.114310 bus1=BBT112623.1.2.3.0,bus2=BBT112616.1.2.3.0,Phases=3,Linecode=BT108_BT106_7_3_1,Length=0.027739000,Units=km
new line.114317 bus1=BBT112623.1.2.3.0,bus2=BBT112630.1.2.3.0,Phases=3,Linecode=BT803_BT803_4_3_4,Length=0.042117000,Units=km
new line.114324 bus1=BBT112630.1.2.3.0,bus2=BBT112644.1.2.3.0,Phases=3,Linecode=BT803_BT803_4_3_4,Length=0.038687000,Units=km
new line.114331 bus1=BBT112637.1.2.3.0,bus2=BBT112623.1.2.3.0,Phases=3,Linecode=BT108_BT106_7_3_1,Length=0.027321000,Units=km
new line.114338 bus1=BBT112609.1.2.3.0,bus2=BBT112637.1.2.3.0,Phases=3,Linecode=BT518_BT518_7_3_1,Length=0.000501000,Units=km
new line.114345 bus1=BBT112637.1.2.3.0,bus2=BBT112665.1.2.3.0,Phases=3,Linecode=BT108_BT106_7_3_1,Length=0.025503000,Units=km
new line.114352 bus1=BBT112644.1.2.3.0,bus2=BBT112756.1.2.3.0,Phases=3,Linecode=BT803_BT803_4_3_4,Length=0.004546000,Units=km
new line.114359 bus1=BBT112651.1.2.3.0,bus2=BBT3144799.1.2.3.0,Phases=3,Linecode=BT803_BT803_4_3_4,Length=0.023791000,Units=km
new line.114366 bus1=BBT112658.1.2.3.0,bus2=BBT112686.1.2.3.0,Phases=3,Linecode=BT803_BT803_4_3_4,Length=0.029841000,Units=km
new line.114373 bus1=BBT112665.1.2.3.0,bus2=BBT112658.1.2.3.0,Phases=3,Linecode=BT803_BT803_4_3_4,Length=0.022323000,Units=km
new line.114380 bus1=BBT112665.1.2.3.0,bus2=BBT112714.1.2.3.0,Phases=3,Linecode=BT107_BT106_7_3_1,Length=0.030472000,Units=km
new line.114387 bus1=BBT112686.1.2.3.0,bus2=BBT112707.1.2.3.0,Phases=3,Linecode=BT803_BT803_4_3_4,Length=0.030719000,Units=km
new line.114394 bus1=BBT112700.1.2.3.0,bus2=BBT112679.1.2.3.0,Phases=3,Linecode=BT106_BT106_7_3_1,Length=0.020255000,Units=km
new line.114401 bus1=BBT112707.1.2.3.0,bus2=BBT112721.1.2.3.0,Phases=3,Linecode=BT803_BT803_4_3_4,Length=0.005437000,Units=km