new line.CTR103334 bus1=BMT169014316.1,bus2=BMT169017935.1,Phases=1,LineCode=tieSwitch1,Length=0.001,Units=km,switch=T !numEQ 19889
new line.CTR103341 bus1=BMT174048067.1.2.3,bus2=BMT174048069.1.2.3,Phases=3,LineCode=tieSwitch,Length=0.001,Units=km,switch=T !numEQ 19412
new line.CTR103348 bus1=BMT169014328.2,bus2=BMT169017923.2,Phases=1,LineCode=tieSwitch1,Length=0.001,Units=km,switch=T !numEQ 19891
new line.CTR103362 bus1=BMT169017470.2,bus2=BMT169017916.2,Phases=1,LineCode=tieSwitch1,Length=0.001,Units=km,switch=T !numEQ 19351
new line.CTR103369 bus1=BMT169017474.2,bus2=BMT169017905.2,Phases=1,LineCode=tieSwitch1,Length=0.001,Units=km,switch=T !numEQ 18808
new line.CTR103383 bus1=BMT169017491.1,bus2=BMT171708132.1,Phases=1,LineCode=tieSwitch1,Length=0.001,Units=km,switch=T !numEQ 18812
new line.CTR103390 bus1=BMT170228094.1.2.3,bus2=BMT170228116.1.2.3,Phases=3,LineCode=tieSwitch,Length=0.001,Units=km,switch=T !numEQ 18828
new line.CTR103397 bus1=BMT169017496.2,bus2=BMT172164409.2,Phases=1,LineCode=tieSwitch1,Length=0.001,Units=km,switch=T !numEQ 19342
new line.CTR103418 bus1=BMT169017503.3,bus2=BMT169017701.3,Phases=1,LineCode=tieSwitch1,Length=0.001,Units=km,switch=T !numEQ 19345
new line.CTR103432 bus1=BMT169014334.1.2.3,bus2=BMT172162020.1.2.3,Phases=3,LineCode=tieSwitch,Length=0.001,Units=km,switch=T !numEQ 307927
new line.CTR103439 bus1=BMT176298958.2,bus2=BMT176299046.2,Phases=1,LineCode=tieSwitch1,Length=0.001,Units=km,switch=T !numEQ 18829
new line.CTR103446 bus1=BMT169016852.3,bus2=BMT176517467.3,Phases=1,LineCode=tieSwitch1,Length=0.001,Units=km,switch=T !numEQ 19330
new line.CTR103474 bus1=BMT169016926.2,bus2=BMT176247565.2,Phases=1,LineCode=tieSwitch1,Length=0.001,Units=km,switch=T !numEQ 306190
new line.CTR103481 bus1=BMT169017087.2,bus2=BMT176247862.2,Phases=1,LineCode=tieSwitch1,Length=0.001,Units=km,switch=T !numEQ 18931
new line.CTR103551 bus1=BMT169016274.1,bus2=BMT169016279.1,Phases=1,LineCode=tieSwitch1,Length=0.001,Units=km,switch=T !numEQ 19923
new line.CTR103565 bus1=BMT169014813.2,bus2=BMT169016220.2,Phases=1,LineCode=tieSwitch1,Length=0.001,Units=km,switch=T !numEQ 18873
new line.CTR103579 bus1=BMT169014857.3,bus2=BMT169015375.3,Phases=1,LineCode=tieSwitch1,Length=0.001,Units=km,switch=T !numEQ 18893
new line.CTR103607 bus1=BMT169014847.2,bus2=BMT169015460.2,Phases=1,LineCode=tieSwitch1,Length=0.001,Units=km,switch=T !numEQ 18890
new line.CTR103628 bus1=BMT169014862.1.2.3,bus2=BMT169015336.1.2.3,Phases=3,LineCode=tieSwitch,Length=0.001,Units=km,switch=T !numEQ 18896
new line.CTR103635 bus1=BMT169014865.1.2.3,bus2=BMT175318480.1.2.3,Phases=3,LineCode=tieSwitch,Length=0.001,Units=km,switch=T !numEQ 18897
new line.CTR103642 bus1=BMT169014885.1.2.3,bus2=BMT169014888.1.2.3,Phases=3,LineCode=tieSwitch,Length=0.001,Units=km,switch=T !numEQ 18900
new line.CTR103670 bus1=BMT171067139.2,bus2=BMT169015177.2,Phases=1,LineCode=tieSwitch1,Length=0.001,Units=km,switch=T !numEQ 19318
open line.CTR103670 term=1
new line.CTR103691 bus1=BMT169014757.1.2.3,bus2=BMT169014728.1.2.3,Phases=3,LineCode=tieSwitch,Length=0.001,Units=km,switch=T !numEQ 18845
open line.CTR103691 term=1
new line.CTR103698 bus1=BMT169014486.1.2.3,bus2=BMT169014487.1.2.3,Phases=3,LineCode=tieSwitch,Length=0.001,Units=km,switch=T !numEQ 18899
new line.CTR103705 bus1=BMT169014519.1.2.3,bus2=BMT172027800.1.2.3,Phases=3,LineCode=tieSwitch,Length=0.001,Units=km,switch=T !numEQ 18851
new line.CTR103719 bus1=BMT169014588.1.2.3,bus2=BMT169014590.1.2.3,Phases=3,LineCode=tieSwitch,Length=0.001,Units=km,switch=T !numEQ 18849
new line.CTR103733 bus1=BMT169014518.1.2.3,bus2=BMT169014520.1.2.3,Phases=3,LineCode=tieSwitch,Length=0.001,Units=km,switch=T !numEQ 18852
new line.CTR103754 bus1=BMT169014622.1.2.3,bus2=BMT174069876.1.2.3,Phases=3,LineCode=tieSwitch,Length=0.001,Units=km,switch=T !numEQ 197365
new line.CTR103789 bus1=BMT169014710.1.2.3,bus2=BMT169014711.1.2.3,Phases=3,LineCode=tieSwitch,Length=0.001,Units=km,switch=T !numEQ 19947
new line.CTR103796 bus1=BMT169014714.1.2.3,bus2=BMT169014722.1.2.3,Phases=3,LineCode=tieSwitch,Length=0.001,Units=km,switch=T !numEQ 18844
new line.CTR103817 bus1=BMT169014452.2,bus2=BMT169014456.2,Phases=1,LineCode=tieSwitch1,Length=0.001,Units=km,switch=T !numEQ 18818
new line.CTR10395 bus1=BMT169014367.3,bus2=BMT169014435.3,Phases=1,LineCode=tieSwitch1,Length=0.001,Units=km,switch=T !numEQ 172308
new line.CTR10479 bus1=BMT169015282.2,bus2=BMT169015324.2,Phases=1,LineCode=tieSwitch1,Length=0.001,Units=km,switch=T !numEQ 172524
new line.CTR132195 bus1=BMT169014812.2,bus2=BMT175479029.2,Phases=1,LineCode=tieSwitch1,Length=0.001,Units=km,switch=T !numEQ 19315
new line.CTR133182 bus1=BMT169017874.1,bus2=BMT169017899.1,Phases=1,LineCode=tieSwitch1,Length=0.001,Units=km,switch=T !numEQ 205562
new line.CTR147259 bus1=BMT169017489.2,bus2=BMT169017758.2,Phases=1,LineCode=tieSwitch1,Length=0.001,Units=km,switch=T !numEQ 138301
new line.CTR153328 bus1=BMT169016053.2,bus2=BMT169016059.2,Phases=1,LineCode=tieSwitch1,Length=0.001,Units=km,switch=T !numEQ 127008
new line.CTR16569 bus1=BMT169014462.1.2.3,bus2=BMT173192736.1.2.3,Phases=3,LineCode=tieSwitch,Length=0.001,Units=km,switch=T !numEQ 172985
new line.CTR16597 bus1=BMT169014834.1,bus2=BMT169015909.1,Phases=1,LineCode=tieSwitch1,Length=0.001,Units=km,switch=T !numEQ 172199
new line.CTR166327 bus1=BMT169014860.1,bus2=BMT169014866.1,Phases=1,LineCode=tieSwitch1,Length=0.001,Units=km,switch=T !numEQ 138298
new line.CTR167300 bus1=BMT169016913.2,bus2=BMT169017364.2,Phases=1,LineCode=tieSwitch1,Length=0.001,Units=km,switch=T !numEQ 119863
new line.CTR173642 bus1=BMT169015964.2,bus2=BMT169016103.2,Phases=1,LineCode=tieSwitch1,Length=0.001,Units=km,switch=T !numEQ 173263
new line.CTR174566 bus1=BMT169014494.1.2.3,bus2=BMT176155715.1.2.3,Phases=3,LineCode=tieSwitch,Length=0.001,Units=km,switch=T !numEQ 116721
new line.CTR178927 bus1=BMT169017811.1,bus2=BMT173291660.1,Phases=1,LineCode=tieSwitch1,Length=0.001,Units=km,switch=T !numEQ 205561
new line.CTR179200 bus1=BMT169014304.1.2.3,bus2=BMT169014305.1.2.3,Phases=3,LineCode=tieSwitch,Length=0.001,Units=km,switch=T !numEQ 175187
new line.CTR18025 bus1=BMT169017149.2,bus2=BMT176247739.2,Phases=1,LineCode=tieSwitch1,Length=0.001,Units=km,switch=T !numEQ 19944
new line.CTR180488 bus1=BMT169014440.1,bus2=BMT169014443.1,Phases=1,LineCode=tieSwitch1,Length=0.001,Units=km,switch=T !numEQ 171841
new line.CTR10087 bus1=BMT169017366.2,bus2=BMT169017371.2,Phases=1,LineCode=tieSwitch1,Length=0.001,Units=km,switch=T !numEQ 172456
new line.CTR1344 bus1=BMT169017099.2,bus2=BMT176247806.2,Phases=1,LineCode=tieSwitch1,Length=0.001,Units=km,switch=T !numEQ 103980
new line.CTR163863 bus1=BMT169014326.1,bus2=BMT176149920.1,Phases=1,LineCode=tieSwitch1,Length=0.001,Units=km,switch=T !numEQ 18802
new line.CTR165648 bus1=BMT169014826.1,bus2=BMT169016113.1,Phases=1,LineCode=tieSwitch1,Length=0.001,Units=km,switch=T !numEQ 174856
new line.CTR170226 bus1=BMT169015920.2,bus2=BMT172245995.2,Phases=1,LineCode=tieSwitch1,Length=0.001,Units=km,switch=T !numEQ 174870
new line.CTR175994 bus1=BMT169015532.3,bus2=BMT170400730.3,Phases=1,LineCode=tieSwitch1,Length=0.001,Units=km,switch=T !numEQ 175567
new line.CTR176008 bus1=BMT173792218.1,bus2=BMT169015573.1,Phases=1,LineCode=tieSwitch1,Length=0.001,Units=km,switch=T !numEQ 175643
new line.CTR176652 bus1=BMT169016005.2,bus2=BMT174032976.2,Phases=1,LineCode=tieSwitch1,Length=0.001,Units=km,switch=T !numEQ 381818
new line.CTR176659 bus1=BMT169016042.2,bus2=BMT169016063.2,Phases=1,LineCode=tieSwitch1,Length=0.001,Units=km,switch=T !numEQ 116704
new line.CTR18270 bus1=BMT169016868.3,bus2=BMT169017387.3,Phases=1,LineCode=tieSwitch1,Length=0.001,Units=km,switch=T !numEQ 306113
new line.CTR18277 bus1=BMT169016912.3,bus2=BMT169017375.3,Phases=1,LineCode=tieSwitch1,Length=0.001,Units=km,switch=T !numEQ 18826
new line.CTR18291 bus1=BMT169017092.2,bus2=BMT176247860.2,Phases=1,LineCode=tieSwitch1,Length=0.001,Units=km,switch=T !numEQ 18930
new line.CTR18298 bus1=BMT169017093.2,bus2=BMT176247856.2,Phases=1,LineCode=tieSwitch1,Length=0.001,Units=km,switch=T !numEQ 18929
new line.CTR18319 bus1=BMT169017012.2,bus2=BMT176247897.2,Phases=1,LineCode=tieSwitch1,Length=0.001,Units=km,switch=T !numEQ 312500
new line.CTR18333 bus1=BMT169017049.2,bus2=BMT176247944.2,Phases=1,LineCode=tieSwitch1,Length=0.001,Units=km,switch=T !numEQ 18934
new line.CTR18340 bus1=BMT169014466.1.2.3,bus2=BMT175751198.1.2.3,Phases=3,LineCode=tieSwitch,Length=0.001,Units=km,switch=T !numEQ 19319
new line.CTR18382 bus1=BMT169014808.1.2.3,bus2=BMT169016271.1.2.3,Phases=3,LineCode=tieSwitch,Length=0.001,Units=km,switch=T !numEQ 18872
new line.CTR18389 bus1=BMT169016294.1,bus2=BMT169016298.1,Phases=1,LineCode=tieSwitch1,Length=0.001,Units=km,switch=T !numEQ 18911
new line.CTR18396 bus1=BMT169014819.2,bus2=BMT169016214.2,Phases=1,LineCode=tieSwitch1,Length=0.001,Units=km,switch=T !numEQ 18806
new line.CTR18403 bus1=BMT169014821.1.2.3,bus2=BMT170298213.1.2.3,Phases=3,LineCode=tieSwitch,Length=0.001,Units=km,switch=T !numEQ 18874
new line.CTR18410 bus1=BMT169014313.1.2.3,bus2=BMT174048062.1.2.3,Phases=3,LineCode=tieSwitch,Length=0.001,Units=km,switch=T !numEQ 19413
new line.CTR18431 bus1=BMT169014330.1.2.3,bus2=BMT169017918.1.2.3,Phases=3,LineCode=tieSwitch,Length=0.001,Units=km,switch=T !numEQ 18803
new line.CTR18438 bus1=BMT169014331.1.2.3,bus2=BMT169959004.1.2.3,Phases=3,LineCode=tieSwitch,Length=0.001,Units=km,switch=T !numEQ 18804
new line.CTR191821 bus1=BMT169015311.2,bus2=BMT169015318.2,Phases=1,LineCode=tieSwitch1,Length=0.001,Units=km,switch=T !numEQ 213975
new line.CTR20790 bus1=BMT169014504.1.2.3,bus2=BMT169014784.1.2.3,Phases=3,LineCode=tieSwitch,Length=0.001,Units=km,switch=T !numEQ 138302
new line.CTR25242 bus1=BMT169014851.2,bus2=BMT169015449.2,Phases=1,LineCode=tieSwitch1,Length=0.001,Units=km,switch=T !numEQ 18942
new line.CTR287 bus1=BMT175861101.2,bus2=BMT175862219.2,Phases=1,LineCode=tieSwitch1,Length=0.001,Units=km,switch=T !numEQ 106755
new line.CTR335838 bus1=BMT169014558.2,bus2=BMT169014567.2,Phases=1,LineCode=tieSwitch1,Length=0.001,Units=km,switch=T !numEQ 282195
new line.CTR347500 bus1=BMT169014616.1.2.3,bus2=BMT169014700.1.2.3,Phases=3,LineCode=tieSwitch,Length=0.001,Units=km,switch=T !numEQ 286009
new line.CTR36792 bus1=BMT169014841.1.2.3,bus2=BMT173868655.1.2.3,Phases=3,LineCode=tieSwitch,Length=0.001,Units=km,switch=T !numEQ 138294
new line.CTR385825 bus1=BMT169017444.3,bus2=BMT169262301.3,Phases=1,LineCode=tieSwitch1,Length=0.001,Units=km,switch=T !numEQ 295971
new line.CTR388632 bus1=BMT169014496.1.2.3,bus2=BMT169014786.1.2.3,Phases=3,LineCode=tieSwitch,Length=0.001,Units=km,switch=T !numEQ 296503
new line.CTR442238 bus1=BMT169015973.2,bus2=BMT169016091.2,Phases=1,LineCode=tieSwitch1,Length=0.001,Units=km,switch=T !numEQ 312168
new line.CTR461264 bus1=BMT169017376.3,bus2=BMT169017377.3,Phases=1,LineCode=tieSwitch1,Length=0.001,Units=km,switch=T !numEQ 316309
new line.CTR46228 bus1=BMT169872729.1.2.3,bus2=BMT169014689.1.2.3,Phases=3,LineCode=tieSwitch,Length=0.001,Units=km,switch=T !numEQ 270701
new line.CTR63931 bus1=BMT169014532.1.2.3,bus2=BMT169014533.1.2.3,Phases=3,LineCode=tieSwitch,Length=0.001,Units=km,switch=T !numEQ 130227
new line.CTR75236 bus1=BMT169015529.3,bus2=BMT169015863.3,Phases=1,LineCode=tieSwitch1,Length=0.001,Units=km,switch=T !numEQ 175566
new line.CTR75817 bus1=BMT172168501.1.2.3,bus2=BMT169014604.1.2.3,Phases=3,LineCode=tieSwitch,Length=0.001,Units=km,switch=T !numEQ 18848
new line.CTR86597 bus1=BMT170175405.1.2.3,bus2=BMT4620994.1.2.3,Phases=3,LineCode=tieSwitch,Length=0.001,Units=km,switch=T !numEQ 175204
open line.CTR86597 term=1
new line.CTR879232 bus1=BMT169015749.1,bus2=BMT173792368.1,Phases=1,LineCode=tieSwitch1,Length=0.001,Units=km,switch=T !numEQ 236876
new line.CTR879815 bus1=BMT169014647.1.2.3,bus2=BMT174071228.1.2.3,Phases=3,LineCode=tieSwitch,Length=0.001,Units=km,switch=T !numEQ 129346
new line.CTR879816 bus1=BMT171870595.1.2.3,bus2=BMT174071125.1.2.3,Phases=3,LineCode=tieSwitch,Length=0.001,Units=km,switch=T !numEQ 129342
new line.CTR885081 bus1=BMT169014809.2,bus2=BMT169016267.2,Phases=1,LineCode=tieSwitch1,Length=0.001,Units=km,switch=T !numEQ 258336
new line.CTR88620 bus1=BMT169015379.3,bus2=BMT169015383.3,Phases=1,LineCode=tieSwitch1,Length=0.001,Units=km,switch=T !numEQ 125871
new line.CTR908267 bus1=BMT175285971.1.2.3,bus2=BMT170049211.1.2.3,Phases=3,LineCode=tieSwitch,Length=0.001,Units=km,switch=T !numEQ 269179
open line.CTR908267 term=1
new line.CTR908268 bus1=BMT170375290.1.2.3,bus2=BMT170375180.1.2.3,Phases=3,LineCode=tieSwitch,Length=0.001,Units=km,switch=T !numEQ 279411
open line.CTR908268 term=1
new line.CTR908426 bus1=BMT170048736.1.2.3,bus2=BMT175285968.1.2.3,Phases=3,LineCode=tieSwitch,Length=0.001,Units=km,switch=T !numEQ 279419
new line.CTR909183 bus1=BMT169810109.1.2.3,bus2=BMT169876617.1.2.3,Phases=3,LineCode=tieSwitch,Length=0.001,Units=km,switch=T !numEQ 280155
new line.CTR188076 bus1=BMT169016894.3,bus2=BMT169016905.3,Phases=1,LineCode=tieSwitch1,Length=0.001,Units=km,switch=T !numEQ 207341
new line.CTR193102 bus1=BMT169015595.1,bus2=BMT173792285.1,Phases=1,LineCode=tieSwitch1,Length=0.001,Units=km,switch=T !numEQ 208418
new line.CTR26306 bus1=BMT169014716.1.2.3,bus2=BMT169014779.1.2.3,Phases=3,LineCode=tieSwitch,Length=0.001,Units=km,switch=T !numEQ 175351
new line.CTR331050 bus1=BMT169017419.3,bus2=BMT169017420.3,Phases=1,LineCode=tieSwitch1,Length=0.001,Units=km,switch=T !numEQ 223414
new line.CTR332121 bus1=BMT169015764.1,bus2=BMT173792372.1,Phases=1,LineCode=tieSwitch1,Length=0.001,Units=km,switch=T !numEQ 230570
new line.CTR374632 bus1=BMT169015466.2,bus2=BMT169015468.2,Phases=1,LineCode=tieSwitch1,Length=0.001,Units=km,switch=T !numEQ 292383
new line.CTR391705 bus1=BMT169014370.2,bus2=BMT169014431.2,Phases=1,LineCode=tieSwitch1,Length=0.001,Units=km,switch=T !numEQ 297948
new line.CTR445500 bus1=BMT169014463.1.2.3,bus2=BMT169016842.1.2.3,Phases=3,LineCode=tieSwitch,Length=0.001,Units=km,switch=T !numEQ 299580
new line.CTR445766 bus1=BMT169016848.1.2.3,bus2=BMT169017430.1.2.3,Phases=3,LineCode=tieSwitch,Length=0.001,Units=km,switch=T !numEQ 308751
new line.CTR445773 bus1=BMT169017431.1.2.3,bus2=BMT173696368.1.2.3,Phases=3,LineCode=tieSwitch,Length=0.001,Units=km,switch=T !numEQ 312412
new line.CTR446592 bus1=BMT169014667.1.2.3,bus2=BMT169014677.1.2.3,Phases=3,LineCode=tieSwitch,Length=0.001,Units=km,switch=T !numEQ 312315
new line.CTR53746 bus1=BMT169014832.2,bus2=BMT169015914.2,Phases=1,LineCode=tieSwitch1,Length=0.001,Units=km,switch=T !numEQ 18881
new line.CTR62363 bus1=BMT169014319.2,bus2=BMT169017931.2,Phases=1,LineCode=tieSwitch1,Length=0.001,Units=km,switch=T !numEQ 138295
new line.CTR62398 bus1=BMT169014359.1,bus2=BMT169014439.1,Phases=1,LineCode=tieSwitch1,Length=0.001,Units=km,switch=T !numEQ 138297
new line.CTR62986 bus1=BMT169014852.1.2.3,bus2=BMT174427702.1.2.3,Phases=3,LineCode=tieSwitch,Length=0.001,Units=km,switch=T !numEQ 18807
new line.CTR74333 bus1=BMT169017514.3,bus2=BMT169017596.3,Phases=1,LineCode=tieSwitch1,Length=0.001,Units=km,switch=T !numEQ 19334
new line.CTR74494 bus1=BMT176454109.1,bus2=BMT169015274.1,Phases=1,LineCode=tieSwitch1,Length=0.001,Units=km,switch=T !numEQ 18925
new line.CTR80129 bus1=BMT169014460.1.2.3,bus2=BMT169014464.1.2.3,Phases=3,LineCode=tieSwitch,Length=0.001,Units=km,switch=T !numEQ 174149
new line.CTR848320 bus1=BMT169014619.1.2.3,bus2=BMT169872727.1.2.3,Phases=3,LineCode=tieSwitch,Length=0.001,Units=km,switch=T !numEQ 298099
new line.CTR848518 bus1=BMT169015384.3,bus2=BMT169015385.3,Phases=1,LineCode=tieSwitch1,Length=0.001,Units=km,switch=T !numEQ 375575
new line.CTR862365 bus1=BMT169017178.2,bus2=BMT176247801.2,Phases=1,LineCode=tieSwitch1,Length=0.001,Units=km,switch=T !numEQ 126399
new line.CTR86884 bus1=BMT174351663.2,bus2=BMT174351737.2,Phases=1,LineCode=tieSwitch1,Length=0.001,Units=km,switch=T !numEQ 196454
new line.CTR870155 bus1=BMT169016144.1,bus2=BMT169999657.1,Phases=1,LineCode=tieSwitch1,Length=0.001,Units=km,switch=T !numEQ 236866
new line.CTR875929 bus1=BMT169017928.1.2.3,bus2=BMT169017929.1.2.3,Phases=3,LineCode=tieSwitch,Length=0.001,Units=km,switch=T !numEQ 252757
new line.CTR875934 bus1=BMT169014329.1.2.3,bus2=BMT169017925.1.2.3,Phases=3,LineCode=tieSwitch,Length=0.001,Units=km,switch=T !numEQ 252756
new line.CTR876669 bus1=BMT169016854.1.2.3,bus2=BMT169016855.1.2.3,Phases=3,LineCode=tieSwitch,Length=0.001,Units=km,switch=T !numEQ 306116
new line.CTR877220 bus1=BMT169014660.1.2.3,bus2=BMT169014670.1.2.3,Phases=3,LineCode=tieSwitch,Length=0.001,Units=km,switch=T !numEQ 129345
new line.CTR877245 bus1=BMT169016862.3,bus2=BMT169017391.3,Phases=1,LineCode=tieSwitch1,Length=0.001,Units=km,switch=T !numEQ 306115
new line.CTR877453 bus1=BMT169014644.1.2.3,bus2=BMT171020054.1.2.3,Phases=3,LineCode=tieSwitch,Length=0.001,Units=km,switch=T !numEQ 255385
new line.CTR887394 bus1=BMT169014534.1.2.3,bus2=BMT169014572.1.2.3,Phases=3,LineCode=tieSwitch,Length=0.001,Units=km,switch=T !numEQ 265456
new line.CTR887395 bus1=BMT169014524.1.2.3,bus2=BMT169014525.1.2.3,Phases=3,LineCode=tieSwitch,Length=0.001,Units=km,switch=T !numEQ 265457
new line.CTR887396 bus1=BMT169014522.1.2.3,bus2=BMT169014576.1.2.3,Phases=3,LineCode=tieSwitch,Length=0.001,Units=km,switch=T !numEQ 265458
new line.CTR887397 bus1=BMT169014521.1.2.3,bus2=BMT169014581.1.2.3,Phases=3,LineCode=tieSwitch,Length=0.001,Units=km,switch=T !numEQ 265459
new line.CTR887427 bus1=BMT169014562.2,bus2=BMT169014563.2,Phases=1,LineCode=tieSwitch1,Length=0.001,Units=km,switch=T !numEQ 262603
open line.CTR887427 term=1
new line.CTR893491 bus1=BMT169016052.2,bus2=BMT169016061.2,Phases=1,LineCode=tieSwitch1,Length=0.001,Units=km,switch=T !numEQ 269279
new line.CTR897841 bus1=BMT169016927.2,bus2=BMT169016928.2,Phases=1,LineCode=tieSwitch1,Length=0.001,Units=km,switch=T !numEQ 271913
new line.CTR904037 bus1=BMT169014628.1.2.3,bus2=BMT169876038.1.2.3,Phases=3,LineCode=tieSwitch,Length=0.001,Units=km,switch=T !numEQ 276195
new line.CTR904038 bus1=BMT169014629.1.2.3,bus2=BMT175860488.1.2.3,Phases=3,LineCode=tieSwitch,Length=0.001,Units=km,switch=T !numEQ 276191
new line.CTR909902 bus1=BMT170047826.1.2.3,bus2=BMT170048930.1.2.3,Phases=3,LineCode=tieSwitch,Length=0.001,Units=km,switch=T !numEQ 280236
new line.CTR910713 bus1=BMT170298219.1.2.3,bus2=BMT170298220.1.2.3,Phases=3,LineCode=tieSwitch,Length=0.001,Units=km,switch=T !numEQ 318624
new line.CTR910936 bus1=BMT170400733.3,bus2=BMT170400770.3,Phases=1,LineCode=tieSwitch1,Length=0.001,Units=km,switch=T !numEQ 280676
new line.CTR911087 bus1=BMT175860418.1.2.3,bus2=BMT175873268.1.2.3,Phases=3,LineCode=tieSwitch,Length=0.001,Units=km,switch=T !numEQ 279115
new line.CTR916347 bus1=BMT172132206.3,bus2=BMT172132208.3,Phases=1,LineCode=tieSwitch1,Length=0.001,Units=km,switch=T !numEQ 323446
new line.CTR916393 bus1=BMT172162025.2,bus2=BMT172162085.2,Phases=1,LineCode=tieSwitch1,Length=0.001,Units=km,switch=T !numEQ 323981
new line.CTR916400 bus1=BMT172164421.2,bus2=BMT172164493.2,Phases=1,LineCode=tieSwitch1,Length=0.001,Units=km,switch=T !numEQ 323982
new line.CTR916411 bus1=BMT172168503.1.2.3,bus2=BMT172168504.1.2.3,Phases=3,LineCode=tieSwitch,Length=0.001,Units=km,switch=T !numEQ 129247
new line.CTR916423 bus1=BMT172172011.1.2.3,bus2=BMT174068588.1.2.3,Phases=3,LineCode=tieSwitch,Length=0.001,Units=km,switch=T !numEQ 129248
new line.CTR118230 bus1=BMT169015502.3,bus2=BMT169015503.3,Phases=1,LineCode=tieSwitch1,Length=0.001,Units=km,switch=T !numEQ 103729
new line.CTR128359 bus1=BMT169015498.3,bus2=BMT169015510.3,Phases=1,LineCode=tieSwitch1,Length=0.001,Units=km,switch=T !numEQ 175038
new line.CTR155631 bus1=BMT169017490.3,bus2=BMT169017736.3,Phases=1,LineCode=tieSwitch1,Length=0.001,Units=km,switch=T !numEQ 18811
new line.CTR163086 bus1=BMT169014768.1.2.3,bus2=BMT169014772.1.2.3,Phases=3,LineCode=tieSwitch,Length=0.001,Units=km,switch=T !numEQ 175205
new line.CTR163310 bus1=BMT169016860.2,bus2=BMT169016879.2,Phases=1,LineCode=tieSwitch1,Length=0.001,Units=km,switch=T !numEQ 138299
new line.CTR168140 bus1=BMT169014541.2,bus2=BMT169014544.2,Phases=1,LineCode=tieSwitch1,Length=0.001,Units=km,switch=T !numEQ 137120
new line.CTR168161 bus1=BMT169015567.1,bus2=BMT173792289.1,Phases=1,LineCode=tieSwitch1,Length=0.001,Units=km,switch=T !numEQ 138296
new line.CTR177723 bus1=BMT169015585.1,bus2=BMT173792292.1,Phases=1,LineCode=tieSwitch1,Length=0.001,Units=km,switch=T !numEQ 126998
new line.CTR177842 bus1=BMT169017550.1,bus2=BMT169017551.1,Phases=1,LineCode=tieSwitch1,Length=0.001,Units=km,switch=T !numEQ 171756
new line.CTR178332 bus1=BMT169014535.1.2.3,bus2=BMT176742197.1.2.3,Phases=3,LineCode=tieSwitch,Length=0.001,Units=km,switch=T !numEQ 18857
new line.CTR178479 bus1=BMT169015832.3,bus2=BMT169015858.3,Phases=1,LineCode=tieSwitch1,Length=0.001,Units=km,switch=T !numEQ 172887
new line.CTR18452 bus1=BMT169017472.3,bus2=BMT171282141.3,Phases=1,LineCode=tieSwitch1,Length=0.001,Units=km,switch=T !numEQ 19352
new line.CTR18459 bus1=BMT169014480.1.2.3,bus2=BMT169810107.1.2.3,Phases=3,LineCode=tieSwitch,Length=0.001,Units=km,switch=T !numEQ 18871
new line.CTR18466 bus1=BMT169017475.1.2.3,bus2=BMT169017476.1.2.3,Phases=3,LineCode=tieSwitch,Length=0.001,Units=km,switch=T !numEQ 19350
new line.CTR18473 bus1=BMT169017477.1,bus2=BMT169017903.1,Phases=1,LineCode=tieSwitch1,Length=0.001,Units=km,switch=T !numEQ 19349
new line.CTR18480 bus1=BMT169017486.2,bus2=BMT169017762.2,Phases=1,LineCode=tieSwitch1,Length=0.001,Units=km,switch=T !numEQ 18810
new line.CTR18487 bus1=BMT169017497.2,bus2=BMT169017706.2,Phases=1,LineCode=tieSwitch1,Length=0.001,Units=km,switch=T !numEQ 19343
new line.CTR18494 bus1=BMT169017501.3,bus2=BMT169017704.3,Phases=1,LineCode=tieSwitch1,Length=0.001,Units=km,switch=T !numEQ 19344
new line.CTR18501 bus1=BMT169017508.2,bus2=BMT169017699.2,Phases=1,LineCode=tieSwitch1,Length=0.001,Units=km,switch=T !numEQ 19347
new line.CTR18522 bus1=BMT174047878.1.2.3,bus2=BMT174047881.1.2.3,Phases=3,LineCode=tieSwitch,Length=0.001,Units=km,switch=T !numEQ 18817
new line.CTR18536 bus1=BMT169016849.2,bus2=BMT169017424.2,Phases=1,LineCode=tieSwitch1,Length=0.001,Units=km,switch=T !numEQ 19317
new line.CTR18543 bus1=BMT169016853.2,bus2=BMT169017395.2,Phases=1,LineCode=tieSwitch1,Length=0.001,Units=km,switch=T !numEQ 19331
new line.CTR185731 bus1=BMT169017080.2,bus2=BMT176247622.2,Phases=1,LineCode=tieSwitch1,Length=0.001,Units=km,switch=T !numEQ 203266
new line.CTR420804 bus1=BMT169015811.3,bus2=BMT169015813.3,Phases=1,LineCode=tieSwitch1,Length=0.001,Units=km,switch=T !numEQ 306154
new line.CTR6669110 bus1=BMTSEGM#33345550.1.2.3,bus2=BMTSEGM#20007330.1.2.3,Phases=3,LineCode=tieSwitch,Length=0.001,Units=km,switch=T !numEQ 
new line.CTR6669341 bus1=BMTSEGM#33346705.1.2.3,bus2=BMTSEGM#20008023.1.2.3,Phases=3,LineCode=tieSwitch,Length=0.001,Units=km,switch=T !numEQ 
new line.CTR6669482 bus1=BMTSEGM#33347410.1.2.3,bus2=BMTSEGM#20008446.1.2.3,Phases=3,LineCode=tieSwitch,Length=0.001,Units=km,switch=T !numEQ 
open line.CTR6669482 term=1
new line.CTR69020 bus1=BMT169017481.2,bus2=BMT169017765.2,Phases=1,LineCode=tieSwitch1,Length=0.001,Units=km,switch=T !numEQ 19338
new line.CTR7833 bus1=BMT169014824.3,bus2=BMT169016200.3,Phases=1,LineCode=tieSwitch1,Length=0.001,Units=km,switch=T !numEQ 18876
new line.CTR843593 bus1=BMT169015240.2,bus2=BMT169015327.2,Phases=1,LineCode=tieSwitch1,Length=0.001,Units=km,switch=T !numEQ 203245
new line.CTR843595 bus1=BMT169015656.1,bus2=BMT173792176.1,Phases=1,LineCode=tieSwitch1,Length=0.001,Units=km,switch=T !numEQ 283552
new line.CTR843596 bus1=BMT176454065.2,bus2=BMT169015262.2,Phases=1,LineCode=tieSwitch1,Length=0.001,Units=km,switch=T !numEQ 283553
new line.CTR85022 bus1=BMT169015491.1.2.3,bus2=BMT169015901.1.2.3,Phases=3,LineCode=tieSwitch,Length=0.001,Units=km,switch=T !numEQ 19358
new line.CTR85036 bus1=BMT169014586.1.2.3,bus2=BMT169014609.1.2.3,Phases=3,LineCode=tieSwitch,Length=0.001,Units=km,switch=T !numEQ 255287
new line.CTR858110 bus1=BMT169015970.2,bus2=BMT169016095.2,Phases=1,LineCode=tieSwitch1,Length=0.001,Units=km,switch=T !numEQ 382025
new line.CTR866890 bus1=BMT169014592.1.2.3,bus2=BMT172168494.1.2.3,Phases=3,LineCode=tieSwitch,Length=0.001,Units=km,switch=T !numEQ 239307
new line.CTR874835 bus1=BMT169015354.3,bus2=BMT172132205.3,Phases=1,LineCode=tieSwitch1,Length=0.001,Units=km,switch=T !numEQ 248804
new line.CTR875584 bus1=BMT169014704.1.2.3,bus2=BMT169014705.1.2.3,Phases=3,LineCode=tieSwitch,Length=0.001,Units=km,switch=T !numEQ 252718
new line.CTR888519 bus1=BMT169016856.1,bus2=BMT169016857.1,Phases=1,LineCode=tieSwitch1,Length=0.001,Units=km,switch=T !numEQ 265749
new line.CTR895131 bus1=BMT169015471.2,bus2=BMT169015472.2,Phases=1,LineCode=tieSwitch1,Length=0.001,Units=km,switch=T !numEQ 270118
new line.CTR895632 bus1=BMT169015348.3,bus2=BMT169015369.3,Phases=1,LineCode=tieSwitch1,Length=0.001,Units=km,switch=T !numEQ 270734
new line.CTR895654 bus1=BMT169014719.1.2.3,bus2=BMT175043526.1.2.3,Phases=3,LineCode=tieSwitch,Length=0.001,Units=km,switch=T !numEQ 250013
new line.CTR917780 bus1=BMT172602674.2,bus2=BMT172602675.2,Phases=1,LineCode=tieSwitch1,Length=0.001,Units=km,switch=T !numEQ 326141
new line.CTR918138 bus1=BMT172711829.1.2.3,bus2=BMT175873211.1.2.3,Phases=3,LineCode=tieSwitch,Length=0.001,Units=km,switch=T !numEQ 327731
new line.CTR925574 bus1=BMT174427703.3,bus2=BMT174427709.3,Phases=1,LineCode=tieSwitch1,Length=0.001,Units=km,switch=T !numEQ 341081
new line.CTR925846 bus1=BMT174463588.1,bus2=BMT174463699.1,Phases=1,LineCode=tieSwitch1,Length=0.001,Units=km,switch=T !numEQ 341116
new line.CTR925987 bus1=BMT174483474.1.2.3,bus2=BMT176500287.1.2.3,Phases=3,LineCode=tieSwitch,Length=0.001,Units=km,switch=T !numEQ 341126
new line.CTR932974 bus1=BMT175751200.1.2.3,bus2=BMT176372100.1.2.3,Phases=3,LineCode=tieSwitch,Length=0.001,Units=km,switch=T !numEQ 346655
new line.CTR95662 bus1=BMT169014807.1,bus2=BMT169016315.1,Phases=1,LineCode=tieSwitch1,Length=0.001,Units=km,switch=T !numEQ 137617
new line.CTR96446 bus1=BMT169014831.3,bus2=BMT169016106.3,Phases=1,LineCode=tieSwitch1,Length=0.001,Units=km,switch=T !numEQ 172364
new line.CTRR21601 bus1=BMT169014482.1.2.3,bus2=BMT169014483.1.2.3,Phases=3,LineCode=tieSwitch,Length=0.001,Units=km,switch=T !numEQ 116720
new line.CTRR21608 bus1=BMT169014803.1.2.3,bus2=BMT169014805.1.2.3,Phases=3,LineCode=tieSwitch,Length=0.001,Units=km,switch=T !numEQ 299592
new line.CTRR21615 bus1=BMT169014849.1.2.3,bus2=BMT169014850.1.2.3,Phases=3,LineCode=tieSwitch,Length=0.001,Units=km,switch=T !numEQ 127519
new line.CTRR21622 bus1=BMT169016844.1.2.3,bus2=BMT169016845.1.2.3,Phases=3,LineCode=tieSwitch,Length=0.001,Units=km,switch=T !numEQ 125874
new line.CTRR35168 bus1=BMT169014542.2,bus2=BMT169014547.2,Phases=1,LineCode=tieSwitch1,Length=0.001,Units=km,switch=T !numEQ 252721
new line.CTRR3556 bus1=BMT169015915.2,bus2=BMT169015916.2,Phases=1,LineCode=tieSwitch1,Length=0.001,Units=km,switch=T !numEQ 213874
new line.CTRR35625 bus1=BMT169017515.1,bus2=BMT169017518.1,Phases=1,LineCode=tieSwitch1,Length=0.001,Units=km,switch=T !numEQ 252720
new line.CTRR35916 bus1=BMT169016114.1,bus2=BMT169016115.1,Phases=1,LineCode=tieSwitch1,Length=0.001,Units=km,switch=T !numEQ 256594
new line.CTRR36108 bus1=BMT169017480.1,bus2=BMT174463563.1,Phases=1,LineCode=tieSwitch1,Length=0.001,Units=km,switch=T !numEQ 256591
new line.CTRR36120 bus1=BMT169016929.2,bus2=BMT176155197.2,Phases=1,LineCode=tieSwitch1,Length=0.001,Units=km,switch=T !numEQ 256593
new line.CTR105189 bus1=BMT169017479.2,bus2=BMT169017772.2,Phases=1,LineCode=tieSwitch1,Length=0.001,Units=km,switch=T !numEQ 138300
new line.CTR105266 bus1=BMT169014806.2,bus2=BMT169016317.2,Phases=1,LineCode=tieSwitch1,Length=0.001,Units=km,switch=T !numEQ 19495
new line.CTR142548 bus1=BMT169016003.2,bus2=BMT169016076.2,Phases=1,LineCode=tieSwitch1,Length=0.001,Units=km,switch=T !numEQ 85083
new line.CTR150731 bus1=BMT169017546.1,bus2=BMT170810342.1,Phases=1,LineCode=tieSwitch1,Length=0.001,Units=km,switch=T !numEQ 172597
new line.CTR151249 bus1=BMT169016875.3,bus2=BMT169016882.3,Phases=1,LineCode=tieSwitch1,Length=0.001,Units=km,switch=T !numEQ 18825
new line.CTR160307 bus1=BMT169014765.1.2.3,bus2=BMT169014767.1.2.3,Phases=3,LineCode=tieSwitch,Length=0.001,Units=km,switch=T !numEQ 18847
new line.CTR160314 bus1=BMT169014729.1.2.3,bus2=BMT172602667.1.2.3,Phases=3,LineCode=tieSwitch,Length=0.001,Units=km,switch=T !numEQ 18846
new line.CTR18116 bus1=BMT169016129.1,bus2=BMT172566698.1,Phases=1,LineCode=tieSwitch1,Length=0.001,Units=km,switch=T !numEQ 295935
new line.CTR18137 bus1=BMT170298229.1.2.3,bus2=BMT169014843.1.2.3,Phases=3,LineCode=tieSwitch,Length=0.001,Units=km,switch=T !numEQ 18888
new line.CTR18144 bus1=BMT173792273.1,bus2=BMT169015546.1,Phases=1,LineCode=tieSwitch1,Length=0.001,Units=km,switch=T !numEQ 19929
open line.CTR18144 term=1
new line.CTR18151 bus1=BMT169015461.2,bus2=BMT169015463.2,Phases=1,LineCode=tieSwitch1,Length=0.001,Units=km,switch=T !numEQ 19861
new line.CTR18165 bus1=BMT169014855.1,bus2=BMT169015407.1,Phases=1,LineCode=tieSwitch1,Length=0.001,Units=km,switch=T !numEQ 373487
new line.CTR18172 bus1=BMT169014856.1,bus2=BMT169015398.1,Phases=1,LineCode=tieSwitch1,Length=0.001,Units=km,switch=T !numEQ 18922
new line.CTR18200 bus1=BMT169014882.3,bus2=BMT169015230.3,Phases=1,LineCode=tieSwitch1,Length=0.001,Units=km,switch=T !numEQ 18898
new line.CTR382437 bus1=BMT169014332.1.2.3,bus2=BMT169017466.1.2.3,Phases=3,LineCode=tieSwitch,Length=0.001,Units=km,switch=T !numEQ 294849
new line.CTR407532 bus1=BMT169014766.1.2.3,bus2=BMT169014775.1.2.3,Phases=3,LineCode=tieSwitch,Length=0.001,Units=km,switch=T !numEQ 302781
new line.CTR450785 bus1=BMT169014875.1.2.3,bus2=BMT176454036.1.2.3,Phases=3,LineCode=tieSwitch,Length=0.001,Units=km,switch=T !numEQ 283551
new line.CTR66878 bus1=BMT169015523.3,bus2=BMT169015876.3,Phases=1,LineCode=tieSwitch1,Length=0.001,Units=km,switch=T !numEQ 175565