new load.BT_3001132387_M1 bus1=RML1010259264.3.0,Phases=1,kv=0.127,kW=1.77692,pf=0.92,Vminpu=0.92,Vmaxpu=1.5,model=8,zipv=[0.5,0,0.5,1,0,0,0],daily=RES1_16,status=variable
new load.BT_3001132388_M1 bus1=RML1000572610.2.0,Phases=1,kv=0.127,kW=0.01056,pf=0.92,Vminpu=0.92,Vmaxpu=1.5,model=8,zipv=[0.5,0,0.5,1,0,0,0],daily=RES1_16,status=variable
new load.BT_3001132389_M1 bus1=RML1000572617.3.0,Phases=1,kv=0.127,kW=1.4784,pf=0.92,Vminpu=0.92,Vmaxpu=1.5,model=8,zipv=[0.5,0,0.5,1,0,0,0],daily=RES1_16,status=variable
new load.BT_3001132390_M1 bus1=RML1000572624.3.0,Phases=1,kv=0.127,kW=0.00582,pf=0.92,Vminpu=0.92,Vmaxpu=1.5,model=8,zipv=[0.5,0,0.5,1,0,0,0],daily=RES1_16,status=variable
new load.BT_3001132391_M1 bus1=RML1000572631.1.2.3.0,Phases=3,kv=0.22,kW=1.01642,pf=0.92,Vminpu=0.92,Vmaxpu=1.5,model=8,zipv=[0.5,0,0.5,1,0,0,0],daily=IND1_18,status=variable
new load.BT_3001132392_M1 bus1=RML1000572638.1.0,Phases=1,kv=0.127,kW=0.48928,pf=0.92,Vminpu=0.92,Vmaxpu=1.5,model=8,zipv=[0.5,0,0.5,1,0,0,0],daily=RES1_16,status=variable
new load.BT_3001132563_M1 bus1=RML1000561571.2.0,Phases=1,kv=0.127,kW=3.6547,pf=0.92,Vminpu=0.92,Vmaxpu=1.5,model=8,zipv=[0.5,0,0.5,1,0,0,0],daily=RES1_16,status=variable
new load.BT_3001132564_M1 bus1=RML1000561550.1.2.3.0,Phases=3,kv=0.22,kW=0.01056,pf=0.92,Vminpu=0.92,Vmaxpu=1.5,model=8,zipv=[0.5,0,0.5,1,0,0,0],daily=RES1_16,status=variable
new load.BT_3001132565_M1 bus1=RML1000561522.1.2.3.0,Phases=3,kv=0.22,kW=1.81588,pf=0.92,Vminpu=0.92,Vmaxpu=1.5,model=8,zipv=[0.5,0,0.5,1,0,0,0],daily=RES1_16,status=variable
new load.BT_3001132566_M1 bus1=RML1000561522.1.2.3.0,Phases=3,kv=0.22,kW=2.33756,pf=0.92,Vminpu=0.92,Vmaxpu=1.5,model=8,zipv=[0.5,0,0.5,1,0,0,0],daily=RES1_16,status=variable
new load.BT_3001132567_M1 bus1=RML1000561522.1.2.3.0,Phases=3,kv=0.22,kW=10.60744,pf=0.92,Vminpu=0.92,Vmaxpu=1.5,model=8,zipv=[0.5,0,0.5,1,0,0,0],daily=IND1_18,status=variable
new load.BT_3001132569_M1 bus1=RML1000561536.2.0,Phases=1,kv=0.127,kW=0.01092,pf=0.92,Vminpu=0.92,Vmaxpu=1.5,model=8,zipv=[0.5,0,0.5,1,0,0,0],daily=RES1_16,status=variable
new load.BT_3001132570_M1 bus1=RML1000561543.1.2.3.0,Phases=3,kv=0.22,kW=0.00484,pf=0.92,Vminpu=0.92,Vmaxpu=1.5,model=8,zipv=[0.5,0,0.5,1,0,0,0],daily=COM1_20,status=variable
new load.BT_3001132571_M1 bus1=RML1010524186.1.2.3.0,Phases=3,kv=0.22,kW=57.46842,pf=0.92,Vminpu=0.92,Vmaxpu=1.5,model=8,zipv=[0.5,0,0.5,1,0,0,0],daily=IND1_18,status=variable
new load.BT_3001132572_M1 bus1=RML1000561599.1.2.3.0,Phases=3,kv=0.22,kW=2.54362,pf=0.92,Vminpu=0.92,Vmaxpu=1.5,model=8,zipv=[0.5,0,0.5,1,0,0,0],daily=RES1_16,status=variable
new load.BT_3001132574_M1 bus1=RML1000561585.1.2.3.0,Phases=3,kv=0.22,kW=2.67832,pf=0.92,Vminpu=0.92,Vmaxpu=1.5,model=8,zipv=[0.5,0,0.5,1,0,0,0],daily=RES1_16,status=variable
new load.BT_3001132575_M1 bus1=RML1000561585.1.2.3.0,Phases=3,kv=0.22,kW=2.30918,pf=0.92,Vminpu=0.92,Vmaxpu=1.5,model=8,zipv=[0.5,0,0.5,1,0,0,0],daily=COM1_20,status=variable
new load.BT_3001132588_M1 bus1=RML1000561494.2.3.0,Phases=2,kv=0.22,kW=0.01056,pf=0.92,Vminpu=0.92,Vmaxpu=1.5,model=8,zipv=[0.5,0,0.5,1,0,0,0],daily=RES1_16,status=variable
new load.BT_3001132589_M1 bus1=RML1000561487.1.2.3.0,Phases=3,kv=0.22,kW=1.62184,pf=0.92,Vminpu=0.92,Vmaxpu=1.5,model=8,zipv=[0.5,0,0.5,1,0,0,0],daily=RES1_16,status=variable
new load.BT_3001132590_M1 bus1=RML1000561487.1.2.3.0,Phases=3,kv=0.22,kW=0.00484,pf=0.92,Vminpu=0.92,Vmaxpu=1.5,model=8,zipv=[0.5,0,0.5,1,0,0,0],daily=COM1_20,status=variable
new load.BT_3001132591_M1 bus1=RML1000561459.1.2.3.0,Phases=3,kv=0.22,kW=1.44346,pf=0.92,Vminpu=0.92,Vmaxpu=1.5,model=8,zipv=[0.5,0,0.5,1,0,0,0],daily=RES1_16,status=variable
new load.BT_3001132592_M1 bus1=RML1010325828.3.0,Phases=1,kv=0.127,kW=1.9058,pf=0.92,Vminpu=0.92,Vmaxpu=1.5,model=8,zipv=[0.5,0,0.5,1,0,0,0],daily=RES1_16,status=variable
new load.BT_3001132623_M1 bus1=RML1000792333.1.2.3.0,Phases=3,kv=0.22,kW=0.36988,pf=0.92,Vminpu=0.92,Vmaxpu=1.5,model=8,zipv=[0.5,0,0.5,1,0,0,0],daily=RES1_16,status=variable
new load.BT_3001132626_M1 bus1=RML1000792361.1.0,Phases=1,kv=0.127,kW=2.15844,pf=0.92,Vminpu=0.92,Vmaxpu=1.5,model=8,zipv=[0.5,0,0.5,1,0,0,0],daily=RES1_16,status=variable
new load.BT_3001132627_M1 bus1=RML1000831631.1.2.3.0,Phases=3,kv=0.22,kW=1.34626,pf=0.92,Vminpu=0.92,Vmaxpu=1.5,model=8,zipv=[0.5,0,0.5,1,0,0,0],daily=RES1_16,status=variable
new load.BT_3001132629_M1 bus1=RML1000831617.1.2.3.0,Phases=3,kv=0.22,kW=1.65388,pf=0.92,Vminpu=0.92,Vmaxpu=1.5,model=8,zipv=[0.5,0,0.5,1,0,0,0],daily=RES1_16,status=variable
new load.BT_3001132630_M1 bus1=RML1000831617.1.2.3.0,Phases=3,kv=0.22,kW=0.01056,pf=0.92,Vminpu=0.92,Vmaxpu=1.5,model=8,zipv=[0.5,0,0.5,1,0,0,0],daily=RES1_16,status=variable
new load.BT_3001132631_M1 bus1=RML1000561431.3.1.0,Phases=2,kv=0.22,kW=2.47154,pf=0.92,Vminpu=0.92,Vmaxpu=1.5,model=8,zipv=[0.5,0,0.5,1,0,0,0],daily=RES1_16,status=variable
new load.BT_3001679679_M1 bus1=RML1000580772.1.2.3.0,Phases=3,kv=0.22,kW=1.42046,pf=0.92,Vminpu=0.92,Vmaxpu=1.5,model=8,zipv=[0.5,0,0.5,1,0,0,0],daily=RES1_11,status=variable
new load.BT_3001679680_M1 bus1=RML1000580779.1.2.3.0,Phases=3,kv=0.22,kW=0.2666,pf=0.92,Vminpu=0.92,Vmaxpu=1.5,model=8,zipv=[0.5,0,0.5,1,0,0,0],daily=COM1_13,status=variable
new load.BT_3001679681_M1 bus1=RML1000580695.1.2.3.0,Phases=3,kv=0.22,kW=3.39944,pf=0.92,Vminpu=0.92,Vmaxpu=1.5,model=8,zipv=[0.5,0,0.5,1,0,0,0],daily=COM1_13,status=variable
new load.BT_3001679682_M1 bus1=RML1000580702.1.2.3.0,Phases=3,kv=0.22,kW=0.96004,pf=0.92,Vminpu=0.92,Vmaxpu=1.5,model=8,zipv=[0.5,0,0.5,1,0,0,0],daily=RES1_11,status=variable
new load.BT_3001679683_M1 bus1=RML1000580716.1.2.3.0,Phases=3,kv=0.22,kW=2.7248,pf=0.92,Vminpu=0.92,Vmaxpu=1.5,model=8,zipv=[0.5,0,0.5,1,0,0,0],daily=RES1_11,status=variable
new load.BT_3001679684_M1 bus1=RML1000580730.3.0,Phases=1,kv=0.127,kW=0.00998,pf=0.92,Vminpu=0.92,Vmaxpu=1.5,model=8,zipv=[0.5,0,0.5,1,0,0,0],daily=RES1_11,status=variable
new load.BT_3001679685_M1 bus1=RML1000580751.1.2.3.0,Phases=3,kv=0.22,kW=0.00998,pf=0.92,Vminpu=0.92,Vmaxpu=1.5,model=8,zipv=[0.5,0,0.5,1,0,0,0],daily=RES1_11,status=variable
new load.BT_3001679686_M1 bus1=RML1000580744.2.0,Phases=1,kv=0.127,kW=0.2596,pf=0.92,Vminpu=0.92,Vmaxpu=1.5,model=8,zipv=[0.5,0,0.5,1,0,0,0],daily=COM1_13,status=variable
new load.BT_3001679694_M1 bus1=RML1000580758.1.0,Phases=1,kv=0.127,kW=0.07472,pf=0.92,Vminpu=0.92,Vmaxpu=1.5,model=8,zipv=[0.5,0,0.5,1,0,0,0],daily=COM1_13,status=variable
new load.BT_3001679695_M1 bus1=RML1000580723.2.0,Phases=1,kv=0.127,kW=1.24034,pf=0.92,Vminpu=0.92,Vmaxpu=1.5,model=8,zipv=[0.5,0,0.5,1,0,0,0],daily=RES1_11,status=variable
new load.BT_3001679696_M1 bus1=RML1000580632.1.2.3.0,Phases=3,kv=0.22,kW=0.00356,pf=0.92,Vminpu=0.92,Vmaxpu=1.5,model=8,zipv=[0.5,0,0.5,1,0,0,0],daily=COM1_13,status=variable
new load.BT_3001679697_M1 bus1=RML1000580632.1.2.3.0,Phases=3,kv=0.22,kW=0.47176,pf=0.92,Vminpu=0.92,Vmaxpu=1.5,model=8,zipv=[0.5,0,0.5,1,0,0,0],daily=RES1_11,status=variable
new load.BT_3001679698_M1 bus1=RML1000580611.1.0,Phases=1,kv=0.127,kW=1.4521,pf=0.92,Vminpu=0.92,Vmaxpu=1.5,model=8,zipv=[0.5,0,0.5,1,0,0,0],daily=RES1_11,status=variable
new load.BT_3001679699_M1 bus1=RML1000580541.1.0,Phases=1,kv=0.127,kW=1.33262,pf=0.92,Vminpu=0.92,Vmaxpu=1.5,model=8,zipv=[0.5,0,0.5,1,0,0,0],daily=RES1_11,status=variable
new load.BT_3001679700_M1 bus1=RML1000580541.1.0,Phases=1,kv=0.127,kW=1.54748,pf=0.92,Vminpu=0.92,Vmaxpu=1.5,model=8,zipv=[0.5,0,0.5,1,0,0,0],daily=RES1_11,status=variable
new load.BT_3001679701_M1 bus1=RML1000580590.2.0,Phases=1,kv=0.127,kW=2.83466,pf=0.92,Vminpu=0.92,Vmaxpu=1.5,model=8,zipv=[0.5,0,0.5,1,0,0,0],daily=RES1_11,status=variable
new load.BT_3001679704_M1 bus1=RML1000580618.3.0,Phases=1,kv=0.127,kW=1.00548,pf=0.92,Vminpu=0.92,Vmaxpu=1.5,model=8,zipv=[0.5,0,0.5,1,0,0,0],daily=RES1_11,status=variable
new load.BT_3001679705_M1 bus1=RML1000580653.1.2.3.0,Phases=3,kv=0.22,kW=11.14302,pf=0.92,Vminpu=0.92,Vmaxpu=1.5,model=8,zipv=[0.5,0,0.5,1,0,0,0],daily=RES1_11,status=variable
new load.BT_3001679706_M1 bus1=RML1000580646.3.0,Phases=1,kv=0.127,kW=1.0661,pf=0.92,Vminpu=0.92,Vmaxpu=1.5,model=8,zipv=[0.5,0,0.5,1,0,0,0],daily=RES1_11,status=variable
new load.BT_3001679707_M1 bus1=RML1000584853.1.0,Phases=1,kv=0.127,kW=0.78064,pf=0.92,Vminpu=0.92,Vmaxpu=1.5,model=8,zipv=[0.5,0,0.5,1,0,0,0],daily=RES1_11,status=variable
new load.BT_3001679708_M1 bus1=RML1000580709.3.0,Phases=1,kv=0.127,kW=0.49586,pf=0.92,Vminpu=0.92,Vmaxpu=1.5,model=8,zipv=[0.5,0,0.5,1,0,0,0],daily=RES1_11,status=variable
new load.BT_3001679709_M1 bus1=RML1000580604.1.0,Phases=1,kv=0.127,kW=0.63566,pf=0.92,Vminpu=0.92,Vmaxpu=1.5,model=8,zipv=[0.5,0,0.5,1,0,0,0],daily=RES1_11,status=variable
new load.BT_3001679712_M1 bus1=RML1000580548.1.2.0,Phases=2,kv=0.22,kW=3.89902,pf=0.92,Vminpu=0.92,Vmaxpu=1.5,model=8,zipv=[0.5,0,0.5,1,0,0,0],daily=RES1_11,status=variable
new load.BT_3001679713_M1 bus1=RML1000580471.1.2.0,Phases=2,kv=0.22,kW=0.00998,pf=0.92,Vminpu=0.92,Vmaxpu=1.5,model=8,zipv=[0.5,0,0.5,1,0,0,0],daily=RES1_11,status=variable
new load.BT_3001679714_M1 bus1=RML1000564126.3.1.0,Phases=2,kv=0.22,kW=2.43968,pf=0.92,Vminpu=0.92,Vmaxpu=1.5,model=8,zipv=[0.5,0,0.5,1,0,0,0],daily=RES1_11,status=variable
new load.BT_3001679715_M1 bus1=RML1000564133.2.0,Phases=1,kv=0.127,kW=2.36222,pf=0.92,Vminpu=0.92,Vmaxpu=1.5,model=8,zipv=[0.5,0,0.5,1,0,0,0],daily=RES1_11,status=variable
new load.BT_3001679716_M1 bus1=RML1000564084.3.0,Phases=1,kv=0.127,kW=1.28406,pf=0.92,Vminpu=0.92,Vmaxpu=1.5,model=8,zipv=[0.5,0,0.5,1,0,0,0],daily=RES1_11,status=variable
new load.BT_3001679717_M1 bus1=RML1000564077.1.2.3.0,Phases=3,kv=0.22,kW=1.25858,pf=0.92,Vminpu=0.92,Vmaxpu=1.5,model=8,zipv=[0.5,0,0.5,1,0,0,0],daily=RES1_11,status=variable
new load.BT_3001679720_M1 bus1=RML1000563972.1.2.3.0,Phases=3,kv=0.22,kW=1.31678,pf=0.92,Vminpu=0.92,Vmaxpu=1.5,model=8,zipv=[0.5,0,0.5,1,0,0,0],daily=RES1_11,status=variable
new load.BT_3001679721_M1 bus1=RML1000563979.3.0,Phases=1,kv=0.127,kW=1.80644,pf=0.92,Vminpu=0.92,Vmaxpu=1.5,model=8,zipv=[0.5,0,0.5,1,0,0,0],daily=RES1_11,status=variable
new load.BT_3001679722_M1 bus1=RML1000564000.1.2.3.0,Phases=3,kv=0.22,kW=1.55782,pf=0.92,Vminpu=0.92,Vmaxpu=1.5,model=8,zipv=[0.5,0,0.5,1,0,0,0],daily=RES1_11,status=variable
new load.BT_3001679724_M1 bus1=RML1000564007.1.0,Phases=1,kv=0.127,kW=1.00342,pf=0.92,Vminpu=0.92,Vmaxpu=1.5,model=8,zipv=[0.5,0,0.5,1,0,0,0],daily=RES1_11,status=variable
new load.BT_3001679725_M1 bus1=RML1000564112.1.0,Phases=1,kv=0.127,kW=1.09984,pf=0.92,Vminpu=0.92,Vmaxpu=1.5,model=8,zipv=[0.5,0,0.5,1,0,0,0],daily=RES1_11,status=variable
new load.BT_3001679726_M1 bus1=RML1000564105.1.2.3.0,Phases=3,kv=0.22,kW=0.00998,pf=0.92,Vminpu=0.92,Vmaxpu=1.5,model=8,zipv=[0.5,0,0.5,1,0,0,0],daily=RES1_11,status=variable
new load.BT_3001679727_M1 bus1=RML1000564105.1.2.3.0,Phases=3,kv=0.22,kW=1.01198,pf=0.92,Vminpu=0.92,Vmaxpu=1.5,model=8,zipv=[0.5,0,0.5,1,0,0,0],daily=IND1_15,status=variable
new load.BT_3001679728_M1 bus1=RML1000580576.2.0,Phases=1,kv=0.127,kW=1.3271,pf=0.92,Vminpu=0.92,Vmaxpu=1.5,model=8,zipv=[0.5,0,0.5,1,0,0,0],daily=RES1_11,status=variable
new load.BT_3001679729_M1 bus1=RML1000580569.1.2.3.0,Phases=3,kv=0.22,kW=2.8863,pf=0.92,Vminpu=0.92,Vmaxpu=1.5,model=8,zipv=[0.5,0,0.5,1,0,0,0],daily=RES1_11,status=variable
new load.BT_3001679730_M1 bus1=RML1000564063.2.0,Phases=1,kv=0.127,kW=0.93386,pf=0.92,Vminpu=0.92,Vmaxpu=1.5,model=8,zipv=[0.5,0,0.5,1,0,0,0],daily=RES1_11,status=variable
new load.BT_3001679731_M1 bus1=RML1000564028.1.0,Phases=1,kv=0.127,kW=2.4414,pf=0.92,Vminpu=0.92,Vmaxpu=1.5,model=8,zipv=[0.5,0,0.5,1,0,0,0],daily=RES1_11,status=variable
new load.BT_3001679732_M1 bus1=RML1000564042.1.2.3.0,Phases=3,kv=0.22,kW=1.2906,pf=0.92,Vminpu=0.92,Vmaxpu=1.5,model=8,zipv=[0.5,0,0.5,1,0,0,0],daily=RES1_11,status=variable
new load.BT_3001679733_M1 bus1=RML1000564049.1.0,Phases=1,kv=0.127,kW=3.2186,pf=0.92,Vminpu=0.92,Vmaxpu=1.5,model=8,zipv=[0.5,0,0.5,1,0,0,0],daily=RES1_11,status=variable
new load.BT_3001679734_M1 bus1=RML1000563986.1.2.3.0,Phases=3,kv=0.22,kW=1.56924,pf=0.92,Vminpu=0.92,Vmaxpu=1.5,model=8,zipv=[0.5,0,0.5,1,0,0,0],daily=COM1_13,status=variable
new load.BT_3001679735_M1 bus1=RML1000563965.2.0,Phases=1,kv=0.127,kW=0.96152,pf=0.92,Vminpu=0.92,Vmaxpu=1.5,model=8,zipv=[0.5,0,0.5,1,0,0,0],daily=RES1_11,status=variable
new load.BT_3001679737_M1 bus1=RML1000563853.1.2.3.0,Phases=3,kv=0.22,kW=1.918,pf=0.92,Vminpu=0.92,Vmaxpu=1.5,model=8,zipv=[0.5,0,0.5,1,0,0,0],daily=RES1_11,status=variable
new load.BT_3001679738_M1 bus1=RML1000563853.1.2.3.0,Phases=3,kv=0.22,kW=0.28282,pf=0.92,Vminpu=0.92,Vmaxpu=1.5,model=8,zipv=[0.5,0,0.5,1,0,0,0],daily=IND1_15,status=variable
new load.BT_3001679739_M1 bus1=RML1000563923.1.2.3.0,Phases=3,kv=0.22,kW=0.00998,pf=0.92,Vminpu=0.92,Vmaxpu=1.5,model=8,zipv=[0.5,0,0.5,1,0,0,0],daily=RES1_11,status=variable
new load.BT_3001679740_M1 bus1=RML1000563923.1.2.3.0,Phases=3,kv=0.22,kW=0.66814,pf=0.92,Vminpu=0.92,Vmaxpu=1.5,model=8,zipv=[0.5,0,0.5,1,0,0,0],daily=COM1_13,status=variable
new load.BT_3001679741_M1 bus1=RML1000563909.1.2.3.0,Phases=3,kv=0.22,kW=1.92696,pf=0.92,Vminpu=0.92,Vmaxpu=1.5,model=8,zipv=[0.5,0,0.5,1,0,0,0],daily=RES1_11,status=variable
new load.BT_3001679742_M1 bus1=RML1000563881.2.0,Phases=1,kv=0.127,kW=1.115,pf=0.92,Vminpu=0.92,Vmaxpu=1.5,model=8,zipv=[0.5,0,0.5,1,0,0,0],daily=RES1_11,status=variable
new load.BT_3001679743_M1 bus1=RML1000563874.1.2.3.0,Phases=3,kv=0.22,kW=1.14082,pf=0.92,Vminpu=0.92,Vmaxpu=1.5,model=8,zipv=[0.5,0,0.5,1,0,0,0],daily=RES1_11,status=variable
new load.BT_3001679744_M1 bus1=RML1000563881.2.0,Phases=1,kv=0.127,kW=0.83572,pf=0.92,Vminpu=0.92,Vmaxpu=1.5,model=8,zipv=[0.5,0,0.5,1,0,0,0],daily=RES1_11,status=variable
new load.BT_3001679745_M1 bus1=RML1000563769.1.2.3.0,Phases=3,kv=0.22,kW=1.15838,pf=0.92,Vminpu=0.92,Vmaxpu=1.5,model=8,zipv=[0.5,0,0.5,1,0,0,0],daily=RES1_11,status=variable
new load.BT_3001679746_M1 bus1=RML1000563685.1.2.3.0,Phases=3,kv=0.22,kW=0.00998,pf=0.92,Vminpu=0.92,Vmaxpu=1.5,model=8,zipv=[0.5,0,0.5,1,0,0,0],daily=RES1_11,status=variable
new load.BT_3001679747_M1 bus1=RML1000563706.1.0,Phases=1,kv=0.127,kW=2.9476,pf=0.92,Vminpu=0.92,Vmaxpu=1.5,model=8,zipv=[0.5,0,0.5,1,0,0,0],daily=RES1_11,status=variable
new load.BT_3001679748_M1 bus1=RML1000563748.3.0,Phases=1,kv=0.127,kW=0.63016,pf=0.92,Vminpu=0.92,Vmaxpu=1.5,model=8,zipv=[0.5,0,0.5,1,0,0,0],daily=RES1_11,status=variable
new load.BT_3001679750_M1 bus1=RML1000563720.1.2.3.0,Phases=3,kv=0.22,kW=0.03272,pf=0.92,Vminpu=0.92,Vmaxpu=1.5,model=8,zipv=[0.5,0,0.5,1,0,0,0],daily=RES1_11,status=variable
new load.BT_3001679751_M1 bus1=RML1000563818.1.2.3.0,Phases=3,kv=0.22,kW=1.00576,pf=0.92,Vminpu=0.92,Vmaxpu=1.5,model=8,zipv=[0.5,0,0.5,1,0,0,0],daily=COM1_13,status=variable
new load.BT_3001679752_M1 bus1=RML1000563937.2.0,Phases=1,kv=0.127,kW=0.67768,pf=0.92,Vminpu=0.92,Vmaxpu=1.5,model=8,zipv=[0.5,0,0.5,1,0,0,0],daily=RES1_11,status=variable
new load.BT_3001679753_M1 bus1=RML1000563944.1.2.3.0,Phases=3,kv=0.22,kW=0.76996,pf=0.92,Vminpu=0.92,Vmaxpu=1.5,model=8,zipv=[0.5,0,0.5,1,0,0,0],daily=RES1_11,status=variable
new load.BT_3001679754_M1 bus1=RML1000563944.1.2.3.0,Phases=3,kv=0.22,kW=0.48462,pf=0.92,Vminpu=0.92,Vmaxpu=1.5,model=8,zipv=[0.5,0,0.5,1,0,0,0],daily=RES1_11,status=variable
new load.BT_3001679755_M1 bus1=RML1000563951.3.0,Phases=1,kv=0.127,kW=0.7679,pf=0.92,Vminpu=0.92,Vmaxpu=1.5,model=8,zipv=[0.5,0,0.5,1,0,0,0],daily=RES1_11,status=variable
new load.BT_3001679756_M1 bus1=RML1000563993.1.0,Phases=1,kv=0.127,kW=1.82158,pf=0.92,Vminpu=0.92,Vmaxpu=1.5,model=8,zipv=[0.5,0,0.5,1,0,0,0],daily=RES1_11,status=variable
new load.BT_3001679757_M1 bus1=RML1000563839.1.2.3.0,Phases=3,kv=0.22,kW=0.66906,pf=0.92,Vminpu=0.92,Vmaxpu=1.5,model=8,zipv=[0.5,0,0.5,1,0,0,0],daily=RES1_11,status=variable
new load.BT_3001679758_M1 bus1=RML1000563846.2.0,Phases=1,kv=0.127,kW=1.05886,pf=0.92,Vminpu=0.92,Vmaxpu=1.5,model=8,zipv=[0.5,0,0.5,1,0,0,0],daily=RES1_11,status=variable
new load.BT_3001679759_M1 bus1=RML1000563811.1.0,Phases=1,kv=0.127,kW=0.66252,pf=0.92,Vminpu=0.92,Vmaxpu=1.5,model=8,zipv=[0.5,0,0.5,1,0,0,0],daily=RES1_11,status=variable
new load.BT_3001679760_M1 bus1=RML1000563804.1.0,Phases=1,kv=0.127,kW=1.12498,pf=0.92,Vminpu=0.92,Vmaxpu=1.5,model=8,zipv=[0.5,0,0.5,1,0,0,0],daily=RES1_11,status=variable
new load.BT_3001679761_M1 bus1=RML1000563713.1.0,Phases=1,kv=0.127,kW=0.30716,pf=0.92,Vminpu=0.92,Vmaxpu=1.5,model=8,zipv=[0.5,0,0.5,1,0,0,0],daily=RES1_11,status=variable
new load.BT_3001679763_M1 bus1=RML1000563741.3.0,Phases=1,kv=0.127,kW=1.93246,pf=0.92,Vminpu=0.92,Vmaxpu=1.5,model=8,zipv=[0.5,0,0.5,1,0,0,0],daily=RES1_11,status=variable
new load.BT_3001679764_M1 bus1=RML1000563755.1.0,Phases=1,kv=0.127,kW=1.08194,pf=0.92,Vminpu=0.92,Vmaxpu=1.5,model=8,zipv=[0.5,0,0.5,1,0,0,0],daily=RES1_11,status=variable
new load.BT_3001679765_M1 bus1=RML1000563678.3.0,Phases=1,kv=0.127,kW=0.5506,pf=0.92,Vminpu=0.92,Vmaxpu=1.5,model=8,zipv=[0.5,0,0.5,1,0,0,0],daily=RES1_11,status=variable
new load.BT_3001679766_M1 bus1=RML1000563671.3.0,Phases=1,kv=0.127,kW=0.00998,pf=0.92,Vminpu=0.92,Vmaxpu=1.5,model=8,zipv=[0.5,0,0.5,1,0,0,0],daily=RES1_11,status=variable
new load.BT_3001679767_M1 bus1=RML1000561851.3.1.0,Phases=2,kv=0.22,kW=6.17996,pf=0.92,Vminpu=0.92,Vmaxpu=1.5,model=8,zipv=[0.5,0,0.5,1,0,0,0],daily=RES1_11,status=variable
new load.BT_3001679768_M1 bus1=RML1000561816.2.0,Phases=1,kv=0.127,kW=0.00998,pf=0.92,Vminpu=0.92,Vmaxpu=1.5,model=8,zipv=[0.5,0,0.5,1,0,0,0],daily=RES1_11,status=variable
new load.BT_3001679769_M1 bus1=RML1000561753.1.2.3.0,Phases=3,kv=0.22,kW=0.57196,pf=0.92,Vminpu=0.92,Vmaxpu=1.5,model=8,zipv=[0.5,0,0.5,1,0,0,0],daily=RES1_11,status=variable
new load.BT_3001679770_M1 bus1=RML1000561781.1.2.3.0,Phases=3,kv=0.22,kW=1.8318,pf=0.92,Vminpu=0.92,Vmaxpu=1.5,model=8,zipv=[0.5,0,0.5,1,0,0,0],daily=COM1_13,status=variable
new load.BT_3001679771_M1 bus1=RML1000561711.1.2.3.0,Phases=3,kv=0.22,kW=1.33296,pf=0.92,Vminpu=0.92,Vmaxpu=1.5,model=8,zipv=[0.5,0,0.5,1,0,0,0],daily=RES1_11,status=variable
new load.BT_3001679772_M1 bus1=RML1000561718.1.2.3.0,Phases=3,kv=0.22,kW=1.63942,pf=0.92,Vminpu=0.92,Vmaxpu=1.5,model=8,zipv=[0.5,0,0.5,1,0,0,0],daily=RES1_11,status=variable
new load.BT_3001679773_M1 bus1=RML1000561704.1.0,Phases=1,kv=0.127,kW=1.00446,pf=0.92,Vminpu=0.92,Vmaxpu=1.5,model=8,zipv=[0.5,0,0.5,1,0,0,0],daily=RES1_11,status=variable
new load.BT_3001679774_M1 bus1=RML1000561690.1.2.3.0,Phases=3,kv=0.22,kW=0.5322,pf=0.92,Vminpu=0.92,Vmaxpu=1.5,model=8,zipv=[0.5,0,0.5,1,0,0,0],daily=COM1_13,status=variable
new load.BT_3001679775_M1 bus1=RML1000561683.2.0,Phases=1,kv=0.127,kW=1.3371,pf=0.92,Vminpu=0.92,Vmaxpu=1.5,model=8,zipv=[0.5,0,0.5,1,0,0,0],daily=RES1_11,status=variable
new load.BT_3001679776_M1 bus1=RML1000561641.2.0,Phases=1,kv=0.127,kW=0.63084,pf=0.92,Vminpu=0.92,Vmaxpu=1.5,model=8,zipv=[0.5,0,0.5,1,0,0,0],daily=RES1_11,status=variable
new load.BT_3001679784_M1 bus1=RML1000570286.1.2.3.0,Phases=3,kv=0.22,kW=3.57028,pf=0.92,Vminpu=0.92,Vmaxpu=1.5,model=8,zipv=[0.5,0,0.5,1,0,0,0],daily=IND1_15,status=variable
new load.BT_3001679785_M1 bus1=RML1000570286.1.2.3.0,Phases=3,kv=0.22,kW=0.8464,pf=0.92,Vminpu=0.92,Vmaxpu=1.5,model=8,zipv=[0.5,0,0.5,1,0,0,0],daily=RES1_11,status=variable
new load.BT_3001679786_M1 bus1=RML1000561634.1.0,Phases=1,kv=0.127,kW=0.67216,pf=0.92,Vminpu=0.92,Vmaxpu=1.5,model=8,zipv=[0.5,0,0.5,1,0,0,0],daily=RES1_11,status=variable
new load.BT_3001679787_M1 bus1=RML1000561725.1.0,Phases=1,kv=0.127,kW=0.50102,pf=0.92,Vminpu=0.92,Vmaxpu=1.5,model=8,zipv=[0.5,0,0.5,1,0,0,0],daily=RES1_11,status=variable
new load.BT_3001679788_M1 bus1=RML1000561830.1.2.3.0,Phases=3,kv=0.22,kW=0.00998,pf=0.92,Vminpu=0.92,Vmaxpu=1.5,model=8,zipv=[0.5,0,0.5,1,0,0,0],daily=RES1_11,status=variable
new load.BT_3001679789_M1 bus1=RML1000561830.1.2.3.0,Phases=3,kv=0.22,kW=0.00998,pf=0.92,Vminpu=0.92,Vmaxpu=1.5,model=8,zipv=[0.5,0,0.5,1,0,0,0],daily=RES1_11,status=variable
new load.BT_3001679790_M1 bus1=RML1000561837.1.2.3.0,Phases=3,kv=0.22,kW=0.00602,pf=0.92,Vminpu=0.92,Vmaxpu=1.5,model=8,zipv=[0.5,0,0.5,1,0,0,0],daily=IND1_15,status=variable
new load.BT_3001679791_M1 bus1=RML1000561830.1.2.3.0,Phases=3,kv=0.22,kW=0.00998,pf=0.92,Vminpu=0.92,Vmaxpu=1.5,model=8,zipv=[0.5,0,0.5,1,0,0,0],daily=RES1_11,status=variable
new load.BT_3001679795_M1 bus1=RML1000563888.2.0,Phases=1,kv=0.127,kW=0.00998,pf=0.92,Vminpu=0.92,Vmaxpu=1.5,model=8,zipv=[0.5,0,0.5,1,0,0,0],daily=RES1_11,status=variable
new load.BT_3001679796_M1 bus1=RML1000563916.1.2.3.0,Phases=3,kv=0.22,kW=0.34744,pf=0.92,Vminpu=0.92,Vmaxpu=1.5,model=8,zipv=[0.5,0,0.5,1,0,0,0],daily=RES1_11,status=variable
new load.BT_3001679797_M1 bus1=RML1000563916.1.2.3.0,Phases=3,kv=0.22,kW=0.53202,pf=0.92,Vminpu=0.92,Vmaxpu=1.5,model=8,zipv=[0.5,0,0.5,1,0,0,0],daily=RES1_11,status=variable
new load.BT_3001679798_M1 bus1=RML1000563916.1.2.3.0,Phases=3,kv=0.22,kW=0.8922,pf=0.92,Vminpu=0.92,Vmaxpu=1.5,model=8,zipv=[0.5,0,0.5,1,0,0,0],daily=RES1_11,status=variable
new load.BT_3001679799_M1 bus1=RML1000563930.1.2.0,Phases=2,kv=0.22,kW=0.07782,pf=0.92,Vminpu=0.92,Vmaxpu=1.5,model=8,zipv=[0.5,0,0.5,1,0,0,0],daily=RES1_11,status=variable
new load.BT_3001679800_M1 bus1=RML1000564091.1.2.3.0,Phases=3,kv=0.22,kW=1.20866,pf=0.92,Vminpu=0.92,Vmaxpu=1.5,model=8,zipv=[0.5,0,0.5,1,0,0,0],daily=RES1_11,status=variable
new load.BT_3001679801_M1 bus1=RML1000580534.1.2.3.0,Phases=3,kv=0.22,kW=0.00998,pf=0.92,Vminpu=0.92,Vmaxpu=1.5,model=8,zipv=[0.5,0,0.5,1,0,0,0],daily=RES1_11,status=variable
new load.BT_3001679802_M1 bus1=RML1000580492.2.3.0,Phases=2,kv=0.22,kW=1.83812,pf=0.92,Vminpu=0.92,Vmaxpu=1.5,model=8,zipv=[0.5,0,0.5,1,0,0,0],daily=RES1_11,status=variable
new load.BT_3001679803_M1 bus1=RML1000580520.1.2.3.0,Phases=3,kv=0.22,kW=0.00998,pf=0.92,Vminpu=0.92,Vmaxpu=1.5,model=8,zipv=[0.5,0,0.5,1,0,0,0],daily=RES1_11,status=variable
new load.BT_3001679804_M1 bus1=RML1000580681.1.2.0,Phases=2,kv=0.22,kW=2.13976,pf=0.92,Vminpu=0.92,Vmaxpu=1.5,model=8,zipv=[0.5,0,0.5,1,0,0,0],daily=RES1_11,status=variable
new load.BT_3001679805_M1 bus1=RML1000580674.1.2.3.0,Phases=3,kv=0.22,kW=1.33848,pf=0.92,Vminpu=0.92,Vmaxpu=1.5,model=8,zipv=[0.5,0,0.5,1,0,0,0],daily=RES1_11,status=variable
new load.BT_3001679806_M1 bus1=RML1000580807.1.2.3.0,Phases=3,kv=0.22,kW=0.00602,pf=0.92,Vminpu=0.92,Vmaxpu=1.5,model=8,zipv=[0.5,0,0.5,1,0,0,0],daily=IND1_15,status=variable
new load.BT_3001679807_M1 bus1=RML1000580800.1.2.3.0,Phases=3,kv=0.22,kW=2.602,pf=0.92,Vminpu=0.92,Vmaxpu=1.5,model=8,zipv=[0.5,0,0.5,1,0,0,0],daily=COM1_13,status=variable
new load.BT_3001679809_M1 bus1=RML1000580793.1.2.3.0,Phases=3,kv=0.22,kW=0.45294,pf=0.92,Vminpu=0.92,Vmaxpu=1.5,model=8,zipv=[0.5,0,0.5,1,0,0,0],daily=COM1_13,status=variable
new load.BT_3001679999_M1 bus1=RML1000813648.2.3.0,Phases=2,kv=0.22,kW=1.10988,pf=0.92,Vminpu=0.92,Vmaxpu=1.5,model=8,zipv=[0.5,0,0.5,1,0,0,0],daily=RES1_11,status=variable
new load.BT_3001680000_M1 bus1=RML1000813655.1.2.3.0,Phases=3,kv=0.22,kW=0.00356,pf=0.92,Vminpu=0.92,Vmaxpu=1.5,model=8,zipv=[0.5,0,0.5,1,0,0,0],daily=COM1_13,status=variable
new load.BT_3001680001_M1 bus1=RML1000813662.2.3.0,Phases=2,kv=0.22,kW=1.3832,pf=0.92,Vminpu=0.92,Vmaxpu=1.5,model=8,zipv=[0.5,0,0.5,1,0,0,0],daily=RES1_11,status=variable
new load.BT_3001680002_M1 bus1=RML1000813669.2.0,Phases=1,kv=0.127,kW=1.74484,pf=0.92,Vminpu=0.92,Vmaxpu=1.5,model=8,zipv=[0.5,0,0.5,1,0,0,0],daily=RES1_11,status=variable
new load.BT_3001680003_M1 bus1=RML1000814019.2.0,Phases=1,kv=0.127,kW=1.1228,pf=0.92,Vminpu=0.92,Vmaxpu=1.5,model=8,zipv=[0.5,0,0.5,1,0,0,0],daily=RES1_11,status=variable
new load.BT_3001680004_M1 bus1=RML1000814012.1.0,Phases=1,kv=0.127,kW=3.08758,pf=0.92,Vminpu=0.92,Vmaxpu=1.5,model=8,zipv=[0.5,0,0.5,1,0,0,0],daily=RES1_11,status=variable
new load.BT_3001680005_M1 bus1=RML1000813963.3.0,Phases=1,kv=0.127,kW=1.44836,pf=0.92,Vminpu=0.92,Vmaxpu=1.5,model=8,zipv=[0.5,0,0.5,1,0,0,0],daily=RES1_11,status=variable
new load.BT_3001680006_M1 bus1=RML1000813970.2.3.0,Phases=2,kv=0.22,kW=0.42464,pf=0.92,Vminpu=0.92,Vmaxpu=1.5,model=8,zipv=[0.5,0,0.5,1,0,0,0],daily=RES1_11,status=variable
new load.BT_3001680007_M1 bus1=RML1000813949.3.0,Phases=1,kv=0.127,kW=0.00998,pf=0.92,Vminpu=0.92,Vmaxpu=1.5,model=8,zipv=[0.5,0,0.5,1,0,0,0],daily=RES1_11,status=variable
new load.BT_3001680008_M1 bus1=RML1000813956.3.1.0,Phases=2,kv=0.22,kW=0.00998,pf=0.92,Vminpu=0.92,Vmaxpu=1.5,model=8,zipv=[0.5,0,0.5,1,0,0,0],daily=RES1_11,status=variable
new load.BT_3001680009_M1 bus1=RML1000814089.2.0,Phases=1,kv=0.127,kW=0.00998,pf=0.92,Vminpu=0.92,Vmaxpu=1.5,model=8,zipv=[0.5,0,0.5,1,0,0,0],daily=RES1_11,status=variable
new load.BT_3001680011_M1 bus1=RML1000814124.2.3.0,Phases=2,kv=0.22,kW=1.06442,pf=0.92,Vminpu=0.92,Vmaxpu=1.5,model=8,zipv=[0.5,0,0.5,1,0,0,0],daily=RES1_11,status=variable
new load.BT_3001680012_M1 bus1=RML1000814096.1.2.3.0,Phases=3,kv=0.22,kW=2.23306,pf=0.92,Vminpu=0.92,Vmaxpu=1.5,model=8,zipv=[0.5,0,0.5,1,0,0,0],daily=RES1_11,status=variable
new load.BT_3001680013_M1 bus1=RML1000814103.3.0,Phases=1,kv=0.127,kW=1.26836,pf=0.92,Vminpu=0.92,Vmaxpu=1.5,model=8,zipv=[0.5,0,0.5,1,0,0,0],daily=RES1_11,status=variable
new load.BT_3001680014_M1 bus1=RML1000814110.1.2.3.0,Phases=3,kv=0.24,kW=2.86342,pf=0.92,Vminpu=0.92,Vmaxpu=1.5,model=8,zipv=[0.5,0,0.5,1,0,0,0],daily=RES1_11,status=variable
new load.BT_3001680016_M1 bus1=RML1000813977.2.0,Phases=1,kv=0.127,kW=0.00998,pf=0.92,Vminpu=0.92,Vmaxpu=1.5,model=8,zipv=[0.5,0,0.5,1,0,0,0],daily=RES1_11,status=variable
new load.BT_3001680017_M1 bus1=RML1000813984.3.0,Phases=1,kv=0.127,kW=1.65834,pf=0.92,Vminpu=0.92,Vmaxpu=1.5,model=8,zipv=[0.5,0,0.5,1,0,0,0],daily=RES1_11,status=variable
new load.BT_3001680019_M1 bus1=RML1000814005.2.0,Phases=1,kv=0.127,kW=0.00998,pf=0.92,Vminpu=0.92,Vmaxpu=1.5,model=8,zipv=[0.5,0,0.5,1,0,0,0],daily=RES1_11,status=variable
new load.BT_3001680020_M1 bus1=RML1000813998.1.2.3.0,Phases=3,kv=0.22,kW=7.38162,pf=0.92,Vminpu=0.92,Vmaxpu=1.5,model=8,zipv=[0.5,0,0.5,1,0,0,0],daily=IND1_15,status=variable
new load.BT_3001680021_M1 bus1=RML1010794167.1.2.0,Phases=2,kv=0.22,kW=1.49752,pf=0.92,Vminpu=0.92,Vmaxpu=1.5,model=8,zipv=[0.5,0,0.5,1,0,0,0],daily=RES1_11,status=variable
new load.BT_3001680023_M1 bus1=RML1000814061.1.2.0,Phases=2,kv=0.22,kW=0.00356,pf=0.92,Vminpu=0.92,Vmaxpu=1.5,model=8,zipv=[0.5,0,0.5,1,0,0,0],daily=COM1_13,status=variable
new load.BT_3001680024_M1 bus1=RML1000814040.1.2.0,Phases=2,kv=0.22,kW=1.12356,pf=0.92,Vminpu=0.92,Vmaxpu=1.5,model=8,zipv=[0.5,0,0.5,1,0,0,0],daily=RES1_11,status=variable
new load.BT_3001680025_M1 bus1=RML1000814054.1.0,Phases=1,kv=0.127,kW=0.40276,pf=0.92,Vminpu=0.92,Vmaxpu=1.5,model=8,zipv=[0.5,0,0.5,1,0,0,0],daily=RES1_11,status=variable
new load.BT_3001680026_M1 bus1=RML1000814047.1.2.0,Phases=2,kv=0.22,kW=2.278,pf=0.92,Vminpu=0.92,Vmaxpu=1.5,model=8,zipv=[0.5,0,0.5,1,0,0,0],daily=RES1_11,status=variable
new load.BT_3001680028_M1 bus1=RML1000814068.2.0,Phases=1,kv=0.127,kW=1.27278,pf=0.92,Vminpu=0.92,Vmaxpu=1.5,model=8,zipv=[0.5,0,0.5,1,0,0,0],daily=RES1_11,status=variable
new load.BT_3001680029_M1 bus1=RML1000814075.1.0,Phases=1,kv=0.127,kW=1.41136,pf=0.92,Vminpu=0.92,Vmaxpu=1.5,model=8,zipv=[0.5,0,0.5,1,0,0,0],daily=RES1_11,status=variable
new load.BT_3001680030_M1 bus1=RML1000812941.2.0,Phases=1,kv=0.127,kW=0.5478,pf=0.92,Vminpu=0.92,Vmaxpu=1.5,model=8,zipv=[0.5,0,0.5,1,0,0,0],daily=RES1_11,status=variable
new load.BT_3001680031_M1 bus1=RML1000812927.1.0,Phases=1,kv=0.127,kW=1.5785,pf=0.92,Vminpu=0.92,Vmaxpu=1.5,model=8,zipv=[0.5,0,0.5,1,0,0,0],daily=RES1_11,status=variable
new load.BT_3001680032_M1 bus1=RML1000812920.2.0,Phases=1,kv=0.127,kW=3.41508,pf=0.92,Vminpu=0.92,Vmaxpu=1.5,model=8,zipv=[0.5,0,0.5,1,0,0,0],daily=RES1_11,status=variable
new load.BT_3001680033_M1 bus1=RML1000812850.3.0,Phases=1,kv=0.127,kW=0.77562,pf=0.92,Vminpu=0.92,Vmaxpu=1.5,model=8,zipv=[0.5,0,0.5,1,0,0,0],daily=RES1_11,status=variable
new load.BT_3001680034_M1 bus1=RML1000812864.1.0,Phases=1,kv=0.127,kW=0.49654,pf=0.92,Vminpu=0.92,Vmaxpu=1.5,model=8,zipv=[0.5,0,0.5,1,0,0,0],daily=RES1_11,status=variable
new load.BT_3001680035_M1 bus1=RML1000812871.2.0,Phases=1,kv=0.127,kW=0.91462,pf=0.92,Vminpu=0.92,Vmaxpu=1.5,model=8,zipv=[0.5,0,0.5,1,0,0,0],daily=RES1_11,status=variable
new load.BT_3001680036_M1 bus1=RML1000812885.3.0,Phases=1,kv=0.127,kW=0.2903,pf=0.92,Vminpu=0.92,Vmaxpu=1.5,model=8,zipv=[0.5,0,0.5,1,0,0,0],daily=RES1_11,status=variable
new load.BT_3001680037_M1 bus1=RML1000812899.2.3.0,Phases=2,kv=0.22,kW=1.5301,pf=0.92,Vminpu=0.92,Vmaxpu=1.5,model=8,zipv=[0.5,0,0.5,1,0,0,0],daily=RES1_11,status=variable
new load.BT_3001680038_M1 bus1=RML1000812906.2.0,Phases=1,kv=0.127,kW=1.03802,pf=0.92,Vminpu=0.92,Vmaxpu=1.5,model=8,zipv=[0.5,0,0.5,1,0,0,0],daily=RES1_11,status=variable
new load.BT_3001680039_M1 bus1=RML1000812913.1.0,Phases=1,kv=0.127,kW=2.33668,pf=0.92,Vminpu=0.92,Vmaxpu=1.5,model=8,zipv=[0.5,0,0.5,1,0,0,0],daily=RES1_11,status=variable
new load.BT_3001680040_M1 bus1=RML1000812857.2.0,Phases=1,kv=0.127,kW=2.55042,pf=0.92,Vminpu=0.92,Vmaxpu=1.5,model=8,zipv=[0.5,0,0.5,1,0,0,0],daily=RES1_11,status=variable
new load.BT_3001680041_M1 bus1=RML1000812689.1.2.3.0,Phases=3,kv=0.22,kW=0.00998,pf=0.92,Vminpu=0.92,Vmaxpu=1.5,model=8,zipv=[0.5,0,0.5,1,0,0,0],daily=RES1_11,status=variable
new load.BT_3001680042_M1 bus1=RML1000812696.2.3.0,Phases=2,kv=0.22,kW=1.2805,pf=0.92,Vminpu=0.92,Vmaxpu=1.5,model=8,zipv=[0.5,0,0.5,1,0,0,0],daily=RES1_11,status=variable
new load.BT_3001680044_M1 bus1=RML1000812675.1.0,Phases=1,kv=0.127,kW=1.27816,pf=0.92,Vminpu=0.92,Vmaxpu=1.5,model=8,zipv=[0.5,0,0.5,1,0,0,0],daily=RES1_11,status=variable
new load.BT_3001680045_M1 bus1=RML1000812710.2.3.0,Phases=2,kv=0.22,kW=0.58308,pf=0.92,Vminpu=0.92,Vmaxpu=1.5,model=8,zipv=[0.5,0,0.5,1,0,0,0],daily=RES1_11,status=variable
new load.BT_3001680046_M1 bus1=RML1000812731.1.0,Phases=1,kv=0.127,kW=2.55632,pf=0.92,Vminpu=0.92,Vmaxpu=1.5,model=8,zipv=[0.5,0,0.5,1,0,0,0],daily=RES1_11,status=variable