new line.SBT_10237193 bus1=BBT2589898.1.2.3.0,bus2=BBT2589905.1.2.3.0,Phases=3,Linecode=BT803_BT803_4_3_4_3,Length=0.031414000,Units=km
new line.SBT_10237221 bus1=BBT2589877.1.2.3.0,bus2=BBT2589898.1.2.3.0,Phases=3,Linecode=BT803_BT803_4_3_4_3,Length=0.030278000,Units=km
new line.SBT_10237228 bus1=BBT2589877.1.2.3.0,bus2=BBT2589884.1.2.3.0,Phases=3,Linecode=BT803_BT803_4_3_4_3,Length=0.038343000,Units=km
new line.SBT_10237277 bus1=BBT2589828.1.2.3.0,bus2=BBT2589870.1.2.3.0,Phases=3,Linecode=BT803_BT803_4_3_4_3,Length=0.045713000,Units=km
new line.SBT_10237333 bus1=BBT2589821.1.2.3.0,bus2=BBT2589828.1.2.3.0,Phases=3,Linecode=BT803_BT803_4_3_4_3,Length=0.048867000,Units=km
new line.SBT_10237340 bus1=BBT2589814.1.2.3.0,bus2=BBT2589821.1.2.3.0,Phases=3,Linecode=BT518_BT518_7_3_1_3,Length=0.000501000,Units=km
new line.SBT_10237347 bus1=BBT2589821.1.2.3.0,bus2=BBT2589835.1.2.3.0,Phases=3,Linecode=BT803_BT803_4_3_4_3,Length=0.045207000,Units=km
new line.SBT_10237529 bus1=BBT2589870.1.2.3.0,bus2=BBT2589877.1.2.3.0,Phases=3,Linecode=BT803_BT803_4_3_4_3,Length=0.042971000,Units=km
new line.SBT_10237592 bus1=BBT2589884.1.2.3.0,bus2=BBT2589891.1.2.3.0,Phases=3,Linecode=BT803_BT803_4_3_4_3,Length=0.039335000,Units=km
new line.SBT_10237641 bus1=BBT2589968.1.2.3.0,bus2=BBT2589975.1.2.3.0,Phases=3,Linecode=BT803_BT803_4_3_4_3,Length=0.039221000,Units=km
new line.SBT_10237690 bus1=BBT2589961.1.2.3.0,bus2=BBT2589968.1.2.3.0,Phases=3,Linecode=BT803_BT803_4_3_4_3,Length=0.027670000,Units=km
new line.SBT_10237837 bus1=BBT2589835.1.2.3.0,bus2=BBT2589842.1.2.3.0,Phases=3,Linecode=BT803_BT803_4_3_4_3,Length=0.047443000,Units=km
new line.SBT_10237914 bus1=BBT2589842.1.2.3.0,bus2=BBT2589849.1.2.3.0,Phases=3,Linecode=BT803_BT803_4_3_4_3,Length=0.047030000,Units=km
new line.SBT_10237956 bus1=BBT2589849.1.2.3.0,bus2=BBT2589856.1.2.3.0,Phases=3,Linecode=BT803_BT803_4_3_4_3,Length=0.039412000,Units=km
new line.SBT_10238033 bus1=BBT2589856.1.2.3.0,bus2=BBT176727503.1.2.3.0,Phases=3,Linecode=BT803_BT803_4_3_4_3,Length=0.025643000,Units=km
new line.SBT_10238089 bus1=BBT2589891.1.2.3.0,bus2=BBT2589912.1.2.3.0,Phases=3,Linecode=BT803_BT803_4_3_4_3,Length=0.039335000,Units=km
new line.SBT_10238117 bus1=BBT2589975.1.2.3.0,bus2=BBT2589982.1.2.3.0,Phases=3,Linecode=BT803_BT803_4_3_4_3,Length=0.039475000,Units=km
new line.SBT_10238173 bus1=BBT2589926.1.2.3.0,bus2=BBT2589961.1.2.3.0,Phases=3,Linecode=BT803_BT803_4_3_4_3,Length=0.039828000,Units=km
new line.SBT_10238208 bus1=BBT2589919.1.2.3.0,bus2=BBT2589933.1.2.3.0,Phases=3,Linecode=BT803_BT803_4_3_4_3,Length=0.038095000,Units=km
new line.SBT_10238229 bus1=BBT2589933.1.2.3.0,bus2=BBT2589940.1.2.3.0,Phases=3,Linecode=BT803_BT803_4_3_4_3,Length=0.037379000,Units=km
new line.SBT_10238257 bus1=BBT2589940.1.2.3.0,bus2=BBT56145588.1.2.3.0,Phases=3,Linecode=BT803_BT803_4_3_4_3,Length=0.025721000,Units=km
new line.SBT_10238376 bus1=BBT2589947.1.2.3.0,bus2=BBT2589954.1.2.3.0,Phases=3,Linecode=BT803_BT803_4_3_4_3,Length=0.039067000,Units=km
new line.SBT_10701846 bus1=BBT2657945.1.2.0,bus2=BBT2657952.1.2.0,Phases=2,Linecode=BT316_BT316_7_2_1_2,Length=0.000501000,Units=km
new line.SBT_10702238 bus1=BBT2657959.1.2.0,bus2=BBT2657966.1.2.0,Phases=2,Linecode=BT808_BT808_4_2_3_2,Length=0.054022000,Units=km
new line.SBT_10702455 bus1=BBT2658001.1.2.0,bus2=BBT2658008.1.2.0,Phases=2,Linecode=BT808_BT808_4_2_3_2,Length=0.046419000,Units=km
new line.SBT_10702476 bus1=BBT2658008.1.2.0,bus2=BBT3202062.1.2.0,Phases=2,Linecode=BT808_BT808_4_2_3_2,Length=0.038616000,Units=km
new line.SBT_10705885 bus1=BBT2659065.1.2.0,bus2=BBT2659072.1.2.0,Phases=2,Linecode=BT808_BT808_4_2_3_2,Length=0.022370000,Units=km
new line.SBT_10710610 bus1=BBT2659100.1.2.0,bus2=BBT2659128.1.2.0,Phases=2,Linecode=BT808_BT808_4_2_3_2,Length=0.051011000,Units=km
new line.SBT_10710680 bus1=BBT2659128.1.2.0,bus2=BBT2659135.1.2.0,Phases=2,Linecode=BT808_BT808_4_2_3_2,Length=0.045296000,Units=km
new line.SBT_10710729 bus1=BBT2659135.1.2.0,bus2=BBT2659142.1.2.0,Phases=2,Linecode=BT808_BT808_4_2_3_2,Length=0.052223000,Units=km
new line.SBT_10710806 bus1=BBT2659107.1.2.0,bus2=BBT2659114.1.2.0,Phases=2,Linecode=BT808_BT808_4_2_3_2,Length=0.041248000,Units=km
new line.SBT_10710841 bus1=BBT2659114.1.2.0,bus2=BBT2659121.1.2.0,Phases=2,Linecode=BT808_BT808_4_2_3_2,Length=0.041248000,Units=km
new line.SBT_10829694 bus1=BBT2670510.1.2.0,bus2=BBT2670517.1.2.0,Phases=2,Linecode=BT316_BT316_7_2_1_2,Length=0.000501000,Units=km
new line.SBT_10829918 bus1=BBT2670552.1.2.0,bus2=BBT2670559.1.2.0,Phases=2,Linecode=BT316_BT316_7_2_1_2,Length=0.000501000,Units=km
new line.SBT_10830044 bus1=BBT2670566.1.2.0,bus2=BBT2670573.1.2.0,Phases=2,Linecode=BT316_BT316_7_2_1_2,Length=0.000501000,Units=km
new line.SBT_10830135 bus1=BBT2670580.1.2.0,bus2=BBT2670587.1.2.0,Phases=2,Linecode=BT518_BT518_7_2_1_2,Length=0.000501000,Units=km
new line.SBT_10830142 bus1=BBT2670587.1.0,bus2=BBT2670601.1.0,Phases=1,Linecode=BT816_BT816_4_1_2_1,Length=0.042444000,Units=km
new line.SBT_10830149 bus1=BBT2670587.1.0,bus2=BBT2670594.1.0,Phases=1,Linecode=BT816_BT816_4_1_2_1,Length=0.041199000,Units=km
new line.SBT_10830184 bus1=BBT2670594.1.0,bus2=BBT2670608.1.0,Phases=1,Linecode=BT816_BT816_4_1_2_1,Length=0.052376000,Units=km
new line.SBT_11495135 bus1=BBT2772325.1.2.0,bus2=BBT2772360.1.2.0,Phases=2,Linecode=BT106_BT106_7_2_1_2,Length=0.123541000,Units=km
new line.SBT_11653034 bus1=BBT2796335.1.2.3.0,bus2=BBT2796342.1.2.3.0,Phases=3,Linecode=BT810_BT810_4_3_4_3,Length=0.037963000,Units=km
new line.SBT_11653055 bus1=BBT2796321.1.2.3.0,bus2=BBT2084134.1.2.3.0,Phases=3,Linecode=BT803_BT803_4_3_4_3,Length=0.007074000,Units=km
new line.SBT_11653062 bus1=BBT2796321.1.2.3.0,bus2=BBT2796328.1.2.3.0,Phases=3,Linecode=BT810_BT810_4_3_4_3,Length=0.007074000,Units=km
new line.SBT_11653069 bus1=BBT2796321.1.2.3.0,bus2=BBT2796335.1.2.3.0,Phases=3,Linecode=BT810_BT810_4_3_4_3,Length=0.031398000,Units=km
new line.SBT_11653104 bus1=BBT2796342.1.2.3.0,bus2=BBT2796349.1.2.3.0,Phases=3,Linecode=BT810_BT810_4_3_4_3,Length=0.040179000,Units=km
new line.SBT_11653209 bus1=BBT2796370.1.2.3.0,bus2=BBT2796377.1.2.3.0,Phases=3,Linecode=BT803_BT803_4_3_4_3,Length=0.030426000,Units=km
new line.SBT_11653230 bus1=BBT172210615.1.2.3.0,bus2=BBT2796384.1.2.3.0,Phases=3,Linecode=BT803_BT803_4_3_4_3,Length=0.027030000,Units=km
new line.SBT_11653279 bus1=BBT2796391.1.2.3.0,bus2=BBT2796370.1.2.3.0,Phases=3,Linecode=BT803_BT803_4_3_4_3,Length=0.032216000,Units=km
new line.SBT_1243992 bus1=BBT407438.1.2.0,bus2=BBT407445.1.2.0,Phases=2,Linecode=BT509_BT509_7_2_1_2,Length=0.000501000,Units=km
new line.SBT_1260568 bus1=BBT414641.1.2.0,bus2=BBT414648.1.2.0,Phases=2,Linecode=BT304_BT304_7_2_1_2,Length=0.000501000,Units=km
new line.SBT_12801769 bus1=BBT3050582.1.2.3.0,bus2=BBT3050589.1.2.3.0,Phases=3,Linecode=BT803_BT803_4_3_4_3,Length=0.036785000,Units=km
new line.SBT_12801776 bus1=BBT3050582.1.2.0,bus2=BBT4360898.1.2.0,Phases=2,Linecode=BT808_BT808_4_2_3_2,Length=0.044796000,Units=km
new line.SBT_12801797 bus1=BBT3050589.1.2.3.0,bus2=BBT3050561.1.2.3.0,Phases=3,Linecode=BT803_BT803_4_3_4_3,Length=0.039941000,Units=km
new line.SBT_12801818 bus1=BBT3050561.1.2.0,bus2=BBT3617127.1.2.0,Phases=2,Linecode=BT808_BT808_4_2_3_2,Length=0.040870000,Units=km
new line.SBT_12801860 bus1=BBT3050575.1.2.3.0,bus2=BBT3050582.1.2.3.0,Phases=3,Linecode=BT803_BT803_4_3_4_3,Length=0.034943000,Units=km
new line.SBT_12801944 bus1=BBT3050568.1.2.3.0,bus2=BBT3050575.1.2.3.0,Phases=3,Linecode=BT803_BT803_4_3_4_3,Length=0.034029000,Units=km
new line.SBT_12801951 bus1=BBT66818.1.2.3.0,bus2=BBT3050568.1.2.3.0,Phases=3,Linecode=BT518_BT518_7_3_1_3,Length=0.000501000,Units=km
new line.SBT_12801958 bus1=BBT3050568.1.2.3.0,bus2=BBT3050687.1.2.3.0,Phases=3,Linecode=BT803_BT803_4_3_4_3,Length=0.034029000,Units=km
new line.SBT_11735844 bus1=BBT2809964.1.2.0,bus2=BBT2809999.1.2.0,Phases=2,Linecode=BT808_BT808_4_2_3_2,Length=0.029167000,Units=km
new line.SBT_11735851 bus1=BBT2809964.1.2.0,bus2=BBT31351273.1.2.0,Phases=2,Linecode=BT807_BT807_4_2_3_2,Length=0.031029000,Units=km
new line.SBT_11735858 bus1=BBT2809964.1.2.0,bus2=BBT2810006.1.2.0,Phases=2,Linecode=BT808_BT808_4_2_3_2,Length=0.040735000,Units=km
new line.SBT_11735942 bus1=BBT2809971.1.2.0,bus2=BBT2810020.1.2.0,Phases=2,Linecode=BT808_BT808_4_2_3_2,Length=0.036264000,Units=km
new line.SBT_11735970 bus1=BBT2810013.1.2.0,bus2=BBT3759213.1.2.0,Phases=2,Linecode=BT808_BT808_4_2_3_2,Length=0.043881000,Units=km
new line.SBT_11735998 bus1=BBT2810020.1.2.0,bus2=BBT3154742.1.2.0,Phases=2,Linecode=BT808_BT808_4_2_3_2,Length=0.038500000,Units=km
new line.SBT_11736040 bus1=BBT31351273.1.2.0,bus2=BBT31351448.1.2.0,Phases=2,Linecode=BT807_BT807_4_2_3_2,Length=0.030476000,Units=km
new line.SBT_11736124 bus1=BBT2809922.1.2.3.0,bus2=BBT2809929.1.2.3.0,Phases=3,Linecode=BT803_BT803_4_3_4_3,Length=0.027742000,Units=km
new line.SBT_11736131 bus1=BBT2809922.1.2.3.0,bus2=BBT2809943.1.2.3.0,Phases=3,Linecode=BT803_BT803_4_3_4_3,Length=0.038926000,Units=km
new line.SBT_11736138 bus1=BBT2809922.1.2.3.0,bus2=BBT2809936.1.2.3.0,Phases=3,Linecode=BT803_BT803_4_3_4_3,Length=0.031398000,Units=km
new line.SBT_11736166 bus1=BBT165475797.1.2.3.0,bus2=BBT165478221.1.2.3.0,Phases=3,Linecode=BT803_BT803_4_3_4_3,Length=0.028243000,Units=km
new line.SBT_11736173 bus1=BBT165478221.1.2.3.0,bus2=BBT2809957.1.2.3.0,Phases=3,Linecode=BT803_BT803_4_3_4_3,Length=0.038926000,Units=km
new line.SBT_11736180 bus1=BBT165478221.1.2.3.0,bus2=BBT2809950.1.2.3.0,Phases=3,Linecode=BT803_BT803_4_3_4_3,Length=0.030476000,Units=km
new line.SBT_11736201 bus1=BBT2809523.1.2.0,bus2=BBT2809908.1.2.0,Phases=2,Linecode=BT807_BT807_4_2_3_2,Length=0.032709000,Units=km
new line.SBT_11736208 bus1=BBT2809516.1.2.0,bus2=BBT2809859.1.2.0,Phases=2,Linecode=BT513_BT513_7_2_1_2,Length=0.000501000,Units=km
new line.SBT_11736215 bus1=BBT2809852.1.2.0,bus2=BBT2809523.1.2.0,Phases=2,Linecode=BT807_BT807_4_2_3_2,Length=0.028243000,Units=km
new line.SBT_11736236 bus1=BBT2809859.1.2.0,bus2=BBT2809852.1.2.0,Phases=2,Linecode=BT807_BT807_4_2_3_2,Length=0.028243000,Units=km
new line.SBT_11736243 bus1=BBT2809852.1.2.0,bus2=BBT2809894.1.2.0,Phases=2,Linecode=BT808_BT808_4_2_3_2,Length=0.039412000,Units=km
new line.SBT_11736250 bus1=BBT2809852.1.2.0,bus2=BBT2809901.1.2.0,Phases=2,Linecode=BT808_BT808_4_2_3_2,Length=0.032709000,Units=km
new line.SBT_11736285 bus1=BBT2809859.1.2.0,bus2=BBT2809866.1.2.0,Phases=2,Linecode=BT807_BT807_4_2_3_2,Length=0.025506000,Units=km
new line.SBT_11736299 bus1=BBT2809866.1.2.0,bus2=BBT2809873.1.2.0,Phases=2,Linecode=BT808_BT808_4_2_3_2,Length=0.032216000,Units=km
new line.SBT_11736306 bus1=BBT2809866.1.2.0,bus2=BBT2809880.1.2.0,Phases=2,Linecode=BT808_BT808_4_2_3_2,Length=0.035483000,Units=km
new line.SBT_11736348 bus1=BBT2809880.1.2.0,bus2=BBT2809887.1.2.0,Phases=2,Linecode=BT808_BT808_4_2_3_2,Length=0.035356000,Units=km
new line.SBT_11736411 bus1=BBT2809894.1.2.0,bus2=BBT3155057.1.2.0,Phases=2,Linecode=BT808_BT808_4_2_3_2,Length=0.034900000,Units=km
new line.SBT_11736453 bus1=BBT2809957.1.2.0,bus2=BBT3155197.1.2.0,Phases=2,Linecode=BT808_BT808_4_2_3_2,Length=0.034029000,Units=km
new line.SBT_11736495 bus1=BBT2809943.1.2.0,bus2=BBT3155204.1.2.0,Phases=2,Linecode=BT808_BT808_4_2_3_2,Length=0.033629000,Units=km
new line.SBT_11736537 bus1=BBT2809978.1.2.0,bus2=BBT2809985.1.2.0,Phases=2,Linecode=BT808_BT808_4_2_3_2,Length=0.032709000,Units=km
new line.SBT_11736544 bus1=BBT2809978.1.2.0,bus2=BBT2809992.1.2.0,Phases=2,Linecode=BT808_BT808_4_2_3_2,Length=0.035356000,Units=km
new line.SBT_11736565 bus1=BBT2810090.1.2.0,bus2=BBT2810139.1.2.0,Phases=2,Linecode=BT808_BT808_4_2_3_2,Length=0.034943000,Units=km
new line.SBT_11736572 bus1=BBT2810090.1.2.0,bus2=BBT2810146.1.2.0,Phases=2,Linecode=BT808_BT808_4_2_3_2,Length=0.033629000,Units=km
new line.SBT_11736579 bus1=BBT2810090.1.2.0,bus2=BBT31351196.1.2.0,Phases=2,Linecode=BT807_BT807_4_2_3_2,Length=0.031029000,Units=km
new line.SBT_11736719 bus1=BBT2810097.1.2.0,bus2=BBT31350923.1.2.0,Phases=2,Linecode=BT807_BT807_4_2_3_2,Length=0.031398000,Units=km
new line.SBT_11736726 bus1=BBT2810097.1.2.0,bus2=BBT2810125.1.2.0,Phases=2,Linecode=BT808_BT808_4_2_3_2,Length=0.034029000,Units=km
new line.SBT_11736733 bus1=BBT2810097.1.2.0,bus2=BBT2810132.1.2.0,Phases=2,Linecode=BT808_BT808_4_2_3_2,Length=0.034554000,Units=km
new line.SBT_11736796 bus1=BBT2810104.1.2.0,bus2=BBT2810118.1.2.0,Phases=2,Linecode=BT808_BT808_4_2_3_2,Length=0.034014000,Units=km
new line.SBT_11736803 bus1=BBT2810104.1.2.0,bus2=BBT2810111.1.2.0,Phases=2,Linecode=BT808_BT808_4_2_3_2,Length=0.034554000,Units=km
new line.SBT_11736810 bus1=BBT2810104.1.2.0,bus2=BBT4574524.1.2.0,Phases=2,Linecode=BT808_BT808_4_2_3_2,Length=0.011407000,Units=km
new line.SBT_1205471 bus1=BBT391674.1.2.0,bus2=BBT391681.1.2.0,Phases=2,Linecode=BT518_BT518_7_2_1_2,Length=0.000501000,Units=km
new line.SBT_1205478 bus1=BBT391681.1.2.0,bus2=BBT2070946.1.2.0,Phases=2,Linecode=BT807_BT807_4_2_3_2,Length=0.058058000,Units=km
new line.SBT_1205485 bus1=BBT391681.1.2.0,bus2=BBT2070953.1.2.0,Phases=2,Linecode=BT807_BT807_4_2_3_2,Length=0.060158000,Units=km
new line.SBT_1205555 bus1=BBT391716.1.2.0,bus2=BBT391723.1.2.0,Phases=2,Linecode=BT518_BT518_7_2_1_2,Length=0.000501000,Units=km
new line.SBT_1205562 bus1=BBT391723.1.2.0,bus2=BBT2071030.1.2.0,Phases=2,Linecode=BT807_BT807_4_2_3_2,Length=0.029167000,Units=km
new line.SBT_1205569 bus1=BBT391723.1.2.0,bus2=BBT2071044.1.2.0,Phases=2,Linecode=BT807_BT807_4_2_3_2,Length=0.035792000,Units=km
new line.SBT_1205625 bus1=BBT391744.1.2.0,bus2=BBT391751.1.2.0,Phases=2,Linecode=BT513_BT513_7_2_1_2,Length=0.000501000,Units=km
new line.SBT_1205632 bus1=BBT391751.1.2.0,bus2=BBT2071170.1.2.0,Phases=2,Linecode=BT807_BT807_4_2_3_2,Length=0.049183000,Units=km
new line.SBT_1205639 bus1=BBT391751.1.2.0,bus2=BBT2071191.1.2.0,Phases=2,Linecode=BT807_BT807_4_2_3_2,Length=0.049112000,Units=km
new line.SBT_1205674 bus1=BBT391758.1.2.0,bus2=BBT391765.1.2.0,Phases=2,Linecode=BT317_BT317_7_2_1_2,Length=0.000501000,Units=km
new line.SBT_1205758 bus1=BBT483269.1.2.3.0,bus2=BBT483318.1.2.3.0,Phases=3,Linecode=BT803_BT803_4_3_4_3,Length=0.016650000,Units=km
new line.SBT_12802742 bus1=BBT3050834.1.2.0,bus2=BBT3050841.1.2.0,Phases=2,Linecode=BT807_BT807_4_2_3_2,Length=0.031398000,Units=km
new line.SBT_12802749 bus1=BBT3050834.1.2.0,bus2=BBT3379918.1.2.0,Phases=2,Linecode=BT808_BT808_4_2_3_2,Length=0.041646000,Units=km
new line.SBT_12802770 bus1=BBT3050841.1.2.0,bus2=BBT3379946.1.2.0,Phases=2,Linecode=BT808_BT808_4_2_3_2,Length=0.035072000,Units=km
new line.SBT_12802784 bus1=BBT3050715.1.2.0,bus2=BBT3050834.1.2.0,Phases=2,Linecode=BT807_BT807_4_2_3_2,Length=0.026011000,Units=km
new line.SBT_12802791 bus1=BBT3050708.1.2.0,bus2=BBT3050715.1.2.0,Phases=2,Linecode=BT513_BT513_7_2_1_2,Length=0.000501000,Units=km
new line.SBT_12802798 bus1=BBT3050715.1.2.0,bus2=BBT3050827.1.2.0,Phases=2,Linecode=BT807_BT807_4_2_3_2,Length=0.026011000,Units=km
new line.SBT_12802833 bus1=BBT3050827.1.2.0,bus2=BBT3379925.1.2.0,Phases=2,Linecode=BT808_BT808_4_2_3_2,Length=0.043029000,Units=km
new line.SBT_12814117 bus1=BBT3056560.1.2.3.0,bus2=BBT3056567.1.2.3.0,Phases=3,Linecode=BT314_BT314_7_3_1_3,Length=0.000501000,Units=km
new line.SBT_13409145 bus1=BBT3877905.1.2.0,bus2=BBT3877912.1.2.0,Phases=2,Linecode=BT807_BT807_4_2_3_2,Length=0.038095000,Units=km
new line.SBT_13409152 bus1=BBT3877898.1.2.0,bus2=BBT3877905.1.2.0,Phases=2,Linecode=BT513_BT513_7_2_1_2,Length=0.000501000,Units=km
new line.SBT_10845682 bus1=BBT2672911.1.2.0,bus2=BBT2672918.1.2.0,Phases=2,Linecode=BT316_BT316_7_2_1_2,Length=0.000501000,Units=km
new line.SBT_10847159 bus1=BBT2673051.1.2.0,bus2=BBT2673058.1.2.0,Phases=2,Linecode=BT316_BT316_7_2_1_2,Length=0.000501000,Units=km
new line.SBT_10848125 bus1=BBT2673205.1.2.0,bus2=BBT2673212.1.2.0,Phases=2,Linecode=BT808_BT808_4_2_3_2,Length=0.046062000,Units=km
new line.SBT_10848139 bus1=BBT2673212.1.2.0,bus2=BBT2673219.1.2.0,Phases=2,Linecode=BT808_BT808_4_2_3_2,Length=0.044425000,Units=km
new line.SBT_11456061 bus1=BBT4320662.1.2.0,bus2=BBT4320690.1.2.0,Phases=2,Linecode=BT808_BT808_4_2_3_2,Length=0.048352000,Units=km
new line.SBT_11456068 bus1=BBT4320662.1.2.0,bus2=BBT4320669.1.2.0,Phases=2,Linecode=BT808_BT808_4_2_3_2,Length=0.044740000,Units=km
new line.SBT_1236551 bus1=BBT404512.1.2.0,bus2=BBT404519.1.2.0,Phases=2,Linecode=BT509_BT509_7_2_1_2,Length=0.000501000,Units=km
new line.SBT_1308406 bus1=BBT431238.1.2.0,bus2=BBT431245.1.2.0,Phases=2,Linecode=BT507_BT507_7_2_1_2,Length=0.000501000,Units=km
new line.SBT_13388509 bus1=BBT3759213.1.2.0,bus2=BBT3759220.1.2.0,Phases=2,Linecode=BT808_BT808_4_2_3_2,Length=0.043481000,Units=km
new line.SBT_13531589 bus1=BBT149540695.1.2.0,bus2=BBT149540901.1.2.0,Phases=2,Linecode=BT808_BT808_4_2_3_2,Length=0.036785000,Units=km
new line.SBT_13531610 bus1=BBT4301286.1.2.0,bus2=BBT4301293.1.2.0,Phases=2,Linecode=BT808_BT808_4_2_3_2,Length=0.034029000,Units=km
new line.SBT_13531631 bus1=BBT4301279.1.2.0,bus2=BBT4301286.1.2.0,Phases=2,Linecode=BT807_BT807_4_2_3_2,Length=0.027324000,Units=km
new line.SBT_13531666 bus1=BBT4301244.1.2.0,bus2=BBT4301279.1.2.0,Phases=2,Linecode=BT807_BT807_4_2_3_2,Length=0.041646000,Units=km
new line.SBT_13531694 bus1=BBT4301202.1.2.0,bus2=BBT4301244.1.2.0,Phases=2,Linecode=BT807_BT807_4_2_3_2,Length=0.030476000,Units=km
new line.SBT_13531701 bus1=BBT4301195.1.2.0,bus2=BBT4301202.1.2.0,Phases=2,Linecode=BT521_BT521_7_2_1_2,Length=0.000501000,Units=km
new line.SBT_13531708 bus1=BBT4301202.1.2.0,bus2=BBT4301307.1.2.0,Phases=2,Linecode=BT807_BT807_4_2_3_2,Length=0.032709000,Units=km
new line.SBT_13531722 bus1=BBT4301307.1.2.0,bus2=BBT4301314.1.2.0,Phases=2,Linecode=BT807_BT807_4_2_3_2,Length=0.040735000,Units=km
new line.SBT_13531743 bus1=BBT4301314.1.2.0,bus2=BBT4605534.1.2.0,Phases=2,Linecode=BT807_BT807_4_2_3_2,Length=0.017007000,Units=km
new line.SBT_13531778 bus1=BBT4301328.1.2.0,bus2=BBT4605604.1.2.0,Phases=2,Linecode=BT808_BT808_4_2_3_2,Length=0.029979000,Units=km
new line.SBT_13531792 bus1=BBT4301349.1.2.3.0,bus2=BBT4301342.1.2.3.0,Phases=3,Linecode=BT803_BT803_4_3_4_3,Length=0.030096000,Units=km
new line.SBT_13531806 bus1=BBT126256237.1.2.3.0,bus2=BBT4301349.1.2.3.0,Phases=3,Linecode=BT803_BT803_4_3_4_3,Length=0.008606000,Units=km
new line.SBT_13531834 bus1=BBT4301356.1.2.3.0,bus2=BBT4301363.1.2.3.0,Phases=3,Linecode=BT810_BT810_4_3_4_3,Length=0.044617000,Units=km
new line.SBT_13539842 bus1=BBT4320697.1.2.0,bus2=BBT4320739.1.2.0,Phases=2,Linecode=BT808_BT808_4_2_3_2,Length=0.052795000,Units=km
new line.SBT_13539849 bus1=BBT4320697.1.2.0,bus2=BBT4320711.1.2.0,Phases=2,Linecode=BT808_BT808_4_2_3_2,Length=0.044796000,Units=km
new line.SBT_13539870 bus1=BBT4320564.1.2.0,bus2=BBT4320697.1.2.0,Phases=2,Linecode=BT807_BT807_4_2_3_2,Length=0.052021000,Units=km
new line.SBT_13539877 bus1=BBT4320557.1.2.0,bus2=BBT4320564.1.2.0,Phases=2,Linecode=BT521_BT521_7_2_1_2,Length=0.000501000,Units=km
new line.SBT_13539884 bus1=BBT4320564.1.2.0,bus2=BBT4320704.1.2.0,Phases=2,Linecode=BT807_BT807_4_2_3_2,Length=0.046409000,Units=km
new line.SBT_13539912 bus1=BBT4320704.1.2.0,bus2=BBT4320718.1.2.0,Phases=2,Linecode=BT808_BT808_4_2_3_2,Length=0.047696000,Units=km
new line.SBT_13539919 bus1=BBT4320704.1.2.0,bus2=BBT4320725.1.2.0,Phases=2,Linecode=BT808_BT808_4_2_3_2,Length=0.042314000,Units=km
new line.SBT_13539961 bus1=BBT4320760.1.2.0,bus2=BBT4320809.1.2.0,Phases=2,Linecode=BT808_BT808_4_2_3_2,Length=0.038343000,Units=km
new line.SBT_13539968 bus1=BBT4320760.1.2.0,bus2=BBT4320781.1.2.0,Phases=2,Linecode=BT807_BT807_4_2_3_2,Length=0.046891000,Units=km
new line.SBT_13539989 bus1=BBT4320543.1.2.0,bus2=BBT4320760.1.2.0,Phases=2,Linecode=BT807_BT807_4_2_3_2,Length=0.041454000,Units=km
new line.SBT_13539996 bus1=BBT4320536.1.2.0,bus2=BBT4320543.1.2.0,Phases=2,Linecode=BT521_BT521_7_2_1_2,Length=0.000501000,Units=km
new line.SBT_13540003 bus1=BBT4320543.1.2.0,bus2=BBT4320767.1.2.0,Phases=2,Linecode=BT807_BT807_4_2_3_2,Length=0.039335000,Units=km
new line.SBT_13540045 bus1=BBT4320851.1.2.0,bus2=BBT4320907.1.2.0,Phases=2,Linecode=BT808_BT808_4_2_3_2,Length=0.048393000,Units=km
new line.SBT_13540052 bus1=BBT4320851.1.2.0,bus2=BBT4320900.1.2.0,Phases=2,Linecode=BT808_BT808_4_2_3_2,Length=0.043584000,Units=km
new line.SBT_13540059 bus1=BBT4320851.1.2.0,bus2=BBT4320865.1.2.0,Phases=2,Linecode=BT808_BT808_4_2_3_2,Length=0.053622000,Units=km
new line.SBT_13540094 bus1=BBT4320879.1.2.0,bus2=BBT4320893.1.2.0,Phases=2,Linecode=BT808_BT808_4_2_3_2,Length=0.044572000,Units=km
new line.SBT_13540101 bus1=BBT4320879.1.2.0,bus2=BBT4320886.1.2.0,Phases=2,Linecode=BT808_BT808_4_2_3_2,Length=0.045560000,Units=km
new line.SBT_13540129 bus1=BBT4321096.1.2.0,bus2=BBT4321103.1.2.0,Phases=2,Linecode=BT808_BT808_4_2_3_2,Length=0.046409000,Units=km
new line.SBT_13540136 bus1=BBT4321096.1.2.0,bus2=BBT4321117.1.2.0,Phases=2,Linecode=BT807_BT807_4_2_3_2,Length=0.041454000,Units=km
new line.SBT_13540143 bus1=BBT4321096.1.2.0,bus2=BBT4321110.1.2.0,Phases=2,Linecode=BT807_BT807_4_2_3_2,Length=0.044572000,Units=km
new line.SBT_13540171 bus1=BBT4320928.1.2.0,bus2=BBT4320984.1.2.0,Phases=2,Linecode=BT808_BT808_4_2_3_2,Length=0.044572000,Units=km
new line.SBT_13540178 bus1=BBT4320928.1.2.0,bus2=BBT4320977.1.2.0,Phases=2,Linecode=BT808_BT808_4_2_3_2,Length=0.043950000,Units=km
new line.SBT_13540185 bus1=BBT4320991.1.2.0,bus2=BBT4321005.1.2.0,Phases=2,Linecode=BT808_BT808_4_2_3_2,Length=0.049840000,Units=km
new line.SBT_13540192 bus1=BBT4320991.1.2.0,bus2=BBT4320998.1.2.0,Phases=2,Linecode=BT808_BT808_4_2_3_2,Length=0.045417000,Units=km
new line.SBT_13540220 bus1=BBT4321019.1.2.0,bus2=BBT4321040.1.2.0,Phases=2,Linecode=BT808_BT808_4_2_3_2,Length=0.050657000,Units=km
new line.SBT_13540227 bus1=BBT4321019.1.2.0,bus2=BBT4321033.1.2.0,Phases=2,Linecode=BT808_BT808_4_2_3_2,Length=0.045560000,Units=km
new line.SBT_13540241 bus1=BBT4321026.1.2.0,bus2=BBT4321068.1.2.0,Phases=2,Linecode=BT807_BT807_4_2_3_2,Length=0.049669000,Units=km
new line.SBT_13540248 bus1=BBT4321026.1.2.0,bus2=BBT4321061.1.2.0,Phases=2,Linecode=BT808_BT808_4_2_3_2,Length=0.044425000,Units=km
new line.SBT_13540276 bus1=BBT4320956.1.2.0,bus2=BBT4320963.1.2.0,Phases=2,Linecode=BT808_BT808_4_2_3_2,Length=0.044572000,Units=km
new line.SBT_13540290 bus1=BBT4321152.1.2.0,bus2=BBT4321145.1.2.0,Phases=2,Linecode=BT808_BT808_4_2_3_2,Length=0.045296000,Units=km
new line.SBT_13540297 bus1=BBT4321152.1.2.0,bus2=BBT4321159.1.2.0,Phases=2,Linecode=BT808_BT808_4_2_3_2,Length=0.039475000,Units=km
new line.SBT_13540311 bus1=BBT4321166.1.2.0,bus2=BBT4321173.1.2.0,Phases=2,Linecode=BT808_BT808_4_2_3_2,Length=0.046549000,Units=km
new line.SBT_13540374 bus1=BBT4321082.1.2.0,bus2=BBT4321180.1.2.0,Phases=2,Linecode=BT808_BT808_4_2_3_2,Length=0.050824000,Units=km
new line.SBT_13540395 bus1=BBT4321068.1.2.0,bus2=BBT4321075.1.2.0,Phases=2,Linecode=BT808_BT808_4_2_3_2,Length=0.050508000,Units=km
new line.SBT_13540409 bus1=BBT4321075.1.2.0,bus2=BBT4321082.1.2.0,Phases=2,Linecode=BT808_BT808_4_2_3_2,Length=0.050657000,Units=km
new line.SBT_13540423 bus1=BBT4321047.1.2.0,bus2=BBT4321054.1.2.0,Phases=2,Linecode=BT808_BT808_4_2_3_2,Length=0.050657000,Units=km
new line.SBT_10724050 bus1=BBT2660822.1.2.3.0,bus2=BBT2660829.1.2.3.0,Phases=3,Linecode=BT803_BT803_4_3_4_3,Length=0.034190000,Units=km
new line.SBT_10724078 bus1=BBT2660801.1.2.3.0,bus2=BBT2660815.1.2.3.0,Phases=3,Linecode=BT803_BT803_4_3_4_3,Length=0.034943000,Units=km
new line.SBT_10724106 bus1=BBT2660815.1.2.3.0,bus2=BBT2660822.1.2.3.0,Phases=3,Linecode=BT803_BT803_4_3_4_3,Length=0.036264000,Units=km
new line.SBT_10724141 bus1=BBT2660794.1.2.3.0,bus2=BBT126256237.1.2.3.0,Phases=3,Linecode=BT803_BT803_4_3_4_3,Length=0.032709000,Units=km
new line.SBT_10724148 bus1=BBT2660787.1.2.3.0,bus2=BBT2660794.1.2.3.0,Phases=3,Linecode=BT518_BT518_7_3_1_3,Length=0.000501000,Units=km
new line.SBT_10724155 bus1=BBT2660794.1.2.3.0,bus2=BBT2660836.1.2.3.0,Phases=3,Linecode=BT803_BT803_4_3_4_3,Length=0.037177000,Units=km
new line.SBT_10724176 bus1=BBT2660836.1.2.3.0,bus2=BBT2660843.1.2.3.0,Phases=3,Linecode=BT803_BT803_4_3_4_3,Length=0.037177000,Units=km
new line.SBT_10724197 bus1=BBT2660843.1.2.0,bus2=BBT2660850.1.2.0,Phases=2,Linecode=BT807_BT807_4_2_3_2,Length=0.036264000,Units=km
new line.SBT_10724526 bus1=BBT2660857.1.2.3.0,bus2=BBT2522047.1.2.3.0,Phases=3,Linecode=BT803_BT803_4_3_4_3,Length=0.003164000,Units=km
new line.SBT_10724533 bus1=BBT2660857.1.2.0,bus2=BBT2660864.1.2.0,Phases=2,Linecode=BT808_BT808_4_2_3_2,Length=0.005003000,Units=km
new line.SBT_10724540 bus1=BBT2660857.1.2.0,bus2=BBT2660878.1.2.0,Phases=2,Linecode=BT808_BT808_4_2_3_2,Length=0.032324000,Units=km
new line.SBT_10724841 bus1=BBT2660899.1.2.0,bus2=BBT2660906.1.2.0,Phases=2,Linecode=BT808_BT808_4_2_3_2,Length=0.036264000,Units=km
new line.SBT_10724967 bus1=BBT2660878.1.2.0,bus2=BBT2660885.1.2.0,Phases=2,Linecode=BT808_BT808_4_2_3_2,Length=0.037177000,Units=km
new line.SBT_10725016 bus1=BBT2660885.1.2.0,bus2=BBT2660892.1.2.0,Phases=2,Linecode=BT808_BT808_4_2_3_2,Length=0.037177000,Units=km
new line.SBT_10725037 bus1=BBT2660892.1.2.0,bus2=BBT2660899.1.2.0,Phases=2,Linecode=BT808_BT808_4_2_3_2,Length=0.043881000,Units=km
new line.SBT_10725240 bus1=BBT2661067.1.2.0,bus2=BBT2661074.1.2.0,Phases=2,Linecode=BT807_BT807_4_2_3_2,Length=0.038500000,Units=km
new line.SBT_10725275 bus1=BBT2660983.1.2.0,bus2=BBT2660990.1.2.0,Phases=2,Linecode=BT807_BT807_4_2_3_2,Length=0.028874000,Units=km
new line.SBT_10725338 bus1=BBT2661025.1.2.0,bus2=BBT2661060.1.2.0,Phases=2,Linecode=BT807_BT807_4_2_3_2,Length=0.036785000,Units=km
new line.SBT_10725345 bus1=BBT2661025.1.2.0,bus2=BBT2661032.1.2.0,Phases=2,Linecode=BT808_BT808_4_2_3_2,Length=0.028455000,Units=km
new line.SBT_10725352 bus1=BBT2661025.1.2.0,bus2=BBT2661039.1.2.0,Phases=2,Linecode=BT808_BT808_4_2_3_2,Length=0.036154000,Units=km
new line.SBT_10725387 bus1=BBT2661060.1.2.0,bus2=BBT2661067.1.2.0,Phases=2,Linecode=BT807_BT807_4_2_3_2,Length=0.037712000,Units=km
new line.SBT_10725408 bus1=BBT2661032.1.2.0,bus2=BBT31827462.1.2.0,Phases=2,Linecode=BT808_BT808_4_2_3_2,Length=0.025329000,Units=km
new line.SBT_10725436 bus1=BBT2661039.1.2.0,bus2=BBT2790875.1.2.0,Phases=2,Linecode=BT808_BT808_4_2_3_2,Length=0.018256000,Units=km
new line.SBT_10725457 bus1=BBT148473031.1.2.0,bus2=BBT2661046.1.2.0,Phases=2,Linecode=BT807_BT807_4_2_3_2,Length=0.034014000,Units=km
new line.SBT_10725471 bus1=BBT2661011.1.2.0,bus2=BBT2661025.1.2.0,Phases=2,Linecode=BT807_BT807_4_2_3_2,Length=0.037592000,Units=km
new line.SBT_10725478 bus1=BBT2661011.1.2.0,bus2=BBT2661018.1.2.0,Phases=2,Linecode=BT807_BT807_4_2_3_2,Length=0.036785000,Units=km
new line.SBT_10725485 bus1=BBT2661004.1.2.0,bus2=BBT2661011.1.2.0,Phases=2,Linecode=BT513_BT513_7_2_1_2,Length=0.000501000,Units=km
new line.SBT_11606554 bus1=BBT2790875.1.2.0,bus2=BBT2790882.1.2.0,Phases=2,Linecode=BT808_BT808_4_2_3_2,Length=0.044120000,Units=km
new line.SBT_1210399 bus1=BBT393809.1.2.0,bus2=BBT393816.1.2.0,Phases=2,Linecode=BT304_BT304_7_2_1_2,Length=0.000501000,Units=km
new line.SBT_1257159 bus1=BBT413521.1.2.3.0,bus2=BBT413528.1.2.3.0,Phases=3,Linecode=BT513_BT513_7_3_1_3,Length=0.000501000,Units=km
new line.SBT_1257194 bus1=BBT413549.1.2.3.0,bus2=BBT413577.1.2.3.0,Phases=3,Linecode=BT803_BT803_4_3_4_3,Length=0.031398000,Units=km
new line.SBT_1257222 bus1=BBT413556.1.2.3.0,bus2=BBT413535.1.2.3.0,Phases=3,Linecode=BT803_BT803_4_3_4_3,Length=0.034029000,Units=km
new line.SBT_1257236 bus1=BBT413563.1.2.3.0,bus2=BBT413542.1.2.3.0,Phases=3,Linecode=BT107_BT107_7_3_1_3,Length=0.035862000,Units=km
new line.SBT_1257243 bus1=BBT413563.1.2.3.0,bus2=BBT413591.1.2.3.0,Phases=3,Linecode=BT107_BT107_7_3_1_3,Length=0.033629000,Units=km
new line.SBT_1257264 bus1=BBT413570.1.2.3.0,bus2=BBT413563.1.2.3.0,Phases=3,Linecode=BT107_BT107_7_3_1_3,Length=0.032324000,Units=km
new line.SBT_1257299 bus1=BBT168626718.1.2.3.0,bus2=BBT4568217.1.2.3.0,Phases=3,Linecode=BT803_BT803_4_3_4_3,Length=0.037137000,Units=km
new line.SBT_1257306 bus1=BBT168626718.1.2.3.0,bus2=BBT413556.1.2.3.0,Phases=3,Linecode=BT803_BT803_4_3_4_3,Length=0.026260000,Units=km
new line.SBT_1257313 bus1=BBT168626718.1.2.3.0,bus2=BBT413570.1.2.3.0,Phases=3,Linecode=BT803_BT803_4_3_4_3,Length=0.031334000,Units=km
new line.SBT_1257362 bus1=BBT168625827.1.2.3.0,bus2=BBT413605.1.2.3.0,Phases=3,Linecode=BT803_BT803_4_3_4_3,Length=0.035483000,Units=km
new line.SBT_1336973 bus1=BBT444636.1.2.0,bus2=BBT444643.1.2.0,Phases=2,Linecode=BT307_BT307_7_2_1_2,Length=0.000501000,Units=km
new line.SBT_1337169 bus1=BBT444734.1.2.0,bus2=BBT444741.1.2.0,Phases=2,Linecode=BT507_BT507_7_2_1_2,Length=0.000501000,Units=km
new line.SBT_1337211 bus1=BBT444762.1.2.0,bus2=BBT444769.1.2.0,Phases=2,Linecode=BT507_BT507_7_2_1_2,Length=0.000501000,Units=km
new line.SBT_1337834 bus1=BBT445063.1.2.0,bus2=BBT445070.1.2.0,Phases=2,Linecode=BT507_BT507_7_2_1_2,Length=0.000501000,Units=km
new line.SBT_1337848 bus1=BBT445077.1.2.0,bus2=BBT445084.1.2.0,Phases=2,Linecode=BT507_BT507_7_2_1_2,Length=0.000501000,Units=km
new line.SBT_1338184 bus1=BBT445245.1.2.0,bus2=BBT445252.1.2.0,Phases=2,Linecode=BT518_BT518_7_2_1_2,Length=0.000501000,Units=km
new line.SBT_1338191 bus1=BBT445252.1.2.0,bus2=BBT2657959.1.2.0,Phases=2,Linecode=BT808_BT808_4_2_3_2,Length=0.033555000,Units=km
new line.SBT_13518 bus1=BBT5638.1.2.3.0,bus2=BBT5631.1.2.3.0,Phases=3,Linecode=BT803_BT803_4_3_4_3,Length=0.029029000,Units=km
new line.SBT_13526353 bus1=BBT4289022.1.2.3.0,bus2=BBT4289029.1.2.3.0,Phases=3,Linecode=BT810_BT810_4_3_4_3,Length=0.036250000,Units=km
new line.SBT_13526360 bus1=BBT4289015.1.2.3.0,bus2=BBT4289008.1.2.3.0,Phases=3,Linecode=BT810_BT810_4_3_4_3,Length=0.039412000,Units=km
new line.SBT_13526367 bus1=BBT104507027.1.2.3.0,bus2=BBT4289022.1.2.3.0,Phases=3,Linecode=BT810_BT810_4_3_4_3,Length=0.025506000,Units=km
new line.SBT_13526374 bus1=BBT4289001.1.2.3.0,bus2=BBT104505718.1.2.3.0,Phases=3,Linecode=BT521_BT521_7_3_1_3,Length=0.000501000,Units=km