new line.RBT_10050749 bus1=BBT3154700.1.2.0,bus2=RML1010050749.1.2.0,Phases=2,Linecode=CABBTG05_4_2_2,Length=0.012000000,Units=km
new line.RBT_10050752 bus1=BBT2254101.3.0,bus2=RML1010050752.3.0,Phases=1,Linecode=CABBTG01_4_1_1,Length=0.021000000,Units=km
new line.RBT_10050766 bus1=BBT2889652.3.0,bus2=RML1010050766.3.0,Phases=1,Linecode=CABBTG01_4_1_1,Length=0.012000000,Units=km
new line.RBT_10050768 bus1=BBT49944316.1.2.0,bus2=RML1010050768.1.2.0,Phases=2,Linecode=CABBTG05_4_2_2,Length=0.010000000,Units=km
new line.RBT_10050775 bus1=BBT49943091.1.2.0,bus2=RML1010050775.1.2.0,Phases=2,Linecode=CABBTG05_4_2_2,Length=0.013000000,Units=km
new line.RBT_10051607 bus1=BBT483486.2.0,bus2=RML1010051607.2.0,Phases=1,Linecode=CABBTG01_4_1_1,Length=0.012000000,Units=km
new line.RBT_10051619 bus1=BBT2521956.1.2.0,bus2=RML1010051619.1.2.0,Phases=2,Linecode=CABBT811_4_2_2,Length=0.015000000,Units=km
new line.RBT_10051629 bus1=BBT3155190.1.0,bus2=RML1010051629.1.0,Phases=1,Linecode=CABBTG01_4_1_1,Length=0.010000000,Units=km
new line.RBT_10051704 bus1=BBT126808159.2.3.0,bus2=RML1010051704.2.3.0,Phases=2,Linecode=CABBTG05_4_2_2,Length=0.015000000,Units=km
new line.RBT_10051710 bus1=BBT2794011.1.2.0,bus2=RML1010051710.1.2.0,Phases=2,Linecode=CABBTG04_4_2_2,Length=0.029000000,Units=km
new line.RBT_10051727 bus1=BBT40678731.2.0,bus2=RML1010051727.2.0,Phases=1,Linecode=CABBTG01_4_1_1,Length=0.029000000,Units=km
new line.RBT_10051760 bus1=BBT67072224.1.0,bus2=RML1010051760.1.0,Phases=1,Linecode=CABBTG02_4_1_1,Length=0.029000000,Units=km
new line.RBT_10051762 bus1=BBT40678717.2.0,bus2=RML1010051762.2.0,Phases=1,Linecode=CABBTG02_4_1_1,Length=0.011000000,Units=km
new line.RBT_10051763 bus1=BBT3877947.2.0,bus2=RML1010051763.2.0,Phases=1,Linecode=CABBTG02_4_1_1,Length=0.010000000,Units=km
new line.RBT_10051808 bus1=BBT68867136.1.2.0,bus2=RML1010051808.1.2.0,Phases=2,Linecode=CABBTG05_4_2_2,Length=0.018000000,Units=km
new line.RBT_10051822 bus1=BBT483486.3.0,bus2=RML1010051822.3.0,Phases=1,Linecode=CABBTG01_4_1_1,Length=0.019000000,Units=km
new line.RBT_10052523 bus1=BBT92480964.1.0,bus2=RML1010052523.1.0,Phases=1,Linecode=CABBTG01_4_1_1,Length=0.014000000,Units=km
new line.RBT_10052526 bus1=BBT3050575.2.0,bus2=RML1010052526.2.0,Phases=1,Linecode=CABBTG01_4_1_1,Length=0.017000000,Units=km
new line.RBT_10052535 bus1=BBT2052599.3.0,bus2=RML1010052535.3.0,Phases=1,Linecode=CABBTG01_4_1_1,Length=0.010000000,Units=km
new line.RBT_10052537 bus1=BBT2660822.1.0,bus2=RML1010052537.1.0,Phases=1,Linecode=CABBTG01_4_1_1,Length=0.029000000,Units=km
new line.RBT_10052545 bus1=BBT2660822.2.0,bus2=RML1010052545.2.0,Phases=1,Linecode=CABBTG01_4_1_1,Length=0.012000000,Units=km
new line.RBT_10052549 bus1=BBT92480985.1.0,bus2=RML1010052549.1.0,Phases=1,Linecode=CABBTG01_4_1_1,Length=0.029000000,Units=km
new line.RBT_10052689 bus1=BBT2052599.1.0,bus2=RML1010052689.1.0,Phases=1,Linecode=CABBTG01_4_1_1,Length=0.016000000,Units=km
new line.RBT_10052718 bus1=BBT483878.2.0,bus2=RML1010052718.2.0,Phases=1,Linecode=CABBTG01_4_1_1,Length=0.010000000,Units=km
new line.RBT_10052720 bus1=BBT483885.3.0,bus2=RML1010052720.3.0,Phases=1,Linecode=CABBTG01_4_1_1,Length=0.030000000,Units=km
new line.RBT_10052798 bus1=BBT54076199.2.0,bus2=RML1010052798.2.0,Phases=1,Linecode=CABBTG01_4_1_1,Length=0.014000000,Units=km
new line.RBT_10052803 bus1=BBT2052179.1.2.0,bus2=RML1010052803.1.2.0,Phases=2,Linecode=CABBT811_4_2_2,Length=0.007000000,Units=km
new line.RBT_10052806 bus1=BBT483892.3.0,bus2=RML1010052806.3.0,Phases=1,Linecode=CABBTG01_4_1_1,Length=0.011000000,Units=km
new line.RBT_10052807 bus1=BBT49930862.1.0,bus2=RML1010052807.1.0,Phases=1,Linecode=CABBTG01_4_1_1,Length=0.021000000,Units=km
new line.RBT_10052946 bus1=BBT92480908.3.0,bus2=RML1010052946.3.0,Phases=1,Linecode=CABBTG01_4_1_1,Length=0.013000000,Units=km
new line.RBT_10052999 bus1=BBT483878.3.0,bus2=RML1010052999.3.0,Phases=1,Linecode=CABBTG01_4_1_1,Length=0.030000000,Units=km
new line.RBT_10053037 bus1=BBT2260016.1.2.3.0,bus2=RML1010053037.1.2.3.0,Phases=3,Linecode=CABBTG07_4_3_3,Length=0.024000000,Units=km
new line.RBT_10053039 bus1=BBT2052508.1.0,bus2=RML1010053039.1.0,Phases=1,Linecode=CABBTG01_4_1_1,Length=0.012000000,Units=km
new line.RBT_10053041 bus1=BBT68862544.1.2.0,bus2=RML1010053041.1.2.0,Phases=2,Linecode=CABBTG05_4_2_2,Length=0.016000000,Units=km
new line.RBT_10053064 bus1=BBT40587241.1.2.0,bus2=RML1010053064.1.2.0,Phases=2,Linecode=CABBTG05_4_2_2,Length=0.029000000,Units=km
new line.RBT_10053070 bus1=BBT49945275.1.0,bus2=RML1010053070.1.0,Phases=1,Linecode=CABBTG01_4_1_1,Length=0.007000000,Units=km
new line.RBT_10053350 bus1=BBT2885025.1.0,bus2=RML1010053350.1.0,Phases=1,Linecode=CABBTG01_4_1_1,Length=0.011000000,Units=km
new line.RBT_10049631 bus1=BBT2660829.1.0,bus2=RML1010049631.1.0,Phases=1,Linecode=CABBTG01_4_1_1,Length=0.011000000,Units=km
new line.RBT_10049638 bus1=BBT4320907.1.0,bus2=RML1010049638.1.0,Phases=1,Linecode=CABBTG01_4_1_1,Length=0.013000000,Units=km
new line.RBT_10049652 bus1=BBT40678451.1.0,bus2=RML1010049652.1.0,Phases=1,Linecode=CABBTG02_4_1_1,Length=0.011000000,Units=km
new line.RBT_10049682 bus1=BBT4320662.2.0,bus2=RML1010049682.2.0,Phases=1,Linecode=CABBTG01_4_1_1,Length=0.022000000,Units=km
new line.RBT_10049838 bus1=BBT2176639.1.2.0,bus2=RML1010049838.1.2.0,Phases=2,Linecode=CABBTG05_4_2_2,Length=0.028000000,Units=km
new line.RBT_10049921 bus1=BBT92482637.1.0,bus2=RML1010049921.1.0,Phases=1,Linecode=CABBTG02_4_1_1,Length=0.012000000,Units=km
new line.RBT_10049926 bus1=BBT92483008.2.0,bus2=RML1010049926.2.0,Phases=1,Linecode=CABBTG02_4_1_1,Length=0.020000000,Units=km
new line.RBT_10049927 bus1=BBT92483008.3.0,bus2=RML1010049927.3.0,Phases=1,Linecode=CABBTG02_4_1_1,Length=0.012000000,Units=km
new line.RBT_10049929 bus1=BBT92481433.1.0,bus2=RML1010049929.1.0,Phases=1,Linecode=CABBTG02_4_1_1,Length=0.015000000,Units=km
new line.RBT_10049932 bus1=BBT92481258.3.0,bus2=RML1010049932.3.0,Phases=1,Linecode=CABBTG02_4_1_1,Length=0.014000000,Units=km
new line.RBT_10049935 bus1=BBT92481258.2.0,bus2=RML1010049935.2.0,Phases=1,Linecode=CABBTG02_4_1_1,Length=0.029000000,Units=km
new line.RBT_10049937 bus1=BBT92481258.1.0,bus2=RML1010049937.1.0,Phases=1,Linecode=CABBTG02_4_1_1,Length=0.015000000,Units=km
new line.RBT_10049941 bus1=BBT92480789.3.0,bus2=RML1010049941.3.0,Phases=1,Linecode=CABBTG01_4_1_1,Length=0.022000000,Units=km
new line.RBT_10050062 bus1=BBT2361796.3.0,bus2=RML1010050062.3.0,Phases=1,Linecode=CABBTG02_4_1_1,Length=0.029000000,Units=km
new line.RBT_10050072 bus1=BBT126279911.1.0,bus2=RML1010050072.1.0,Phases=1,Linecode=CABBTG01_4_1_1,Length=0.029000000,Units=km
new line.RBT_10050080 bus1=BBT40678451.1.0,bus2=RML1010050080.1.0,Phases=1,Linecode=CABBTG01_4_1_1,Length=0.029000000,Units=km
new line.RBT_10050099 bus1=BBT2793899.1.2.0,bus2=RML1010050099.1.2.0,Phases=2,Linecode=CABBTG05_4_2_2,Length=0.029000000,Units=km
new line.RBT_10050115 bus1=BBT444741.1.2.0,bus2=RML1010050115.1.2.0,Phases=2,Linecode=CABBTG05_4_2_2,Length=0.017000000,Units=km
new line.RBT_10050147 bus1=BBT2810013.1.0,bus2=RML1010050147.1.0,Phases=1,Linecode=CABBTG01_4_1_1,Length=0.029000000,Units=km
new line.RBT_10050163 bus1=BBT40678731.2.0,bus2=RML1010050163.2.0,Phases=1,Linecode=CABBTG01_4_1_1,Length=0.029000000,Units=km
new line.RBT_10050169 bus1=BBT317915.1.2.0,bus2=RML1010050169.1.2.0,Phases=2,Linecode=CABBTG05_4_2_2,Length=0.029000000,Units=km
new line.RBT_10050408 bus1=BBT43942292.1.2.0,bus2=RML1010050408.1.2.0,Phases=2,Linecode=CABBTG05_4_2_2,Length=0.017000000,Units=km
new line.RBT_10050551 bus1=BBT159318479.2.3.0,bus2=RML1010050551.2.3.0,Phases=2,Linecode=CABBTG05_4_2_2,Length=0.029000000,Units=km
new line.RBT_10050556 bus1=BBT92482644.2.0,bus2=RML1010050556.2.0,Phases=1,Linecode=CABBTG01_4_1_1,Length=0.029000000,Units=km
new line.RBT_10050564 bus1=BBT49935720.1.0,bus2=RML1010050564.1.0,Phases=1,Linecode=CABBTG01_4_1_1,Length=0.029000000,Units=km
new line.RBT_10050565 bus1=BBT54071453.1.0,bus2=RML1010050565.1.0,Phases=1,Linecode=CABBTG01_4_1_1,Length=0.029000000,Units=km
new line.RBT_10050686 bus1=BBT48170222.2.0,bus2=RML1010050686.2.0,Phases=1,Linecode=CABBTG01_4_1_1,Length=0.018000000,Units=km
new line.RBT_10050700 bus1=BBT483885.3.0,bus2=RML1010050700.3.0,Phases=1,Linecode=CABBTG01_4_1_1,Length=0.011000000,Units=km
new line.RBT_10095216 bus1=BBT21011293.1.0,bus2=RML1010095216.1.0,Phases=1,Linecode=CABBTG01_4_1_1,Length=0.017000000,Units=km
new line.RBT_10095230 bus1=BBT4320662.2.0,bus2=RML1010095230.2.0,Phases=1,Linecode=CABBTG01_4_1_1,Length=0.029000000,Units=km
new line.RBT_10095268 bus1=BBT2071170.2.0,bus2=RML1010095268.2.0,Phases=1,Linecode=CABBTG01_4_1_1,Length=0.017000000,Units=km
new line.RBT_10095274 bus1=BBT54084473.1.0,bus2=RML1010095274.1.0,Phases=1,Linecode=CABBTG01_4_1_1,Length=0.029000000,Units=km
new line.RBT_10095278 bus1=BBT54134383.2.0,bus2=RML1010095278.2.0,Phases=1,Linecode=CABBTG01_4_1_1,Length=0.029000000,Units=km
new line.RBT_10095365 bus1=BBT54134306.2.0,bus2=RML1010095365.2.0,Phases=1,Linecode=CABBTG01_4_1_1,Length=0.029000000,Units=km
new line.RBT_10095369 bus1=BBT49943560.1.0,bus2=RML1010095369.1.0,Phases=1,Linecode=CABBTG01_4_1_1,Length=0.029000000,Units=km
new line.RBT_10095379 bus1=BBT54085978.1.0,bus2=RML1010095379.1.0,Phases=1,Linecode=CABBTG01_4_1_1,Length=0.017000000,Units=km
new line.RBT_10095387 bus1=BBT49945261.1.0,bus2=RML1010095387.1.0,Phases=1,Linecode=CABBTG01_4_1_1,Length=0.029000000,Units=km
new line.RBT_10095392 bus1=BBT4320543.1.0,bus2=RML1010095392.1.0,Phases=1,Linecode=CABBTG01_4_1_1,Length=0.029000000,Units=km
new line.RBT_10095478 bus1=BBT4320662.1.0,bus2=RML1010095478.1.0,Phases=1,Linecode=CABBTG01_4_1_1,Length=0.029000000,Units=km
new line.RBT_10095484 bus1=BBT54141131.2.0,bus2=RML1010095484.2.0,Phases=1,Linecode=CABBTG01_4_1_1,Length=0.029000000,Units=km
new line.RBT_10095540 bus1=BBT49937253.1.0,bus2=RML1010095540.1.0,Phases=1,Linecode=CABBTG01_4_1_1,Length=0.029000000,Units=km
new line.RBT_10095549 bus1=BBT2071198.2.0,bus2=RML1010095549.2.0,Phases=1,Linecode=CABBTG01_4_1_1,Length=0.017000000,Units=km
new line.RBT_10095561 bus1=BBT29025271.2.0,bus2=RML1010095561.2.0,Phases=1,Linecode=CABBTG01_4_1_1,Length=0.017000000,Units=km
new line.RBT_10095566 bus1=BBT4320620.1.2.0,bus2=RML1010095566.1.2.0,Phases=2,Linecode=CABBTG05_4_2_2,Length=0.029000000,Units=km
new line.RBT_10095578 bus1=BBT54084837.2.0,bus2=RML1010095578.2.0,Phases=1,Linecode=CABBTG01_4_1_1,Length=0.029000000,Units=km
new line.RBT_10095586 bus1=BBT54130225.2.0,bus2=RML1010095586.2.0,Phases=1,Linecode=CABBTG01_4_1_1,Length=0.029000000,Units=km
new line.RBT_10095668 bus1=BBT49935601.1.0,bus2=RML1010095668.1.0,Phases=1,Linecode=CABBTG01_4_1_1,Length=0.029000000,Units=km
new line.RBT_10095685 bus1=BBT54085873.1.0,bus2=RML1010095685.1.0,Phases=1,Linecode=CABBTG01_4_1_1,Length=0.029000000,Units=km
new line.RBT_10095693 bus1=BBT49937253.1.0,bus2=RML1010095693.1.0,Phases=1,Linecode=CABBTG01_4_1_1,Length=0.029000000,Units=km
new line.RBT_10095712 bus1=BBT4320774.1.0,bus2=RML1010095712.1.0,Phases=1,Linecode=CABBTG01_4_1_1,Length=0.029000000,Units=km
new line.RBT_10095725 bus1=BBT4320697.1.2.0,bus2=RML1010095725.1.2.0,Phases=2,Linecode=CABBTG05_4_2_2,Length=0.029000000,Units=km
new line.RBT_10095766 bus1=BBT54133326.1.0,bus2=RML1010095766.1.0,Phases=1,Linecode=CABBTG01_4_1_1,Length=0.029000000,Units=km
new line.RBT_10095770 bus1=BBT49936973.1.0,bus2=RML1010095770.1.0,Phases=1,Linecode=CABBTG01_4_1_1,Length=0.029000000,Units=km
new line.RBT_10095922 bus1=BBT49943623.1.0,bus2=RML1010095922.1.0,Phases=1,Linecode=CABBTG01_4_1_1,Length=0.029000000,Units=km
new line.RBT_10095923 bus1=BBT4321040.1.0,bus2=RML1010095923.1.0,Phases=1,Linecode=CABBTG01_4_1_1,Length=0.029000000,Units=km
new line.RBT_10095925 bus1=BBT49945261.1.0,bus2=RML1010095925.1.0,Phases=1,Linecode=CABBTG01_4_1_1,Length=0.029000000,Units=km
new line.RBT_10095928 bus1=BBT49936973.2.0,bus2=RML1010095928.2.0,Phases=1,Linecode=CABBTG01_4_1_1,Length=0.029000000,Units=km
new line.RBT_10095929 bus1=BBT4321166.2.0,bus2=RML1010095929.2.0,Phases=1,Linecode=CABBTG01_4_1_1,Length=0.029000000,Units=km
new line.RBT_10095930 bus1=BBT4320823.2.0,bus2=RML1010095930.2.0,Phases=1,Linecode=CABBTG01_4_1_1,Length=0.029000000,Units=km
new line.RBT_10095933 bus1=BBT49935601.1.0,bus2=RML1010095933.1.0,Phases=1,Linecode=CABBTG01_4_1_1,Length=0.029000000,Units=km
new line.RBT_10095937 bus1=BBT49943616.2.0,bus2=RML1010095937.2.0,Phases=1,Linecode=CABBTG01_4_1_1,Length=0.029000000,Units=km
new line.RBT_10095938 bus1=BBT49936966.2.0,bus2=RML1010095938.2.0,Phases=1,Linecode=CABBTG01_4_1_1,Length=0.029000000,Units=km
new line.RBT_10095939 bus1=BBT54120292.1.0,bus2=RML1010095939.1.0,Phases=1,Linecode=CABBTG01_4_1_1,Length=0.017000000,Units=km
new line.RBT_10095942 bus1=BBT54085957.1.0,bus2=RML1010095942.1.0,Phases=1,Linecode=CABBTG01_4_1_1,Length=0.017000000,Units=km
new line.RBT_10095943 bus1=BBT54141257.1.0,bus2=RML1010095943.1.0,Phases=1,Linecode=CABBTG01_4_1_1,Length=0.029000000,Units=km
new line.RBT_10095945 bus1=BBT54141131.1.0,bus2=RML1010095945.1.0,Phases=1,Linecode=CABBTG01_4_1_1,Length=0.029000000,Units=km
new line.RBT_10095946 bus1=BBT54141131.2.0,bus2=RML1010095946.2.0,Phases=1,Linecode=CABBTG01_4_1_1,Length=0.029000000,Units=km
new line.RBT_10095948 bus1=BBT2481447.2.0,bus2=RML1010095948.2.0,Phases=1,Linecode=CABBTG01_4_1_1,Length=0.017000000,Units=km
new line.RBT_10095956 bus1=BBT49945275.1.0,bus2=RML1010095956.1.0,Phases=1,Linecode=CABBTG01_4_1_1,Length=0.029000000,Units=km
new line.RBT_10095957 bus1=BBT4321110.1.0,bus2=RML1010095957.1.0,Phases=1,Linecode=CABBTG01_4_1_1,Length=0.029000000,Units=km
new line.RBT_10095958 bus1=BBT4321152.2.0,bus2=RML1010095958.2.0,Phases=1,Linecode=CABBTG01_4_1_1,Length=0.029000000,Units=km
new line.RBT_10095959 bus1=BBT2659135.1.2.0,bus2=RML1010095959.1.2.0,Phases=2,Linecode=CABBTG05_4_2_2,Length=0.017000000,Units=km
new line.RBT_10095960 bus1=BBT49935993.1.0,bus2=RML1010095960.1.0,Phases=1,Linecode=CABBTG01_4_1_1,Length=0.029000000,Units=km
new line.RBT_10095961 bus1=BBT49937232.2.0,bus2=RML1010095961.2.0,Phases=1,Linecode=CABBTG01_4_1_1,Length=0.029000000,Units=km
new line.RBT_10006872 bus1=BBT131943562.1.2.0,bus2=RML1010006872.1.2.0,Phases=2,Linecode=CABBT807_4_2_2,Length=0.022000000,Units=km
new line.RBT_10014474 bus1=BBT2285594.1.2.3.0,bus2=RML1010014474.1.2.3.0,Phases=3,Linecode=CABBTG06_4_3_3,Length=0.029000000,Units=km
new line.RBT_10014544 bus1=BBT2660822.2.0,bus2=RML1010014544.2.0,Phases=1,Linecode=CABBTG01_4_1_1,Length=0.029000000,Units=km
new line.RBT_10014572 bus1=BBT49942174.1.0,bus2=RML1010014572.1.0,Phases=1,Linecode=CABBTG01_4_1_1,Length=0.029000000,Units=km
new line.RBT_10014663 bus1=BBT2149668.1.2.0,bus2=RML1010014663.1.2.0,Phases=2,Linecode=CABBTG05_4_2_2,Length=0.029000000,Units=km
new line.RBT_10014691 bus1=BBT2253940.1.0,bus2=RML1010014691.1.0,Phases=1,Linecode=CABBTG01_4_1_1,Length=0.029000000,Units=km
new line.RBT_10014866 bus1=BBT483486.3.0,bus2=RML1010014866.3.0,Phases=1,Linecode=CABBTG01_4_1_1,Length=0.029000000,Units=km
new line.RBT_10014873 bus1=BBT483878.3.0,bus2=RML1010014873.3.0,Phases=1,Linecode=CABBTG01_4_1_1,Length=0.029000000,Units=km
new line.RBT_10015006 bus1=BBT4320949.1.0,bus2=RML1010015006.1.0,Phases=1,Linecode=CABBTG01_4_1_1,Length=0.017000000,Units=km
new line.RBT_10015244 bus1=BBT4289029.1.2.0,bus2=RML1010015244.1.2.0,Phases=2,Linecode=CABBTG05_4_2_2,Length=0.029000000,Units=km
new line.RBT_10015349 bus1=BBT2391882.1.2.3.0,bus2=RML1010015349.1.2.3.0,Phases=3,Linecode=CABBTG06_4_3_3,Length=0.029000000,Units=km
new line.RBT_10015608 bus1=BBT49930862.2.0,bus2=RML1010015608.2.0,Phases=1,Linecode=CABBTG01_4_1_1,Length=0.029000000,Units=km
new line.RBT_10015874 bus1=BBT4320767.1.2.0,bus2=RML1010015874.1.2.0,Phases=2,Linecode=CABBTG05_4_2_2,Length=0.029000000,Units=km
new line.RBT_10016049 bus1=BBT126280338.1.2.3.0,bus2=RML1010016049.1.2.3.0,Phases=3,Linecode=CABBTG08_4_3_3,Length=0.015000000,Units=km
new line.RBT_10016196 bus1=BBT4321019.1.0,bus2=RML1010016196.1.0,Phases=1,Linecode=CABBTG01_4_1_1,Length=0.029000000,Units=km
new line.RBT_10016378 bus1=BBT3380275.1.2.0,bus2=RML1010016378.1.2.0,Phases=2,Linecode=CABBTG04_4_2_2,Length=0.029000000,Units=km
new line.RBT_10016427 bus1=BBT67069662.1.2.0,bus2=RML1010016427.1.2.0,Phases=2,Linecode=CABBTG05_4_2_2,Length=0.029000000,Units=km
new line.RBT_10016518 bus1=BBT45622866.1.2.0,bus2=RML1010016518.1.2.0,Phases=2,Linecode=CABBTG05_4_2_2,Length=0.017000000,Units=km
new line.RBT_10057800 bus1=BBT54141257.2.0,bus2=RML1010057800.2.0,Phases=1,Linecode=CABBTG01_4_1_1,Length=0.010000000,Units=km
new line.RBT_10086070 bus1=BBT3617127.1.2.0,bus2=RML1010086070.1.2.0,Phases=2,Linecode=CABBTG05_4_2_2,Length=0.029000000,Units=km
new line.RBT_10086100 bus1=BBT2052354.2.3.0,bus2=RML1010086100.2.3.0,Phases=2,Linecode=CABBTG05_4_2_2,Length=0.029000000,Units=km
new line.RBT_10086113 bus1=BBT3050575.3.0,bus2=RML1010086113.3.0,Phases=1,Linecode=CABBTG01_4_1_1,Length=0.029000000,Units=km
new line.RBT_10086124 bus1=BBT4320921.1.0,bus2=RML1010086124.1.0,Phases=1,Linecode=CABBTG02_4_1_1,Length=0.017000000,Units=km
new line.RBT_10086345 bus1=BBT95393503.2.3.0,bus2=RML1010086345.2.3.0,Phases=2,Linecode=CABBTG04_4_2_2,Length=0.029000000,Units=km
new line.RBT_10086430 bus1=BBT2810006.1.2.0,bus2=RML1010086430.1.2.0,Phases=2,Linecode=CABBTG05_4_2_2,Length=0.029000000,Units=km
new line.RBT_10086615 bus1=BBT126279414.1.0,bus2=RML1010086615.1.0,Phases=1,Linecode=CABBTG02_4_1_1,Length=0.029000000,Units=km
new line.RBT_10086626 bus1=BBT2485059.1.0,bus2=RML1010086626.1.0,Phases=1,Linecode=CABBTG02_4_1_1,Length=0.029000000,Units=km
new line.RBT_10086632 bus1=BBT3617127.2.0,bus2=RML1010086632.2.0,Phases=1,Linecode=CABBTG02_4_1_1,Length=0.029000000,Units=km
new line.RBT_10086646 bus1=BBT2660822.2.0,bus2=RML1010086646.2.0,Phases=1,Linecode=CABBTG01_4_1_1,Length=0.029000000,Units=km
new line.RBT_10086649 bus1=BBT2660822.2.0,bus2=RML1010086649.2.0,Phases=1,Linecode=CABBTG01_4_1_1,Length=0.029000000,Units=km
new line.RBT_10087363 bus1=BBT3877940.1.0,bus2=RML1010087363.1.0,Phases=1,Linecode=CABBTG02_4_1_1,Length=0.029000000,Units=km
new line.RBT_10087400 bus1=BBT126279911.2.3.0,bus2=RML1010087400.2.3.0,Phases=2,Linecode=CABBTG05_4_2_2,Length=0.029000000,Units=km
new line.RBT_10087411 bus1=BBT49943616.1.2.0,bus2=RML1010087411.1.2.0,Phases=2,Linecode=CABBTG05_4_2_2,Length=0.029000000,Units=km
new line.RBT_10087513 bus1=BBT3050589.2.0,bus2=RML1010087513.2.0,Phases=1,Linecode=CABBTG02_4_1_1,Length=0.029000000,Units=km
new line.RBT_10087517 bus1=BBT4320739.1.0,bus2=RML1010087517.1.0,Phases=1,Linecode=CABBTG02_4_1_1,Length=0.029000000,Units=km
new line.RBT_10087602 bus1=BBT154544185.1.2.0,bus2=RML1010087602.1.2.0,Phases=2,Linecode=CABBTG05_4_2_2,Length=0.020000000,Units=km
new line.RBT_10087611 bus1=BBT40678451.1.0,bus2=RML1010087611.1.0,Phases=1,Linecode=CABBTG01_4_1_1,Length=0.029000000,Units=km
new line.RBT_10017176 bus1=BBT484438.3.0,bus2=RML1010017176.3.0,Phases=1,Linecode=CABBTG01_4_1_1,Length=0.029000000,Units=km
new line.RBT_10017183 bus1=BBT104513390.2.0,bus2=RML1010017183.2.0,Phases=1,Linecode=CABBTG01_4_1_1,Length=0.029000000,Units=km
new line.RBT_10017197 bus1=BBT2809950.1.2.0,bus2=RML1010017197.1.2.0,Phases=2,Linecode=CABBTG05_4_2_2,Length=0.029000000,Units=km
new line.RBT_10017274 bus1=BBT4003394.2.0,bus2=RML1010017274.2.0,Phases=1,Linecode=CABBTG01_4_1_1,Length=0.029000000,Units=km
new line.RBT_10017323 bus1=BBT2809936.1.2.0,bus2=RML1010017323.1.2.0,Phases=2,Linecode=CABBTG05_4_2_2,Length=0.029000000,Units=km
new line.RBT_10018331 bus1=BBT40676176.1.0,bus2=RML1010018331.1.0,Phases=1,Linecode=CABBTG01_4_1_1,Length=0.029000000,Units=km
new line.RBT_10018807 bus1=BBT2790882.2.0,bus2=RML1010018807.2.0,Phases=1,Linecode=CABBTG01_4_1_1,Length=0.029000000,Units=km
new line.RBT_10018828 bus1=BBT483479.2.3.0,bus2=RML1010018828.2.3.0,Phases=2,Linecode=CABBTG05_4_2_2,Length=0.029000000,Units=km
new line.RBT_10018870 bus1=BBT67075360.2.0,bus2=RML1010018870.2.0,Phases=1,Linecode=CABBTG01_4_1_1,Length=0.029000000,Units=km
new line.RBT_10018947 bus1=BBT95393573.3.0,bus2=RML1010018947.3.0,Phases=1,Linecode=CABBTG01_4_1_1,Length=0.029000000,Units=km
new line.RBT_10019010 bus1=BBT4320459.1.0,bus2=RML1010019010.1.0,Phases=1,Linecode=CABBTG01_4_1_1,Length=0.029000000,Units=km
new line.RBT_10019157 bus1=BBT2253408.2.0,bus2=RML1010019157.2.0,Phases=1,Linecode=CABBTG01_4_1_1,Length=0.029000000,Units=km
new line.RBT_10019206 bus1=BBT67075472.1.2.0,bus2=RML1010019206.1.2.0,Phases=2,Linecode=CABBTG05_4_2_2,Length=0.029000000,Units=km
new line.RBT_10019248 bus1=BBT48169578.1.2.0,bus2=RML1010019248.1.2.0,Phases=2,Linecode=CABBTG05_4_2_2,Length=0.017000000,Units=km
new line.RBT_10021712 bus1=BBT3154749.2.0,bus2=RML1010021712.2.0,Phases=1,Linecode=CABBTG02_4_1_1,Length=0.017000000,Units=km
new line.RBT_10021719 bus1=BBT3154749.2.0,bus2=RML1010021719.2.0,Phases=1,Linecode=CABBTG02_4_1_1,Length=0.017000000,Units=km
new line.RBT_10021782 bus1=BBT4320767.1.2.0,bus2=RML1010021782.1.2.0,Phases=2,Linecode=CABBTG05_4_2_2,Length=0.029000000,Units=km
new line.RBT_10108080 bus1=BBT92484142.2.0,bus2=RML1010108080.2.0,Phases=1,Linecode=CABBTG01_4_1_1,Length=0.029000000,Units=km
new line.RBT_10108087 bus1=BBT92481041.3.0,bus2=RML1010108087.3.0,Phases=1,Linecode=CABBTG01_4_1_1,Length=0.029000000,Units=km
new line.RBT_10108093 bus1=BBT2794130.1.2.0,bus2=RML1010108093.1.2.0,Phases=2,Linecode=CABBTG05_4_2_2,Length=0.029000000,Units=km
new line.RBT_10108097 bus1=BBT2052312.2.3.0,bus2=RML1010108097.2.3.0,Phases=2,Linecode=CABBTG04_4_2_2,Length=0.029000000,Units=km
new line.RBT_10108101 bus1=BBT2052550.1.2.3.0,bus2=RML1010108101.1.2.3.0,Phases=3,Linecode=CABBTG06_4_3_3,Length=0.020000000,Units=km
new line.RBT_10108716 bus1=BBT126280261.3.0,bus2=RML1010108716.3.0,Phases=1,Linecode=CABBTG02_4_1_1,Length=0.007000000,Units=km
new line.RBT_10108783 bus1=BBT2809950.1.2.0,bus2=RML1010108783.1.2.0,Phases=2,Linecode=CABBTG05_4_2_2,Length=0.029000000,Units=km
new line.RBT_10108946 bus1=BBT126279547.1.0,bus2=RML1010108946.1.0,Phases=1,Linecode=CABBTG01_4_1_1,Length=0.015000000,Units=km
new line.RBT_10108962 bus1=BBT4320641.1.0,bus2=RML1010108962.1.0,Phases=1,Linecode=CABBTG02_4_1_1,Length=0.024000000,Units=km
new line.RBT_10108981 bus1=BBT2660822.2.0,bus2=RML1010108981.2.0,Phases=1,Linecode=CABBTG01_4_1_1,Length=0.022000000,Units=km
new line.RBT_10109110 bus1=BBT67070264.1.0,bus2=RML1010109110.1.0,Phases=1,Linecode=CABBTG01_4_1_1,Length=0.007000000,Units=km
new line.RBT_10109114 bus1=BBT67070264.1.0,bus2=RML1010109114.1.0,Phases=1,Linecode=CABBTG01_4_1_1,Length=0.012000000,Units=km
new line.RBT_10109119 bus1=BBT67070264.2.0,bus2=RML1010109119.2.0,Phases=1,Linecode=CABBTG01_4_1_1,Length=0.026000000,Units=km
new line.RBT_10109433 bus1=BBT483892.3.0,bus2=RML1010109433.3.0,Phases=1,Linecode=CABBTG02_4_1_1,Length=0.015000000,Units=km
new line.RBT_10109479 bus1=BBT148473060.2.0,bus2=RML1010109479.2.0,Phases=1,Linecode=CABBTG02_4_1_1,Length=0.017000000,Units=km
new line.RBT_10109546 bus1=BBT2809880.1.2.0,bus2=RML1010109546.1.2.0,Phases=2,Linecode=CABBTG05_4_2_2,Length=0.006000000,Units=km
new line.RBT_10109557 bus1=BBT4360898.1.0,bus2=RML1010109557.1.0,Phases=1,Linecode=CABBTG02_4_1_1,Length=0.014000000,Units=km
new line.RBT_10109604 bus1=BBT49937197.1.2.0,bus2=RML1010109604.1.2.0,Phases=2,Linecode=CABBTG05_4_2_2,Length=0.022000000,Units=km
new line.RBT_10109679 bus1=BBT3616721.1.0,bus2=RML1010109679.1.0,Phases=1,Linecode=CABBTG02_4_1_1,Length=0.013000000,Units=km
new line.RBT_10109693 bus1=BBT2810146.1.2.0,bus2=RML1010109693.1.2.0,Phases=2,Linecode=CABBTG05_4_2_2,Length=0.014000000,Units=km
new line.RBT_10095962 bus1=BBT49943623.1.0,bus2=RML1010095962.1.0,Phases=1,Linecode=CABBTG01_4_1_1,Length=0.010000000,Units=km
new line.RBT_10095964 bus1=BBT4321166.2.0,bus2=RML1010095964.2.0,Phases=1,Linecode=CABBTG01_4_1_1,Length=0.029000000,Units=km
new line.RBT_10095966 bus1=BBT54141404.1.0,bus2=RML1010095966.1.0,Phases=1,Linecode=CABBTG01_4_1_1,Length=0.029000000,Units=km
new line.RBT_10095968 bus1=BBT54141257.2.0,bus2=RML1010095968.2.0,Phases=1,Linecode=CABBTG01_4_1_1,Length=0.029000000,Units=km
new line.RBT_10095970 bus1=BBT4320795.1.0,bus2=RML1010095970.1.0,Phases=1,Linecode=CABBTG01_4_1_1,Length=0.029000000,Units=km
new line.RBT_10095984 bus1=BBT54141138.1.0,bus2=RML1010095984.1.0,Phases=1,Linecode=CABBTG01_4_1_1,Length=0.029000000,Units=km
new line.RBT_10095989 bus1=BBT54133333.1.0,bus2=RML1010095989.1.0,Phases=1,Linecode=CABBTG01_4_1_1,Length=0.029000000,Units=km
new line.RBT_10095994 bus1=BBT2176639.2.0,bus2=RML1010095994.2.0,Phases=1,Linecode=CABBTG01_4_1_1,Length=0.017000000,Units=km
new line.RBT_10095996 bus1=BBT49934705.1.0,bus2=RML1010095996.1.0,Phases=1,Linecode=CABBTG01_4_1_1,Length=0.029000000,Units=km
new line.RBT_10096001 bus1=BBT54084844.1.0,bus2=RML1010096001.1.0,Phases=1,Linecode=CABBTG01_4_1_1,Length=0.029000000,Units=km
new line.RBT_10096002 bus1=BBT4320683.1.0,bus2=RML1010096002.1.0,Phases=1,Linecode=CABBTG01_4_1_1,Length=0.029000000,Units=km
new line.RBT_10096004 bus1=BBT4320816.1.0,bus2=RML1010096004.1.0,Phases=1,Linecode=CABBTG01_4_1_1,Length=0.029000000,Units=km
new line.RBT_10096008 bus1=BBT45596336.1.2.0,bus2=RML1010096008.1.2.0,Phases=2,Linecode=CABBTG05_4_2_2,Length=0.019000000,Units=km
new line.RBT_10096009 bus1=BBT4320480.1.0,bus2=RML1010096009.1.0,Phases=1,Linecode=CABBTG01_4_1_1,Length=0.017000000,Units=km
new line.RBT_10096010 bus1=BBT49937253.1.0,bus2=RML1010096010.1.0,Phases=1,Linecode=CABBTG01_4_1_1,Length=0.022000000,Units=km
new line.RBT_10096013 bus1=BBT4320753.2.0,bus2=RML1010096013.2.0,Phases=1,Linecode=CABBTG01_4_1_1,Length=0.029000000,Units=km
new line.RBT_10096015 bus1=BBT49942524.1.0,bus2=RML1010096015.1.0,Phases=1,Linecode=CABBTG01_4_1_1,Length=0.014000000,Units=km
new line.RBT_10096024 bus1=BBT49925563.2.0,bus2=RML1010096024.2.0,Phases=1,Linecode=CABBTG02_4_1_1,Length=0.015000000,Units=km
new line.RBT_10096028 bus1=BBT4320676.1.2.0,bus2=RML1010096028.1.2.0,Phases=2,Linecode=CABBTG05_4_2_2,Length=0.014000000,Units=km
new line.RBT_10096030 bus1=BBT49943546.1.0,bus2=RML1010096030.1.0,Phases=1,Linecode=CABBTG01_4_1_1,Length=0.029000000,Units=km
new line.RBT_10096031 bus1=BBT54133326.1.0,bus2=RML1010096031.1.0,Phases=1,Linecode=CABBTG01_4_1_1,Length=0.029000000,Units=km
new line.RBT_10096032 bus1=BBT49935720.1.0,bus2=RML1010096032.1.0,Phases=1,Linecode=CABBTG01_4_1_1,Length=0.029000000,Units=km
new line.RBT_10096034 bus1=BBT54084844.2.0,bus2=RML1010096034.2.0,Phases=1,Linecode=CABBTG01_4_1_1,Length=0.029000000,Units=km
new line.RBT_10096036 bus1=BBT4320704.1.0,bus2=RML1010096036.1.0,Phases=1,Linecode=CABBTG02_4_1_1,Length=0.014000000,Units=km
new line.RBT_10124858 bus1=BBT3379988.1.2.0,bus2=RML1010124858.1.2.0,Phases=2,Linecode=CABBTG04_4_2_2,Length=0.029000000,Units=km
new line.RBT_10125053 bus1=BBT3075152.1.2.0,bus2=RML1010125053.1.2.0,Phases=2,Linecode=CABBTG05_4_2_2,Length=0.029000000,Units=km
new line.RBT_10126218 bus1=BBT2253268.1.0,bus2=RML1010126218.1.0,Phases=1,Linecode=CABBTG01_4_1_1,Length=0.029000000,Units=km
new line.RBT_10126362 bus1=BBT2285706.2.3.0,bus2=RML1010126362.2.3.0,Phases=2,Linecode=CABBTG05_4_2_2,Length=0.020000000,Units=km
new line.RBT_10126799 bus1=BBT297076.1.2.3.0,bus2=RML1010126799.1.2.3.0,Phases=3,Linecode=CABBTG08_4_3_3,Length=0.029000000,Units=km
new line.RBT_10148689 bus1=BBT2809901.1.2.0,bus2=RML1010148689.1.2.0,Phases=2,Linecode=CABBTG05_4_2_2,Length=0.029000000,Units=km
new line.RBT_10148699 bus1=BBT2810118.1.2.0,bus2=RML1010148699.1.2.0,Phases=2,Linecode=CABBTG05_4_2_2,Length=0.029000000,Units=km
new line.RBT_10148702 bus1=BBT2810118.1.2.0,bus2=RML1010148702.1.2.0,Phases=2,Linecode=CABBTG05_4_2_2,Length=0.029000000,Units=km
new line.RBT_10148705 bus1=BBT2810118.1.2.0,bus2=RML1010148705.1.2.0,Phases=2,Linecode=CABBTG05_4_2_2,Length=0.029000000,Units=km
new line.RBT_10148714 bus1=BBT68867178.1.2.0,bus2=RML1010148714.1.2.0,Phases=2,Linecode=CABBTG04_4_2_2,Length=0.029000000,Units=km
new line.RBT_10148715 bus1=BBT2810118.2.0,bus2=RML1010148715.2.0,Phases=1,Linecode=CABBTG01_4_1_1,Length=0.029000000,Units=km
new line.RBT_10148720 bus1=BBT2285776.1.2.0,bus2=RML1010148720.1.2.0,Phases=2,Linecode=CABBTG05_4_2_2,Length=0.029000000,Units=km
new line.RBT_10148722 bus1=BBT2889645.1.0,bus2=RML1010148722.1.0,Phases=1,Linecode=CABBTG01_4_1_1,Length=0.029000000,Units=km
new line.RBT_10043121 bus1=BBT131917088.3.0,bus2=RML1010043121.3.0,Phases=1,Linecode=CABBTG02_4_1_1,Length=0.029000000,Units=km
new line.RBT_10109970 bus1=BBT483885.1.0,bus2=RML1010109970.1.0,Phases=1,Linecode=CABBTG02_4_1_1,Length=0.011000000,Units=km
new line.RBT_10110024 bus1=BBT92481104.1.0,bus2=RML1010110024.1.0,Phases=1,Linecode=CABBTG01_4_1_1,Length=0.029000000,Units=km
new line.RBT_10110025 bus1=BBT126279547.1.0,bus2=RML1010110025.1.0,Phases=1,Linecode=CABBTG01_4_1_1,Length=0.010000000,Units=km
new line.RBT_10110038 bus1=BBT3155057.1.2.0,bus2=RML1010110038.1.2.0,Phases=2,Linecode=CABBTG05_4_2_2,Length=0.014000000,Units=km
new line.RBT_10110074 bus1=BBT2660843.1.0,bus2=RML1010110074.1.0,Phases=1,Linecode=CABBTG02_4_1_1,Length=0.014000000,Units=km
new line.RBT_10110085 bus1=BBT4360898.1.0,bus2=RML1010110085.1.0,Phases=1,Linecode=CABBTG01_4_1_1,Length=0.006000000,Units=km
new line.RBT_10110601 bus1=BBT134606684.1.0,bus2=RML1010110601.1.0,Phases=1,Linecode=CABBTG02_4_1_1,Length=0.015000000,Units=km
new line.RBT_10110643 bus1=BBT54141775.1.0,bus2=RML1010110643.1.0,Phases=1,Linecode=CABBTG02_4_1_1,Length=0.020000000,Units=km
new line.RBT_10110655 bus1=BBT2660815.3.0,bus2=RML1010110655.3.0,Phases=1,Linecode=CABBTG02_4_1_1,Length=0.013000000,Units=km
new line.RBT_10110661 bus1=BBT126279547.3.0,bus2=RML1010110661.3.0,Phases=1,Linecode=CABBTG01_4_1_1,Length=0.015000000,Units=km
new line.RBT_10110742 bus1=BBT2253695.1.2.0,bus2=RML1010110742.1.2.0,Phases=2,Linecode=CABBTG05_4_2_2,Length=0.009000000,Units=km