! manter este comentario para compatibilidade do C#
new circuit.alimNVSU22 bus1=BMT165371397,basekv=13.800000000,pu=1.040000000,r1=0,x1=0.0001

