! manter este comentario para compatibilidade do C#
new circuit.alimUHQM06 bus1=BMT126195234.1.2.3,basekv=34.500000000,pu=1.040000000

