new transformer.1036468 Phases=1,Windings=3,Buses=[BMT126197103.1 BBT102460439.1.0 BBT102460439.0.2],Conns=[wye wye wye],kvs=[19.92 0.12 0.12],kvas=[10.000000000 10.000000000 10.000000000],Taps=[1,1.000000000,1.000000000],%loadloss=0.000000000,%noloadloss=0.550000000
new transformer.1036510 Phases=3,Windings=2,Buses=[BMT126197110.1.2.3 BBT102516313.1.2.3.0],Conns=[delta wye],kvs=[34.5 0.22],kvas=[75.000000000 75.000000000],Taps=[1,1.000000000],%loadloss=1.533000000,%noloadloss=0.373333000
new transformer.1048585 Phases=1,Windings=3,Buses=[BMT166616031.1 BBT114189247.1.0 BBT114189247.0.2],Conns=[wye wye wye],kvs=[19.92 0.12 0.12],kvas=[15.000000000 15.000000000 15.000000000],Taps=[1,1.000000000,1.000000000],%loadloss=0.000000000,%noloadloss=0.500000000
new transformer.1092230 Phases=1,Windings=3,Buses=[BMT167381714.1 BBT139611847.1.0 BBT139611847.0.2],Conns=[wye wye wye],kvs=[19.92 0.12 0.12],kvas=[5.000000000 5.000000000 5.000000000],Taps=[1,1.000000000,1.000000000],%loadloss=1.900000000,%noloadloss=0.600000000
new transformer.1096311 Phases=1,Windings=3,Buses=[BMT161072023.1 BBT140548440.1.0 BBT140548440.0.2],Conns=[wye wye wye],kvs=[19.92 0.12 0.12],kvas=[35.000000000 35.000000000 35.000000000],Taps=[1,1.000000000,1.000000000],%loadloss=0.000000000,%noloadloss=0.385714000
new transformer.1099419 Phases=1,Windings=3,Buses=[BMT141411848.1 BBT141265569.1.0 BBT141265569.0.2],Conns=[wye wye wye],kvs=[19.92 0.12 0.12],kvas=[15.000000000 15.000000000 15.000000000],Taps=[1,1.000000000,1.000000000],%loadloss=0.000000000,%noloadloss=0.500000000
new transformer.1099965 Phases=1,Windings=3,Buses=[BMT141411841.1 BBT141411855.1.0 BBT141411855.0.2],Conns=[wye wye wye],kvs=[19.92 0.12 0.12],kvas=[10.000000000 10.000000000 10.000000000],Taps=[1,1.000000000,1.000000000],%loadloss=0.000000000,%noloadloss=0.550000000
new transformer.1404872 Phases=3,Windings=2,Buses=[BMT171089236.1.2.3 BBT151615565.1.2.3.0],Conns=[delta wye],kvs=[13.8 0.22],kvas=[75.000000000 75.000000000],Taps=[1,1.000000000],%loadloss=1.340000000,%noloadloss=0.340000000
new transformer.1410908 Phases=1,Windings=3,Buses=[BMT161215758.1 BBT153043214.1.0 BBT153043214.0.2],Conns=[wye wye wye],kvs=[19.92 0.12 0.12],kvas=[10.000000000 10.000000000 10.000000000],Taps=[1,1.000000000,1.000000000],%loadloss=0.000000000,%noloadloss=0.550000000
new transformer.1438549 Phases=3,Windings=2,Buses=[BMT167012598.1.2.3 BBT158856683.1.2.3.0],Conns=[delta wye],kvs=[34.5 0.22],kvas=[30.000000000 30.000000000],Taps=[1,1.000000000],%loadloss=1.850000000,%noloadloss=0.483333000
new transformer.1438557 Phases=3,Windings=2,Buses=[BMT162226502.1.2.3 BBT158858734.1.2.3.0],Conns=[delta wye],kvs=[34.5 0.22],kvas=[30.000000000 30.000000000],Taps=[1,1.000000000],%loadloss=1.850000000,%noloadloss=0.483333000
new transformer.1451952 Phases=1,Windings=3,Buses=[BMT170839793.3 BBT162167761.1.0 BBT162167761.0.2],Conns=[wye wye wye],kvs=[19.92 0.12 0.12],kvas=[10.000000000 10.000000000 10.000000000],Taps=[1,1.000000000,1.000000000],%loadloss=0.000000000,%noloadloss=0.550000000
new transformer.1451955 Phases=1,Windings=3,Buses=[BMT170839791.3 BBT162168386.1.0 BBT162168386.0.2],Conns=[wye wye wye],kvs=[19.92 0.12 0.12],kvas=[10.000000000 10.000000000 10.000000000],Taps=[1,1.000000000,1.000000000],%loadloss=0.000000000,%noloadloss=0.550000000
new transformer.1451958 Phases=1,Windings=3,Buses=[BMT170839789.3 BBT162169113.1.0 BBT162169113.0.2],Conns=[wye wye wye],kvs=[19.92 0.12 0.12],kvas=[10.000000000 10.000000000 10.000000000],Taps=[1,1.000000000,1.000000000],%loadloss=0.000000000,%noloadloss=0.550000000
new transformer.1451963 Phases=1,Windings=3,Buses=[BMT170821954.3 BBT162170461.1.0 BBT162170461.0.2],Conns=[wye wye wye],kvs=[19.92 0.12 0.12],kvas=[10.000000000 10.000000000 10.000000000],Taps=[1,1.000000000,1.000000000],%loadloss=0.000000000,%noloadloss=0.550000000
new transformer.1451975 Phases=1,Windings=3,Buses=[BMT170821959.3 BBT162172892.1.0 BBT162172892.0.2],Conns=[wye wye wye],kvs=[19.92 0.12 0.12],kvas=[10.000000000 10.000000000 10.000000000],Taps=[1,1.000000000,1.000000000],%loadloss=0.000000000,%noloadloss=0.550000000
new transformer.1451978 Phases=1,Windings=3,Buses=[BMT170821957.3 BBT162173886.1.0 BBT162173886.0.2],Conns=[wye wye wye],kvs=[19.92 0.12 0.12],kvas=[10.000000000 10.000000000 10.000000000],Taps=[1,1.000000000,1.000000000],%loadloss=0.000000000,%noloadloss=0.550000000
new transformer.1452013 Phases=1,Windings=3,Buses=[BMT170821960.3 BBT162195119.1.0 BBT162195119.0.2],Conns=[wye wye wye],kvs=[19.92 0.12 0.12],kvas=[10.000000000 10.000000000 10.000000000],Taps=[1,1.000000000,1.000000000],%loadloss=0.000000000,%noloadloss=0.550000000
new transformer.1452017 Phases=1,Windings=3,Buses=[BMT170821961.3 BBT162196230.1.0 BBT162196230.0.2],Conns=[wye wye wye],kvs=[19.92 0.12 0.12],kvas=[10.000000000 10.000000000 10.000000000],Taps=[1,1.000000000,1.000000000],%loadloss=0.000000000,%noloadloss=0.550000000
new transformer.1488028 Phases=1,Windings=3,Buses=[BMT169659162.1 BBT169530897.1.0 BBT169530897.0.2],Conns=[wye wye wye],kvs=[19.92 0.12 0.12],kvas=[10.000000000 10.000000000 10.000000000],Taps=[1,1.000000000,1.000000000],%loadloss=1.800000000,%noloadloss=0.450000000
new transformer.1488029 Phases=1,Windings=3,Buses=[BMT169659163.1 BBT169530903.1.0 BBT169530903.0.2],Conns=[wye wye wye],kvs=[19.92 0.12 0.12],kvas=[10.000000000 10.000000000 10.000000000],Taps=[1,1.000000000,1.000000000],%loadloss=1.800000000,%noloadloss=0.450000000
new transformer.1491003 Phases=1,Windings=3,Buses=[BMT170860858.1 BBT170132909.1.0 BBT170132909.0.2],Conns=[wye wye wye],kvs=[19.92 0.12 0.12],kvas=[10.000000000 10.000000000 10.000000000],Taps=[1,1.000000000,1.000000000],%loadloss=0.000000000,%noloadloss=0.550000000
new transformer.266013 Phases=3,Windings=2,Buses=[BMT163350940.1.2.3 BBT1095317.1.2.3.0],Conns=[delta wye],kvs=[34.5 0.22],kvas=[45.000000000 45.000000000],Taps=[1,1.000000000],%loadloss=1.522000000,%noloadloss=0.377777000
new transformer.268547 Phases=3,Windings=2,Buses=[BMT126196844.1.2.3 BBT1106531.1.2.3.0],Conns=[delta wye],kvs=[34.5 0.22],kvas=[75.000000000 75.000000000],Taps=[1,1.000000000],%loadloss=1.340000000,%noloadloss=0.340000000
new transformer.268652 Phases=3,Windings=2,Buses=[BMT126196858.1.2.3 BBT1107084.1.2.3.0],Conns=[delta wye],kvs=[34.5 0.22],kvas=[15.000000000 15.000000000],Taps=[1,1.000000000],%loadloss=1.967000000,%noloadloss=0.500000000
new transformer.268764 Phases=3,Windings=2,Buses=[BMT126196886.1.2.3 BBT1107665.1.2.3.0],Conns=[delta wye],kvs=[34.5 0.22],kvas=[75.000000000 75.000000000],Taps=[1,1.000000000],%loadloss=1.340000000,%noloadloss=0.340000000
new transformer.1402654 Phases=1,Windings=3,Buses=[BMT170584303.2 BBT151085878.1.0 BBT151085878.0.2],Conns=[wye wye wye],kvs=[19.92 0.12 0.12],kvas=[10.000000000 10.000000000 10.000000000],Taps=[1,1.000000000,1.000000000],%loadloss=0.000000000,%noloadloss=0.550000000
new transformer.1402808 Phases=1,Windings=3,Buses=[BMT151119033.1 BBT151119034.1.0 BBT151119034.0.2],Conns=[wye wye wye],kvs=[19.92 0.12 0.12],kvas=[10.000000000 10.000000000 10.000000000],Taps=[1,1.000000000,1.000000000],%loadloss=0.000000000,%noloadloss=0.550000000
new transformer.1402812 Phases=1,Windings=3,Buses=[BMT171090485.2 BBT151119793.1.0 BBT151119793.0.2],Conns=[wye wye wye],kvs=[19.92 0.12 0.12],kvas=[10.000000000 10.000000000 10.000000000],Taps=[1,1.000000000,1.000000000],%loadloss=0.000000000,%noloadloss=0.550000000
new transformer.1402877 Phases=3,Windings=2,Buses=[BMT171090554.1.2.3 BBT151133333.1.2.3.0],Conns=[delta wye],kvs=[34.5 0.22],kvas=[75.000000000 75.000000000],Taps=[1,1.000000000],%loadloss=1.533000000,%noloadloss=0.373333000
new transformer.141866-3-1670_1 Phases=1,Windings=2,Buses=[BMT172234707.1.2 BMT126197166.1.0],Conns=[delta wye],kvs=[34.5 7.970000000],kvas=[1670.000000000 1670.000000000],Taps=[1,1.000000000],%loadloss=0.607784431,%noloadloss=0.104790419
new transformer.141866-3-1670_2 Phases=1,Windings=2,Buses=[BMT172234707.2.3 BMT126197166.2.0],Conns=[delta wye],kvs=[34.5 7.970000000],kvas=[1670.000000000 1670.000000000],Taps=[1,1.000000000],%loadloss=0.607784431,%noloadloss=0.104790419
new transformer.141866-3-1670_3 Phases=1,Windings=2,Buses=[BMT172234707.1.3 BMT126197166.3.0],Conns=[delta wye],kvs=[34.5 7.970000000],kvas=[1670.000000000 1670.000000000],Taps=[1,1.000000000],%loadloss=0.607784431,%noloadloss=0.104790419
new transformer.141869-3-1670_1 Phases=1,Windings=2,Buses=[BMT126196543.1.2 BMT126196550.1.0],Conns=[delta wye],kvs=[34.5 7.970000000],kvas=[1670.000000000 1670.000000000],Taps=[1,1.000000000],%loadloss=0.607784431,%noloadloss=0.104790419
new transformer.141869-3-1670_2 Phases=1,Windings=2,Buses=[BMT126196543.2.3 BMT126196550.2.0],Conns=[delta wye],kvs=[34.5 7.970000000],kvas=[1670.000000000 1670.000000000],Taps=[1,1.000000000],%loadloss=0.607784431,%noloadloss=0.104790419
new transformer.141869-3-1670_3 Phases=1,Windings=2,Buses=[BMT126196543.1.3 BMT126196550.3.0],Conns=[delta wye],kvs=[34.5 7.970000000],kvas=[1670.000000000 1670.000000000],Taps=[1,1.000000000],%loadloss=0.607784431,%noloadloss=0.104790419
new transformer.1436169 Phases=1,Windings=3,Buses=[BMT172163194.1 BBT158399741.1.0 BBT158399741.0.2],Conns=[wye wye wye],kvs=[19.92 0.12 0.12],kvas=[10.000000000 10.000000000 10.000000000],Taps=[1,1.000000000,1.000000000],%loadloss=0.000000000,%noloadloss=0.550000000
new transformer.1436375 Phases=1,Windings=3,Buses=[BMT167012596.3 BBT158428571.1.0 BBT158428571.0.2],Conns=[wye wye wye],kvs=[19.92 0.12 0.12],kvas=[10.000000000 10.000000000 10.000000000],Taps=[1,1.000000000,1.000000000],%loadloss=0.000000000,%noloadloss=0.550000000
new transformer.1436404 Phases=3,Windings=2,Buses=[BMT167012591.1.2.3 BBT158432132.1.2.3.0],Conns=[delta wye],kvs=[34.5 0.22],kvas=[30.000000000 30.000000000],Taps=[1,1.000000000],%loadloss=1.850000000,%noloadloss=0.483333000
new transformer.1436414 Phases=1,Windings=3,Buses=[BMT168408865.1 BBT158433291.1.0 BBT158433291.0.2],Conns=[wye wye wye],kvs=[19.92 0.12 0.12],kvas=[15.000000000 15.000000000 15.000000000],Taps=[1,1.000000000,1.000000000],%loadloss=0.000000000,%noloadloss=0.500000000
new transformer.1436416 Phases=3,Windings=2,Buses=[BMT168409438.1.2.3 BBT158433439.1.2.3.0],Conns=[delta wye],kvs=[34.5 0.22],kvas=[30.000000000 30.000000000],Taps=[1,1.000000000],%loadloss=1.850000000,%noloadloss=0.483333000
new transformer.1436419 Phases=1,Windings=3,Buses=[BMT168409442.1 BBT158433758.1.0 BBT158433758.0.2],Conns=[wye wye wye],kvs=[19.92 0.12 0.12],kvas=[35.000000000 35.000000000 35.000000000],Taps=[1,1.000000000,1.000000000],%loadloss=0.000000000,%noloadloss=0.385714000
new transformer.1436433 Phases=1,Windings=3,Buses=[BMT162226497.2 BBT158435861.1.0 BBT158435861.0.2],Conns=[wye wye wye],kvs=[19.92 0.12 0.12],kvas=[10.000000000 10.000000000 10.000000000],Taps=[1,1.000000000,1.000000000],%loadloss=0.000000000,%noloadloss=0.550000000
new transformer.1449758 Phases=3,Windings=2,Buses=[BMT171089240.1.2.3 BBT161592245.1.2.3.0],Conns=[delta wye],kvs=[13.8 0.22],kvas=[30.000000000 30.000000000],Taps=[1,1.000000000],%loadloss=1.667000000,%noloadloss=0.433333000
new transformer.1466168 Phases=1,Windings=3,Buses=[BMT167102418.2 BBT165641083.1.0 BBT165641083.0.2],Conns=[wye wye wye],kvs=[19.92 0.12 0.12],kvas=[10.000000000 10.000000000 10.000000000],Taps=[1,1.000000000,1.000000000],%loadloss=0.000000000,%noloadloss=0.550000000
new transformer.1466183 Phases=1,Windings=3,Buses=[BMT167102420.2 BBT165642634.1.0 BBT165642634.0.2],Conns=[wye wye wye],kvs=[19.92 0.12 0.12],kvas=[10.000000000 10.000000000 10.000000000],Taps=[1,1.000000000,1.000000000],%loadloss=0.000000000,%noloadloss=0.550000000
new transformer.1466384 Phases=1,Windings=3,Buses=[BMT166608868.1 BBT165716958.1.0 BBT165716958.0.2],Conns=[wye wye wye],kvs=[19.92 0.12 0.12],kvas=[10.000000000 10.000000000 10.000000000],Taps=[1,1.000000000,1.000000000],%loadloss=0.000000000,%noloadloss=0.550000000
new transformer.1475511 Phases=1,Windings=3,Buses=[BMT169530870.1 BBT167326330.1.0 BBT167326330.0.2],Conns=[wye wye wye],kvs=[19.92 0.12 0.12],kvas=[10.000000000 10.000000000 10.000000000],Taps=[1,1.000000000,1.000000000],%loadloss=1.800000000,%noloadloss=0.450000000
new transformer.1495508 Phases=3,Windings=2,Buses=[BMT171091415.1.2.3 BBT171091364.1.2.3.0],Conns=[delta wye],kvs=[13.8 0.22],kvas=[75.000000000 75.000000000],Taps=[1,1.000000000],%loadloss=1.340000000,%noloadloss=0.340000000
new transformer.235031 Phases=3,Windings=2,Buses=[BMT126536141.1.2.3 BBT944355.1.2.3.0],Conns=[delta wye],kvs=[13.8 0.22],kvas=[30.000000000 30.000000000],Taps=[1,1.000000000],%loadloss=1.667000000,%noloadloss=0.433333000
new transformer.235066 Phases=3,Windings=2,Buses=[BMT126536162.1.2.3 BBT944425.1.2.3.0],Conns=[delta wye],kvs=[13.8 0.22],kvas=[45.000000000 45.000000000],Taps=[1,1.000000000],%loadloss=1.522000000,%noloadloss=0.377777000
new transformer.269177 Phases=3,Windings=2,Buses=[BMT151652697.1.2.3 BBT1109569.1.2.3.0],Conns=[delta wye],kvs=[34.5 0.22],kvas=[75.000000000 75.000000000],Taps=[1,1.000000000],%loadloss=1.340000000,%noloadloss=0.340000000
new transformer.1391570 Phases=1,Windings=3,Buses=[BMT161218273.3 BBT148421661.1.0 BBT148421661.0.2],Conns=[wye wye wye],kvs=[19.92 0.12 0.12],kvas=[15.000000000 15.000000000 15.000000000],Taps=[1,1.000000000,1.000000000],%loadloss=0.000000000,%noloadloss=0.500000000
new transformer.1392035 Phases=3,Windings=2,Buses=[BMT171090481.1.2.3 BBT148529243.1.2.3.0],Conns=[delta wye],kvs=[34.5 0.22],kvas=[75.000000000 75.000000000],Taps=[1,1.000000000],%loadloss=1.533000000,%noloadloss=0.373333000
new transformer.1403683 Phases=3,Windings=2,Buses=[BMT156631899.1.2.3 BBT151345350.1.2.3.0],Conns=[delta wye],kvs=[34.5 0.22],kvas=[45.000000000 45.000000000],Taps=[1,1.000000000],%loadloss=1.711000000,%noloadloss=0.444444000
new transformer.1403937 Phases=1,Windings=3,Buses=[BMT171090555.1 BBT151393763.1.0 BBT151393763.0.2],Conns=[wye wye wye],kvs=[19.92 0.12 0.12],kvas=[15.000000000 15.000000000 15.000000000],Taps=[1,1.000000000,1.000000000],%loadloss=0.000000000,%noloadloss=0.500000000
new transformer.1406504 Phases=1,Windings=3,Buses=[BMT170584606.1 BBT151990768.1.0 BBT151990768.0.2],Conns=[wye wye wye],kvs=[19.92 0.12 0.12],kvas=[10.000000000 10.000000000 10.000000000],Taps=[1,1.000000000,1.000000000],%loadloss=0.000000000,%noloadloss=0.550000000
new transformer.1437186 Phases=1,Windings=3,Buses=[BMT169909413.2 BBT158587471.1.0 BBT158587471.0.2],Conns=[wye wye wye],kvs=[7.967 0.12 0.12],kvas=[10.000000000 10.000000000 10.000000000],Taps=[1,1.000000000,1.000000000],%loadloss=1.800000000,%noloadloss=0.450000000
new transformer.1437190 Phases=1,Windings=3,Buses=[BMT158589253.2 BBT158588165.1.0 BBT158588165.0.2],Conns=[wye wye wye],kvs=[7.967 0.12 0.12],kvas=[10.000000000 10.000000000 10.000000000],Taps=[1,1.000000000,1.000000000],%loadloss=1.800000000,%noloadloss=0.450000000
new transformer.1437194 Phases=1,Windings=3,Buses=[BMT170072160.2 BBT158588853.1.0 BBT158588853.0.2],Conns=[wye wye wye],kvs=[7.967 0.12 0.12],kvas=[15.000000000 15.000000000 15.000000000],Taps=[1,1.000000000,1.000000000],%loadloss=1.600000000,%noloadloss=0.400000000
new transformer.1437196 Phases=1,Windings=3,Buses=[BMT169909414.2 BBT158589146.1.0 BBT158589146.0.2],Conns=[wye wye wye],kvs=[7.967 0.12 0.12],kvas=[10.000000000 10.000000000 10.000000000],Taps=[1,1.000000000,1.000000000],%loadloss=1.800000000,%noloadloss=0.450000000
new transformer.1437198 Phases=1,Windings=3,Buses=[BMT170072158.2 BBT158589795.1.0 BBT158589795.0.2],Conns=[wye wye wye],kvs=[7.967 0.12 0.12],kvas=[10.000000000 10.000000000 10.000000000],Taps=[1,1.000000000,1.000000000],%loadloss=1.800000000,%noloadloss=0.450000000
new transformer.1449314 Phases=3,Windings=2,Buses=[BMT171089238.1.2.3 BBT161476808.1.2.3.0],Conns=[delta wye],kvs=[13.8 0.22],kvas=[30.000000000 30.000000000],Taps=[1,1.000000000],%loadloss=1.667000000,%noloadloss=0.433333000
new transformer.1451945 Phases=1,Windings=3,Buses=[BMT170839792.3 BBT162166045.1.0 BBT162166045.0.2],Conns=[wye wye wye],kvs=[19.92 0.12 0.12],kvas=[10.000000000 10.000000000 10.000000000],Taps=[1,1.000000000,1.000000000],%loadloss=0.000000000,%noloadloss=0.550000000
new transformer.1464528 Phases=1,Windings=3,Buses=[BMT165303985.1 BBT165229769.1.0 BBT165229769.0.2],Conns=[wye wye wye],kvs=[19.92 0.12 0.12],kvas=[15.000000000 15.000000000 15.000000000],Taps=[1,1.000000000,1.000000000],%loadloss=0.000000000,%noloadloss=0.500000000
new transformer.1464569 Phases=3,Windings=2,Buses=[BMT165303765.1.2.3 BBT165238554.1.2.3.0],Conns=[delta wye],kvs=[34.5 0.22],kvas=[30.000000000 30.000000000],Taps=[1,1.000000000],%loadloss=1.850000000,%noloadloss=0.483333000
new transformer.1477710 Phases=1,Windings=3,Buses=[BMT167740625.2 BBT167739736.1.0 BBT167739736.0.2],Conns=[wye wye wye],kvs=[7.967 0.12 0.12],kvas=[10.000000000 10.000000000 10.000000000],Taps=[1,1.000000000,1.000000000],%loadloss=1.800000000,%noloadloss=0.450000000
new transformer.1484237 Phases=1,Windings=3,Buses=[BMT169426326.1 BBT168900940.1.0 BBT168900940.0.2],Conns=[wye wye wye],kvs=[19.92 0.12 0.12],kvas=[10.000000000 10.000000000 10.000000000],Taps=[1,1.000000000,1.000000000],%loadloss=0.000000000,%noloadloss=0.550000000
new transformer.1484273 Phases=1,Windings=3,Buses=[BMT169426327.1 BBT168907139.1.0 BBT168907139.0.2],Conns=[wye wye wye],kvs=[19.92 0.12 0.12],kvas=[10.000000000 10.000000000 10.000000000],Taps=[1,1.000000000,1.000000000],%loadloss=0.000000000,%noloadloss=0.550000000
new transformer.1489512 Phases=1,Windings=3,Buses=[BMT169923178.2 BBT169825766.1.0 BBT169825766.0.2],Conns=[wye wye wye],kvs=[7.967 0.12 0.12],kvas=[10.000000000 10.000000000 10.000000000],Taps=[1,1.000000000,1.000000000],%loadloss=1.800000000,%noloadloss=0.450000000
new transformer.1489895 Phases=1,Windings=3,Buses=[BMT169909412.2 BBT169909372.1.0 BBT169909372.0.2],Conns=[wye wye wye],kvs=[7.967 0.12 0.12],kvas=[10.000000000 10.000000000 10.000000000],Taps=[1,1.000000000,1.000000000],%loadloss=1.800000000,%noloadloss=0.450000000
new transformer.1491519 Phases=1,Windings=3,Buses=[BMT170821953.3 BBT170235751.1.0 BBT170235751.0.2],Conns=[wye wye wye],kvs=[19.92 0.12 0.12],kvas=[10.000000000 10.000000000 10.000000000],Taps=[1,1.000000000,1.000000000],%loadloss=0.000000000,%noloadloss=0.550000000
new transformer.1491533 Phases=1,Windings=3,Buses=[BMT170839795.3 BBT170238963.1.0 BBT170238963.0.2],Conns=[wye wye wye],kvs=[19.92 0.12 0.12],kvas=[10.000000000 10.000000000 10.000000000],Taps=[1,1.000000000,1.000000000],%loadloss=0.000000000,%noloadloss=0.550000000
new transformer.1491538 Phases=1,Windings=3,Buses=[BMT170839796.3 BBT170240370.1.0 BBT170240370.0.2],Conns=[wye wye wye],kvs=[19.92 0.12 0.12],kvas=[10.000000000 10.000000000 10.000000000],Taps=[1,1.000000000,1.000000000],%loadloss=0.000000000,%noloadloss=0.550000000
new transformer.306514-3-1670_1 Phases=1,Windings=2,Buses=[BMT171086993.1.2 BMT170443350.1.0],Conns=[delta wye],kvs=[34.5 7.970000000],kvas=[1670.000000000 1670.000000000],Taps=[1,1.000000000],%loadloss=0.607784431,%noloadloss=0.104790419
new transformer.306514-3-1670_2 Phases=1,Windings=2,Buses=[BMT171086993.2.3 BMT170443350.2.0],Conns=[delta wye],kvs=[34.5 7.970000000],kvas=[1670.000000000 1670.000000000],Taps=[1,1.000000000],%loadloss=0.607784431,%noloadloss=0.104790419
new transformer.306514-3-1670_3 Phases=1,Windings=2,Buses=[BMT171086993.1.3 BMT170443350.3.0],Conns=[delta wye],kvs=[34.5 7.970000000],kvas=[1670.000000000 1670.000000000],Taps=[1,1.000000000],%loadloss=0.607784431,%noloadloss=0.104790419
new transformer.268967 Phases=3,Windings=2,Buses=[BMT151652694.1.2.3 BBT1108575.1.2.3.0],Conns=[delta wye],kvs=[34.5 0.22],kvas=[15.000000000 15.000000000],Taps=[1,1.000000000],%loadloss=1.967000000,%noloadloss=0.500000000
new transformer.558536 Phases=1,Windings=3,Buses=[BMT167381715.1 BBT2602578.1.0 BBT2602578.0.2],Conns=[wye wye wye],kvs=[19.92 0.12 0.12],kvas=[10.000000000 10.000000000 10.000000000],Taps=[1,1.000000000,1.000000000],%loadloss=1.800000000,%noloadloss=0.450000000
new transformer.638035 Phases=1,Windings=3,Buses=[BMT126536792.1 BBT3319735.1.0 BBT3319735.0.2],Conns=[wye wye wye],kvs=[7.967 0.12 0.12],kvas=[35.000000000 35.000000000 35.000000000],Taps=[1,1.000000000,1.000000000],%loadloss=1.293000000,%noloadloss=0.342857000
new transformer.638056 Phases=1,Windings=3,Buses=[BMT171089241.1 BBT3319812.1.0 BBT3319812.0.2],Conns=[wye wye wye],kvs=[7.967 0.12 0.12],kvas=[5.000000000 5.000000000 5.000000000],Taps=[1,1.000000000,1.000000000],%loadloss=1.900000000,%noloadloss=0.600000000
new transformer.638063 Phases=1,Windings=3,Buses=[BMT126536288.2 BBT3319826.1.0 BBT3319826.0.2],Conns=[wye wye wye],kvs=[7.967 0.12 0.12],kvas=[5.000000000 5.000000000 5.000000000],Taps=[1,1.000000000,1.000000000],%loadloss=1.900000000,%noloadloss=0.600000000
new transformer.638070 Phases=1,Windings=3,Buses=[BMT126536302.2 BBT3319840.1.0 BBT3319840.0.2],Conns=[wye wye wye],kvs=[7.967 0.12 0.12],kvas=[5.000000000 5.000000000 5.000000000],Taps=[1,1.000000000,1.000000000],%loadloss=1.900000000,%noloadloss=0.600000000
new transformer.638077 Phases=1,Windings=3,Buses=[BMT126536932.3 BBT3319854.1.0 BBT3319854.0.2],Conns=[wye wye wye],kvs=[7.967 0.12 0.12],kvas=[10.000000000 10.000000000 10.000000000],Taps=[1,1.000000000,1.000000000],%loadloss=1.800000000,%noloadloss=0.450000000
new transformer.638084 Phases=1,Windings=3,Buses=[BMT126536911.3 BBT3319868.1.0 BBT3319868.0.2],Conns=[wye wye wye],kvs=[7.967 0.12 0.12],kvas=[5.000000000 5.000000000 5.000000000],Taps=[1,1.000000000,1.000000000],%loadloss=1.900000000,%noloadloss=0.600000000
new transformer.638091 Phases=1,Windings=3,Buses=[BMT126536925.3 BBT3319882.1.0 BBT3319882.0.2],Conns=[wye wye wye],kvs=[7.967 0.12 0.12],kvas=[5.000000000 5.000000000 5.000000000],Taps=[1,1.000000000,1.000000000],%loadloss=1.900000000,%noloadloss=0.600000000
new transformer.638098 Phases=1,Windings=3,Buses=[BMT126536330.2 BBT3319896.1.0 BBT3319896.0.2],Conns=[wye wye wye],kvs=[7.967 0.12 0.12],kvas=[5.000000000 5.000000000 5.000000000],Taps=[1,1.000000000,1.000000000],%loadloss=1.900000000,%noloadloss=0.600000000
new transformer.638105 Phases=1,Windings=3,Buses=[BMT126536323.2 BBT3319910.1.0 BBT3319910.0.2],Conns=[wye wye wye],kvs=[7.967 0.12 0.12],kvas=[5.000000000 5.000000000 5.000000000],Taps=[1,1.000000000,1.000000000],%loadloss=1.900000000,%noloadloss=0.600000000
new transformer.638112 Phases=1,Windings=3,Buses=[BMT126536351.2 BBT3319924.1.0 BBT3319924.0.2],Conns=[wye wye wye],kvs=[7.967 0.12 0.12],kvas=[10.000000000 10.000000000 10.000000000],Taps=[1,1.000000000,1.000000000],%loadloss=1.800000000,%noloadloss=0.450000000
new transformer.638119 Phases=1,Windings=3,Buses=[BMT126536344.2 BBT3319938.1.0 BBT3319938.0.2],Conns=[wye wye wye],kvs=[7.967 0.12 0.12],kvas=[5.000000000 5.000000000 5.000000000],Taps=[1,1.000000000,1.000000000],%loadloss=1.900000000,%noloadloss=0.600000000
new transformer.638126 Phases=1,Windings=3,Buses=[BMT167736348.2 BBT3319952.1.0 BBT3319952.0.2],Conns=[wye wye wye],kvs=[7.967 0.12 0.12],kvas=[5.000000000 5.000000000 5.000000000],Taps=[1,1.000000000,1.000000000],%loadloss=1.900000000,%noloadloss=0.600000000
new transformer.638133 Phases=1,Windings=3,Buses=[BMT167736347.2 BBT3319966.1.0 BBT3319966.0.2],Conns=[wye wye wye],kvs=[7.967 0.12 0.12],kvas=[5.000000000 5.000000000 5.000000000],Taps=[1,1.000000000,1.000000000],%loadloss=1.900000000,%noloadloss=0.600000000
new transformer.638140 Phases=1,Windings=3,Buses=[BMT126536379.2 BBT3319980.1.0 BBT3319980.0.2],Conns=[wye wye wye],kvs=[7.967 0.12 0.12],kvas=[5.000000000 5.000000000 5.000000000],Taps=[1,1.000000000,1.000000000],%loadloss=1.900000000,%noloadloss=0.600000000
new transformer.638147 Phases=1,Windings=3,Buses=[BMT126536365.2 BBT3320001.1.0 BBT3320001.0.2],Conns=[wye wye wye],kvs=[7.967 0.12 0.12],kvas=[5.000000000 5.000000000 5.000000000],Taps=[1,1.000000000,1.000000000],%loadloss=1.900000000,%noloadloss=0.600000000
new transformer.638154 Phases=1,Windings=3,Buses=[BMT126536638.2 BBT3320015.1.0 BBT3320015.0.2],Conns=[wye wye wye],kvs=[7.967 0.12 0.12],kvas=[5.000000000 5.000000000 5.000000000],Taps=[1,1.000000000,1.000000000],%loadloss=1.900000000,%noloadloss=0.600000000
new transformer.638161 Phases=1,Windings=3,Buses=[BMT126536575.2 BBT3320036.1.0 BBT3320036.0.2],Conns=[wye wye wye],kvs=[7.967 0.12 0.12],kvas=[10.000000000 10.000000000 10.000000000],Taps=[1,1.000000000,1.000000000],%loadloss=1.800000000,%noloadloss=0.450000000
new transformer.638168 Phases=1,Windings=3,Buses=[BMT167736350.2 BBT3320050.1.0 BBT3320050.0.2],Conns=[wye wye wye],kvs=[7.967 0.12 0.12],kvas=[5.000000000 5.000000000 5.000000000],Taps=[1,1.000000000,1.000000000],%loadloss=1.900000000,%noloadloss=0.600000000
new transformer.638175 Phases=1,Windings=3,Buses=[BMT167736352.2 BBT3320064.1.0 BBT3320064.0.2],Conns=[wye wye wye],kvs=[7.967 0.12 0.12],kvas=[5.000000000 5.000000000 5.000000000],Taps=[1,1.000000000,1.000000000],%loadloss=1.900000000,%noloadloss=0.600000000
new transformer.638182 Phases=1,Windings=3,Buses=[BMT152417026.2 BBT3320078.1.0 BBT3320078.0.2],Conns=[wye wye wye],kvs=[7.967 0.12 0.12],kvas=[5.000000000 5.000000000 5.000000000],Taps=[1,1.000000000,1.000000000],%loadloss=1.900000000,%noloadloss=0.600000000
new transformer.638189 Phases=1,Windings=3,Buses=[BMT152417028.2 BBT3320092.1.0 BBT3320092.0.2],Conns=[wye wye wye],kvs=[7.967 0.12 0.12],kvas=[5.000000000 5.000000000 5.000000000],Taps=[1,1.000000000,1.000000000],%loadloss=1.900000000,%noloadloss=0.600000000
new transformer.638196 Phases=1,Windings=3,Buses=[BMT152417029.2 BBT3320106.1.0 BBT3320106.0.2],Conns=[wye wye wye],kvs=[7.967 0.12 0.12],kvas=[5.000000000 5.000000000 5.000000000],Taps=[1,1.000000000,1.000000000],%loadloss=1.900000000,%noloadloss=0.600000000
new transformer.638203 Phases=1,Windings=3,Buses=[BMT152417025.2 BBT3320120.1.0 BBT3320120.0.2],Conns=[wye wye wye],kvs=[7.967 0.12 0.12],kvas=[5.000000000 5.000000000 5.000000000],Taps=[1,1.000000000,1.000000000],%loadloss=1.900000000,%noloadloss=0.600000000
new transformer.638210 Phases=1,Windings=3,Buses=[BMT167736354.2 BBT3320134.1.0 BBT3320134.0.2],Conns=[wye wye wye],kvs=[7.967 0.12 0.12],kvas=[5.000000000 5.000000000 5.000000000],Taps=[1,1.000000000,1.000000000],%loadloss=1.900000000,%noloadloss=0.600000000
new transformer.638217 Phases=1,Windings=3,Buses=[BMT167736358.2 BBT3320148.1.0 BBT3320148.0.2],Conns=[wye wye wye],kvs=[7.967 0.12 0.12],kvas=[5.000000000 5.000000000 5.000000000],Taps=[1,1.000000000,1.000000000],%loadloss=1.900000000,%noloadloss=0.600000000
new transformer.638224 Phases=1,Windings=3,Buses=[BMT167736356.2 BBT3320162.1.0 BBT3320162.0.2],Conns=[wye wye wye],kvs=[7.967 0.12 0.12],kvas=[5.000000000 5.000000000 5.000000000],Taps=[1,1.000000000,1.000000000],%loadloss=1.900000000,%noloadloss=0.600000000
new transformer.638231 Phases=1,Windings=3,Buses=[BMT167736363.2 BBT3320176.1.0 BBT3320176.0.2],Conns=[wye wye wye],kvs=[7.967 0.12 0.12],kvas=[5.000000000 5.000000000 5.000000000],Taps=[1,1.000000000,1.000000000],%loadloss=1.900000000,%noloadloss=0.600000000
new transformer.638238 Phases=1,Windings=3,Buses=[BMT167736359.2 BBT3320190.1.0 BBT3320190.0.2],Conns=[wye wye wye],kvs=[7.967 0.12 0.12],kvas=[5.000000000 5.000000000 5.000000000],Taps=[1,1.000000000,1.000000000],%loadloss=1.900000000,%noloadloss=0.600000000
new transformer.638245 Phases=1,Windings=3,Buses=[BMT167736361.2 BBT3320204.1.0 BBT3320204.0.2],Conns=[wye wye wye],kvs=[7.967 0.12 0.12],kvas=[5.000000000 5.000000000 5.000000000],Taps=[1,1.000000000,1.000000000],%loadloss=1.900000000,%noloadloss=0.600000000
new transformer.1404402 Phases=1,Windings=3,Buses=[BMT152417063.2 BBT151514945.1.0 BBT151514945.0.2],Conns=[wye wye wye],kvs=[7.967 0.12 0.12],kvas=[35.000000000 35.000000000 35.000000000],Taps=[1,1.000000000,1.000000000],%loadloss=1.293000000,%noloadloss=0.342857000
new transformer.1448102 Phases=1,Windings=3,Buses=[BMT161242979.1 BBT161229302.1.0 BBT161229302.0.2],Conns=[wye wye wye],kvs=[19.92 0.12 0.12],kvas=[10.000000000 10.000000000 10.000000000],Taps=[1,1.000000000,1.000000000],%loadloss=0.000000000,%noloadloss=0.550000000
new transformer.1471139 Phases=1,Windings=3,Buses=[BMT166662970.1 BBT166608929.1.0 BBT166608929.0.2],Conns=[wye wye wye],kvs=[19.92 0.12 0.12],kvas=[10.000000000 10.000000000 10.000000000],Taps=[1,1.000000000,1.000000000],%loadloss=0.000000000,%noloadloss=0.550000000
new transformer.1490671 Phases=1,Windings=3,Buses=[BMT170072161.2 BBT170072162.1.0 BBT170072162.0.2],Conns=[wye wye wye],kvs=[7.967 0.12 0.12],kvas=[10.000000000 10.000000000 10.000000000],Taps=[1,1.000000000,1.000000000],%loadloss=1.800000000,%noloadloss=0.450000000
new transformer.1492413 Phases=1,Windings=3,Buses=[BMT171091412.2 BBT170443544.1.0 BBT170443544.0.2],Conns=[wye wye wye],kvs=[7.967 0.12 0.12],kvas=[10.000000000 10.000000000 10.000000000],Taps=[1,1.000000000,1.000000000],%loadloss=1.800000000,%noloadloss=0.450000000
new transformer.1492414 Phases=1,Windings=3,Buses=[BMT171090483.2 BBT170443900.1.0 BBT170443900.0.2],Conns=[wye wye wye],kvs=[19.92 0.12 0.12],kvas=[10.000000000 10.000000000 10.000000000],Taps=[1,1.000000000,1.000000000],%loadloss=0.000000000,%noloadloss=0.550000000
new transformer.1505092 Phases=1,Windings=3,Buses=[BMT173152305.1 BBT173151613.1.0 BBT173151613.0.2],Conns=[wye wye wye],kvs=[19.92 0.12 0.12],kvas=[10.000000000 10.000000000 10.000000000],Taps=[1,1.000000000,1.000000000],%loadloss=0.000000000,%noloadloss=0.550000000
new transformer.264942 Phases=1,Windings=3,Buses=[BMT171497231.1 BBT1089885.1.0 BBT1089885.0.2],Conns=[wye wye wye],kvs=[19.92 0.12 0.12],kvas=[15.000000000 15.000000000 15.000000000],Taps=[1,1.000000000,1.000000000],%loadloss=0.000000000,%noloadloss=0.500000000
new transformer.265047 Phases=1,Windings=3,Buses=[BMT126196417.1 BBT1090396.1.0 BBT1090396.0.2],Conns=[wye wye wye],kvs=[19.92 0.12 0.12],kvas=[15.000000000 15.000000000 15.000000000],Taps=[1,1.000000000,1.000000000],%loadloss=0.000000000,%noloadloss=0.500000000