new line.TR1189026 bus1=BMT126198440.3,bus2=BMT126198447.3,Phases=1,Linecode=CAB202_3_1,Length=0.058035000,Units=km
new line.TR1189033 bus1=BMT126198440.1.2.3,bus2=BMT126198454.1.2.3,Phases=3,Linecode=CAB103_3_3,Length=0.067160000,Units=km
new line.TR1189320 bus1=BMT1873423B.1.2.3,bus2=BMT1873465B.1.2.3,Phases=3,Linecode=CAB203_3_3,Length=0.079785000,Units=km
new line.TR1189327 bus1=BMT1873430B.1,bus2=BMT3945227B.1,Phases=1,Linecode=CAB203_3_1,Length=0.135951000,Units=km
new line.TR1189334 bus1=BMT1873437B.1,bus2=BMT3956168B.1,Phases=1,Linecode=CAB203_3_1,Length=0.281538000,Units=km
new line.TR1189341 bus1=BMT1873444B.1,bus2=BMT3956175B.1,Phases=1,Linecode=CAB203_3_1,Length=0.121549000,Units=km
new line.TR1189348 bus1=BMT126196389.1,bus2=BMT126196396.1,Phases=1,Linecode=CAB203_3_1,Length=0.162202000,Units=km
new line.TR1189355 bus1=BMT126196389.1,bus2=BMT2224571B.1,Phases=1,Linecode=CAB203_3_1,Length=0.100566000,Units=km
new line.TR1189362 bus1=BMT1873458B.1,bus2=BMT126196417.1,Phases=1,Linecode=CAB203_3_1,Length=0.228270000,Units=km
new line.TR1189369 bus1=BMT1873465B.1.2.3,bus2=BMT165303984.1.2.3,Phases=3,Linecode=CAB203_3_3,Length=0.234006000,Units=km
new line.TR1189432 bus1=BMT126198461.3,bus2=BMT4912312B.3,Phases=1,Linecode=CAB202_3_1,Length=0.102049000,Units=km
new line.TR1189439 bus1=BMT1873528B.3,bus2=BMT4912368B.3,Phases=1,Linecode=CAB202_3_1,Length=0.129103000,Units=km
new line.TR1189446 bus1=BMT1873535B.3,bus2=BMT4912396B.3,Phases=1,Linecode=CAB202_3_1,Length=0.127967000,Units=km
new line.TR1189453 bus1=BMT1873542B.3,bus2=BMT126198468.3,Phases=1,Linecode=CAB202_3_1,Length=0.116328000,Units=km
new line.TR1189460 bus1=BMT126198468.3,bus2=BMT4912403B.3,Phases=1,Linecode=CAB202_3_1,Length=0.119570000,Units=km
new line.TR1189467 bus1=BMT126198482.3,bus2=BMT4912438B.3,Phases=1,Linecode=CAB202_3_1,Length=0.149078000,Units=km
new line.TR1189474 bus1=BMT1873556B.3,bus2=BMT1873570B.3,Phases=1,Linecode=CAB202_3_1,Length=0.118663000,Units=km
new line.TR1189481 bus1=BMT1873563B.3,bus2=BMT126198489.3,Phases=1,Linecode=CAB202_3_1,Length=0.070045000,Units=km
new line.TR1189488 bus1=BMT1873570B.3,bus2=BMT4912410B.3,Phases=1,Linecode=CAB202_3_1,Length=0.119983000,Units=km
new line.TR1189495 bus1=BMT1873577B.3,bus2=BMT4912424B.3,Phases=1,Linecode=CAB202_3_1,Length=0.134144000,Units=km
new line.TR1190748 bus1=BMT163350937.1.2.3,bus2=BMT163350938.1.2.3,Phases=3,Linecode=CAB103_3_3,Length=0.036787000,Units=km
new line.TR1190762 bus1=BMT163350935.1.2.3,bus2=BMT163350936.1.2.3,Phases=3,Linecode=CAB202_3_3,Length=0.080755000,Units=km
new line.TR1190776 bus1=BMT163350936.1.2.3,bus2=BMT163350940.1.2.3,Phases=3,Linecode=CAB103_3_3,Length=0.051609000,Units=km
new line.TR12143047 bus1=BMT163350937.1.2.3,bus2=BMT149276306.1.2.3,Phases=3,Linecode=CAB204_3_3,Length=0.024993000,Units=km
new line.TR12143048 bus1=BMT6541212B.1.2.3,bus2=BMT149276306.1.2.3,Phases=3,Linecode=CAB204_3_3,Length=0.044765000,Units=km
new line.TR12143054 bus1=BMT149276311.1.2.3,bus2=BMT149276312.1.2.3,Phases=3,Linecode=CAB103_3_3,Length=0.028294000,Units=km
new line.TR12143100 bus1=BMT148594533.1.2.3,bus2=BMT8737755B.1.2.3,Phases=3,Linecode=CAB207_3_3,Length=0.004242000,Units=km
new line.TR12143101 bus1=BMT151652695.1.2.3,bus2=BMT8737755B.1.2.3,Phases=3,Linecode=CAB207_3_3,Length=0.057785000,Units=km
new line.TR12143135 bus1=BMT8715712B.1.2.3,bus2=BMT8737789B.1.2.3,Phases=3,Linecode=CAB207_3_3,Length=0.110285000,Units=km
new line.TR12143136 bus1=BMT8737789B.1.2.3,bus2=BMT8737790B.1.2.3,Phases=3,Linecode=CAB207_3_3,Length=0.101242000,Units=km
new line.TR12143137 bus1=BMT8737790B.1.2.3,bus2=BMT8737791B.1.2.3,Phases=3,Linecode=CAB207_3_3,Length=0.108014000,Units=km
new line.TR12143138 bus1=BMT8737791B.1.2.3,bus2=BMT8737792B.1.2.3,Phases=3,Linecode=CAB207_3_3,Length=0.124498000,Units=km
new line.TR12143139 bus1=BMT8737792B.1.2.3,bus2=BMT8737793B.1.2.3,Phases=3,Linecode=CAB207_3_3,Length=0.098586000,Units=km
new line.TR12143140 bus1=BMT8737793B.1.2.3,bus2=BMT8737794B.1.2.3,Phases=3,Linecode=CAB207_3_3,Length=0.125410000,Units=km
new line.TR12143141 bus1=BMT8737794B.1.2.3,bus2=BMT8737795B.1.2.3,Phases=3,Linecode=CAB207_3_3,Length=0.120472000,Units=km
new line.TR12143142 bus1=BMT8737795B.1.2.3,bus2=BMT8737796B.1.2.3,Phases=3,Linecode=CAB207_3_3,Length=0.117141000,Units=km
new line.TR12143143 bus1=BMT8737796B.1.2.3,bus2=BMT8737797B.1.2.3,Phases=3,Linecode=CAB207_3_3,Length=0.131696000,Units=km
new line.TR12143144 bus1=BMT8737797B.1.2.3,bus2=BMT8737798B.1.2.3,Phases=3,Linecode=CAB207_3_3,Length=0.132660000,Units=km
new line.TR12143145 bus1=BMT8737798B.1.2.3,bus2=BMT8737799B.1.2.3,Phases=3,Linecode=CAB207_3_3,Length=0.151603000,Units=km
new line.TR12143146 bus1=BMT8737799B.1.2.3,bus2=BMT8737800B.1.2.3,Phases=3,Linecode=CAB207_3_3,Length=0.139017000,Units=km
new line.TR12143147 bus1=BMT8737800B.1.2.3,bus2=BMT8737801B.1.2.3,Phases=3,Linecode=CAB207_3_3,Length=0.146043000,Units=km
new line.TR12143148 bus1=BMT8737801B.1.2.3,bus2=BMT8737802B.1.2.3,Phases=3,Linecode=CAB207_3_3,Length=0.139863000,Units=km
new line.TR12143149 bus1=BMT8737802B.1.2.3,bus2=BMT8737803B.1.2.3,Phases=3,Linecode=CAB207_3_3,Length=0.147450000,Units=km
new line.TR12143150 bus1=BMT8737803B.1.2.3,bus2=BMT8737804B.1.2.3,Phases=3,Linecode=CAB207_3_3,Length=0.097977000,Units=km
new line.TR12143152 bus1=BMT8737804B.1.2.3,bus2=BMT163350933.1.2.3,Phases=3,Linecode=CAB207_3_3,Length=0.103725000,Units=km
new line.TR1184847 bus1=BMT1870217B.1.2.3,bus2=BMT126536134.1.2.3,Phases=3,Linecode=CAB203_3_3,Length=0.064050000,Units=km
new line.TR1184854 bus1=BMT126536134.1.2.3,bus2=BMT126536141.1.2.3,Phases=3,Linecode=CAB103_3_3,Length=0.018862000,Units=km
new line.TR1184889 bus1=BMT126536148.1.2.3,bus2=BMT1870259B.1.2.3,Phases=3,Linecode=CAB203_3_3,Length=0.094161000,Units=km
new line.TR1184903 bus1=BMT1870259B.1.2.3,bus2=BMT126536155.1.2.3,Phases=3,Linecode=CAB203_3_3,Length=0.089971000,Units=km
new line.TR1184910 bus1=BMT171091419.1.2.3,bus2=BMT3481197B.1.2.3,Phases=3,Linecode=CAB203_3_3,Length=0.130606000,Units=km
new line.TR1184917 bus1=BMT126536155.1.2.3,bus2=BMT126536162.1.2.3,Phases=3,Linecode=CAB103_3_3,Length=0.060784000,Units=km
new line.TR1186191 bus1=BMT151652578.1.2.3,bus2=BMT151652579.1.2.3,Phases=3,Linecode=CAB102_3_3,Length=0.026070000,Units=km
new line.TR1186219 bus1=BMT1871302B.1.2.3,bus2=BMT126196718.1.2.3,Phases=3,Linecode=CAB207_3_3,Length=0.080107000,Units=km
new line.TR1186247 bus1=BMT126196837.1.2.3,bus2=BMT126196844.1.2.3,Phases=3,Linecode=CAB202_3_3,Length=0.085956000,Units=km
new line.TR1186254 bus1=BMT126196837.1.2.3,bus2=BMT126196851.1.2.3,Phases=3,Linecode=CAB203_3_3,Length=0.112570000,Units=km
new line.TR1186268 bus1=BMT151652693.1.2.3,bus2=BMT151652694.1.2.3,Phases=3,Linecode=CAB102_3_3,Length=0.012526000,Units=km
new line.TR1186282 bus1=BMT126196921.1.2.3,bus2=BMT126196928.1.2.3,Phases=3,Linecode=CAB103_3_3,Length=0.056063000,Units=km
new line.TR1186289 bus1=BMT126196683.1.2.3,bus2=BMT151652692.1.2.3,Phases=3,Linecode=CAB207_3_3,Length=0.073475000,Units=km
new line.TR1186303 bus1=BMT151652691.1.2.3,bus2=BMT126196683.1.2.3,Phases=3,Linecode=CAB107_3_3,Length=0.053397000,Units=km
new line.TR1186338 bus1=BMT126196627.1.2.3,bus2=BMT2371683B.1.2.3,Phases=3,Linecode=CAB107_3_3,Length=0.063762000,Units=km
new line.TR1186443 bus1=BMT1871470B.1.2.3,bus2=BMT126196872.1.2.3,Phases=3,Linecode=CAB203_3_3,Length=0.080894000,Units=km
new line.TR1186450 bus1=BMT126196872.1.2.3,bus2=BMT126196886.1.2.3,Phases=3,Linecode=CAB102_3_3,Length=0.052137000,Units=km
new line.TR1186457 bus1=BMT126196872.1.2.3,bus2=BMT1871484B.1.2.3,Phases=3,Linecode=CAB203_3_3,Length=0.038589000,Units=km
new line.TR1186464 bus1=BMT1871484B.1.2.3,bus2=BMT126196893.1.2.3,Phases=3,Linecode=CAB203_3_3,Length=0.093784000,Units=km
new line.TR12117542 bus1=BMT161218272.3,bus2=BMT8710259B.3,Phases=1,Linecode=CAB202_3_1,Length=0.190446000,Units=km
new line.TR12117555 bus1=BMT8710259B.3,bus2=BMT8710260B.3,Phases=1,Linecode=CAB202_3_1,Length=0.147469000,Units=km
new line.TR12117556 bus1=BMT8710260B.3,bus2=BMT8710261B.3,Phases=1,Linecode=CAB202_3_1,Length=0.146507000,Units=km
new line.TR12117557 bus1=BMT8710261B.3,bus2=BMT8710262B.3,Phases=1,Linecode=CAB202_3_1,Length=0.402717000,Units=km
new line.TR12117558 bus1=BMT8710262B.3,bus2=BMT8710263B.3,Phases=1,Linecode=CAB202_3_1,Length=0.115696000,Units=km
new line.TR12117559 bus1=BMT8710263B.3,bus2=BMT161218273.3,Phases=1,Linecode=CAB202_3_1,Length=0.181767000,Units=km
new line.TR12120560 bus1=BMT171090479.1.2.3,bus2=BMT171090481.1.2.3,Phases=3,Linecode=CAB103_3_3,Length=0.014313000,Units=km
new line.TR12122774 bus1=BMT163350932.1.2.3,bus2=BMT8715712B.1.2.3,Phases=3,Linecode=CAB207_3_3,Length=0.123333000,Units=km
new line.TR12164247 bus1=BMT8761314B.1.2.3,bus2=BMT151652696.1.2.3,Phases=3,Linecode=CAB207_3_3,Length=0.161173000,Units=km
new line.TR12192247 bus1=BMT3184320B.1.2.3,bus2=BMT170584604.1.2.3,Phases=3,Linecode=CAB107_3_3,Length=0.041180000,Units=km
new line.TR12192248 bus1=BMT170584301.1.2.3,bus2=BMT170584303.1.2.3,Phases=3,Linecode=CAB107_3_3,Length=0.042282000,Units=km
new line.TR12192249 bus1=BMT151817435.1.2.3,bus2=BMT170584303.1.2.3,Phases=3,Linecode=CAB107_3_3,Length=0.029145000,Units=km
new line.TR12193319 bus1=BMT151119031.1,bus2=BMT151119033.1,Phases=1,Linecode=CAB202_3_1,Length=0.100413000,Units=km
new line.TR12193369 bus1=BMT171090482.1.2.3,bus2=BMT171090485.1.2.3,Phases=3,Linecode=CAB104_3_3,Length=0.005829000,Units=km
new line.TR12193375 bus1=BMT171090485.1.2.3,bus2=BMT151127785.1.2.3,Phases=3,Linecode=CAB104_3_3,Length=0.005829000,Units=km
new line.TR12193376 bus1=BMT151127786.1.2.3,bus2=BMT126195759.1.2.3,Phases=3,Linecode=CAB104_3_3,Length=0.005829000,Units=km
new line.TR12193617 bus1=BMT8794105B.1.2.3,bus2=BMT8794117B.1.2.3,Phases=3,Linecode=CAB202_3_3,Length=0.138342000,Units=km
new line.TR12193620 bus1=BMT8794117B.1.2.3,bus2=BMT8794121B.1.2.3,Phases=3,Linecode=CAB202_3_3,Length=0.143329000,Units=km
new line.TR12193625 bus1=BMT8794121B.1.2.3,bus2=BMT8794125B.1.2.3,Phases=3,Linecode=CAB202_3_3,Length=0.139033000,Units=km
new line.TR12193626 bus1=BMT8794125B.1.2.3,bus2=BMT8794130B.1.2.3,Phases=3,Linecode=CAB202_3_3,Length=0.094555000,Units=km
new line.TR12193631 bus1=BMT8794130B.1.2.3,bus2=BMT8794137B.1.2.3,Phases=3,Linecode=CAB202_3_3,Length=0.397595000,Units=km
new line.TR12193635 bus1=BMT8794137B.1.2.3,bus2=BMT8794144B.1.2.3,Phases=3,Linecode=CAB202_3_3,Length=0.151176000,Units=km
new line.TR12193642 bus1=BMT8794144B.1.2.3,bus2=BMT8794152B.1.2.3,Phases=3,Linecode=CAB202_3_3,Length=0.156757000,Units=km
new line.TR12193643 bus1=BMT8794152B.1.2.3,bus2=BMT8794154B.1.2.3,Phases=3,Linecode=CAB202_3_3,Length=0.169187000,Units=km
new line.TR12193644 bus1=BMT8794154B.1.2.3,bus2=BMT8794158B.1.2.3,Phases=3,Linecode=CAB202_3_3,Length=0.163150000,Units=km
new line.TR12193645 bus1=BMT8794158B.1.2.3,bus2=BMT8794159B.1.2.3,Phases=3,Linecode=CAB202_3_3,Length=0.143391000,Units=km
new line.TR12193647 bus1=BMT8794159B.1.2.3,bus2=BMT8794165B.1.2.3,Phases=3,Linecode=CAB202_3_3,Length=0.223120000,Units=km
new line.TR12193657 bus1=BMT8794165B.1.2.3,bus2=BMT8794168B.1.2.3,Phases=3,Linecode=CAB202_3_3,Length=0.275430000,Units=km
new line.TR12193661 bus1=BMT8794168B.1.2.3,bus2=BMT8794188B.1.2.3,Phases=3,Linecode=CAB202_3_3,Length=0.079898000,Units=km
new line.TR12193663 bus1=BMT8794188B.1.2.3,bus2=BMT8794194B.1.2.3,Phases=3,Linecode=CAB202_3_3,Length=0.147969000,Units=km
new line.TR12193664 bus1=BMT8794194B.1.2.3,bus2=BMT8794201B.1.2.3,Phases=3,Linecode=CAB202_3_3,Length=0.200747000,Units=km
new line.TR12193671 bus1=BMT8794201B.1.2.3,bus2=BMT8794215B.1.2.3,Phases=3,Linecode=CAB202_3_3,Length=0.190315000,Units=km
new line.TR12193676 bus1=BMT8794215B.1.2.3,bus2=BMT8794221B.1.2.3,Phases=3,Linecode=CAB202_3_3,Length=0.154483000,Units=km
new line.TR12193677 bus1=BMT8794221B.1.2.3,bus2=BMT8794233B.1.2.3,Phases=3,Linecode=CAB202_3_3,Length=0.193465000,Units=km
new line.TR12193681 bus1=BMT8794233B.1.2.3,bus2=BMT8794239B.1.2.3,Phases=3,Linecode=CAB202_3_3,Length=0.176402000,Units=km
new line.TR12193686 bus1=BMT8794239B.1.2.3,bus2=BMT8794252B.1.2.3,Phases=3,Linecode=CAB202_3_3,Length=0.187164000,Units=km
new line.TR12193688 bus1=BMT8794252B.1.2.3,bus2=BMT8794260B.1.2.3,Phases=3,Linecode=CAB202_3_3,Length=0.186246000,Units=km
new line.TR12193690 bus1=BMT8794260B.1.2.3,bus2=BMT8794267B.1.2.3,Phases=3,Linecode=CAB202_3_3,Length=0.151333000,Units=km
new line.TR12193692 bus1=BMT8794267B.1.2.3,bus2=BMT8794268B.1.2.3,Phases=3,Linecode=CAB202_3_3,Length=0.151860000,Units=km
new line.TR12193693 bus1=BMT8794268B.1.2.3,bus2=BMT8794271B.1.2.3,Phases=3,Linecode=CAB202_3_3,Length=0.182180000,Units=km
new line.TR12193694 bus1=BMT8794271B.1.2.3,bus2=BMT8794275B.1.2.3,Phases=3,Linecode=CAB202_3_3,Length=0.183620000,Units=km
new line.TR12193698 bus1=BMT8794275B.1.2.3,bus2=BMT8794284B.1.2.3,Phases=3,Linecode=CAB202_3_3,Length=0.158027000,Units=km
new line.TR12193706 bus1=BMT8794284B.1.2.3,bus2=BMT8794294B.1.2.3,Phases=3,Linecode=CAB202_3_3,Length=0.154090000,Units=km
new line.TR12193712 bus1=BMT8794294B.1.2.3,bus2=BMT171090553.1.2.3,Phases=3,Linecode=CAB202_3_3,Length=0.226645000,Units=km
new line.TR12193714 bus1=BMT171090553.1.2.3,bus2=BMT8794300B.1.2.3,Phases=3,Linecode=CAB202_3_3,Length=0.065486000,Units=km
new line.TR12193715 bus1=BMT8794300B.1.2.3,bus2=BMT8794308B.1.2.3,Phases=3,Linecode=CAB202_3_3,Length=0.058567000,Units=km
new line.TR12193716 bus1=BMT8794308B.1.2.3,bus2=BMT8794322B.1.2.3,Phases=3,Linecode=CAB202_3_3,Length=0.068001000,Units=km
new line.TR12193721 bus1=BMT8794322B.1.2.3,bus2=BMT8794325B.1.2.3,Phases=3,Linecode=CAB202_3_3,Length=0.146964000,Units=km
new line.TR12193722 bus1=BMT8794325B.1.2.3,bus2=BMT8794328B.1.2.3,Phases=3,Linecode=CAB202_3_3,Length=0.154171000,Units=km
new line.TR12193723 bus1=BMT8794328B.1.2.3,bus2=BMT8794329B.1.2.3,Phases=3,Linecode=CAB202_3_3,Length=0.146665000,Units=km
new line.TR12193725 bus1=BMT8794329B.1.2.3,bus2=BMT8794332B.1.2.3,Phases=3,Linecode=CAB202_3_3,Length=0.150481000,Units=km
new line.TR12193726 bus1=BMT8794332B.1.2.3,bus2=BMT8794333B.1.2.3,Phases=3,Linecode=CAB202_3_3,Length=0.160635000,Units=km
new line.TR12193727 bus1=BMT8794333B.1.2.3,bus2=BMT8794334B.1.2.3,Phases=3,Linecode=CAB202_3_3,Length=0.149538000,Units=km
new line.TR12193736 bus1=BMT8794334B.1.2.3,bus2=BMT8794355B.1.2.3,Phases=3,Linecode=CAB202_3_3,Length=0.148411000,Units=km
new line.TR12193741 bus1=BMT8794355B.1.2.3,bus2=BMT171090554.1.2.3,Phases=3,Linecode=CAB202_3_3,Length=0.149217000,Units=km
new line.TR12218050 bus1=BMT170584605.1,bus2=BMT170584606.1,Phases=1,Linecode=CAB103_3_1,Length=0.051769000,Units=km
new line.TR12220289 bus1=BMT8800411B.1.2.3,bus2=BMT8821015B.1.2.3,Phases=3,Linecode=CAB203_3_3,Length=0.116164000,Units=km
new line.TR12220292 bus1=BMT8800409B.1.2.3,bus2=BMT8821019B.1.2.3,Phases=3,Linecode=CAB203_3_3,Length=0.120321000,Units=km
new line.TR12220293 bus1=BMT8821015B.1.2.3,bus2=BMT8821019B.1.2.3,Phases=3,Linecode=CAB203_3_3,Length=0.116717000,Units=km
new line.TR12220295 bus1=BMT8800409B.1.2.3,bus2=BMT8821020B.1.2.3,Phases=3,Linecode=CAB203_3_3,Length=0.116730000,Units=km
new line.TR12220303 bus1=BMT8821020B.1.2.3,bus2=BMT8821021B.1.2.3,Phases=3,Linecode=CAB203_3_3,Length=0.121704000,Units=km
new line.TR12220305 bus1=BMT8821021B.1.2.3,bus2=BMT8821022B.1.2.3,Phases=3,Linecode=CAB203_3_3,Length=0.116730000,Units=km
new line.TR12220307 bus1=BMT8821022B.1.2.3,bus2=BMT8821024B.1.2.3,Phases=3,Linecode=CAB203_3_3,Length=0.122445000,Units=km
new line.TR12220308 bus1=BMT8800425B.1.2.3,bus2=BMT8821027B.1.2.3,Phases=3,Linecode=CAB203_3_3,Length=0.125157000,Units=km
new line.TR12220309 bus1=BMT8821024B.1.2.3,bus2=BMT8821027B.1.2.3,Phases=3,Linecode=CAB203_3_3,Length=0.113232000,Units=km
new line.TR12220310 bus1=BMT8800425B.1.2.3,bus2=BMT8821030B.1.2.3,Phases=3,Linecode=CAB203_3_3,Length=0.115061000,Units=km
new line.TR12220313 bus1=BMT8821030B.1.2.3,bus2=BMT8821032B.1.2.3,Phases=3,Linecode=CAB203_3_3,Length=0.125825000,Units=km
new line.TR12220315 bus1=BMT8821032B.1.2.3,bus2=BMT8821033B.1.2.3,Phases=3,Linecode=CAB203_3_3,Length=0.122738000,Units=km
new line.TR12220316 bus1=BMT8800427B.1.2.3,bus2=BMT8821034B.1.2.3,Phases=3,Linecode=CAB203_3_3,Length=0.108030000,Units=km
new line.TR12220317 bus1=BMT8821033B.1.2.3,bus2=BMT8821034B.1.2.3,Phases=3,Linecode=CAB203_3_3,Length=0.116986000,Units=km
new line.TR12220329 bus1=BMT8800427B.1.2.3,bus2=BMT8821055B.1.2.3,Phases=3,Linecode=CAB203_3_3,Length=0.111354000,Units=km
new line.TR12220332 bus1=BMT8821055B.1.2.3,bus2=BMT8821058B.1.2.3,Phases=3,Linecode=CAB203_3_3,Length=0.105758000,Units=km
new line.TR12220339 bus1=BMT8821058B.1.2.3,bus2=BMT8821063B.1.2.3,Phases=3,Linecode=CAB203_3_3,Length=0.122150000,Units=km
new line.TR12220348 bus1=BMT8821063B.1.2.3,bus2=BMT8821081B.1.2.3,Phases=3,Linecode=CAB203_3_3,Length=0.137002000,Units=km
new line.TR12220350 bus1=BMT8821081B.1.2.3,bus2=BMT8821085B.1.2.3,Phases=3,Linecode=CAB203_3_3,Length=0.117276000,Units=km
new line.TR12220365 bus1=BMT8821085B.1.2.3,bus2=BMT8821090B.1.2.3,Phases=3,Linecode=CAB203_3_3,Length=0.118762000,Units=km
new line.TR12220368 bus1=BMT8800428B.1.2.3,bus2=BMT8821094B.1.2.3,Phases=3,Linecode=CAB203_3_3,Length=0.101791000,Units=km
new line.TR12220369 bus1=BMT8821090B.1.2.3,bus2=BMT8821094B.1.2.3,Phases=3,Linecode=CAB203_3_3,Length=0.116716000,Units=km
new line.TR12220372 bus1=BMT8800429B.1.2.3,bus2=BMT8821102B.1.2.3,Phases=3,Linecode=CAB203_3_3,Length=0.098071000,Units=km
new line.TR12220375 bus1=BMT8821102B.1.2.3,bus2=BMT8821103B.1.2.3,Phases=3,Linecode=CAB203_3_3,Length=0.112825000,Units=km
new line.TR12220377 bus1=BMT8821103B.1.2.3,bus2=BMT8821104B.1.2.3,Phases=3,Linecode=CAB203_3_3,Length=0.115056000,Units=km
new line.TR12220394 bus1=BMT8821104B.1.2.3,bus2=BMT8821114B.1.2.3,Phases=3,Linecode=CAB203_3_3,Length=0.117288000,Units=km
new line.TR12220396 bus1=BMT8821114B.1.2.3,bus2=BMT8821116B.1.2.3,Phases=3,Linecode=CAB203_3_3,Length=0.122248000,Units=km
new line.TR12220397 bus1=BMT8800432B.1.2.3,bus2=BMT8821120B.1.2.3,Phases=3,Linecode=CAB203_3_3,Length=0.104579000,Units=km
new line.TR12220398 bus1=BMT8821116B.1.2.3,bus2=BMT8821120B.1.2.3,Phases=3,Linecode=CAB203_3_3,Length=0.128942000,Units=km
new line.TR12220403 bus1=BMT8800437B.1.2.3,bus2=BMT8821124B.1.2.3,Phases=3,Linecode=CAB203_3_3,Length=0.148426000,Units=km
new line.TR12220405 bus1=BMT8821124B.1.2.3,bus2=BMT8821125B.1.2.3,Phases=3,Linecode=CAB203_3_3,Length=0.138693000,Units=km
new line.TR12220407 bus1=BMT8821125B.1.2.3,bus2=BMT8821126B.1.2.3,Phases=3,Linecode=CAB203_3_3,Length=0.141848000,Units=km
new line.TR12220409 bus1=BMT8821126B.1.2.3,bus2=BMT8821127B.1.2.3,Phases=3,Linecode=CAB203_3_3,Length=0.149582000,Units=km
new line.TR12220411 bus1=BMT8821127B.1.2.3,bus2=BMT8821128B.1.2.3,Phases=3,Linecode=CAB203_3_3,Length=0.145090000,Units=km
new line.TR12220413 bus1=BMT8821128B.1.2.3,bus2=BMT8821129B.1.2.3,Phases=3,Linecode=CAB203_3_3,Length=0.143277000,Units=km
new line.TR12220417 bus1=BMT8821129B.1.2.3,bus2=BMT8821131B.1.2.3,Phases=3,Linecode=CAB203_3_3,Length=0.141816000,Units=km
new line.TR12220419 bus1=BMT8821131B.1.2.3,bus2=BMT8821133B.1.2.3,Phases=3,Linecode=CAB203_3_3,Length=0.152345000,Units=km
new line.TR12220422 bus1=BMT8821133B.1.2.3,bus2=BMT8821134B.1.2.3,Phases=3,Linecode=CAB203_3_3,Length=0.136440000,Units=km
new line.TR12220424 bus1=BMT8821134B.1.2.3,bus2=BMT8821135B.1.2.3,Phases=3,Linecode=CAB203_3_3,Length=0.154491000,Units=km
new line.TR12220427 bus1=BMT8821135B.1.2.3,bus2=BMT8821138B.1.2.3,Phases=3,Linecode=CAB203_3_3,Length=0.105501000,Units=km
new line.TR12220430 bus1=BMT8821138B.1.2.3,bus2=BMT8821139B.1.2.3,Phases=3,Linecode=CAB203_3_3,Length=0.157440000,Units=km
new line.TR12220431 bus1=BMT8821139B.1.2.3,bus2=BMT152086968.1.2.3,Phases=3,Linecode=CAB203_3_3,Length=0.165849000,Units=km
new line.TR12220433 bus1=BMT8800444B.1.2.3,bus2=BMT8821140B.1.2.3,Phases=3,Linecode=CAB203_3_3,Length=0.111956000,Units=km
new line.TR12220434 bus1=BMT8800445B.1.2.3,bus2=BMT8821140B.1.2.3,Phases=3,Linecode=CAB203_3_3,Length=0.110645000,Units=km
new line.TR12220435 bus1=BMT8800445B.1.2.3,bus2=BMT8821141B.1.2.3,Phases=3,Linecode=CAB203_3_3,Length=0.124669000,Units=km
new line.TR12220438 bus1=BMT8821141B.1.2.3,bus2=BMT8821142B.1.2.3,Phases=3,Linecode=CAB203_3_3,Length=0.125905000,Units=km
new line.TR12220440 bus1=BMT8821142B.1.2.3,bus2=BMT8821143B.1.2.3,Phases=3,Linecode=CAB203_3_3,Length=0.125105000,Units=km
new line.TR12220442 bus1=BMT8821143B.1.2.3,bus2=BMT8821144B.1.2.3,Phases=3,Linecode=CAB203_3_3,Length=0.122746000,Units=km
new line.TR12220443 bus1=BMT8800446B.1.2.3,bus2=BMT8821145B.1.2.3,Phases=3,Linecode=CAB203_3_3,Length=0.131676000,Units=km
new line.TR12220444 bus1=BMT8821144B.1.2.3,bus2=BMT8821145B.1.2.3,Phases=3,Linecode=CAB203_3_3,Length=0.122473000,Units=km
new line.TR12220445 bus1=BMT8800446B.1.2.3,bus2=BMT8821146B.1.2.3,Phases=3,Linecode=CAB203_3_3,Length=0.118985000,Units=km
new line.TR12220448 bus1=BMT8821146B.1.2.3,bus2=BMT8821147B.1.2.3,Phases=3,Linecode=CAB203_3_3,Length=0.141771000,Units=km
new line.TR12220450 bus1=BMT8821147B.1.2.3,bus2=BMT8821149B.1.2.3,Phases=3,Linecode=CAB203_3_3,Length=0.126514000,Units=km
new line.TR12220453 bus1=BMT8821149B.1.2.3,bus2=BMT8821150B.1.2.3,Phases=3,Linecode=CAB203_3_3,Length=0.116056000,Units=km
new line.TR12220454 bus1=BMT8800447B.1.2.3,bus2=BMT8821151B.1.2.3,Phases=3,Linecode=CAB203_3_3,Length=0.147501000,Units=km
new line.TR12220455 bus1=BMT8821150B.1.2.3,bus2=BMT8821151B.1.2.3,Phases=3,Linecode=CAB203_3_3,Length=0.134569000,Units=km
new line.TR12220456 bus1=BMT8800447B.1.2.3,bus2=BMT8821152B.1.2.3,Phases=3,Linecode=CAB203_3_3,Length=0.228572000,Units=km
new line.TR12220458 bus1=BMT8821152B.1.2.3,bus2=BMT8821153B.1.2.3,Phases=3,Linecode=CAB203_3_3,Length=0.134476000,Units=km
new line.TR12220460 bus1=BMT8821153B.1.2.3,bus2=BMT8821154B.1.2.3,Phases=3,Linecode=CAB203_3_3,Length=0.160567000,Units=km
new line.TR12198925 bus1=BMT8794105B.1.2.3,bus2=BMT151343137.1.2.3,Phases=3,Linecode=CAB202_3_3,Length=0.109158000,Units=km
new line.TR12198956 bus1=BMT152087145.1.2.3,bus2=BMT152087146.1.2.3,Phases=3,Linecode=CAB103_3_3,Length=0.024830000,Units=km
new line.TR12198957 bus1=BMT152087146.1.2.3,bus2=BMT8800411B.1.2.3,Phases=3,Linecode=CAB203_3_3,Length=0.112853000,Units=km
new line.TR12198963 bus1=BMT8800428B.1.2.3,bus2=BMT8800429B.1.2.3,Phases=3,Linecode=CAB203_3_3,Length=0.128087000,Units=km
new line.TR12198969 bus1=BMT8800432B.1.2.3,bus2=BMT8800433B.1.2.3,Phases=3,Linecode=CAB203_3_3,Length=0.122051000,Units=km
new line.TR12198977 bus1=BMT156631897.1.2.3,bus2=BMT8800435B.1.2.3,Phases=3,Linecode=CAB203_3_3,Length=0.158001000,Units=km
new line.TR12198979 bus1=BMT8800441B.1.2.3,bus2=BMT8800444B.1.2.3,Phases=3,Linecode=CAB203_3_3,Length=0.087689000,Units=km
new line.TR12198995 bus1=BMT156631898.1.2.3,bus2=BMT151345180.1.2.3,Phases=3,Linecode=CAB203_3_3,Length=0.036862000,Units=km
new line.TR12199002 bus1=BMT152191648.1.2.3,bus2=BMT152191649.1.2.3,Phases=3,Linecode=CAB103_3_3,Length=0.030003000,Units=km
new line.TR12199004 bus1=BMT156631898.1.2.3,bus2=BMT156631899.1.2.3,Phases=3,Linecode=CAB103_3_3,Length=0.051065000,Units=km
new line.TR12200431 bus1=BMT171090553.1,bus2=BMT171090555.1,Phases=1,Linecode=CAB202_3_1,Length=0.116852000,Units=km
new line.TR12410344 bus1=BMT170072156.2,bus2=BMT9016867B.2,Phases=1,Linecode=CAB202_3_1,Length=0.154968000,Units=km
new line.TR12410345 bus1=BMT9016867B.2,bus2=BMT9016868B.2,Phases=1,Linecode=CAB202_3_1,Length=0.148218000,Units=km
new line.TR12410346 bus1=BMT9016868B.2,bus2=BMT9016869B.2,Phases=1,Linecode=CAB202_3_1,Length=0.107828000,Units=km
new line.TR12410347 bus1=BMT9016869B.2,bus2=BMT9016870B.2,Phases=1,Linecode=CAB202_3_1,Length=0.111154000,Units=km
new line.TR12410348 bus1=BMT9016870B.2,bus2=BMT9016871B.2,Phases=1,Linecode=CAB202_3_1,Length=0.127091000,Units=km
new line.TR12410349 bus1=BMT9016871B.2,bus2=BMT9016872B.2,Phases=1,Linecode=CAB202_3_1,Length=0.119284000,Units=km
new line.TR12410350 bus1=BMT9016872B.2,bus2=BMT9016873B.2,Phases=1,Linecode=CAB202_3_1,Length=0.129783000,Units=km
new line.TR12410351 bus1=BMT9016873B.2,bus2=BMT9016874B.2,Phases=1,Linecode=CAB202_3_1,Length=0.121463000,Units=km
new line.TR12410352 bus1=BMT9016874B.2,bus2=BMT9016875B.2,Phases=1,Linecode=CAB202_3_1,Length=0.119923000,Units=km
new line.TR12410353 bus1=BMT9016875B.2,bus2=BMT9016876B.2,Phases=1,Linecode=CAB202_3_1,Length=0.121331000,Units=km
new line.TR12410354 bus1=BMT9016876B.2,bus2=BMT9016881B.2,Phases=1,Linecode=CAB202_3_1,Length=0.098981000,Units=km
new line.TR12410355 bus1=BMT9016881B.2,bus2=BMT9016882B.2,Phases=1,Linecode=CAB202_3_1,Length=0.116341000,Units=km
new line.TR12410356 bus1=BMT9016882B.2,bus2=BMT9016884B.2,Phases=1,Linecode=CAB202_3_1,Length=0.116885000,Units=km
new line.TR12410357 bus1=BMT9016884B.2,bus2=BMT9016885B.2,Phases=1,Linecode=CAB202_3_1,Length=0.114932000,Units=km
new line.TR12410358 bus1=BMT9016885B.2,bus2=BMT9016887B.2,Phases=1,Linecode=CAB202_3_1,Length=0.102135000,Units=km
new line.TR12410359 bus1=BMT9016887B.2,bus2=BMT9016888B.2,Phases=1,Linecode=CAB202_3_1,Length=0.149743000,Units=km
new line.TR12410360 bus1=BMT9016888B.2,bus2=BMT9016889B.2,Phases=1,Linecode=CAB202_3_1,Length=0.176329000,Units=km
new line.TR12410361 bus1=BMT9016889B.2,bus2=BMT9016891B.2,Phases=1,Linecode=CAB202_3_1,Length=0.150952000,Units=km
new line.TR12410362 bus1=BMT9016891B.2,bus2=BMT9016892B.2,Phases=1,Linecode=CAB202_3_1,Length=0.082768000,Units=km
new line.TR12410363 bus1=BMT9016892B.2,bus2=BMT9016893B.2,Phases=1,Linecode=CAB202_3_1,Length=0.113554000,Units=km
new line.TR12410364 bus1=BMT9016893B.2,bus2=BMT9016894B.2,Phases=1,Linecode=CAB202_3_1,Length=0.121557000,Units=km
new line.TR12410365 bus1=BMT9016894B.2,bus2=BMT9016895B.2,Phases=1,Linecode=CAB202_3_1,Length=0.119354000,Units=km
new line.TR12410366 bus1=BMT9016895B.2,bus2=BMT9016896B.2,Phases=1,Linecode=CAB202_3_1,Length=0.109955000,Units=km
new line.TR12410367 bus1=BMT9016896B.2,bus2=BMT9016897B.2,Phases=1,Linecode=CAB202_3_1,Length=0.098560000,Units=km
new line.TR12410368 bus1=BMT9016897B.2,bus2=BMT9016898B.2,Phases=1,Linecode=CAB202_3_1,Length=0.101359000,Units=km
new line.TR12410369 bus1=BMT9016898B.2,bus2=BMT9016899B.2,Phases=1,Linecode=CAB202_3_1,Length=0.099363000,Units=km
new line.TR12410370 bus1=BMT9016899B.2,bus2=BMT9016900B.2,Phases=1,Linecode=CAB202_3_1,Length=0.120752000,Units=km
new line.TR12410371 bus1=BMT9016900B.2,bus2=BMT169826275.2,Phases=1,Linecode=CAB202_3_1,Length=0.141547000,Units=km
new line.TR12410372 bus1=BMT169826275.2,bus2=BMT9016906B.2,Phases=1,Linecode=CAB202_3_1,Length=0.125750000,Units=km
new line.TR12410373 bus1=BMT9016906B.2,bus2=BMT9016907B.2,Phases=1,Linecode=CAB202_3_1,Length=0.147740000,Units=km
new line.TR12410374 bus1=BMT9016907B.2,bus2=BMT9016908B.2,Phases=1,Linecode=CAB202_3_1,Length=0.142742000,Units=km
new line.TR12410375 bus1=BMT9016908B.2,bus2=BMT9016910B.2,Phases=1,Linecode=CAB202_3_1,Length=0.122363000,Units=km
new line.TR12410376 bus1=BMT9016910B.2,bus2=BMT9016911B.2,Phases=1,Linecode=CAB202_3_1,Length=0.112754000,Units=km
new line.TR12410377 bus1=BMT9016911B.2,bus2=BMT9016912B.2,Phases=1,Linecode=CAB202_3_1,Length=0.113179000,Units=km
new line.TR12220461 bus1=BMT8821154B.1.2.3,bus2=BMT156631898.1.2.3,Phases=3,Linecode=CAB203_3_3,Length=0.115468000,Units=km
new line.TR12220481 bus1=BMT8800433B.1.2.3,bus2=BMT8821182B.1.2.3,Phases=3,Linecode=CAB203_3_3,Length=0.140073000,Units=km
new line.TR12220482 bus1=BMT8800437B.1.2.3,bus2=BMT8821182B.1.2.3,Phases=3,Linecode=CAB203_3_3,Length=0.144473000,Units=km
new line.TR12220733 bus1=BMT8800435B.1.2.3,bus2=BMT8800441B.1.2.3,Phases=3,Linecode=CAB203_3_3,Length=0.082729000,Units=km
new line.TR12229965 bus1=BMT152417062.2,bus2=BMT8831021B.2,Phases=1,Linecode=CAB202_3_1,Length=0.137124000,Units=km
new line.TR12229966 bus1=BMT8831021B.2,bus2=BMT8831022B.2,Phases=1,Linecode=CAB202_3_1,Length=0.137124000,Units=km
new line.TR12229967 bus1=BMT8831022B.2,bus2=BMT8831029B.2,Phases=1,Linecode=CAB202_3_1,Length=0.189189000,Units=km
new line.TR12229968 bus1=BMT8831029B.2,bus2=BMT8831023B.2,Phases=1,Linecode=CAB202_3_1,Length=0.102136000,Units=km
new line.TR12229969 bus1=BMT8831023B.2,bus2=BMT8831024B.2,Phases=1,Linecode=CAB202_3_1,Length=0.102082000,Units=km
new line.TR12229970 bus1=BMT8831024B.2,bus2=BMT8831025B.2,Phases=1,Linecode=CAB202_3_1,Length=0.111118000,Units=km
new line.TR12229971 bus1=BMT8831025B.2,bus2=BMT8831026B.2,Phases=1,Linecode=CAB202_3_1,Length=0.126092000,Units=km
new line.TR12229972 bus1=BMT8831026B.2,bus2=BMT8831027B.2,Phases=1,Linecode=CAB202_3_1,Length=0.135127000,Units=km
new line.TR12229973 bus1=BMT8831027B.2,bus2=BMT8831028B.2,Phases=1,Linecode=CAB202_3_1,Length=0.186379000,Units=km
new line.TR12229974 bus1=BMT8831028B.2,bus2=BMT152417063.2,Phases=1,Linecode=CAB202_3_1,Length=0.106849000,Units=km
new line.TR12232893 bus1=BMT168901644.1.2.3,bus2=BMT8834420B.1.2.3,Phases=3,Linecode=CAB203_3_3,Length=0.164331000,Units=km
new line.TR12232901 bus1=BMT8834420B.1.2.3,bus2=BMT8834421B.1.2.3,Phases=3,Linecode=CAB203_3_3,Length=0.165540000,Units=km
new line.TR12232910 bus1=BMT8834421B.1.2.3,bus2=BMT8834425B.1.2.3,Phases=3,Linecode=CAB203_3_3,Length=0.223920000,Units=km
new line.TR12232915 bus1=BMT8834425B.1.2.3,bus2=BMT8834426B.1.2.3,Phases=3,Linecode=CAB203_3_3,Length=0.157116000,Units=km
new line.TR12232920 bus1=BMT8834426B.1.2.3,bus2=BMT8834432B.1.2.3,Phases=3,Linecode=CAB203_3_3,Length=0.176012000,Units=km
new line.TR12232925 bus1=BMT8834432B.1.2.3,bus2=BMT8834433B.1.2.3,Phases=3,Linecode=CAB203_3_3,Length=0.165644000,Units=km
new line.TR12232931 bus1=BMT8834433B.1.2.3,bus2=BMT8834435B.1.2.3,Phases=3,Linecode=CAB203_3_3,Length=0.170005000,Units=km
new line.TR12232936 bus1=BMT8834435B.1.2.3,bus2=BMT8834443B.1.2.3,Phases=3,Linecode=CAB203_3_3,Length=0.145849000,Units=km
new line.TR12232949 bus1=BMT8834443B.1.2.3,bus2=BMT8834450B.1.2.3,Phases=3,Linecode=CAB203_3_3,Length=0.165152000,Units=km