new load.3009010687M1 bus1=BMT150345462.1.2.3.0,Phases=3,kv=34.5,kW=158.27748,pf=0.92,Vminpu=0.93,Vmaxpu=1.5,model=1,daily=A4-7,status=variable
new load.3009010693M1 bus1=BMT126196928.1.2.3.0,Phases=3,kv=34.5,kW=40.51786,pf=0.92,Vminpu=0.93,Vmaxpu=1.5,model=1,daily=A4-6,status=variable
new load.3009016535M1 bus1=BMT126196879.1.2.3.0,Phases=3,kv=34.5,kW=2.134,pf=0.92,Vminpu=0.93,Vmaxpu=1.5,model=1,daily=A4-4,status=variable
new load.3009022346M1 bus1=BMT126195871.1.2.3.0,Phases=3,kv=34.5,kW=3.85884,pf=0.92,Vminpu=0.93,Vmaxpu=1.5,model=1,daily=A4-6,status=variable
new load.3010001929M1 bus1=BMT126536974.1.2.3.0,Phases=3,kv=13.8,kW=4.26802,pf=0.92,Vminpu=0.93,Vmaxpu=1.5,model=1,daily=A4-4,status=variable
new load.3010009808M1 bus1=BMT126195815.1.2.3.0,Phases=3,kv=34.5,kW=8.53604,pf=0.92,Vminpu=0.93,Vmaxpu=1.5,model=1,daily=A4-4,status=variable
new load.3010119075M1 bus1=BMT126197082.1.2.3.0,Phases=3,kv=34.5,kW=8.53604,pf=0.92,Vminpu=0.93,Vmaxpu=1.5,model=1,daily=A4-4,status=variable
new load.3010119112M1 bus1=BMT126197068.1.2.3.0,Phases=3,kv=34.5,kW=21.34008,pf=0.92,Vminpu=0.93,Vmaxpu=1.5,model=1,daily=A4-4,status=variable
new load.3010165147M1 bus1=BMT126197145.1.2.3.0,Phases=3,kv=34.5,kW=277.41106,pf=0.92,Vminpu=0.93,Vmaxpu=1.5,model=1,daily=A4-7,status=variable
new load.3010171339M1 bus1=BMT126196060.1.2.3.0,Phases=3,kv=34.5,kW=175.29656,pf=0.92,Vminpu=0.93,Vmaxpu=1.5,model=1,daily=A4-7,status=variable
new load.3010193299M1 bus1=BMT126195703.1.2.3.0,Phases=3,kv=13.8,kW=209.33472,pf=0.92,Vminpu=0.93,Vmaxpu=1.5,model=1,daily=A4-7,status=variable
new load.3010212525M1 bus1=BMT126195997.1.2.3.0,Phases=3,kv=34.5,kW=73.18206,pf=0.92,Vminpu=0.93,Vmaxpu=1.5,model=1,daily=A4-7,status=variable
new load.3010223321M1 bus1=BMT151119431.1.2.3.0,Phases=3,kv=34.5,kW=79.9897,pf=0.92,Vminpu=0.93,Vmaxpu=1.5,model=1,daily=A4-7,status=variable
new load.3010233641M1 bus1=BMT126196375.1.2.3.0,Phases=3,kv=34.5,kW=51.05726,pf=0.92,Vminpu=0.93,Vmaxpu=1.5,model=1,daily=A4-7,status=variable
new load.3010267032M1 bus1=BMT126198503.1.2.3.0,Phases=3,kv=34.5,kW=204.229,pf=0.92,Vminpu=0.93,Vmaxpu=1.5,model=1,daily=A4-7,status=variable
new load.3010281302M1 bus1=BMT163612843.1.2.3.0,Phases=3,kv=13.8,kW=14.93806,pf=0.92,Vminpu=0.93,Vmaxpu=1.5,model=1,daily=A4-4,status=variable
new load.3012849726M1 bus1=BMT161324677.1.2.3.0,Phases=3,kv=34.5,kW=19.29422,pf=0.92,Vminpu=0.93,Vmaxpu=1.5,model=1,daily=A4-6,status=variable
