new line.RML10048249 bus1=BBT148421662.1.2.0,bus2=RML1060048249.1.2.0,Phases=2,Linecode=CABBT808_4_2,Length=0.017000000,Units=km
new line.RML10889122 bus1=BBT165215089.1.2.3.0,bus2=RML1060889122.1.2.3.0,Phases=3,Linecode=CABBTG08_4_3,Length=0.017000000,Units=km
new line.RML10889124 bus1=BBT165213942.1.2.3.0,bus2=RML1060889124.1.2.3.0,Phases=3,Linecode=CABBTG08_4_3,Length=0.017000000,Units=km
new line.RML10929315 bus1=BBT168900941.1.2.0,bus2=RML1060929315.1.2.0,Phases=2,Linecode=CABBTG05_4_2,Length=0.011000000,Units=km
new line.RML10936118 bus1=BBT169530898.1.2.0,bus2=RML1060936118.1.2.0,Phases=2,Linecode=CABBTG05_4_2,Length=0.018000000,Units=km
new line.RML10936125 bus1=BBT169530904.1.0,bus2=RML1060936125.1.0,Phases=1,Linecode=CABBTG02_4_1,Length=0.030000000,Units=km
new line.RML10936130 bus1=BBT169530904.1.0,bus2=RML1060936130.1.0,Phases=1,Linecode=CABBTG02_4_1,Length=0.016000000,Units=km
new line.RML10957746 bus1=BBT170235752.1.2.0,bus2=RML1060957746.1.2.0,Phases=2,Linecode=CABBTG05_4_2,Length=0.023000000,Units=km
new line.RML10957808 bus1=BBT170240371.1.2.0,bus2=RML1060957808.1.2.0,Phases=2,Linecode=CABBTG05_4_2,Length=0.010000000,Units=km
new line.RML10986980 bus1=BBT170443545.1.2.0,bus2=RML1060986980.1.2.0,Phases=2,Linecode=CABBTG05_4_2,Length=0.010000000,Units=km
new line.RML10992912 bus1=BBT169530904.1.2.0,bus2=RML1060992912.1.2.0,Phases=2,Linecode=CABBTG05_4_2,Length=0.020000000,Units=km
new line.RML10992953 bus1=BBT1083865.1.2.3.0,bus2=RML1060992953.1.2.3.0,Phases=3,Linecode=CABBTG06_4_3,Length=0.020000000,Units=km
new line.RML10994026 bus1=BBT169909373.1.2.0,bus2=RML1060994026.1.2.0,Phases=2,Linecode=CABBT811_4_2,Length=0.012000000,Units=km
new line.RML11023759 bus1=BBT151345120.1.2.3.0,bus2=RML1061023759.1.2.3.0,Phases=3,Linecode=CABBTG08_4_3,Length=0.017000000,Units=km
new line.RML1516766 bus1=BBT158433440.1.2.0,bus2=RML1051516766.1.2.0,Phases=2,Linecode=CABBTG05_4_2,Length=0.017000000,Units=km
new line.RML1517179 bus1=BBT1089892.1.2.0,bus2=RML1051517179.1.2.0,Phases=2,Linecode=CABBTG05_4_2,Length=0.017000000,Units=km
new line.RML1517347 bus1=BBT165229770.1.2.0,bus2=RML1051517347.1.2.0,Phases=2,Linecode=CABBT808_4_2,Length=0.019000000,Units=km
new line.RML1517907 bus1=BBT1090403.1.2.0,bus2=RML1051517907.1.2.0,Phases=2,Linecode=CABBTG05_4_2,Length=0.017000000,Units=km
new line.RML1518215 bus1=BBT1090704.1.2.0,bus2=RML1051518215.1.2.0,Phases=2,Linecode=CABBTG05_4_2,Length=0.017000000,Units=km
new line.RML1518803 bus1=BBT1090991.1.2.0,bus2=RML1051518803.1.2.0,Phases=2,Linecode=CABBTG05_4_2,Length=0.017000000,Units=km
new line.RML1519069 bus1=BBT1091299.1.2.0,bus2=RML1051519069.1.2.0,Phases=2,Linecode=CABBTG05_4_2,Length=0.017000000,Units=km
new line.RML3384415 bus1=BBT2316880.1.2.3.0,bus2=RML1053384415.1.2.3.0,Phases=3,Linecode=CABBTG10_4_3,Length=0.017000000,Units=km
new line.RML3384506 bus1=BBT5497862.1.2.3.0,bus2=RML1053384506.1.2.3.0,Phases=3,Linecode=CABBTG10_4_3,Length=0.017000000,Units=km
new line.RML3664247 bus1=BBT158433759.1.2.0,bus2=RML1053664247.1.2.0,Phases=2,Linecode=CABBTG05_4_2,Length=0.017000000,Units=km
new line.RML3993800 bus1=BBT3319959.1.2.0,bus2=RML1053993800.1.2.0,Phases=2,Linecode=CABBTG05_4_2,Length=0.017000000,Units=km
new line.RML3993807 bus1=BBT3320316.1.2.0,bus2=RML1053993807.1.2.0,Phases=2,Linecode=CABBTG05_4_2,Length=0.017000000,Units=km
new line.RML3993814 bus1=BBT3320281.1.2.0,bus2=RML1053993814.1.2.0,Phases=2,Linecode=CABBTG05_4_2,Length=0.017000000,Units=km
new line.RML3993828 bus1=BBT3319917.1.2.0,bus2=RML1053993828.1.2.0,Phases=2,Linecode=CABBTG05_4_2,Length=0.017000000,Units=km
new line.RML3993842 bus1=BBT3319833.1.2.0,bus2=RML1053993842.1.2.0,Phases=2,Linecode=CABBTG05_4_2,Length=0.017000000,Units=km
new line.RML3993849 bus1=BBT3320428.1.2.0,bus2=RML1053993849.1.2.0,Phases=2,Linecode=CABBTG05_4_2,Length=0.017000000,Units=km
new line.RML3993863 bus1=BBT3320449.1.2.0,bus2=RML1053993863.1.2.0,Phases=2,Linecode=CABBTG05_4_2,Length=0.017000000,Units=km
new line.RML3993870 bus1=BBT3320155.1.2.0,bus2=RML1053993870.1.2.0,Phases=2,Linecode=CABBTG05_4_2,Length=0.017000000,Units=km
new line.RML3993884 bus1=BBT3319903.1.2.0,bus2=RML1053993884.1.2.0,Phases=2,Linecode=CABBTG05_4_2,Length=0.017000000,Units=km
new line.RML3993891 bus1=BBT3319819.1.2.0,bus2=RML1053993891.1.2.0,Phases=2,Linecode=CABBTG05_4_2,Length=0.017000000,Units=km
new line.RML3993954 bus1=BBT3320407.1.2.0,bus2=RML1053993954.1.2.0,Phases=2,Linecode=CABBTG05_4_2,Length=0.017000000,Units=km
new line.RML3993961 bus1=BBT3320169.1.2.0,bus2=RML1053993961.1.2.0,Phases=2,Linecode=CABBTG05_4_2,Length=0.017000000,Units=km
new line.RML3993982 bus1=BBT3320225.1.2.0,bus2=RML1053993982.1.2.0,Phases=2,Linecode=CABBTG05_4_2,Length=0.017000000,Units=km
new line.RML3993996 bus1=BBT3319875.1.2.0,bus2=RML1053993996.1.2.0,Phases=2,Linecode=CABBTG05_4_2,Length=0.017000000,Units=km
new line.RML3994010 bus1=BBT3319987.1.2.0,bus2=RML1053994010.1.2.0,Phases=2,Linecode=CABBTG05_4_2,Length=0.017000000,Units=km
new line.RML3994017 bus1=BBT3320071.1.2.0,bus2=RML1053994017.1.2.0,Phases=2,Linecode=CABBTG05_4_2,Length=0.017000000,Units=km
new line.RML3994024 bus1=BBT3319945.1.2.0,bus2=RML1053994024.1.2.0,Phases=2,Linecode=CABBTG05_4_2,Length=0.017000000,Units=km
new line.RML3994031 bus1=BBT3320113.1.2.0,bus2=RML1053994031.1.2.0,Phases=2,Linecode=CABBTG05_4_2,Length=0.017000000,Units=km
new line.RML3994038 bus1=BBT3320330.1.2.0,bus2=RML1053994038.1.2.0,Phases=2,Linecode=CABBTG05_4_2,Length=0.017000000,Units=km
new line.RML3994045 bus1=BBT3320057.1.2.0,bus2=RML1053994045.1.2.0,Phases=2,Linecode=CABBTG05_4_2,Length=0.017000000,Units=km
new line.RML3994052 bus1=BBT3319742.1.2.0,bus2=RML1053994052.1.2.0,Phases=2,Linecode=CABBTG05_4_2,Length=0.017000000,Units=km
new line.RML3994059 bus1=BBT3320197.1.2.0,bus2=RML1053994059.1.2.0,Phases=2,Linecode=CABBTG05_4_2,Length=0.017000000,Units=km
new line.RML3994066 bus1=BBT3320022.1.2.0,bus2=RML1053994066.1.2.0,Phases=2,Linecode=CABBTG05_4_2,Length=0.017000000,Units=km
new line.RML3994073 bus1=BBT3320183.1.2.0,bus2=RML1053994073.1.2.0,Phases=2,Linecode=CABBTG05_4_2,Length=0.017000000,Units=km
new line.RML3994080 bus1=BBT3320141.1.2.0,bus2=RML1053994080.1.2.0,Phases=2,Linecode=CABBTG05_4_2,Length=0.017000000,Units=km
new line.RML3994087 bus1=BBT3320253.1.2.0,bus2=RML1053994087.1.2.0,Phases=2,Linecode=CABBTG05_4_2,Length=0.017000000,Units=km
new line.RML3994094 bus1=BBT3320008.1.2.0,bus2=RML1053994094.1.2.0,Phases=2,Linecode=CABBTG05_4_2,Length=0.017000000,Units=km
new line.RML3994101 bus1=BBT3320491.1.2.0,bus2=RML1053994101.1.2.0,Phases=2,Linecode=CABBTG05_4_2,Length=0.017000000,Units=km
new line.RML3994108 bus1=BBT3320519.1.2.0,bus2=RML1053994108.1.2.0,Phases=2,Linecode=CABBTG05_4_2,Length=0.017000000,Units=km
new line.RML3994115 bus1=BBT3319931.1.2.0,bus2=RML1053994115.1.2.0,Phases=2,Linecode=CABBTG05_4_2,Length=0.017000000,Units=km
new line.RML3994122 bus1=BBT3320127.1.2.0,bus2=RML1053994122.1.2.0,Phases=2,Linecode=CABBTG05_4_2,Length=0.017000000,Units=km
new line.RML3994129 bus1=BBT3320239.1.2.0,bus2=RML1053994129.1.2.0,Phases=2,Linecode=CABBTG05_4_2,Length=0.017000000,Units=km
new line.RML3994143 bus1=BBT3320267.1.2.0,bus2=RML1053994143.1.2.0,Phases=2,Linecode=CABBTG05_4_2,Length=0.017000000,Units=km
new line.RML10058099 bus1=BBT141411862.1.2.0,bus2=RML1060058099.1.2.0,Phases=2,Linecode=CABBTG05_4_2,Length=0.017000000,Units=km
new line.RML10359272 bus1=BBT151345351.1.2.3.0,bus2=RML1060359272.1.2.3.0,Phases=3,Linecode=CABBTG06_4_3,Length=0.017000000,Units=km
new line.RML10361432 bus1=BBT151514946.1.2.0,bus2=RML1060361432.1.2.0,Phases=2,Linecode=CABBTG05_4_2,Length=0.017000000,Units=km
new line.RML10387927 bus1=BBT153043215.1.2.0,bus2=RML1060387927.1.2.0,Phases=2,Linecode=CABBTG05_4_2,Length=0.028000000,Units=km
new line.RML10688396 bus1=BBT161229303.1.0,bus2=RML1060688396.1.0,Phases=1,Linecode=CABBTG02_4_1,Length=0.017000000,Units=km
new line.RML10689504 bus1=BBT161324679.1.2.3.0,bus2=RML1060689504.1.2.3.0,Phases=3,Linecode=CABBTG06_4_3,Length=0.017000000,Units=km
new line.RML10719211 bus1=BBT161476809.1.2.3.0,bus2=RML1060719211.1.2.3.0,Phases=3,Linecode=CABBTG06_4_3,Length=0.010000000,Units=km
new line.RML10723431 bus1=BBT3984707.1.2.0,bus2=RML1060723431.1.2.0,Phases=2,Linecode=CABBTG05_4_2,Length=0.015000000,Units=km
new line.RML10723432 bus1=BBT3984707.1.2.0,bus2=RML1060723432.1.2.0,Phases=2,Linecode=CABBTG05_4_2,Length=0.015000000,Units=km
new line.RML10908055 bus1=BBT162196231.1.2.0,bus2=RML1060908055.1.2.0,Phases=2,Linecode=CABBTG05_4_2,Length=0.020000000,Units=km
new line.RML10908605 bus1=BBT158399742.1.2.0,bus2=RML1060908605.1.2.0,Phases=2,Linecode=CABBTG05_4_2,Length=0.020000000,Units=km
new line.RML10938164 bus1=BBT162166046.1.2.0,bus2=RML1060938164.1.2.0,Phases=2,Linecode=CABBTG05_4_2,Length=0.017000000,Units=km
new line.RML10997898 bus1=BBT170132910.1.2.0,bus2=RML1060997898.1.2.0,Phases=2,Linecode=CABBTG05_4_2,Length=0.020000000,Units=km
new line.RML10998775 bus1=BBT170238964.1.2.0,bus2=RML1060998775.1.2.0,Phases=2,Linecode=CABBTG05_4_2,Length=0.020000000,Units=km
new line.RML1538767 bus1=BBT102516320.1.2.3.0,bus2=RML1051538767.1.2.3.0,Phases=3,Linecode=CABBTG07_4_3,Length=0.017000000,Units=km
new line.RML1539964 bus1=BBT1106538.1.2.3.0,bus2=RML1051539964.1.2.3.0,Phases=3,Linecode=CABBTG06_4_3,Length=0.017000000,Units=km
new line.RML1540755 bus1=BBT1107091.1.2.3.0,bus2=RML1051540755.1.2.3.0,Phases=3,Linecode=CABBTG07_4_3,Length=0.017000000,Units=km
new line.RML1541168 bus1=BBT1107672.1.2.3.0,bus2=RML1051541168.1.2.3.0,Phases=3,Linecode=CABBTG07_4_3,Length=0.017000000,Units=km
new line.RML1541763 bus1=BBT5344625.1.2.0,bus2=RML1051541763.1.2.0,Phases=2,Linecode=CABBTG05_4_2,Length=0.017000000,Units=km
new line.RML1541777 bus1=BBT5662404.1.2.3.0,bus2=RML1051541777.1.2.3.0,Phases=3,Linecode=CABBTG07_4_3,Length=0.017000000,Units=km
new line.RML1542225 bus1=BBT5344961.1.2.0,bus2=RML1051542225.1.2.0,Phases=2,Linecode=CABBTG05_4_2,Length=0.017000000,Units=km
new line.RML1542246 bus1=BBT1108582.1.2.3.0,bus2=RML1051542246.1.2.3.0,Phases=3,Linecode=CABBTG07_4_3,Length=0.017000000,Units=km
new line.RML3146695 bus1=BBT5212528.1.2.3.0,bus2=RML1053146695.1.2.3.0,Phases=3,Linecode=CABBTG07_4_3,Length=0.017000000,Units=km
new line.RML3146702 bus1=BBT5212528.1.2.3.0,bus2=RML1053146702.1.2.3.0,Phases=3,Linecode=CABBTG07_4_3,Length=0.017000000,Units=km
new line.RML3146716 bus1=BBT5212528.1.2.3.0,bus2=RML1053146716.1.2.3.0,Phases=3,Linecode=CABBTG07_4_3,Length=0.017000000,Units=km
new line.RML3993688 bus1=BBT3320085.1.2.0,bus2=RML1053993688.1.2.0,Phases=2,Linecode=CABBTG05_4_2,Length=0.017000000,Units=km
new line.RML3993695 bus1=BBT3320477.1.2.0,bus2=RML1053993695.1.2.0,Phases=2,Linecode=CABBTG05_4_2,Length=0.017000000,Units=km
new line.RML3993702 bus1=BBT3320554.1.2.0,bus2=RML1053993702.1.2.0,Phases=2,Linecode=CABBTG05_4_2,Length=0.017000000,Units=km
new line.RML3993709 bus1=BBT3320295.1.2.0,bus2=RML1053993709.1.2.0,Phases=2,Linecode=CABBTG05_4_2,Length=0.017000000,Units=km
new line.RML3993716 bus1=BBT3319889.1.2.0,bus2=RML1053993716.1.2.0,Phases=2,Linecode=CABBTG05_4_2,Length=0.017000000,Units=km
new line.RML3993723 bus1=BBT3320505.1.2.0,bus2=RML1053993723.1.2.0,Phases=2,Linecode=CABBTG05_4_2,Length=0.017000000,Units=km
new line.RML3993730 bus1=BBT3319861.1.2.0,bus2=RML1053993730.1.2.0,Phases=2,Linecode=CABBTG05_4_2,Length=0.017000000,Units=km
new line.RML3993737 bus1=BBT3319847.1.2.0,bus2=RML1053993737.1.2.0,Phases=2,Linecode=CABBTG05_4_2,Length=0.017000000,Units=km
new line.RML3993758 bus1=BBT3320533.1.2.0,bus2=RML1053993758.1.2.0,Phases=2,Linecode=CABBTG05_4_2,Length=0.017000000,Units=km
new line.RML3993765 bus1=BBT3320211.1.2.0,bus2=RML1053993765.1.2.0,Phases=2,Linecode=CABBTG05_4_2,Length=0.017000000,Units=km
new line.RML3993772 bus1=BBT3320344.1.2.0,bus2=RML1053993772.1.2.0,Phases=2,Linecode=CABBTG05_4_2,Length=0.017000000,Units=km
new line.RML3993779 bus1=BBT3319973.1.2.0,bus2=RML1053993779.1.2.0,Phases=2,Linecode=CABBTG05_4_2,Length=0.017000000,Units=km
new line.RML4052936 bus1=BBT3320043.1.2.0,bus2=RML1054052936.1.2.0,Phases=2,Linecode=CABBTG05_4_2,Length=0.017000000,Units=km
new line.RML4052943 bus1=BBT3320043.1.2.0,bus2=RML1054052943.1.2.0,Phases=2,Linecode=CABBTG05_4_2,Length=0.017000000,Units=km
new line.RML4052950 bus1=BBT3320407.1.2.0,bus2=RML1054052950.1.2.0,Phases=2,Linecode=CABBTG05_4_2,Length=0.017000000,Units=km
new line.RML4124994 bus1=BBT3626041.1.2.0,bus2=RML1054124994.1.2.0,Phases=2,Linecode=CABBTG05_4_2,Length=0.017000000,Units=km
new line.RML4125022 bus1=BBT3626363.1.2.0,bus2=RML1054125022.1.2.0,Phases=2,Linecode=CABBTG05_4_2,Length=0.017000000,Units=km
new line.RML4125050 bus1=BBT3626314.1.2.0,bus2=RML1054125050.1.2.0,Phases=2,Linecode=CABBTG05_4_2,Length=0.017000000,Units=km
new line.RML4125064 bus1=BBT3626314.1.2.0,bus2=RML1054125064.1.2.0,Phases=2,Linecode=CABBTG05_4_2,Length=0.017000000,Units=km
new line.RML4125085 bus1=BBT3626349.1.2.0,bus2=RML1054125085.1.2.0,Phases=2,Linecode=CABBTG05_4_2,Length=0.017000000,Units=km
new line.RML4125092 bus1=BBT3626335.1.2.0,bus2=RML1054125092.1.2.0,Phases=2,Linecode=CABBTG05_4_2,Length=0.017000000,Units=km
new line.RML4125106 bus1=BBT3626300.1.2.0,bus2=RML1054125106.1.2.0,Phases=2,Linecode=CABBTG05_4_2,Length=0.017000000,Units=km
new line.RML4125120 bus1=BBT3626258.1.2.0,bus2=RML1054125120.1.2.0,Phases=2,Linecode=CABBTG05_4_2,Length=0.017000000,Units=km
new line.RML4125127 bus1=BBT3626286.1.2.0,bus2=RML1054125127.1.2.0,Phases=2,Linecode=CABBTG05_4_2,Length=0.017000000,Units=km
new line.RML4125141 bus1=BBT3626244.1.2.0,bus2=RML1054125141.1.2.0,Phases=2,Linecode=CABBTG05_4_2,Length=0.017000000,Units=km
new line.RML4125162 bus1=BBT3626216.1.2.0,bus2=RML1054125162.1.2.0,Phases=2,Linecode=CABBTG05_4_2,Length=0.017000000,Units=km
new line.RML4125197 bus1=BBT3626132.1.2.0,bus2=RML1054125197.1.2.0,Phases=2,Linecode=CABBTG05_4_2,Length=0.017000000,Units=km
new line.RML4125211 bus1=BBT3626125.1.2.0,bus2=RML1054125211.1.2.0,Phases=2,Linecode=CABBTG05_4_2,Length=0.017000000,Units=km
new line.RML4125232 bus1=BBT3626202.1.2.0,bus2=RML1054125232.1.2.0,Phases=2,Linecode=CABBTG05_4_2,Length=0.017000000,Units=km
new line.RML4125246 bus1=BBT3626188.1.2.0,bus2=RML1054125246.1.2.0,Phases=2,Linecode=CABBTG05_4_2,Length=0.017000000,Units=km
new line.RML4125253 bus1=BBT3626174.1.2.0,bus2=RML1054125253.1.2.0,Phases=2,Linecode=CABBTG05_4_2,Length=0.017000000,Units=km
new line.RML4125260 bus1=BBT3626146.1.2.0,bus2=RML1054125260.1.2.0,Phases=2,Linecode=CABBTG05_4_2,Length=0.017000000,Units=km
new line.RML4125267 bus1=BBT3626160.1.2.0,bus2=RML1054125267.1.2.0,Phases=2,Linecode=CABBTG05_4_2,Length=0.017000000,Units=km
new line.RML4125274 bus1=BBT3626097.1.2.0,bus2=RML1054125274.1.2.0,Phases=2,Linecode=CABBTG05_4_2,Length=0.017000000,Units=km
new line.RML4125281 bus1=BBT3626111.1.2.0,bus2=RML1054125281.1.2.0,Phases=2,Linecode=CABBTG05_4_2,Length=0.017000000,Units=km
new line.RML4125288 bus1=BBT3626083.1.2.0,bus2=RML1054125288.1.2.0,Phases=2,Linecode=CABBTG05_4_2,Length=0.017000000,Units=km
new line.RML4125295 bus1=BBT3626069.1.2.0,bus2=RML1054125295.1.2.0,Phases=2,Linecode=CABBTG05_4_2,Length=0.017000000,Units=km
new line.RML4125309 bus1=BBT3626055.1.2.0,bus2=RML1054125309.1.2.0,Phases=2,Linecode=CABBTG05_4_2,Length=0.017000000,Units=km
new line.RML4164397 bus1=BBT3543371.1.2.3.0,bus2=RML1054164397.1.2.3.0,Phases=3,Linecode=CABBTG06_4_3,Length=0.017000000,Units=km
new line.RML4596927 bus1=BBT5443346.1.2.3.0,bus2=RML1054596927.1.2.3.0,Phases=3,Linecode=CABBTG09_4_3,Length=0.017000000,Units=km
new line.RML4596969 bus1=BBT5414261.1.2.3.0,bus2=RML1054596969.1.2.3.0,Phases=3,Linecode=CABBTG09_4_3,Length=0.017000000,Units=km
new line.RML4596976 bus1=BBT5415647.1.2.3.0,bus2=RML1054596976.1.2.3.0,Phases=3,Linecode=CABBTG09_4_3,Length=0.017000000,Units=km
new line.RML4597123 bus1=BBT5409900.1.2.3.0,bus2=RML1054597123.1.2.3.0,Phases=3,Linecode=CABBTG09_4_3,Length=0.017000000,Units=km
new line.RML4663917 bus1=BBT2162551.1.2.0,bus2=RML1054663917.1.2.0,Phases=2,Linecode=CABBTG05_4_2,Length=0.017000000,Units=km
new line.RML5053887 bus1=BBT5344625.1.2.3.0,bus2=RML1055053887.1.2.3.0,Phases=3,Linecode=CABBT815_4_3,Length=0.017000000,Units=km
new line.RML5567356 bus1=BBT52673772.1.2.3.0,bus2=RML1055567356.1.2.3.0,Phases=3,Linecode=CABBTG06_4_3,Length=0.017000000,Units=km
new line.RML6852346 bus1=BBT141265576.1.2.0,bus2=RML1056852346.1.2.0,Phases=2,Linecode=CABBTG05_4_2,Length=0.017000000,Units=km
new line.RML10053562 bus1=BBT148529244.1.2.3.0,bus2=RML1060053562.1.2.3.0,Phases=3,Linecode=CABBTG08_4_3,Length=0.017000000,Units=km
new line.RML10148406 bus1=BBT149276221.1.2.3.0,bus2=RML1060148406.1.2.3.0,Phases=3,Linecode=CABBTG08_4_3,Length=0.017000000,Units=km
new line.RML10264310 bus1=BBT151393764.1.2.0,bus2=RML1060264310.1.2.0,Phases=2,Linecode=CABBTG13_4_2,Length=0.017000000,Units=km
new line.RML10313301 bus1=BBT151990769.1.2.0,bus2=RML1060313301.1.2.0,Phases=2,Linecode=CABBTG05_4_2,Length=0.017000000,Units=km
new line.RML10621258 bus1=BBT158858735.1.2.3.0,bus2=RML1060621258.1.2.3.0,Phases=3,Linecode=CABBTG06_4_3,Length=0.017000000,Units=km
new line.RML10705297 bus1=BBT158588166.1.2.0,bus2=RML1060705297.1.2.0,Phases=2,Linecode=CABBTG05_4_2,Length=0.017000000,Units=km
new line.RML10705303 bus1=BBT162172893.1.2.0,bus2=RML1060705303.1.2.0,Phases=2,Linecode=CABBTG05_4_2,Length=0.022000000,Units=km
new line.RML10706076 bus1=BBT162167762.1.2.0,bus2=RML1060706076.1.2.0,Phases=2,Linecode=CABBTG05_4_2,Length=0.008000000,Units=km
new line.RML10706101 bus1=BBT162169114.1.2.0,bus2=RML1060706101.1.2.0,Phases=2,Linecode=CABBTG05_4_2,Length=0.019000000,Units=km
new line.RML10706117 bus1=BBT162170462.1.2.0,bus2=RML1060706117.1.2.0,Phases=2,Linecode=CABBTG05_4_2,Length=0.026000000,Units=km
new line.RML10706286 bus1=BBT162195120.1.2.0,bus2=RML1060706286.1.2.0,Phases=2,Linecode=CABBTG05_4_2,Length=0.021000000,Units=km
new line.RML10707382 bus1=BBT162166046.1.2.0,bus2=RML1060707382.1.2.0,Phases=2,Linecode=CABBTG05_4_2,Length=0.023000000,Units=km
new line.RML10707384 bus1=BBT162173888.1.2.0,bus2=RML1060707384.1.2.0,Phases=2,Linecode=CABBTG05_4_2,Length=0.017000000,Units=km
new line.RML10763251 bus1=BBT158589148.1.2.0,bus2=RML1060763251.1.2.0,Phases=2,Linecode=CABBT811_4_2,Length=0.020000000,Units=km
new line.RML10763253 bus1=BBT162195237.1.2.0,bus2=RML1060763253.1.2.0,Phases=2,Linecode=CABBT811_4_2,Length=0.016000000,Units=km
new line.RML10763263 bus1=BBT158587472.1.2.0,bus2=RML1060763263.1.2.0,Phases=2,Linecode=CABBT811_4_2,Length=0.020000000,Units=km
new line.RML10876225 bus1=BBT167739737.1.2.0,bus2=RML1060876225.1.2.0,Phases=2,Linecode=CABBTG05_4_2,Length=0.012000000,Units=km
new line.RML10946288 bus1=BBT169909373.1.2.0,bus2=RML1060946288.1.2.0,Phases=2,Linecode=CABBTG05_4_2,Length=0.017000000,Units=km
new line.RML10947091 bus1=BBT169939533.1.2.0,bus2=RML1060947091.1.2.0,Phases=2,Linecode=CABBTG05_4_2,Length=0.008000000,Units=km
new line.RML10950949 bus1=BBT167016822.1.2.3.0,bus2=RML1060950949.1.2.3.0,Phases=3,Linecode=CABBTG09_4_3,Length=0.017000000,Units=km
new line.RML10951491 bus1=BBT170072163.1.2.0,bus2=RML1060951491.1.2.0,Phases=2,Linecode=CABBTG05_4_2,Length=0.019000000,Units=km
new line.RML1525327 bus1=BBT1095324.1.2.3.0,bus2=RML1051525327.1.2.3.0,Phases=3,Linecode=CABBTG07_4_3,Length=0.017000000,Units=km
new line.RML1531494 bus1=BBT1099034.1.2.3.0,bus2=RML1051531494.1.2.3.0,Phases=3,Linecode=CABBTG07_4_3,Length=0.017000000,Units=km
new line.RML1532075 bus1=BBT158432133.1.2.3.0,bus2=RML1051532075.1.2.3.0,Phases=3,Linecode=CABBTG07_4_3,Length=0.017000000,Units=km
new line.RML1533482 bus1=BBT158856684.1.2.3.0,bus2=RML1051533482.1.2.3.0,Phases=3,Linecode=CABBTG06_4_3,Length=0.017000000,Units=km
new line.RML4703523 bus1=BBT5724389.1.2.3.0,bus2=RML1054703523.1.2.3.0,Phases=3,Linecode=CABBTG06_4_3,Length=0.017000000,Units=km
new line.RML4736661 bus1=BBT5793332.1.2.3.0,bus2=RML1054736661.1.2.3.0,Phases=3,Linecode=CABBTG06_4_3,Length=0.017000000,Units=km
new line.RML4745768 bus1=BBT4823258.1.2.3.0,bus2=RML1054745768.1.2.3.0,Phases=3,Linecode=CABBTG06_4_3,Length=0.017000000,Units=km
new line.RML5025131 bus1=BBT5409543.1.2.3.0,bus2=RML1055025131.1.2.3.0,Phases=3,Linecode=CABBTG06_4_3,Length=0.017000000,Units=km
new line.RML5068888 bus1=BBT158858735.1.2.3.0,bus2=RML1055068888.1.2.3.0,Phases=3,Linecode=CABBTG06_4_3,Length=0.017000000,Units=km
new line.RML5068895 bus1=BBT158858735.1.2.3.0,bus2=RML1055068895.1.2.3.0,Phases=3,Linecode=CABBTG06_4_3,Length=0.017000000,Units=km
new line.RML5074502 bus1=BBT102460446.1.2.0,bus2=RML1055074502.1.2.0,Phases=2,Linecode=CABBTG05_4_2,Length=0.017000000,Units=km
new line.RML6508058 bus1=BBT5168855.1.2.3.0,bus2=RML1056508058.1.2.3.0,Phases=3,Linecode=CABBTG08_4_3,Length=0.017000000,Units=km
new line.RML6656535 bus1=BBT139611854.1.2.0,bus2=RML1056656535.1.2.0,Phases=2,Linecode=CABBTG05_4_2,Length=0.017000000,Units=km
new line.RML6660140 bus1=BBT140548447.1.2.0,bus2=RML1056660140.1.2.0,Phases=2,Linecode=CABBTG05_4_2,Length=0.017000000,Units=km
new line.RML10242376 bus1=BBT151119035.1.2.0,bus2=RML1060242376.1.2.0,Phases=2,Linecode=CABBTG05_4_2,Length=0.017000000,Units=km
new line.RML10243397 bus1=BBT151133334.1.2.3.0,bus2=RML1060243397.1.2.3.0,Phases=3,Linecode=CABBTG08_4_3,Length=0.017000000,Units=km
new line.RML10278616 bus1=BBT171091365.1.2.3.0,bus2=RML1060278616.1.2.3.0,Phases=3,Linecode=CABBTG08_4_3,Length=0.017000000,Units=km
new line.RML10278653 bus1=BBT151615566.1.2.3.0,bus2=RML1060278653.1.2.3.0,Phases=3,Linecode=CABBTG08_4_3,Length=0.017000000,Units=km
new line.RML10711248 bus1=BBT162168387.1.2.0,bus2=RML1060711248.1.2.0,Phases=2,Linecode=CABBTG05_4_2,Length=0.011000000,Units=km
new line.RML10717240 bus1=BBT158588854.1.2.0,bus2=RML1060717240.1.2.0,Phases=2,Linecode=CABBTG05_4_2,Length=0.018000000,Units=km
new line.RML10802569 bus1=BBT165716959.1.2.0,bus2=RML1060802569.1.2.0,Phases=2,Linecode=CABBTG05_4_2,Length=0.018000000,Units=km
new line.RML10806054 bus1=BBT165641084.1.2.0,bus2=RML1060806054.1.2.0,Phases=2,Linecode=CABBTG05_4_2,Length=0.010000000,Units=km
new line.RML10808175 bus1=BBT158589796.1.2.0,bus2=RML1060808175.1.2.0,Phases=2,Linecode=CABBTG05_4_2,Length=0.020000000,Units=km
new line.RML10809014 bus1=BBT161592246.1.2.3.0,bus2=RML1060809014.1.2.3.0,Phases=3,Linecode=CABBTG06_4_3,Length=0.015000000,Units=km
new line.RML10922638 bus1=BBT168907140.1.2.0,bus2=RML1060922638.1.2.0,Phases=2,Linecode=CABBTG05_4_2,Length=0.020000000,Units=km
new line.RML10924729 bus1=BBT166608930.1.2.0,bus2=RML1060924729.1.2.0,Phases=2,Linecode=CABBTG05_4_2,Length=0.030000000,Units=km
new line.RML11040257 bus1=BBT165238555.1.2.3.0,bus2=RML1061040257.1.2.3.0,Phases=3,Linecode=CABBT809_4_3,Length=0.009000000,Units=km
new line.RML1274552 bus1=BBT944362.1.2.3.0,bus2=RML1051274552.1.2.3.0,Phases=3,Linecode=CABBTG07_4_3,Length=0.017000000,Units=km
new line.RML1274580 bus1=BBT944432.1.2.3.0,bus2=RML1051274580.1.2.3.0,Phases=3,Linecode=CABBTG07_4_3,Length=0.017000000,Units=km
new line.RML1508814 bus1=BBT1083865.1.2.3.0,bus2=RML1051508814.1.2.3.0,Phases=3,Linecode=CABBTG07_4_3,Length=0.017000000,Units=km
new line.RML1543478 bus1=BBT5345325.1.2.0,bus2=RML1051543478.1.2.0,Phases=2,Linecode=CABBTG05_4_2,Length=0.017000000,Units=km
new line.RML1543499 bus1=BBT1109254.1.2.3.0,bus2=RML1051543499.1.2.3.0,Phases=3,Linecode=CABBTG07_4_3,Length=0.017000000,Units=km
new line.RML1543856 bus1=BBT5345325.1.2.0,bus2=RML1051543856.1.2.0,Phases=2,Linecode=CABBTG05_4_2,Length=0.017000000,Units=km
new line.RML1543877 bus1=BBT1109576.1.2.3.0,bus2=RML1051543877.1.2.3.0,Phases=3,Linecode=CABBTG07_4_3,Length=0.017000000,Units=km
new line.RML1545795 bus1=BBT158433292.1.2.0,bus2=RML1051545795.1.2.0,Phases=2,Linecode=CABBTG05_4_2,Length=0.017000000,Units=km
new line.RML1645972 bus1=BBT158435862.1.2.0,bus2=RML1051645972.1.2.0,Phases=2,Linecode=CABBTG05_4_2,Length=0.017000000,Units=km
new line.RML3589977 bus1=BBT2602585.1.2.0,bus2=RML1053589977.1.2.0,Phases=2,Linecode=CABBTG05_4_2,Length=0.017000000,Units=km
new line.RML3589984 bus1=BBT2481219.1.2.0,bus2=RML1053589984.1.2.0,Phases=2,Linecode=CABBTG05_4_2,Length=0.017000000,Units=km
new line.RML3777472 bus1=BBT2890110.1.2.0,bus2=RML1053777472.1.2.0,Phases=2,Linecode=CABBTG05_4_2,Length=0.017000000,Units=km
new line.RML4241712 bus1=BBT3984707.1.2.3.0,bus2=RML1054241712.1.2.3.0,Phases=3,Linecode=CABBTG08_4_3,Length=0.017000000,Units=km
new line.RML4506144 bus1=BBT4823181.1.2.3.0,bus2=RML1054506144.1.2.3.0,Phases=3,Linecode=CABBTG06_4_3,Length=0.017000000,Units=km
new line.RML4573043 bus1=BBT5168834.1.2.3.0,bus2=RML1054573043.1.2.3.0,Phases=3,Linecode=CABBTG09_4_3,Length=0.017000000,Units=km
new line.RML4647229 bus1=BBT5410166.1.2.0,bus2=RML1054647229.1.2.0,Phases=2,Linecode=CABBTG05_4_2,Length=0.017000000,Units=km
new line.RML4696131 bus1=BBT5415647.1.2.3.0,bus2=RML1054696131.1.2.3.0,Phases=3,Linecode=CABBTG09_4_3,Length=0.017000000,Units=km
new line.RML4696208 bus1=BBT5497862.1.2.3.0,bus2=RML1054696208.1.2.3.0,Phases=3,Linecode=CABBTG09_4_3,Length=0.017000000,Units=km
new line.RML4696215 bus1=BBT5662404.1.2.3.0,bus2=RML1054696215.1.2.3.0,Phases=3,Linecode=CABBTG09_4_3,Length=0.017000000,Units=km
new line.RML4763884 bus1=BBT6001785.1.2.3.0,bus2=RML1054763884.1.2.3.0,Phases=3,Linecode=CABBTG09_4_3,Length=0.017000000,Units=km
new line.RML5082356 bus1=BBT27650783.1.2.0,bus2=RML1055082356.1.2.0,Phases=2,Linecode=CABBT811_4_2,Length=0.017000000,Units=km
new line.RML5488452 bus1=BBT1083865.1.2.3.0,bus2=RML1055488452.1.2.3.0,Phases=3,Linecode=CABBTG06_4_3,Length=0.017000000,Units=km
new line.RML6731253 bus1=BBT3320358.1.2.0,bus2=RML1056731253.1.2.0,Phases=2,Linecode=CABBTG04_4_2,Length=0.017000000,Units=km
new line.RML6731267 bus1=BBT3626111.1.2.0,bus2=RML1056731267.1.2.0,Phases=2,Linecode=CABBTG04_4_2,Length=0.017000000,Units=km
new line.RML3994157 bus1=BBT3320099.1.2.0,bus2=RML1053994157.1.2.0,Phases=2,Linecode=CABBTG05_4_2,Length=0.017000000,Units=km
new line.RML4560429 bus1=BBT4709711.1.2.3.0,bus2=RML1054560429.1.2.3.0,Phases=3,Linecode=CABBTG09_4_3,Length=0.017000000,Units=km
new line.RML4587729 bus1=BBT5464486.1.2.3.0,bus2=RML1054587729.1.2.3.0,Phases=3,Linecode=CABBTG06_4_3,Length=0.017000000,Units=km
new line.RML4780362 bus1=BBT6001813.1.2.3.0,bus2=RML1054780362.1.2.3.0,Phases=3,Linecode=CABBTG06_4_3,Length=0.017000000,Units=km
new line.RML5058269 bus1=BBT5793451.1.2.3.0,bus2=RML1055058269.1.2.3.0,Phases=3,Linecode=CABBT815_4_3,Length=0.017000000,Units=km
new line.RML5058283 bus1=BBT5793507.1.2.3.0,bus2=RML1055058283.1.2.3.0,Phases=3,Linecode=CABBT815_4_3,Length=0.017000000,Units=km
new line.RML6157344 bus1=BBT114189254.1.2.0,bus2=RML1056157344.1.2.0,Phases=2,Linecode=CABBTG05_4_2,Length=0.017000000,Units=km
new line.RML6383983 bus1=BBT158428572.1.2.0,bus2=RML1056383983.1.2.0,Phases=2,Linecode=CABBTG05_4_2,Length=0.017000000,Units=km
new line.RML6458911 bus1=BBT5053607.1.2.3.0,bus2=RML1056458911.1.2.3.0,Phases=3,Linecode=CABBTG07_4_3,Length=0.017000000,Units=km
new line.RML6784894 bus1=BBT5464507.1.2.3.0,bus2=RML1056784894.1.2.3.0,Phases=3,Linecode=CABBTG06_4_3,Length=0.017000000,Units=km
