new line.18786669 bus1=BBT151085878.1.2.0,bus2=BBT151085879.1.2.0,Phases=2,Linecode=BT521_BT521_7_2_1,Length=0.000500000,Units=km
new line.18786670 bus1=BBT151085879.1.2.0,bus2=BBT151085894.1.2.0,Phases=2,Linecode=BT808_BT808_4_2_3,Length=0.029145000,Units=km
new line.18787661 bus1=BBT151119034.1.2.0,bus2=BBT151119035.1.2.0,Phases=2,Linecode=BT521_BT521_7_2_1,Length=0.000500000,Units=km
new line.18787690 bus1=BBT151119793.1.2.0,bus2=BBT151119794.1.2.0,Phases=2,Linecode=BT518_BT518_7_2_1,Length=0.000500000,Units=km
new line.18787704 bus1=BBT151119794.1.2.0,bus2=BBT151120260.1.2.0,Phases=2,Linecode=BT808_BT808_4_2_3,Length=0.005829000,Units=km
new line.18788375 bus1=BBT151133333.1.2.3.0,bus2=BBT151133334.1.2.3.0,Phases=3,Linecode=BT513_BT513_7_3_1,Length=0.000500000,Units=km
new line.18816454 bus1=BBT151990768.1.2.0,bus2=BBT151990769.1.2.0,Phases=2,Linecode=BT521_BT521_7_2_1,Length=0.000500000,Units=km
new line.19123912 bus1=BBT161476808.1.2.3.0,bus2=BBT161476809.1.2.3.0,Phases=3,Linecode=BT518_BT518_7_3_1,Length=0.000500000,Units=km
new line.19126810 bus1=BBT161592245.1.2.3.0,bus2=BBT161592246.1.2.3.0,Phases=3,Linecode=BT518_BT518_7_3_1,Length=0.000500000,Units=km
new line.19309600 bus1=BBT167739736.1.2.0,bus2=BBT167739737.1.2.0,Phases=2,Linecode=BT505_BT505_7_2_1,Length=0.000500000,Units=km
new line.19370722 bus1=BBT169530897.1.2.0,bus2=BBT169530898.1.2.0,Phases=2,Linecode=BT518_BT518_7_2_1,Length=0.000500000,Units=km
new line.19370723 bus1=BBT169530903.1.2.0,bus2=BBT169530904.1.2.0,Phases=2,Linecode=BT518_BT518_7_2_1,Length=0.000500000,Units=km
new line.19423155 bus1=BBT170443545.1.2.0,bus2=BBT171087644.1.2.0,Phases=2,Linecode=BT808_BT808_4_2_3,Length=0.028451000,Units=km
new line.19423261 bus1=BBT171091364.1.2.3.0,bus2=BBT171091365.1.2.3.0,Phases=3,Linecode=BT513_BT513_7_3_1,Length=0.000500000,Units=km
new line.19486741 bus1=BBT173151613.1.2.0,bus2=BBT173151614.1.2.0,Phases=2,Linecode=BT508_BT508_7_2_1,Length=0.000500000,Units=km
new line.19486773 bus1=BBT173151614.1.2.0,bus2=BBT173152222.1.2.0,Phases=2,Linecode=BT808_BT808_4_2_3,Length=0.009431000,Units=km
new line.3068498 bus1=BBT2316873.1.2.3.0,bus2=BBT2316880.1.2.3.0,Phases=3,Linecode=BT514_BT514_7_3_1,Length=0.000500000,Units=km
new line.3759986 bus1=BBT2890103.1.2.0,bus2=BBT2890110.1.2.0,Phases=2,Linecode=BT508_BT508_7_2_1,Length=0.000500000,Units=km
new line.4236448 bus1=BBT3319812.1.2.0,bus2=BBT3319819.1.2.0,Phases=2,Linecode=BT316_BT316_7_2_1,Length=0.000500000,Units=km
new line.4236504 bus1=BBT3319826.1.2.0,bus2=BBT3319833.1.2.0,Phases=2,Linecode=BT316_BT316_7_2_1,Length=0.000500000,Units=km
new line.4236539 bus1=BBT3319840.1.2.0,bus2=BBT3319847.1.2.0,Phases=2,Linecode=BT316_BT316_7_2_1,Length=0.000500000,Units=km
new line.4236581 bus1=BBT3319896.1.2.0,bus2=BBT3319903.1.2.0,Phases=2,Linecode=BT316_BT316_7_2_1,Length=0.000500000,Units=km
new line.4236602 bus1=BBT3319910.1.2.0,bus2=BBT3319917.1.2.0,Phases=2,Linecode=BT316_BT316_7_2_1,Length=0.000500000,Units=km
new line.4236644 bus1=BBT3319938.1.2.0,bus2=BBT3319945.1.2.0,Phases=2,Linecode=BT316_BT316_7_2_1,Length=0.000500000,Units=km
new line.4236658 bus1=BBT3319924.1.2.0,bus2=BBT3319931.1.2.0,Phases=2,Linecode=BT508_BT508_7_2_1,Length=0.000500000,Units=km
new line.4236693 bus1=BBT3319868.1.2.0,bus2=BBT3319875.1.2.0,Phases=2,Linecode=BT316_BT316_7_2_1,Length=0.000500000,Units=km
new line.4236749 bus1=BBT3319882.1.2.0,bus2=BBT3319889.1.2.0,Phases=2,Linecode=BT316_BT316_7_2_1,Length=0.000500000,Units=km
new line.4236777 bus1=BBT3319854.1.2.0,bus2=BBT3319861.1.2.0,Phases=2,Linecode=BT508_BT508_7_2_1,Length=0.000500000,Units=km
new line.4236812 bus1=BBT3320001.1.2.0,bus2=BBT3320008.1.2.0,Phases=2,Linecode=BT316_BT316_7_2_1,Length=0.000500000,Units=km
new line.4236847 bus1=BBT3319980.1.2.0,bus2=BBT3319987.1.2.0,Phases=2,Linecode=BT316_BT316_7_2_1,Length=0.000500000,Units=km
new line.4236903 bus1=BBT3319966.1.2.0,bus2=BBT3319973.1.2.0,Phases=2,Linecode=BT316_BT316_7_2_1,Length=0.000500000,Units=km
new line.4236924 bus1=BBT3319952.1.2.0,bus2=BBT3319959.1.2.0,Phases=2,Linecode=BT316_BT316_7_2_1,Length=0.000500000,Units=km
new line.4236952 bus1=BBT3320015.1.2.0,bus2=BBT3320022.1.2.0,Phases=2,Linecode=BT316_BT316_7_2_1,Length=0.000500000,Units=km
new line.4236994 bus1=BBT3320050.1.2.0,bus2=BBT3320057.1.2.0,Phases=2,Linecode=BT316_BT316_7_2_1,Length=0.000500000,Units=km
new line.4237022 bus1=BBT3320064.1.2.0,bus2=BBT3320071.1.2.0,Phases=2,Linecode=BT316_BT316_7_2_1,Length=0.000500000,Units=km
new line.4237092 bus1=BBT3320036.1.2.0,bus2=BBT3320043.1.2.0,Phases=2,Linecode=BT508_BT508_7_2_1,Length=0.000500000,Units=km
new line.4237190 bus1=BBT3320120.1.2.0,bus2=BBT3320127.1.2.0,Phases=2,Linecode=BT316_BT316_7_2_1,Length=0.000500000,Units=km
new line.4237218 bus1=BBT3320106.1.2.0,bus2=BBT3320113.1.2.0,Phases=2,Linecode=BT316_BT316_7_2_1,Length=0.000500000,Units=km
new line.4237232 bus1=BBT3320092.1.2.0,bus2=BBT3320099.1.2.0,Phases=2,Linecode=BT316_BT316_7_2_1,Length=0.000500000,Units=km
new line.4237253 bus1=BBT3320078.1.2.0,bus2=BBT3320085.1.2.0,Phases=2,Linecode=BT316_BT316_7_2_1,Length=0.000500000,Units=km
new line.4237302 bus1=BBT3320134.1.2.0,bus2=BBT3320141.1.2.0,Phases=2,Linecode=BT316_BT316_7_2_1,Length=0.000500000,Units=km
new line.4237330 bus1=BBT3320162.1.2.0,bus2=BBT3320169.1.2.0,Phases=2,Linecode=BT316_BT316_7_2_1,Length=0.000500000,Units=km
new line.4237372 bus1=BBT3320148.1.2.0,bus2=BBT3320155.1.2.0,Phases=2,Linecode=BT316_BT316_7_2_1,Length=0.000500000,Units=km
new line.4237393 bus1=BBT3320190.1.2.0,bus2=BBT3320197.1.2.0,Phases=2,Linecode=BT316_BT316_7_2_1,Length=0.000500000,Units=km
new line.4237435 bus1=BBT3320204.1.2.0,bus2=BBT3320211.1.2.0,Phases=2,Linecode=BT316_BT316_7_2_1,Length=0.000500000,Units=km
new line.4237484 bus1=BBT3320176.1.2.0,bus2=BBT3320183.1.2.0,Phases=2,Linecode=BT316_BT316_7_2_1,Length=0.000500000,Units=km
new line.4237505 bus1=BBT3320218.1.2.0,bus2=BBT3320225.1.2.0,Phases=2,Linecode=BT316_BT316_7_2_1,Length=0.000500000,Units=km
new line.4237533 bus1=BBT3320246.1.2.0,bus2=BBT3320253.1.2.0,Phases=2,Linecode=BT316_BT316_7_2_1,Length=0.000500000,Units=km
new line.4237547 bus1=BBT3320232.1.2.0,bus2=BBT3320239.1.2.0,Phases=2,Linecode=BT316_BT316_7_2_1,Length=0.000500000,Units=km
new line.4237589 bus1=BBT3320288.1.2.0,bus2=BBT3320295.1.2.0,Phases=2,Linecode=BT316_BT316_7_2_1,Length=0.000500000,Units=km
new line.4237617 bus1=BBT3320323.1.2.0,bus2=BBT3320330.1.2.0,Phases=2,Linecode=BT316_BT316_7_2_1,Length=0.000500000,Units=km
new line.4237659 bus1=BBT3320309.1.2.0,bus2=BBT3320316.1.2.0,Phases=2,Linecode=BT316_BT316_7_2_1,Length=0.000500000,Units=km
new line.4237708 bus1=BBT3320337.1.2.0,bus2=BBT3320344.1.2.0,Phases=2,Linecode=BT316_BT316_7_2_1,Length=0.000500000,Units=km
new line.4237813 bus1=BBT3320351.1.2.0,bus2=BBT3320358.1.2.0,Phases=2,Linecode=BT316_BT316_7_2_1,Length=0.000500000,Units=km
new line.4237869 bus1=BBT3320421.1.2.0,bus2=BBT3320428.1.2.0,Phases=2,Linecode=BT316_BT316_7_2_1,Length=0.000500000,Units=km
new line.4237876 bus1=BBT3320400.1.2.0,bus2=BBT3320407.1.2.0,Phases=2,Linecode=BT518_BT518_7_2_1,Length=0.000500000,Units=km
new line.4237883 bus1=BBT3320407.1.2.0,bus2=BBT3320414.1.2.0,Phases=2,Linecode=BT808_BT808_4_2_3,Length=0.036222000,Units=km
new line.4237904 bus1=BBT3320498.1.2.0,bus2=BBT3320505.1.2.0,Phases=2,Linecode=BT316_BT316_7_2_1,Length=0.000500000,Units=km
new line.1016784 bus1=BBT1090396.1.2.0,bus2=BBT1090403.1.2.0,Phases=2,Linecode=BT307_BT307_7_2_1,Length=0.000500000,Units=km
new line.1017029 bus1=BBT1090697.1.2.0,bus2=BBT1090704.1.2.0,Phases=2,Linecode=BT307_BT307_7_2_1,Length=0.000500000,Units=km
new line.1017281 bus1=BBT1090984.1.2.0,bus2=BBT1090991.1.2.0,Phases=2,Linecode=BT307_BT307_7_2_1,Length=0.000500000,Units=km
new line.1017547 bus1=BBT1091292.1.2.0,bus2=BBT1091299.1.2.0,Phases=2,Linecode=BT307_BT307_7_2_1,Length=0.000500000,Units=km
new line.1021075 bus1=BBT1095317.1.2.3.0,bus2=BBT1095324.1.2.3.0,Phases=3,Linecode=BT521_BT521_7_3_1,Length=0.000500000,Units=km
new line.1024428 bus1=BBT1099027.1.2.3.0,bus2=BBT1099034.1.2.3.0,Phases=3,Linecode=BT314_BT314_7_3_1,Length=0.000500000,Units=km
new line.18725993 bus1=BBT149276220.1.2.3.0,bus2=BBT149276221.1.2.3.0,Phases=3,Linecode=BT514_BT514_7_3_1,Length=0.000500000,Units=km
new line.18804098 bus1=BBT151615565.1.2.3.0,bus2=BBT151615566.1.2.3.0,Phases=3,Linecode=BT513_BT513_7_3_1,Length=0.000500000,Units=km
new line.19049067 bus1=BBT158856683.1.2.3.0,bus2=BBT158856684.1.2.3.0,Phases=3,Linecode=BT509_BT509_7_3_1,Length=0.000500000,Units=km
new line.19049115 bus1=BBT158858734.1.2.3.0,bus2=BBT158858735.1.2.3.0,Phases=3,Linecode=BT518_BT518_7_3_1,Length=0.000500000,Units=km
new line.19222693 bus1=BBT165213941.1.2.3.0,bus2=BBT165213942.1.2.3.0,Phases=3,Linecode=BT514_BT514_7_3_1,Length=0.000500000,Units=km
new line.19222742 bus1=BBT165215088.1.2.3.0,bus2=BBT165215089.1.2.3.0,Phases=3,Linecode=BT514_BT514_7_3_1,Length=0.000500000,Units=km
new line.19223519 bus1=BBT165229769.1.2.0,bus2=BBT165229770.1.2.0,Phases=2,Linecode=BT521_BT521_7_2_1,Length=0.000500000,Units=km
new line.19223787 bus1=BBT165238554.1.2.3.0,bus2=BBT165238555.1.2.3.0,Phases=3,Linecode=BT518_BT518_7_3_1,Length=0.000500000,Units=km
new line.19282442 bus1=BBT167016821.1.2.3.0,bus2=BBT167016822.1.2.3.0,Phases=3,Linecode=BT514_BT514_7_3_1,Length=0.000500000,Units=km
new line.19282604 bus1=BBT165642635.1.2.0,bus2=BBT167023967.1.2.0,Phases=2,Linecode=BT808_BT808_4_2_3,Length=0.028643000,Units=km
new line.19282641 bus1=BBT165641084.1.2.0,bus2=BBT167024895.1.2.0,Phases=2,Linecode=BT808_BT808_4_2_3,Length=0.026917000,Units=km
new line.19380406 bus1=BBT169825766.1.2.0,bus2=BBT169825767.1.2.0,Phases=2,Linecode=BT521_BT521_7_2_1,Length=0.000500000,Units=km
new line.19382982 bus1=BBT169909372.1.2.0,bus2=BBT169909373.1.2.0,Phases=2,Linecode=BT518_BT518_7_2_1,Length=0.000500000,Units=km
new line.19383651 bus1=BBT158589148.1.2.0,bus2=BBT169939533.1.2.0,Phases=2,Linecode=BT807_BT807_4_2_3,Length=0.039099000,Units=km
new line.19387887 bus1=BBT170072162.1.2.0,bus2=BBT170072163.1.2.0,Phases=2,Linecode=BT518_BT518_7_2_1,Length=0.000500000,Units=km
new line.19390373 bus1=BBT170132909.1.2.0,bus2=BBT170132910.1.2.0,Phases=2,Linecode=BT518_BT518_7_2_1,Length=0.000500000,Units=km
new line.2907253 bus1=BBT2162544.1.2.0,bus2=BBT2162551.1.2.0,Phases=2,Linecode=BT513_BT513_7_2_1,Length=0.000500000,Units=km
new line.3347168 bus1=BBT2481212.1.2.0,bus2=BBT2481219.1.2.0,Phases=2,Linecode=BT508_BT508_7_2_1,Length=0.000500000,Units=km
new line.3513320 bus1=BBT2602578.1.2.0,bus2=BBT2602585.1.2.0,Phases=2,Linecode=BT508_BT508_7_2_1,Length=0.000500000,Units=km
new line.4403265 bus1=BBT3484067.1.2.0,bus2=BBT3484074.1.2.0,Phases=2,Linecode=BT508_BT508_7_2_1,Length=0.000500000,Units=km
new line.5488832 bus1=BBT4709704.1.2.3.0,bus2=BBT4709711.1.2.3.0,Phases=3,Linecode=BT514_BT514_7_3_1,Length=0.000500000,Units=km
new line.5761370 bus1=BBT5409536.1.2.3.0,bus2=BBT5409543.1.2.3.0,Phases=3,Linecode=BT514_BT514_7_3_1,Length=0.000500000,Units=km
new line.5761461 bus1=BBT5409893.1.2.3.0,bus2=BBT5409900.1.2.3.0,Phases=3,Linecode=BT518_BT518_7_3_1,Length=0.000500000,Units=km
new line.5761636 bus1=BBT5410159.1.2.0,bus2=BBT5410166.1.2.0,Phases=2,Linecode=BT508_BT508_7_2_1,Length=0.000500000,Units=km
new line.5764289 bus1=BBT5414254.1.2.3.0,bus2=BBT5414261.1.2.3.0,Phases=3,Linecode=BT514_BT514_7_3_1,Length=0.000500000,Units=km
new line.5765514 bus1=BBT5415640.1.2.3.0,bus2=BBT5415647.1.2.3.0,Phases=3,Linecode=BT512_BT509_7_3_1,Length=0.000500000,Units=km
new line.5934949 bus1=BBT5724382.1.2.3.0,bus2=BBT5724389.1.2.3.0,Phases=3,Linecode=BT509_BT509_7_3_1,Length=0.000500000,Units=km
new line.9298722 bus1=BBT114189247.1.2.0,bus2=BBT114189254.1.2.0,Phases=2,Linecode=BT521_BT521_7_2_1,Length=0.000500000,Units=km
new line.9883075 bus1=BBT141265569.1.2.0,bus2=BBT141265576.1.2.0,Phases=2,Linecode=BT521_BT521_7_2_1,Length=0.000500000,Units=km
new line.9887898 bus1=BBT141411855.1.2.0,bus2=BBT141411862.1.2.0,Phases=2,Linecode=BT521_BT521_7_2_1,Length=0.000500000,Units=km
new line.4237974 bus1=BBT3320274.1.2.0,bus2=BBT3320281.1.2.0,Phases=2,Linecode=BT316_BT316_7_2_1,Length=0.000500000,Units=km
new line.4238009 bus1=BBT3320260.1.2.0,bus2=BBT3320267.1.2.0,Phases=2,Linecode=BT521_BT521_7_2_1,Length=0.000500000,Units=km
new line.4238051 bus1=BBT3320547.1.2.0,bus2=BBT3320554.1.2.0,Phases=2,Linecode=BT316_BT316_7_2_1,Length=0.000500000,Units=km
new line.4238163 bus1=BBT3320526.1.2.0,bus2=BBT3320533.1.2.0,Phases=2,Linecode=BT508_BT508_7_2_1,Length=0.000500000,Units=km
new line.4238254 bus1=BBT3319735.1.2.0,bus2=BBT3319742.1.2.0,Phases=2,Linecode=BT513_BT513_7_2_1,Length=0.000500000,Units=km
new line.4238275 bus1=BBT3320484.1.2.0,bus2=BBT3320491.1.2.0,Phases=2,Linecode=BT316_BT316_7_2_1,Length=0.000500000,Units=km
new line.4238296 bus1=BBT3320470.1.2.0,bus2=BBT3320477.1.2.0,Phases=2,Linecode=BT316_BT316_7_2_1,Length=0.000500000,Units=km
new line.4238324 bus1=BBT3320442.1.2.0,bus2=BBT3320449.1.2.0,Phases=2,Linecode=BT513_BT513_7_2_1,Length=0.000500000,Units=km
new line.4238338 bus1=BBT3320512.1.2.0,bus2=BBT3320519.1.2.0,Phases=2,Linecode=BT316_BT316_7_2_1,Length=0.000500000,Units=km
new line.4574009 bus1=BBT3626230.1.2.0,bus2=BBT3626237.1.2.0,Phases=2,Linecode=BT808_BT808_4_2_3,Length=0.034988000,Units=km
new line.4574016 bus1=BBT3626223.1.2.0,bus2=BBT3626230.1.2.0,Phases=2,Linecode=BT808_BT808_4_2_3,Length=0.045864000,Units=km
new line.4574023 bus1=BBT3626216.1.2.0,bus2=BBT3626223.1.2.0,Phases=2,Linecode=BT808_BT808_4_2_3,Length=0.043402000,Units=km
new line.4574030 bus1=BBT3626209.1.2.0,bus2=BBT3626216.1.2.0,Phases=2,Linecode=BT518_BT518_7_2_1,Length=0.000500000,Units=km
new line.4574184 bus1=BBT3626034.1.2.0,bus2=BBT3626041.1.2.0,Phases=2,Linecode=BT304_BT304_7_2_1,Length=0.000500000,Units=km
new line.4574191 bus1=BBT3626356.1.2.0,bus2=BBT3626363.1.2.0,Phases=2,Linecode=BT304_BT304_7_2_1,Length=0.000500000,Units=km
new line.4574198 bus1=BBT3626307.1.2.0,bus2=BBT3626314.1.2.0,Phases=2,Linecode=BT304_BT304_7_2_1,Length=0.000500000,Units=km
new line.4574226 bus1=BBT3626342.1.2.0,bus2=BBT3626349.1.2.0,Phases=2,Linecode=BT316_BT316_7_2_1,Length=0.000500000,Units=km
new line.4574233 bus1=BBT3626293.1.2.0,bus2=BBT3626300.1.2.0,Phases=2,Linecode=BT518_BT518_7_2_1,Length=0.000500000,Units=km
new line.4574240 bus1=BBT3626300.1.2.0,bus2=BBT3626321.1.2.0,Phases=2,Linecode=BT808_BT808_4_2_3,Length=0.034816000,Units=km
new line.4574247 bus1=BBT3626321.1.2.0,bus2=BBT3626328.1.2.0,Phases=2,Linecode=BT808_BT808_4_2_3,Length=0.038262000,Units=km
new line.4574254 bus1=BBT3626328.1.2.0,bus2=BBT3626335.1.2.0,Phases=2,Linecode=BT808_BT808_4_2_3,Length=0.036043000,Units=km
new line.4574261 bus1=BBT3626251.1.2.0,bus2=BBT3626258.1.2.0,Phases=2,Linecode=BT518_BT518_7_2_1,Length=0.000500000,Units=km
new line.4574268 bus1=BBT3626258.1.2.0,bus2=BBT3626265.1.2.0,Phases=2,Linecode=BT808_BT808_4_2_3,Length=0.052755000,Units=km
new line.4574275 bus1=BBT3626265.1.2.0,bus2=BBT3626272.1.2.0,Phases=2,Linecode=BT808_BT808_4_2_3,Length=0.052135000,Units=km
new line.4574282 bus1=BBT3626272.1.2.0,bus2=BBT3626279.1.2.0,Phases=2,Linecode=BT808_BT808_4_2_3,Length=0.049075000,Units=km
new line.4574289 bus1=BBT3626279.1.2.0,bus2=BBT3626286.1.2.0,Phases=2,Linecode=BT808_BT808_4_2_3,Length=0.045206000,Units=km
new line.4574296 bus1=BBT3626237.1.2.0,bus2=BBT3626244.1.2.0,Phases=2,Linecode=BT808_BT808_4_2_3,Length=0.036209000,Units=km
new line.4574310 bus1=BBT3626195.1.2.0,bus2=BBT3626202.1.2.0,Phases=2,Linecode=BT304_BT304_7_2_1,Length=0.000500000,Units=km
new line.4574373 bus1=BBT3626118.1.2.0,bus2=BBT3626125.1.2.0,Phases=2,Linecode=BT304_BT304_7_2_1,Length=0.000500000,Units=km
new line.4574380 bus1=BBT3626125.1.2.0,bus2=BBT3626132.1.2.0,Phases=2,Linecode=BT814_BT814_4_2_3,Length=0.039798000,Units=km
new line.4574387 bus1=BBT3626167.1.2.0,bus2=BBT3626174.1.2.0,Phases=2,Linecode=BT518_BT518_7_2_1,Length=0.000500000,Units=km
new line.4574394 bus1=BBT3626174.1.2.0,bus2=BBT3626181.1.2.0,Phases=2,Linecode=BT814_BT814_4_2_3,Length=0.049802000,Units=km
new line.4574401 bus1=BBT3626181.1.2.0,bus2=BBT3626188.1.2.0,Phases=2,Linecode=BT814_BT814_4_2_3,Length=0.045875000,Units=km
new line.4574408 bus1=BBT3626153.1.2.0,bus2=BBT3626160.1.2.0,Phases=2,Linecode=BT304_BT304_7_2_1,Length=0.000500000,Units=km
new line.4574429 bus1=BBT3626139.1.2.0,bus2=BBT3626146.1.2.0,Phases=2,Linecode=BT304_BT304_7_2_1,Length=0.000500000,Units=km
new line.4574499 bus1=BBT3626090.1.2.0,bus2=BBT3626097.1.2.0,Phases=2,Linecode=BT304_BT304_7_2_1,Length=0.000500000,Units=km
new line.4574534 bus1=BBT3626076.1.2.0,bus2=BBT3626083.1.2.0,Phases=2,Linecode=BT304_BT304_7_2_1,Length=0.000500000,Units=km
new line.4574541 bus1=BBT3626062.1.2.0,bus2=BBT3626069.1.2.0,Phases=2,Linecode=BT508_BT508_7_2_1,Length=0.000500000,Units=km
new line.4574555 bus1=BBT3626048.1.2.0,bus2=BBT3626055.1.2.0,Phases=2,Linecode=BT304_BT304_7_2_1,Length=0.000500000,Units=km
new line.4574562 bus1=BBT3626104.1.2.0,bus2=BBT3626111.1.2.0,Phases=2,Linecode=BT304_BT304_7_2_1,Length=0.000500000,Units=km
new line.4883409 bus1=BBT3984700.1.2.3.0,bus2=BBT3984707.1.2.3.0,Phases=3,Linecode=BT501_BT501_7_3_1,Length=0.000500000,Units=km
new line.5551573 bus1=BBT4823174.1.2.3.0,bus2=BBT4823181.1.2.3.0,Phases=3,Linecode=BT520_BT520_7_3_1,Length=0.000500000,Units=km
new line.5551580 bus1=BBT4823251.1.2.3.0,bus2=BBT4823258.1.2.3.0,Phases=3,Linecode=BT509_BT509_7_3_1,Length=0.000500000,Units=km
new line.5680240 bus1=BBT5053600.1.2.3.0,bus2=BBT5053607.1.2.3.0,Phases=3,Linecode=BT514_BT509_7_3_1,Length=0.000500000,Units=km
new line.5695626 bus1=BBT5168848.1.2.3.0,bus2=BBT5168855.1.2.3.0,Phases=3,Linecode=BT514_BT514_7_3_1,Length=0.000500000,Units=km
new line.5695745 bus1=BBT5168827.1.2.3.0,bus2=BBT5168834.1.2.3.0,Phases=3,Linecode=BT514_BT514_7_3_1,Length=0.000500000,Units=km
new line.5820842 bus1=BBT5496945.1.2.0,bus2=BBT5496952.1.2.0,Phases=2,Linecode=BT508_BT508_7_2_1,Length=0.000500000,Units=km
new line.5820849 bus1=BBT5496952.1.2.0,bus2=BBT5496959.1.2.0,Phases=2,Linecode=BT808_BT808_4_2_3,Length=0.009997000,Units=km
new line.5822697 bus1=BBT5497855.1.2.3.0,bus2=BBT5497862.1.2.3.0,Phases=3,Linecode=BT501_BT501_7_3_1,Length=0.000500000,Units=km
new line.5985832 bus1=BBT6001778.1.2.3.0,bus2=BBT6001785.1.2.3.0,Phases=3,Linecode=BT314_BT314_7_3_1,Length=0.000500000,Units=km
new line.5985853 bus1=BBT6001806.1.2.3.0,bus2=BBT6001813.1.2.3.0,Phases=3,Linecode=BT509_BT509_7_3_1,Length=0.000500000,Units=km
new line.6921004 bus1=BBT27650776.1.2.0,bus2=BBT27650783.1.2.0,Phases=2,Linecode=BT513_BT513_7_2_1,Length=0.000500000,Units=km
new line.7615922 bus1=BBT52673765.1.2.3.0,bus2=BBT52673772.1.2.3.0,Phases=3,Linecode=BT513_BT513_7_3_1,Length=0.000500000,Units=km
new line.891358 bus1=BBT944355.1.2.3.0,bus2=BBT944362.1.2.3.0,Phases=3,Linecode=BT307_BT307_7_3_1,Length=0.000500000,Units=km
new line.891393 bus1=BBT944425.1.2.3.0,bus2=BBT944432.1.2.3.0,Phases=3,Linecode=BT509_BT509_7_3_1,Length=0.000500000,Units=km
new line.9822840 bus1=BBT139611847.1.2.0,bus2=BBT139611854.1.2.0,Phases=2,Linecode=BT521_BT521_7_2_1,Length=0.000500000,Units=km
new line.1010470 bus1=BBT1083858.1.2.3.0,bus2=BBT1083865.1.2.3.0,Phases=3,Linecode=BT308_BT308_7_3_1,Length=0.000500000,Units=km
new line.1016287 bus1=BBT1089885.1.2.0,bus2=BBT1089892.1.2.0,Phases=2,Linecode=BT307_BT307_7_2_1,Length=0.000500000,Units=km
new line.1030819 bus1=BBT1106531.1.2.3.0,bus2=BBT1106538.1.2.3.0,Phases=3,Linecode=BT513_BT513_7_3_1,Length=0.000500000,Units=km
new line.1031295 bus1=BBT1107084.1.2.3.0,bus2=BBT1107091.1.2.3.0,Phases=3,Linecode=BT302_BT302_7_3_1,Length=0.000500000,Units=km
new line.1031876 bus1=BBT1107665.1.2.3.0,bus2=BBT1107672.1.2.3.0,Phases=3,Linecode=BT313_BT313_7_3_1,Length=0.000500000,Units=km
new line.1032660 bus1=BBT5344954.1.2.0,bus2=BBT5344961.1.2.0,Phases=2,Linecode=BT508_BT508_7_2_1,Length=0.000500000,Units=km
new line.1032681 bus1=BBT1108575.1.2.3.0,bus2=BBT1108582.1.2.3.0,Phases=3,Linecode=BT302_BT302_7_3_1,Length=0.000500000,Units=km
new line.1033283 bus1=BBT5345318.1.2.0,bus2=BBT5345325.1.2.0,Phases=2,Linecode=BT508_BT508_7_2_1,Length=0.000500000,Units=km
new line.1033304 bus1=BBT1109247.1.2.3.0,bus2=BBT1109254.1.2.3.0,Phases=3,Linecode=BT314_BT314_7_3_1,Length=0.000500000,Units=km
new line.1033535 bus1=BBT1109569.1.2.3.0,bus2=BBT1109576.1.2.3.0,Phases=3,Linecode=BT313_BT313_7_3_1,Length=0.000500000,Units=km
new line.18698573 bus1=BBT148529243.1.2.3.0,bus2=BBT148529244.1.2.3.0,Phases=3,Linecode=BT513_BT513_7_3_1,Length=0.000500000,Units=km
new line.18795648 bus1=BBT151345119.1.2.3.0,bus2=BBT151345120.1.2.3.0,Phases=3,Linecode=BT514_BT514_7_3_1,Length=0.000500000,Units=km
new line.18795649 bus1=BBT151345350.1.2.3.0,bus2=BBT151345351.1.2.3.0,Phases=3,Linecode=BT521_BT521_7_3_1,Length=0.000500000,Units=km
new line.18797245 bus1=BBT151393763.1.2.0,bus2=BBT151393764.1.2.0,Phases=2,Linecode=BT521_BT521_7_2_1,Length=0.000500000,Units=km
new line.18801225 bus1=BBT151514945.1.2.0,bus2=BBT151514946.1.2.0,Phases=2,Linecode=BT513_BT513_7_2_1,Length=0.000500000,Units=km
new line.19034419 bus1=BBT158399741.1.2.0,bus2=BBT158399742.1.2.0,Phases=2,Linecode=BT521_BT521_7_2_1,Length=0.000500000,Units=km
new line.19035452 bus1=BBT158428571.1.2.0,bus2=BBT158428572.1.2.0,Phases=2,Linecode=BT518_BT518_7_2_1,Length=0.000500000,Units=km
new line.19035578 bus1=BBT158432132.1.2.3.0,bus2=BBT158432133.1.2.3.0,Phases=3,Linecode=BT518_BT518_7_3_1,Length=0.000500000,Units=km
new line.19035629 bus1=BBT158433291.1.2.0,bus2=BBT158433292.1.2.0,Phases=2,Linecode=BT518_BT518_7_2_1,Length=0.000500000,Units=km
new line.19035646 bus1=BBT158433439.1.2.3.0,bus2=BBT158433440.1.2.3.0,Phases=3,Linecode=BT518_BT518_7_3_1,Length=0.000500000,Units=km
new line.19035655 bus1=BBT158433758.1.2.0,bus2=BBT158433759.1.2.0,Phases=2,Linecode=BT513_BT513_7_2_1,Length=0.000500000,Units=km
new line.19035737 bus1=BBT158435861.1.2.0,bus2=BBT158435862.1.2.0,Phases=2,Linecode=BT518_BT518_7_2_1,Length=0.000500000,Units=km
new line.19040845 bus1=BBT158587471.1.2.0,bus2=BBT158587472.1.2.0,Phases=2,Linecode=BT521_BT521_7_2_1,Length=0.000500000,Units=km
new line.19040863 bus1=BBT158588165.1.2.0,bus2=BBT158588166.1.2.0,Phases=2,Linecode=BT521_BT521_7_2_1,Length=0.000500000,Units=km
new line.19040870 bus1=BBT158588853.1.2.0,bus2=BBT158588854.1.2.0,Phases=2,Linecode=BT521_BT521_7_2_1,Length=0.000500000,Units=km
new line.19040874 bus1=BBT158589146.1.2.0,bus2=BBT158589148.1.2.0,Phases=2,Linecode=BT521_BT521_7_2_1,Length=0.000500000,Units=km
new line.19040887 bus1=BBT158589795.1.2.0,bus2=BBT158589796.1.2.0,Phases=2,Linecode=BT521_BT521_7_2_1,Length=0.000500000,Units=km
new line.19141015 bus1=BBT162166045.1.2.0,bus2=BBT162166046.1.2.0,Phases=2,Linecode=BT521_BT521_7_2_1,Length=0.000500000,Units=km
new line.19141063 bus1=BBT162167761.1.2.0,bus2=BBT162167762.1.2.0,Phases=2,Linecode=BT521_BT521_7_2_1,Length=0.000500000,Units=km
new line.19141071 bus1=BBT162168386.1.2.0,bus2=BBT162168387.1.2.0,Phases=2,Linecode=BT521_BT521_7_2_1,Length=0.000500000,Units=km
new line.19141086 bus1=BBT162169113.1.2.0,bus2=BBT162169114.1.2.0,Phases=2,Linecode=BT521_BT521_7_2_1,Length=0.000500000,Units=km
new line.19141123 bus1=BBT162170461.1.2.0,bus2=BBT162170462.1.2.0,Phases=2,Linecode=BT521_BT521_7_2_1,Length=0.000500000,Units=km
new line.19141173 bus1=BBT162172892.1.2.0,bus2=BBT162172893.1.2.0,Phases=2,Linecode=BT521_BT521_7_2_1,Length=0.000500000,Units=km
new line.19141180 bus1=BBT162173886.1.2.0,bus2=BBT162173888.1.2.0,Phases=2,Linecode=BT521_BT521_7_2_1,Length=0.000500000,Units=km
new line.19141402 bus1=BBT162195119.1.2.0,bus2=BBT162195120.1.2.0,Phases=2,Linecode=BT521_BT521_7_2_1,Length=0.000500000,Units=km
new line.19141404 bus1=BBT162195120.1.2.0,bus2=BBT162195237.1.2.0,Phases=2,Linecode=BT807_BT807_4_2_3,Length=0.055207000,Units=km
new line.19141416 bus1=BBT162196230.1.2.0,bus2=BBT162196231.1.2.0,Phases=2,Linecode=BT521_BT521_7_2_1,Length=0.000500000,Units=km
new line.19293830 bus1=BBT167326330.1.2.0,bus2=BBT167326331.1.2.0,Phases=2,Linecode=BT518_BT518_7_2_1,Length=0.000500000,Units=km
new line.19348423 bus1=BBT168900940.1.2.0,bus2=BBT168900941.1.2.0,Phases=2,Linecode=BT518_BT518_7_2_1,Length=0.000500000,Units=km
new line.19348639 bus1=BBT168907139.1.2.0,bus2=BBT168907140.1.2.0,Phases=2,Linecode=BT518_BT518_7_2_1,Length=0.000500000,Units=km
new line.5780977 bus1=BBT5443339.1.2.3.0,bus2=BBT5443346.1.2.3.0,Phases=3,Linecode=BT501_BT501_7_3_1,Length=0.000500000,Units=km
new line.5781075 bus1=BBT5443437.1.2.0,bus2=BBT5443444.1.2.0,Phases=2,Linecode=BT508_BT508_7_2_1,Length=0.000500000,Units=km
new line.5781082 bus1=BBT5443444.1.2.0,bus2=BBT5443472.1.2.0,Phases=2,Linecode=BT808_BT808_4_2_3,Length=0.031134000,Units=km
new line.5792471 bus1=BBT5464500.1.2.3.0,bus2=BBT5464507.1.2.3.0,Phases=3,Linecode=BT513_BT513_7_3_1,Length=0.000500000,Units=km
new line.5792499 bus1=BBT5464479.1.2.3.0,bus2=BBT5464486.1.2.3.0,Phases=3,Linecode=BT506_BT506_7_3_1,Length=0.000500000,Units=km
new line.5958539 bus1=BBT5793325.1.2.3.0,bus2=BBT5793332.1.2.3.0,Phases=3,Linecode=BT509_BT509_7_3_1,Length=0.000500000,Units=km
new line.5958616 bus1=BBT5793444.1.2.3.0,bus2=BBT5793451.1.2.3.0,Phases=3,Linecode=BT514_BT514_7_3_1,Length=0.000500000,Units=km
new line.5958623 bus1=BBT5793500.1.2.3.0,bus2=BBT5793507.1.2.3.0,Phases=3,Linecode=BT514_BT514_7_3_1,Length=0.000500000,Units=km
new line.8992052 bus1=BBT102460439.1.2.0,bus2=BBT102460446.1.2.0,Phases=2,Linecode=BT521_BT521_7_2_1,Length=0.000500000,Units=km
new line.8992689 bus1=BBT102516313.1.2.3.0,bus2=BBT102516320.1.2.3.0,Phases=3,Linecode=BT513_BT513_7_3_1,Length=0.000500000,Units=km
new line.9856125 bus1=BBT140548440.1.2.0,bus2=BBT140548447.1.2.0,Phases=2,Linecode=BT513_BT513_7_2_1,Length=0.000500000,Units=km
new line.18695150 bus1=BBT148421661.1.2.0,bus2=BBT148421662.1.2.0,Phases=2,Linecode=BT521_BT521_7_2_1,Length=0.000500000,Units=km
new line.18851898 bus1=BBT153043214.1.2.0,bus2=BBT153043215.1.2.0,Phases=2,Linecode=BT521_BT521_7_2_1,Length=0.000500000,Units=km
new line.19116163 bus1=BBT161229302.1.2.0,bus2=BBT161229303.1.2.0,Phases=2,Linecode=BT518_BT518_7_2_1,Length=0.000500000,Units=km
new line.19118774 bus1=BBT161324678.1.2.3.0,bus2=BBT161324679.1.2.3.0,Phases=3,Linecode=BT513_BT509_7_3_1,Length=0.000500000,Units=km
new line.19235873 bus1=BBT165641083.1.2.0,bus2=BBT165641084.1.2.0,Phases=2,Linecode=BT518_BT518_7_2_1,Length=0.000500000,Units=km
new line.19235936 bus1=BBT165642634.1.2.0,bus2=BBT165642635.1.2.0,Phases=2,Linecode=BT518_BT518_7_2_1,Length=0.000500000,Units=km
new line.19237434 bus1=BBT165716958.1.2.0,bus2=BBT165716959.1.2.0,Phases=2,Linecode=BT518_BT518_7_2_1,Length=0.000500000,Units=km
new line.19267095 bus1=BBT166608929.1.2.0,bus2=BBT166608930.1.2.0,Phases=2,Linecode=BT518_BT518_7_2_1,Length=0.000500000,Units=km
new line.19394574 bus1=BBT170235751.1.2.0,bus2=BBT170235752.1.2.0,Phases=2,Linecode=BT518_BT518_7_2_1,Length=0.000500000,Units=km
new line.19394700 bus1=BBT170238963.1.2.0,bus2=BBT170238964.1.2.0,Phases=2,Linecode=BT518_BT518_7_2_1,Length=0.000500000,Units=km
new line.19394734 bus1=BBT170240370.1.2.0,bus2=BBT170240371.1.2.0,Phases=2,Linecode=BT518_BT518_7_2_1,Length=0.000500000,Units=km
new line.19400918 bus1=BBT170443544.1.2.0,bus2=BBT170443545.1.2.0,Phases=2,Linecode=BT508_BT508_7_2_1,Length=0.000500000,Units=km
new line.19400922 bus1=BBT170443900.1.2.0,bus2=BBT170443901.1.2.0,Phases=2,Linecode=BT518_BT518_7_2_1,Length=0.000500000,Units=km
new line.19400923 bus1=BBT170443901.1.2.0,bus2=BBT170443902.1.2.0,Phases=2,Linecode=BT808_BT808_4_2_3,Length=0.011176000,Units=km
new line.3941097 bus1=BBT3905187.1.2.0,bus2=BBT5711607.1.2.0,Phases=2,Linecode=BT508_BT508_7_2_1,Length=0.000500000,Units=km
new line.3941104 bus1=BBT5711607.1.2.0,bus2=BBT5711614.1.2.0,Phases=2,Linecode=BT808_BT808_4_2_3,Length=0.009217000,Units=km
new line.4481504 bus1=BBT3543364.1.2.3.0,bus2=BBT3543371.1.2.3.0,Phases=3,Linecode=BT509_BT509_7_3_1,Length=0.000500000,Units=km
new line.5704453 bus1=BBT5212521.1.2.3.0,bus2=BBT5212528.1.2.3.0,Phases=3,Linecode=BT502_BT502_7_3_1,Length=0.000500000,Units=km
new line.5727322 bus1=BBT5344618.1.2.3.0,bus2=BBT5344625.1.2.3.0,Phases=3,Linecode=BT513_BT509_7_3_1,Length=0.000500000,Units=km
new line.5903372 bus1=BBT1108225.1.2.3.0,bus2=BBT5662404.1.2.3.0,Phases=3,Linecode=BT514_BT514_7_3_1,Length=0.000500000,Units=km
