new line.10246734 bus1=BBT2979278.1.2.3.0,bus2=BBT2979285.1.2.3.0,Phases=3,Linecode=BT108_BT107_7_3_1,Length=0.033130000,Units=km
new line.10246762 bus1=BBT2979285.1.2.3.0,bus2=BBT2979306.1.2.3.0,Phases=3,Linecode=BT803_BT803_4_3_4,Length=0.035857000,Units=km
new line.10246790 bus1=BBT2979306.1.2.3.0,bus2=BBT95240007.1.2.3.0,Phases=3,Linecode=BT803_BT803_4_3_4,Length=0.034491000,Units=km
new line.10247042 bus1=BBT2979432.1.2.3.0,bus2=BBT2979460.1.2.3.0,Phases=3,Linecode=BT107_BT107_7_3_1,Length=0.033115000,Units=km
new line.10247063 bus1=BBT2979467.1.2.3.0,bus2=BBT2979488.1.2.3.0,Phases=3,Linecode=BT108_BT107_7_3_1,Length=0.031789000,Units=km
new line.10247119 bus1=BBT2979488.1.2.3.0,bus2=BBT2979495.1.2.3.0,Phases=3,Linecode=BT107_BT107_7_3_1,Length=0.044397000,Units=km
new line.10247140 bus1=BBT2979495.1.2.3.0,bus2=BBT2981770.1.2.3.0,Phases=3,Linecode=BT107_BT107_7_3_1,Length=0.038089000,Units=km
new line.10249324 bus1=BBT2980188.1.2.3.0,bus2=BBT2980202.1.2.3.0,Phases=3,Linecode=BT107_BT107_7_3_1,Length=0.029419000,Units=km
new line.10249352 bus1=BBT2980202.1.2.3.0,bus2=BBT2980209.1.2.3.0,Phases=3,Linecode=BT107_BT107_7_3_1,Length=0.029419000,Units=km
new line.10249380 bus1=BBT2980251.1.2.3.0,bus2=BBT2980349.1.2.3.0,Phases=3,Linecode=BT108_BT107_7_3_1,Length=0.027900000,Units=km
new line.10249401 bus1=BBT2980349.1.2.3.0,bus2=BBT2980363.1.2.3.0,Phases=3,Linecode=BT107_BT107_7_3_1,Length=0.027666000,Units=km
new line.10249429 bus1=BBT2980363.1.2.3.0,bus2=BBT2980370.1.2.3.0,Phases=3,Linecode=BT107_BT107_7_3_1,Length=0.032025000,Units=km
new line.10249457 bus1=BBT2980405.1.2.3.0,bus2=BBT2980412.1.2.3.0,Phases=3,Linecode=BT107_BT107_7_3_1,Length=0.022029000,Units=km
new line.10249492 bus1=BBT2980412.1.2.3.0,bus2=BBT2980419.1.2.3.0,Phases=3,Linecode=BT107_BT107_7_3_1,Length=0.026256000,Units=km
new line.10249513 bus1=BBT2980419.1.2.3.0,bus2=BBT2980426.1.2.3.0,Phases=3,Linecode=BT107_BT107_7_3_1,Length=0.029077000,Units=km
new line.10249639 bus1=BBT2980426.1.2.3.0,bus2=BBT2980433.1.2.3.0,Phases=3,Linecode=BT107_BT107_7_3_1,Length=0.025067000,Units=km
new line.10249856 bus1=BBT2980454.1.2.0,bus2=BBT2980461.1.2.0,Phases=2,Linecode=BT107_BT107_7_2_1,Length=0.031899000,Units=km
new line.10249863 bus1=BBT2980454.1.2.0,bus2=BBT2980538.1.2.0,Phases=2,Linecode=BT305_BT305_5_2_1,Length=0.012087000,Units=km
new line.10249877 bus1=BBT2980461.1.2.0,bus2=BBT2980468.1.2.0,Phases=2,Linecode=BT107_BT107_7_2_1,Length=0.033296000,Units=km
new line.10250094 bus1=BBT2980496.1.3.0,bus2=BBT2980517.1.3.0,Phases=2,Linecode=BT305_BT305_5_2_1,Length=0.025502000,Units=km
new line.10250234 bus1=BBT2980517.1.3.0,bus2=BBT2980524.1.3.0,Phases=2,Linecode=BT305_BT305_5_2_1,Length=0.029077000,Units=km
new line.10250283 bus1=BBT2980524.1.3.0,bus2=BBT2980531.1.3.0,Phases=2,Linecode=BT305_BT305_5_2_1,Length=0.024338000,Units=km
new line.10250367 bus1=BBT2980538.1.2.0,bus2=BBT2980545.1.2.0,Phases=2,Linecode=BT305_BT305_5_2_1,Length=0.025246000,Units=km
new line.10250374 bus1=BBT2980538.1.2.0,bus2=BBT2980552.1.2.0,Phases=2,Linecode=BT305_BT305_5_2_1,Length=0.029008000,Units=km
new line.10250444 bus1=BBT2980552.1.2.0,bus2=BBT2980559.1.2.0,Phases=2,Linecode=BT305_BT305_5_2_1,Length=0.036369000,Units=km
new line.10250906 bus1=BBT2980657.1.2.3.0,bus2=BBT2980664.1.2.3.0,Phases=3,Linecode=BT107_BT107_7_3_1,Length=0.031073000,Units=km
new line.10250976 bus1=BBT2980678.1.2.3.0,bus2=BBT2980699.1.2.3.0,Phases=3,Linecode=BT108_BT107_7_3_1,Length=0.029214000,Units=km
new line.10251025 bus1=BBT2980699.1.2.3.0,bus2=BBT2980713.1.2.3.0,Phases=3,Linecode=BT107_BT107_7_3_1,Length=0.031837000,Units=km
new line.10251060 bus1=BBT2980713.1.2.3.0,bus2=BBT2982218.1.2.3.0,Phases=3,Linecode=BT107_BT107_7_3_1,Length=0.021266000,Units=km
new line.10251515 bus1=BBT2980755.1.2.3.0,bus2=BBT2980783.1.2.3.0,Phases=3,Linecode=BT108_BT107_7_3_1,Length=0.031057000,Units=km
new line.10251571 bus1=BBT2980783.1.2.3.0,bus2=BBT2980790.1.2.3.0,Phases=3,Linecode=BT107_BT107_7_3_1,Length=0.029129000,Units=km
new line.10251620 bus1=BBT2980790.1.2.3.0,bus2=BBT2980804.1.2.3.0,Phases=3,Linecode=BT107_BT107_7_3_1,Length=0.028168000,Units=km
new line.10251641 bus1=BBT3343817.1.2.3.0,bus2=BBT2982281.1.2.3.0,Phases=3,Linecode=BT809_BT809_4_3_4,Length=0.034068000,Units=km
new line.10251760 bus1=BBT2980846.1.2.3.0,bus2=BBT2980867.1.2.3.0,Phases=3,Linecode=BT803_BT803_4_3_4,Length=0.033980000,Units=km
new line.10251809 bus1=BBT2980867.1.2.3.0,bus2=BBT2980895.1.2.3.0,Phases=3,Linecode=BT810_BT810_4_3_4,Length=0.030422000,Units=km
new line.10251907 bus1=BBT2980895.1.2.3.0,bus2=BBT2980909.1.2.3.0,Phases=3,Linecode=BT810_BT810_4_3_4,Length=0.034215000,Units=km
new line.10252201 bus1=BBT2980951.1.2.3.0,bus2=BBT2980965.1.2.3.0,Phases=3,Linecode=BT810_BT810_4_3_4,Length=0.028008000,Units=km
new line.10252250 bus1=BBT2980965.1.2.3.0,bus2=BBT2981028.1.2.3.0,Phases=3,Linecode=BT810_BT810_4_3_4,Length=0.029008000,Units=km
new line.10252467 bus1=BBT2981231.1.2.3.0,bus2=BBT2981098.1.2.3.0,Phases=3,Linecode=BT810_BT810_4_3_4,Length=0.029008000,Units=km
new line.10253580 bus1=BBT2981217.1.2.3.0,bus2=BBT2981231.1.2.3.0,Phases=3,Linecode=BT810_BT810_4_3_4,Length=0.028026000,Units=km
new line.10253811 bus1=BBT2981329.1.2.3.0,bus2=BBT2981560.1.2.3.0,Phases=3,Linecode=BT803_BT803_4_3_4,Length=0.029740000,Units=km
new line.10254434 bus1=BBT3537962.1.2.3.0,bus2=BBT3538025.1.2.3.0,Phases=3,Linecode=BT810_BT810_4_3_4,Length=0.005833000,Units=km
new line.10254462 bus1=BBT3537955.1.2.3.0,bus2=BBT3537962.1.2.3.0,Phases=3,Linecode=BT810_BT810_4_3_4,Length=0.036411000,Units=km
new line.10254490 bus1=BBT3537948.1.2.3.0,bus2=BBT3537955.1.2.3.0,Phases=3,Linecode=BT810_BT810_4_3_4,Length=0.036411000,Units=km
new line.10254518 bus1=BBT3537941.1.2.3.0,bus2=BBT3537948.1.2.3.0,Phases=3,Linecode=BT810_BT810_4_3_4,Length=0.035478000,Units=km
new line.10254525 bus1=BBT3537941.1.2.3.0,bus2=BBT3537969.1.2.3.0,Phases=3,Linecode=BT810_BT810_4_3_4,Length=0.027865000,Units=km
new line.10254553 bus1=BBT3537934.1.2.3.0,bus2=BBT3537941.1.2.3.0,Phases=3,Linecode=BT803_BT803_4_3_4,Length=0.036066000,Units=km
new line.10254574 bus1=BBT3537927.1.2.3.0,bus2=BBT3537934.1.2.3.0,Phases=3,Linecode=BT803_BT803_4_3_4,Length=0.039634000,Units=km
new line.10254581 bus1=BBT3537920.1.2.3.0,bus2=BBT3537927.1.2.3.0,Phases=3,Linecode=BT518_BT518_7_3_1,Length=0.000501000,Units=km
new line.10254588 bus1=BBT3537927.1.2.3.0,bus2=BBT3537983.1.2.3.0,Phases=3,Linecode=BT803_BT803_4_3_4,Length=0.034938000,Units=km
new line.10254686 bus1=BBT3343852.1.2.3.0,bus2=BBT3537976.1.2.3.0,Phases=3,Linecode=BT810_BT810_4_3_4,Length=0.030025000,Units=km
new line.10254735 bus1=BBT3343845.1.2.3.0,bus2=BBT3343852.1.2.3.0,Phases=3,Linecode=BT810_BT810_4_3_4,Length=0.031393000,Units=km
new line.10254798 bus1=BBT2982274.1.2.3.0,bus2=BBT3343845.1.2.3.0,Phases=3,Linecode=BT810_BT810_4_3_4,Length=0.026878000,Units=km
new line.10254805 bus1=BBT2982274.1.2.3.0,bus2=BBT3343838.1.2.3.0,Phases=3,Linecode=BT810_BT810_4_3_4,Length=0.025969000,Units=km
new line.10254854 bus1=BBT3343824.1.2.3.0,bus2=BBT2982274.1.2.3.0,Phases=3,Linecode=BT803_BT803_4_3_4,Length=0.037600000,Units=km
new line.10254875 bus1=BBT3343803.1.2.3.0,bus2=BBT3343824.1.2.3.0,Phases=3,Linecode=BT803_BT803_4_3_4,Length=0.034938000,Units=km
new line.10254882 bus1=BBT3343796.1.2.3.0,bus2=BBT3343803.1.2.3.0,Phases=3,Linecode=BT518_BT518_7_3_1,Length=0.000501000,Units=km
new line.10254889 bus1=BBT3343803.1.2.3.0,bus2=BBT3343810.1.2.3.0,Phases=3,Linecode=BT803_BT803_4_3_4,Length=0.033115000,Units=km
new line.10212784 bus1=BBT2967532.1.2.3.0,bus2=BBT2967539.1.2.3.0,Phases=3,Linecode=BT805_BT805_4_3_4,Length=0.040211000,Units=km
new line.10212812 bus1=BBT2967714.1.2.3.0,bus2=BBT2967735.1.2.3.0,Phases=3,Linecode=BT809_BT809_4_3_4,Length=0.034535000,Units=km
new line.10212833 bus1=BBT2967553.1.2.3.0,bus2=BBT2967560.1.2.3.0,Phases=3,Linecode=BT803_BT803_4_3_4,Length=0.036232000,Units=km
new line.10212861 bus1=BBT2967560.1.2.3.0,bus2=BBT2967567.1.2.3.0,Phases=3,Linecode=BT803_BT803_4_3_4,Length=0.037347000,Units=km
new line.10212889 bus1=BBT2967567.1.2.3.0,bus2=BBT2967574.1.2.3.0,Phases=3,Linecode=BT803_BT803_4_3_4,Length=0.035238000,Units=km
new line.10213050 bus1=BBT2967651.1.2.3.0,bus2=BBT2967686.1.2.3.0,Phases=3,Linecode=BT805_BT805_4_3_4,Length=0.033251000,Units=km
new line.10213169 bus1=BBT2967686.1.2.3.0,bus2=BBT2967721.1.2.3.0,Phases=3,Linecode=BT809_BT809_4_3_4,Length=0.034142000,Units=km
new line.10213176 bus1=BBT2967686.1.2.3.0,bus2=BBT2967728.1.2.3.0,Phases=3,Linecode=BT805_BT805_4_3_4,Length=0.036135000,Units=km
new line.10213183 bus1=BBT2967686.1.2.3.0,bus2=BBT2967840.1.2.3.0,Phases=3,Linecode=BT803_BT803_4_3_4,Length=0.031153000,Units=km
new line.10213239 bus1=BBT2967728.1.2.3.0,bus2=BBT2967742.1.2.3.0,Phases=3,Linecode=BT107_BT107_7_3_1,Length=0.036232000,Units=km
new line.10213267 bus1=BBT2967742.1.2.3.0,bus2=BBT2967749.1.2.3.0,Phases=3,Linecode=BT107_BT107_7_3_1,Length=0.042202000,Units=km
new line.10213519 bus1=BBT2967854.1.2.3.0,bus2=BBT2967875.1.2.3.0,Phases=3,Linecode=BT803_BT803_4_3_4,Length=0.038220000,Units=km
new line.10213610 bus1=BBT2967882.1.2.3.0,bus2=BBT2967889.1.2.3.0,Phases=3,Linecode=BT805_BT805_4_3_4,Length=0.030075000,Units=km
new line.10213631 bus1=BBT2967903.1.2.3.0,bus2=BBT2967896.1.2.3.0,Phases=3,Linecode=BT803_BT803_4_3_4,Length=0.043197000,Units=km
new line.10213638 bus1=BBT2967896.1.2.3.0,bus2=BBT3905098.1.2.3.0,Phases=3,Linecode=BT803_BT803_4_3_4,Length=0.027174000,Units=km
new line.10213659 bus1=BBT2967903.1.2.3.0,bus2=BBT2967910.1.2.3.0,Phases=3,Linecode=BT803_BT803_4_3_4,Length=0.042202000,Units=km
new line.10213687 bus1=BBT2967910.1.2.3.0,bus2=BBT2967917.1.2.3.0,Phases=3,Linecode=BT803_BT803_4_3_4,Length=0.038338000,Units=km
new line.10214037 bus1=BBT2967987.1.2.0,bus2=BBT2968043.1.2.0,Phases=2,Linecode=BT813_BT813_4_2_4,Length=0.040123000,Units=km
new line.10214072 bus1=BBT2968043.1.2.0,bus2=BBT2968050.1.2.0,Phases=2,Linecode=BT813_BT813_4_2_4,Length=0.036135000,Units=km
new line.10214135 bus1=BBT2968057.1.2.3.0,bus2=BBT2968071.1.2.3.0,Phases=3,Linecode=BT805_BT805_4_3_4,Length=0.036356000,Units=km
new line.10214247 bus1=BBT2968099.1.2.3.0,bus2=BBT2968113.1.2.3.0,Phases=3,Linecode=BT809_BT809_4_3_4,Length=0.028292000,Units=km
new line.10214345 bus1=BBT2968225.1.2.3.0,bus2=BBT2968232.1.2.3.0,Phases=3,Linecode=BT803_BT803_4_3_4,Length=0.030158000,Units=km
new line.10214373 bus1=BBT2968232.1.2.3.0,bus2=BBT2968239.1.2.3.0,Phases=3,Linecode=BT803_BT803_4_3_4,Length=0.033251000,Units=km
new line.10214380 bus1=BBT2968232.1.2.3.0,bus2=BBT2968253.1.2.3.0,Phases=3,Linecode=BT803_BT803_4_3_4,Length=0.027082000,Units=km
new line.10214401 bus1=BBT2968239.1.2.3.0,bus2=BBT2968246.1.2.3.0,Phases=3,Linecode=BT803_BT803_4_3_4,Length=0.037132000,Units=km
new line.10214422 bus1=BBT2968253.1.2.3.0,bus2=BBT2968260.1.2.3.0,Phases=3,Linecode=BT803_BT803_4_3_4,Length=0.021219000,Units=km
new line.10214457 bus1=BBT2968267.1.2.3.0,bus2=BBT2968274.1.2.3.0,Phases=3,Linecode=BT803_BT803_4_3_4,Length=0.040211000,Units=km
new line.10214478 bus1=BBT2968274.1.2.3.0,bus2=BBT2968288.1.2.3.0,Phases=3,Linecode=BT803_BT803_4_3_4,Length=0.043116000,Units=km
new line.10214506 bus1=BBT2968295.1.2.3.0,bus2=BBT2968302.1.2.3.0,Phases=3,Linecode=BT803_BT803_4_3_4,Length=0.034142000,Units=km
new line.10214513 bus1=BBT2968330.1.2.3.0,bus2=BBT2968295.1.2.3.0,Phases=3,Linecode=BT805_BT805_4_3_4,Length=0.032149000,Units=km
new line.10214569 bus1=BBT2968337.1.2.3.0,bus2=BBT2968330.1.2.3.0,Phases=3,Linecode=BT805_BT805_4_3_4,Length=0.036135000,Units=km
new line.10214814 bus1=BBT2968337.1.2.3.0,bus2=BBT2968344.1.2.3.0,Phases=3,Linecode=BT805_BT805_4_3_4,Length=0.038220000,Units=km
new line.10214835 bus1=BBT2968344.1.2.3.0,bus2=BBT2968407.1.2.3.0,Phases=3,Linecode=BT805_BT805_4_3_4,Length=0.037226000,Units=km
new line.10214919 bus1=BBT2968407.1.2.3.0,bus2=BBT2968414.1.2.3.0,Phases=3,Linecode=BT803_BT803_4_3_4,Length=0.038220000,Units=km
new line.10215507 bus1=BBT2968435.1.2.3.0,bus2=BBT2968778.1.2.3.0,Phases=3,Linecode=BT803_BT803_4_3_4,Length=0.031266000,Units=km
new line.10218349 bus1=BBT2968778.1.2.3.0,bus2=BBT2968848.1.2.3.0,Phases=3,Linecode=BT803_BT803_4_3_4,Length=0.036135000,Units=km
new line.10218944 bus1=BBT2968848.1.2.3.0,bus2=BBT2968960.1.2.3.0,Phases=3,Linecode=BT803_BT803_4_3_4,Length=0.036232000,Units=km
new line.10219168 bus1=BBT2969100.1.2.3.0,bus2=BBT2969002.1.2.3.0,Phases=3,Linecode=BT805_BT805_4_3_4,Length=0.033145000,Units=km
new line.10219238 bus1=BBT2969100.1.2.3.0,bus2=BBT2969121.1.2.3.0,Phases=3,Linecode=BT805_BT805_4_3_4,Length=0.047140000,Units=km
new line.10219553 bus1=BBT2969121.1.2.3.0,bus2=BBT2969128.1.2.3.0,Phases=3,Linecode=BT803_BT803_4_3_4,Length=0.027026000,Units=km
new line.10219560 bus1=BBT2969121.1.2.3.0,bus2=BBT2969135.1.2.3.0,Phases=3,Linecode=BT805_BT805_4_3_4,Length=0.035365000,Units=km
new line.10219567 bus1=BBT2969121.1.2.3.0,bus2=BBT2969170.1.2.3.0,Phases=3,Linecode=BT803_BT803_4_3_4,Length=0.030422000,Units=km
new line.10219868 bus1=BBT2969261.1.2.3.0,bus2=BBT2969324.1.2.3.0,Phases=3,Linecode=BT803_BT803_4_3_4,Length=0.027174000,Units=km
new line.10220267 bus1=BBT2969436.1.2.3.0,bus2=BBT2969450.1.2.3.0,Phases=3,Linecode=BT803_BT803_4_3_4,Length=0.024746000,Units=km
new line.10220295 bus1=BBT2969450.1.2.3.0,bus2=BBT2969471.1.2.3.0,Phases=3,Linecode=BT501_BT501_5_3_1,Length=0.022678000,Units=km
new line.10220638 bus1=BBT2969541.1.2.3.0,bus2=BBT2974658.1.2.3.0,Phases=3,Linecode=BT803_BT803_4_3_4,Length=0.044295000,Units=km
new line.10220715 bus1=BBT2969590.1.2.3.0,bus2=BBT2969653.1.2.3.0,Phases=3,Linecode=BT805_BT805_4_3_4,Length=0.035138000,Units=km
new line.10220764 bus1=BBT2969653.1.2.3.0,bus2=BBT2969716.1.2.3.0,Phases=3,Linecode=BT803_BT803_4_3_4,Length=0.029283000,Units=km
new line.10220848 bus1=BBT2969716.1.2.3.0,bus2=BBT2969723.1.2.3.0,Phases=3,Linecode=BT803_BT803_4_3_4,Length=0.040211000,Units=km
new line.10220869 bus1=BBT2969723.1.2.3.0,bus2=BBT2969730.1.2.3.0,Phases=3,Linecode=BT803_BT803_4_3_4,Length=0.027302000,Units=km
new line.10220890 bus1=BBT2969730.1.2.3.0,bus2=BBT2969772.1.2.3.0,Phases=3,Linecode=BT803_BT803_4_3_4,Length=0.032071000,Units=km
new line.10221212 bus1=BBT2969772.1.2.3.0,bus2=BBT2969779.1.2.3.0,Phases=3,Linecode=BT803_BT803_4_3_4,Length=0.023776000,Units=km
new line.10224327 bus1=BBT2971802.1.2.3.0,bus2=BBT2971844.1.2.3.0,Phases=3,Linecode=BT805_BT805_4_3_4,Length=0.035238000,Units=km
new line.10224348 bus1=BBT2971844.1.2.3.0,bus2=BBT2971921.1.2.3.0,Phases=3,Linecode=BT803_BT803_4_3_4,Length=0.037347000,Units=km
new line.10224383 bus1=BBT2970752.1.2.3.0,bus2=BBT2971739.1.2.3.0,Phases=3,Linecode=BT805_BT805_4_3_4,Length=0.032071000,Units=km
new line.10224390 bus1=BBT2970752.1.2.3.0,bus2=BBT2970759.1.2.3.0,Phases=3,Linecode=BT803_BT803_4_3_4,Length=0.037024000,Units=km
new line.10224397 bus1=BBT2970752.1.2.0,bus2=BBT2975190.1.2.0,Phases=2,Linecode=BT107_BT107_7_2_1,Length=0.029436000,Units=km
new line.10224411 bus1=BBT2970633.1.2.3.0,bus2=BBT2970654.1.2.3.0,Phases=3,Linecode=BT805_BT805_4_3_4,Length=0.039330000,Units=km
new line.10280306 bus1=BBT2991899.1.2.3.0,bus2=BBT2991906.1.2.3.0,Phases=3,Linecode=BT803_BT803_4_3_4,Length=0.033550000,Units=km
new line.10280383 bus1=BBT2991934.1.2.3.0,bus2=BBT2991941.1.2.3.0,Phases=3,Linecode=BT803_BT803_4_3_4,Length=0.039228000,Units=km
new line.10280411 bus1=BBT2991941.1.2.3.0,bus2=BBT2991997.1.2.3.0,Phases=3,Linecode=BT803_BT803_4_3_4,Length=0.037958000,Units=km
new line.10280509 bus1=BBT2991997.1.2.3.0,bus2=BBT2992004.1.2.3.0,Phases=3,Linecode=BT803_BT803_4_3_4,Length=0.040173000,Units=km
new line.10281237 bus1=BBT2992256.1.2.3.0,bus2=BBT2992291.1.2.3.0,Phases=3,Linecode=BT803_BT803_4_3_4,Length=0.028469000,Units=km
new line.10281573 bus1=BBT2992347.1.2.3.0,bus2=BBT2992382.1.2.3.0,Phases=3,Linecode=BT803_BT803_4_3_4,Length=0.033847000,Units=km
new line.10281608 bus1=BBT2992382.1.2.3.0,bus2=BBT2992403.1.2.3.0,Phases=3,Linecode=BT803_BT803_4_3_4,Length=0.030603000,Units=km
new line.10281699 bus1=BBT2992403.1.2.3.0,bus2=BBT2992445.1.2.3.0,Phases=3,Linecode=BT803_BT803_4_3_4,Length=0.006002000,Units=km
new line.10281706 bus1=BBT2992403.1.2.3.0,bus2=BBT2992410.1.2.3.0,Phases=3,Linecode=BT803_BT803_4_3_4,Length=0.006405000,Units=km
new line.10281713 bus1=BBT2992403.1.2.3.0,bus2=BBT2992438.1.2.3.0,Phases=3,Linecode=BT803_BT803_4_3_4,Length=0.027865000,Units=km
new line.10281860 bus1=BBT2992592.1.2.3.0,bus2=BBT2992613.1.2.3.0,Phases=3,Linecode=BT803_BT803_4_3_4,Length=0.031314000,Units=km
new line.10281930 bus1=BBT2992620.1.2.3.0,bus2=BBT2992627.1.2.3.0,Phases=3,Linecode=BT803_BT803_4_3_4,Length=0.038908000,Units=km
new line.10281951 bus1=BBT2992627.1.2.3.0,bus2=BBT2992634.1.2.3.0,Phases=3,Linecode=BT803_BT803_4_3_4,Length=0.037958000,Units=km
new line.10281979 bus1=BBT2992634.1.2.3.0,bus2=BBT2992641.1.2.3.0,Phases=3,Linecode=BT803_BT803_4_3_4,Length=0.038286000,Units=km
new line.10282000 bus1=BBT2992641.1.2.3.0,bus2=BBT2992648.1.2.3.0,Phases=3,Linecode=BT803_BT803_4_3_4,Length=0.053773000,Units=km
new line.10282028 bus1=BBT2992648.1.2.3.0,bus2=BBT2992655.1.2.3.0,Phases=3,Linecode=BT803_BT803_4_3_4,Length=0.033847000,Units=km
new line.10285640 bus1=BBT2994461.1.2.3.0,bus2=BBT2994468.1.2.3.0,Phases=3,Linecode=BT107_BT107_7_3_1,Length=0.033130000,Units=km
new line.10285661 bus1=BBT2994468.1.2.3.0,bus2=BBT2994475.1.2.3.0,Phases=3,Linecode=BT107_BT107_7_3_1,Length=0.029690000,Units=km
new line.10286921 bus1=BBT2994867.1.2.3.0,bus2=BBT2994874.1.2.3.0,Phases=3,Linecode=BT803_BT803_4_3_4,Length=0.034550000,Units=km
new line.10287278 bus1=BBT2994916.1.2.3.0,bus2=BBT2995070.1.2.3.0,Phases=3,Linecode=BT805_BT805_4_3_4,Length=0.034795000,Units=km
new line.10287789 bus1=BBT2995070.1.2.3.0,bus2=BBT2995077.1.2.3.0,Phases=3,Linecode=BT803_BT803_4_3_4,Length=0.030373000,Units=km
new line.10288188 bus1=BBT2995140.1.2.3.0,bus2=BBT2995154.1.2.3.0,Phases=3,Linecode=BT805_BT805_4_3_4,Length=0.027521000,Units=km
new line.10288209 bus1=BBT2995154.1.2.3.0,bus2=BBT2995231.1.2.3.0,Phases=3,Linecode=BT803_BT803_4_3_4,Length=0.036698000,Units=km
new line.10288279 bus1=BBT2995308.1.2.3.0,bus2=BBT2995315.1.2.3.0,Phases=3,Linecode=BT805_BT805_4_3_4,Length=0.031774000,Units=km
new line.10288307 bus1=BBT2995315.1.2.3.0,bus2=BBT2995336.1.2.3.0,Phases=3,Linecode=BT107_BT107_7_3_1,Length=0.028292000,Units=km
new line.10288335 bus1=BBT2995336.1.2.3.0,bus2=BBT2995371.1.2.3.0,Phases=3,Linecode=BT107_BT107_7_3_1,Length=0.027026000,Units=km
new line.10288342 bus1=BBT2995336.1.2.3.0,bus2=BBT2995441.1.2.3.0,Phases=3,Linecode=BT107_BT107_7_3_1,Length=0.030896000,Units=km
new line.10288363 bus1=BBT2995371.1.2.3.0,bus2=BBT2995434.1.2.3.0,Phases=3,Linecode=BT107_BT107_7_3_1,Length=0.027026000,Units=km
new line.10288412 bus1=BBT2996358.1.2.3.0,bus2=BBT2996365.1.2.3.0,Phases=3,Linecode=BT107_BT107_7_3_1,Length=0.036259000,Units=km
new line.10288503 bus1=BBT2995441.1.2.3.0,bus2=BBT2995476.1.2.3.0,Phases=3,Linecode=BT107_BT107_7_3_1,Length=0.049054000,Units=km
new line.10288566 bus1=BBT2996820.1.2.3.0,bus2=BBT2996827.1.2.3.0,Phases=3,Linecode=BT805_BT805_4_3_4,Length=0.027900000,Units=km
new line.10288615 bus1=BBT2995511.1.2.3.0,bus2=BBT2995518.1.2.3.0,Phases=3,Linecode=BT803_BT803_4_3_4,Length=0.028433000,Units=km
new line.10288643 bus1=BBT2995518.1.2.3.0,bus2=BBT2995539.1.2.3.0,Phases=3,Linecode=BT803_BT803_4_3_4,Length=0.030241000,Units=km
new line.10288678 bus1=BBT2995539.1.2.3.0,bus2=BBT2995546.1.2.3.0,Phases=3,Linecode=BT803_BT803_4_3_4,Length=0.028469000,Units=km
new line.10288699 bus1=BBT2995546.1.2.3.0,bus2=BBT2995560.1.2.3.0,Phases=3,Linecode=BT803_BT803_4_3_4,Length=0.028008000,Units=km
new line.10288720 bus1=BBT2995560.1.2.3.0,bus2=BBT2995567.1.2.3.0,Phases=3,Linecode=BT803_BT803_4_3_4,Length=0.030092000,Units=km
new line.10288748 bus1=BBT2995574.1.2.3.0,bus2=BBT2995581.1.2.3.0,Phases=3,Linecode=BT803_BT803_4_3_4,Length=0.028469000,Units=km
new line.10288769 bus1=BBT2995609.1.2.3.0,bus2=BBT2995616.1.2.3.0,Phases=3,Linecode=BT803_BT803_4_3_4,Length=0.036888000,Units=km
new line.10288818 bus1=BBT2995630.1.2.3.0,bus2=BBT2995651.1.2.3.0,Phases=3,Linecode=BT803_BT803_4_3_4,Length=0.032812000,Units=km
new line.10288846 bus1=BBT2995637.1.2.3.0,bus2=BBT2995644.1.2.3.0,Phases=3,Linecode=BT803_BT803_4_3_4,Length=0.034723000,Units=km
new line.10288867 bus1=BBT2995749.1.2.3.0,bus2=BBT2995812.1.2.3.0,Phases=3,Linecode=BT803_BT803_4_3_4,Length=0.033311000,Units=km
new line.10288895 bus1=BBT2995812.1.2.3.0,bus2=BBT2995819.1.2.3.0,Phases=3,Linecode=BT803_BT803_4_3_4,Length=0.025502000,Units=km
new line.10289091 bus1=BBT2995826.1.2.3.0,bus2=BBT2995833.1.2.3.0,Phases=3,Linecode=BT803_BT803_4_3_4,Length=0.035478000,Units=km
new line.10289168 bus1=BBT2995833.1.2.3.0,bus2=BBT2995847.1.2.3.0,Phases=3,Linecode=BT803_BT803_4_3_4,Length=0.036245000,Units=km
new line.10289203 bus1=BBT2995847.1.2.3.0,bus2=BBT2995868.1.2.3.0,Phases=3,Linecode=BT803_BT803_4_3_4,Length=0.036888000,Units=km
new line.10289224 bus1=BBT2995854.1.2.3.0,bus2=BBT2995875.1.2.3.0,Phases=3,Linecode=BT803_BT803_4_3_4,Length=0.026256000,Units=km
new line.10289623 bus1=BBT2996029.1.2.3.0,bus2=BBT2996050.1.2.3.0,Phases=3,Linecode=BT803_BT803_4_3_4,Length=0.040619000,Units=km
new line.10289658 bus1=BBT2996589.1.2.3.0,bus2=BBT2996596.1.2.3.0,Phases=3,Linecode=BT803_BT803_4_3_4,Length=0.032567000,Units=km
new line.10289728 bus1=BBT2996568.1.2.3.0,bus2=BBT2996589.1.2.3.0,Phases=3,Linecode=BT803_BT803_4_3_4,Length=0.033550000,Units=km
new line.10289770 bus1=BBT2996393.1.2.3.0,bus2=BBT2996414.1.2.3.0,Phases=3,Linecode=BT803_BT803_4_3_4,Length=0.025502000,Units=km
new line.10289840 bus1=BBT2996134.1.2.3.0,bus2=BBT2996148.1.2.3.0,Phases=3,Linecode=BT803_BT803_4_3_4,Length=0.029740000,Units=km
new line.10289847 bus1=BBT2996134.1.2.3.0,bus2=BBT2996155.1.2.3.0,Phases=3,Linecode=BT805_BT805_4_3_4,Length=0.026915000,Units=km
new line.10289868 bus1=BBT2996141.1.2.3.0,bus2=BBT3011702.1.2.3.0,Phases=3,Linecode=BT107_BT107_7_3_1,Length=0.039609000,Units=km
new line.10289896 bus1=BBT2996148.1.2.3.0,bus2=BBT2996176.1.2.3.0,Phases=3,Linecode=BT803_BT803_4_3_4,Length=0.023437000,Units=km
new line.10290015 bus1=BBT2996155.1.2.3.0,bus2=BBT2996162.1.2.3.0,Phases=3,Linecode=BT805_BT805_4_3_4,Length=0.034448000,Units=km
new line.10290120 bus1=BBT2996176.1.2.3.0,bus2=BBT2996211.1.2.3.0,Phases=3,Linecode=BT803_BT803_4_3_4,Length=0.033311000,Units=km
new line.10290323 bus1=BBT2996344.1.2.3.0,bus2=BBT2996351.1.2.3.0,Phases=3,Linecode=BT107_BT107_7_3_1,Length=0.027467000,Units=km
new line.10290337 bus1=BBT2996351.1.2.3.0,bus2=BBT2996358.1.2.3.0,Phases=3,Linecode=BT107_BT107_7_3_1,Length=0.029419000,Units=km
new line.10309454 bus1=BBT3003414.1.2.0,bus2=BBT3003477.1.2.0,Phases=2,Linecode=BT807_BT807_4_2_3,Length=0.036902000,Units=km
new line.10309482 bus1=BBT3003505.1.2.0,bus2=BBT3003512.1.2.0,Phases=2,Linecode=BT807_BT807_4_2_3,Length=0.036630000,Units=km
new line.10309510 bus1=BBT3003512.1.2.0,bus2=BBT3003519.1.2.0,Phases=2,Linecode=BT807_BT807_4_2_3,Length=0.037454000,Units=km
new line.10309538 bus1=BBT3003540.1.2.0,bus2=BBT3788527.1.2.0,Phases=2,Linecode=BT810_BT810_4_2_4,Length=0.039126000,Units=km
new line.10314767 bus1=BBT3005864.1.2.3.0,bus2=BBT3005871.1.2.3.0,Phases=3,Linecode=BT803_BT803_4_3_4,Length=0.030373000,Units=km
new line.10314795 bus1=BBT3005871.1.2.3.0,bus2=BBT3005878.1.2.3.0,Phases=3,Linecode=BT803_BT803_4_3_4,Length=0.036066000,Units=km
new line.10317679 bus1=BBT3007215.1.2.3.0,bus2=BBT104577853.1.2.3.0,Phases=3,Linecode=BT803_BT803_4_3_4,Length=0.033610000,Units=km
new line.10317700 bus1=BBT3007222.1.2.3.0,bus2=BBT3007215.1.2.3.0,Phases=3,Linecode=BT803_BT803_4_3_4,Length=0.035010000,Units=km
new line.10317728 bus1=BBT3007229.1.2.3.0,bus2=BBT3007222.1.2.3.0,Phases=3,Linecode=BT803_BT803_4_3_4,Length=0.041412000,Units=km
new line.10317756 bus1=BBT3007229.1.2.3.0,bus2=BBT3007236.1.2.3.0,Phases=3,Linecode=BT803_BT803_4_3_4,Length=0.037212000,Units=km
new line.10317777 bus1=BBT3007236.1.2.3.0,bus2=BBT3007250.1.2.3.0,Phases=3,Linecode=BT803_BT803_4_3_4,Length=0.034419000,Units=km
new line.10317798 bus1=BBT3007250.1.2.3.0,bus2=BBT5321128.1.2.3.0,Phases=3,Linecode=BT803_BT803_4_3_4,Length=0.017697000,Units=km
new line.10318036 bus1=BBT3007348.1.2.3.0,bus2=BBT3007355.1.2.3.0,Phases=3,Linecode=BT803_BT803_4_3_4,Length=0.036065000,Units=km
new line.10318050 bus1=BBT3007355.1.2.3.0,bus2=BBT3007362.1.2.3.0,Phases=3,Linecode=BT803_BT803_4_3_4,Length=0.034141000,Units=km
new line.10318106 bus1=BBT3007376.1.2.3.0,bus2=BBT3007383.1.2.3.0,Phases=3,Linecode=BT107_BT107_7_3_1,Length=0.036630000,Units=km
new line.10318113 bus1=BBT3007376.1.2.3.0,bus2=BBT3007411.1.2.3.0,Phases=3,Linecode=BT107_BT107_7_3_1,Length=0.038611000,Units=km
new line.10318148 bus1=BBT3007383.1.2.3.0,bus2=BBT3007390.1.2.3.0,Phases=3,Linecode=BT107_BT107_7_3_1,Length=0.038286000,Units=km
new line.10318176 bus1=BBT3007390.1.2.3.0,bus2=BBT3007397.1.2.3.0,Phases=3,Linecode=BT107_BT107_7_3_1,Length=0.027467000,Units=km
new line.10318260 bus1=BBT3007411.1.2.3.0,bus2=BBT3007565.1.2.3.0,Phases=3,Linecode=BT803_BT803_4_3_4,Length=0.037024000,Units=km
new line.10318512 bus1=BBT3007565.1.2.3.0,bus2=BBT3007579.1.2.3.0,Phases=3,Linecode=BT803_BT803_4_3_4,Length=0.031409000,Units=km
new line.10318519 bus1=BBT3007565.1.2.3.0,bus2=BBT3007593.1.2.3.0,Phases=3,Linecode=BT803_BT803_4_3_4,Length=0.031250000,Units=km
new line.10318932 bus1=BBT3007838.1.2.3.0,bus2=BBT3007845.1.2.3.0,Phases=3,Linecode=BT805_BT805_4_3_4,Length=0.035238000,Units=km
new line.10318953 bus1=BBT3007845.1.2.3.0,bus2=BBT3007852.1.2.3.0,Phases=3,Linecode=BT803_BT803_4_3_4,Length=0.034419000,Units=km
new line.10318974 bus1=BBT3007852.1.2.3.0,bus2=BBT3007859.1.2.3.0,Phases=3,Linecode=BT803_BT803_4_3_4,Length=0.030008000,Units=km
new line.10319072 bus1=BBT3007936.1.2.3.0,bus2=BBT150433012.1.2.3.0,Phases=3,Linecode=BT803_BT803_4_3_4,Length=0.034795000,Units=km
new line.10319100 bus1=BBT3007943.1.2.3.0,bus2=BBT3007936.1.2.3.0,Phases=3,Linecode=BT803_BT803_4_3_4,Length=0.039861000,Units=km
new line.10319114 bus1=BBT3007950.1.2.3.0,bus2=BBT3007943.1.2.3.0,Phases=3,Linecode=BT803_BT803_4_3_4,Length=0.043336000,Units=km
new line.10319177 bus1=BBT3007950.1.2.3.0,bus2=BBT3009028.1.2.3.0,Phases=3,Linecode=BT803_BT803_4_3_4,Length=0.028468000,Units=km
new line.10319198 bus1=BBT3009028.1.2.3.0,bus2=BBT3008426.1.2.3.0,Phases=3,Linecode=BT803_BT803_4_3_4,Length=0.034142000,Units=km
new line.10319233 bus1=BBT3008258.1.2.3.0,bus2=BBT3008265.1.2.3.0,Phases=3,Linecode=BT810_BT810_4_3_4,Length=0.028468000,Units=km
new line.10319506 bus1=BBT3008013.1.2.3.0,bus2=BBT3008020.1.2.3.0,Phases=3,Linecode=BT803_BT803_4_3_4,Length=0.036259000,Units=km
new line.10319534 bus1=BBT3008020.1.2.3.0,bus2=BBT3008027.1.2.3.0,Phases=3,Linecode=BT803_BT803_4_3_4,Length=0.035138000,Units=km
new line.10319541 bus1=BBT3008020.1.2.3.0,bus2=BBT3008034.1.2.3.0,Phases=3,Linecode=BT803_BT803_4_3_4,Length=0.035619000,Units=km
new line.10319569 bus1=BBT3008027.1.2.3.0,bus2=BBT3224908.1.2.3.0,Phases=3,Linecode=BT810_BT810_4_3_4,Length=0.027082000,Units=km
new line.10319590 bus1=BBT3008034.1.2.3.0,bus2=BBT3008041.1.2.3.0,Phases=3,Linecode=BT803_BT803_4_3_4,Length=0.038299000,Units=km
new line.10319618 bus1=BBT3008055.1.2.3.0,bus2=BBT3008111.1.2.3.0,Phases=3,Linecode=BT108_BT107_7_3_1,Length=0.030025000,Units=km
new line.10319625 bus1=BBT3008055.1.2.3.0,bus2=BBT3008062.1.2.3.0,Phases=3,Linecode=BT803_BT803_4_3_4,Length=0.028026000,Units=km
new line.10319646 bus1=BBT3008062.1.2.3.0,bus2=BBT3008069.1.2.3.0,Phases=3,Linecode=BT803_BT803_4_3_4,Length=0.038481000,Units=km
new line.10319674 bus1=BBT3008069.1.2.3.0,bus2=BBT3008097.1.2.3.0,Phases=3,Linecode=BT803_BT803_4_3_4,Length=0.029025000,Units=km
new line.10319695 bus1=BBT3008076.1.2.0,bus2=BBT3926735.1.2.0,Phases=2,Linecode=BT811_BT811_4_2_3,Length=0.029077000,Units=km
new line.10319716 bus1=BBT3008083.1.2.0,bus2=BBT3008076.1.2.0,Phases=2,Linecode=BT811_BT811_4_2_3,Length=0.031153000,Units=km
new line.10319744 bus1=BBT3008097.1.2.3.0,bus2=BBT3008104.1.2.3.0,Phases=3,Linecode=BT810_BT810_4_3_4,Length=0.028168000,Units=km
new line.10319800 bus1=BBT3008202.1.2.3.0,bus2=BBT3008209.1.2.3.0,Phases=3,Linecode=BT805_BT805_4_3_4,Length=0.031330000,Units=km
new line.10319821 bus1=BBT3008209.1.2.3.0,bus2=BBT3008216.1.2.3.0,Phases=3,Linecode=BT805_BT805_4_3_4,Length=0.034795000,Units=km
new line.10319849 bus1=BBT3008244.1.2.3.0,bus2=BBT3008251.1.2.3.0,Phases=3,Linecode=BT107_BT107_7_3_1,Length=0.031632000,Units=km
new line.10319982 bus1=BBT3008307.1.2.3.0,bus2=BBT3008321.1.2.3.0,Phases=3,Linecode=BT803_BT803_4_3_4,Length=0.031330000,Units=km
new line.10320038 bus1=BBT3008405.1.2.3.0,bus2=BBT3008412.1.2.3.0,Phases=3,Linecode=BT805_BT805_4_3_4,Length=0.029419000,Units=km
new line.10320059 bus1=BBT3008412.1.2.3.0,bus2=BBT3008419.1.2.3.0,Phases=3,Linecode=BT803_BT803_4_3_4,Length=0.027521000,Units=km
new line.10320073 bus1=BBT3008426.1.2.3.0,bus2=BBT150432754.1.2.3.0,Phases=3,Linecode=BT803_BT803_4_3_4,Length=0.031025000,Units=km
new line.10320080 bus1=BBT3008419.1.2.3.0,bus2=BBT3008433.1.2.3.0,Phases=3,Linecode=BT803_BT803_4_3_4,Length=0.030684000,Units=km
new line.10320157 bus1=BBT3008433.1.2.3.0,bus2=BBT3008440.1.2.3.0,Phases=3,Linecode=BT803_BT803_4_3_4,Length=0.033535000,Units=km
new line.10320220 bus1=BBT3008447.1.2.3.0,bus2=BBT3008454.1.2.3.0,Phases=3,Linecode=BT805_BT805_4_3_4,Length=0.031632000,Units=km
new line.10320241 bus1=BBT3008454.1.2.3.0,bus2=BBT3008461.1.2.3.0,Phases=3,Linecode=BT107_BT107_7_3_1,Length=0.017210000,Units=km
new line.10320290 bus1=BBT3008475.1.2.3.0,bus2=BBT3008489.1.2.3.0,Phases=3,Linecode=BT805_BT805_4_3_4,Length=0.010003000,Units=km
new line.10320297 bus1=BBT3008475.1.2.3.0,bus2=BBT3008482.1.2.3.0,Phases=3,Linecode=BT805_BT805_4_3_4,Length=0.028609000,Units=km
new line.10320346 bus1=BBT3008531.1.2.3.0,bus2=BBT3008538.1.2.3.0,Phases=3,Linecode=BT805_BT805_4_3_4,Length=0.032211000,Units=km
new line.10320381 bus1=BBT3008573.1.2.3.0,bus2=BBT3008580.1.2.3.0,Phases=3,Linecode=BT803_BT803_4_3_4,Length=0.033610000,Units=km