new line.RML10002049 bus1=BBT558853.1.0,bus2=RML1060002049.1.0,Phases=1,Linecode=CABBTG01_4_1,Length=0.017000000,Units=km
new line.RML10005185 bus1=BBT576045.1.2.0,bus2=RML1060005185.1.2.0,Phases=2,Linecode=CABBTG05_4_2,Length=0.017000000,Units=km
new line.RML10009175 bus1=BBT558853.1.2.0,bus2=RML1060009175.1.2.0,Phases=2,Linecode=CABBTG04_4_2,Length=0.017000000,Units=km
new line.RML10009238 bus1=BBT567414.1.0,bus2=RML1060009238.1.0,Phases=1,Linecode=CABBTG02_4_1,Length=0.017000000,Units=km
new line.RML10009245 bus1=BBT4100097.1.0,bus2=RML1060009245.1.0,Phases=1,Linecode=CABBTG02_4_1,Length=0.017000000,Units=km
new line.RML10012402 bus1=BBT2970710.1.2.0,bus2=RML1060012402.1.2.0,Phases=2,Linecode=CABBTG13_4_2,Length=0.017000000,Units=km
new line.RML1001603 bus1=BBT472879.1.2.0,bus2=RML1051001603.1.2.0,Phases=2,Linecode=CABBTG05_4_2,Length=0.017000000,Units=km
new line.RML1001610 bus1=BBT472900.1.0,bus2=RML1051001610.1.0,Phases=1,Linecode=CABBTG01_4_1,Length=0.017000000,Units=km
new line.RML1001617 bus1=BBT472907.1.0,bus2=RML1051001617.1.0,Phases=1,Linecode=CABBTG01_4_1,Length=0.017000000,Units=km
new line.RML1001624 bus1=BBT472907.2.0,bus2=RML1051001624.2.0,Phases=1,Linecode=CABBTG01_4_1,Length=0.017000000,Units=km
new line.RML1001631 bus1=BBT472914.1.0,bus2=RML1051001631.1.0,Phases=1,Linecode=CABBTG01_4_1,Length=0.017000000,Units=km
new line.RML1001638 bus1=BBT472914.3.0,bus2=RML1051001638.3.0,Phases=1,Linecode=CABBTG01_4_1,Length=0.017000000,Units=km
new line.RML10025765 bus1=BBT576052.1.2.0,bus2=RML1060025765.1.2.0,Phases=2,Linecode=CABBTG05_4_2,Length=0.017000000,Units=km
new line.RML10026080 bus1=BBT600566.1.0,bus2=RML1060026080.1.0,Phases=1,Linecode=CABBTG02_4_1,Length=0.017000000,Units=km
new line.RML10039816 bus1=BBT4354722.1.2.0,bus2=RML1060039816.1.2.0,Phases=2,Linecode=CABBTG05_4_2,Length=0.017000000,Units=km
new line.RML10041489 bus1=BBT1667492.1.0,bus2=RML1060041489.1.0,Phases=1,Linecode=CABBTG02_4_1,Length=0.017000000,Units=km
new line.RML10045624 bus1=BBT2251621.1.2.0,bus2=RML1060045624.1.2.0,Phases=2,Linecode=CABBTG05_4_2,Length=0.017000000,Units=km
new line.RML10045825 bus1=BBT4100076.1.2.0,bus2=RML1060045825.1.2.0,Phases=2,Linecode=CABBTG05_4_2,Length=0.017000000,Units=km
new line.RML10045829 bus1=BBT558902.1.2.3.0,bus2=RML1060045829.1.2.3.0,Phases=3,Linecode=CABBTG12_4_3,Length=0.017000000,Units=km
new line.RML10053141 bus1=BBT567456.1.2.3.0,bus2=RML1060053141.1.2.3.0,Phases=3,Linecode=CABBTG06_4_3,Length=0.017000000,Units=km
new line.RML10053143 bus1=BBT583339.1.2.3.0,bus2=RML1060053143.1.2.3.0,Phases=3,Linecode=CABBTG06_4_3,Length=0.029000000,Units=km
new line.RML10055517 bus1=BBT3186009.1.2.3.0,bus2=RML1060055517.1.2.3.0,Phases=3,Linecode=CABBTG12_4_3,Length=0.017000000,Units=km
new line.RML10057745 bus1=BBT3427446.1.0,bus2=RML1060057745.1.0,Phases=1,Linecode=CABBTG01_4_1,Length=0.017000000,Units=km
new line.RML10061065 bus1=BBT2237005.1.2.3.0,bus2=RML1060061065.1.2.3.0,Phases=3,Linecode=CABBTG06_4_3,Length=0.017000000,Units=km
new line.RML10063837 bus1=BBT2839537.1.2.3.0,bus2=RML1060063837.1.2.3.0,Phases=3,Linecode=CABBTG06_4_3,Length=0.017000000,Units=km
new line.RML10068315 bus1=BBT4100258.1.2.0,bus2=RML1060068315.1.2.0,Phases=2,Linecode=CABBTG05_4_2,Length=0.017000000,Units=km
new line.RML10068321 bus1=BBT3740500.1.2.0,bus2=RML1060068321.1.2.0,Phases=2,Linecode=CABBTG05_4_2,Length=0.017000000,Units=km
new line.RML10069549 bus1=BBT583388.2.0,bus2=RML1060069549.2.0,Phases=1,Linecode=CABBTG02_4_1,Length=0.017000000,Units=km
new line.RML10069554 bus1=BBT3412620.1.2.0,bus2=RML1060069554.1.2.0,Phases=2,Linecode=CABBTG05_4_2,Length=0.017000000,Units=km
new line.RML10069642 bus1=BBT557936.1.0,bus2=RML1060069642.1.0,Phases=1,Linecode=CABBTG02_4_1,Length=0.017000000,Units=km
new line.RML10069644 bus1=BBT557950.1.2.3.0,bus2=RML1060069644.1.2.3.0,Phases=3,Linecode=CABBTG06_4_3,Length=0.017000000,Units=km
new line.RML10078433 bus1=BBT3453108.1.2.0,bus2=RML1060078433.1.2.0,Phases=2,Linecode=CABBTG05_4_2,Length=0.017000000,Units=km
new line.RML10079192 bus1=BBT2973559.1.2.3.0,bus2=RML1060079192.1.2.3.0,Phases=3,Linecode=CABBTG06_4_3,Length=0.017000000,Units=km
new line.RML10079739 bus1=BBT3453164.1.2.0,bus2=RML1060079739.1.2.0,Phases=2,Linecode=CABBTG05_4_2,Length=0.017000000,Units=km
new line.RML10082610 bus1=BBT3452324.1.0,bus2=RML1060082610.1.0,Phases=1,Linecode=CABBTG02_4_1,Length=0.017000000,Units=km
new line.RML10083324 bus1=BBT3001398.1.2.3.0,bus2=RML1060083324.1.2.3.0,Phases=3,Linecode=CABBTG06_4_3,Length=0.017000000,Units=km
new line.RML10083351 bus1=BBT1653135.1.2.0,bus2=RML1060083351.1.2.0,Phases=2,Linecode=CABBTG05_4_2,Length=0.017000000,Units=km
new line.RML10088288 bus1=BBT562983.1.2.0,bus2=RML1060088288.1.2.0,Phases=2,Linecode=CABBTG05_4_2,Length=0.015000000,Units=km
new line.RML10088291 bus1=BBT512877.1.0,bus2=RML1060088291.1.0,Phases=1,Linecode=CABBTG02_4_1,Length=0.020000000,Units=km
new line.RML10088429 bus1=BBT3003295.1.2.3.0,bus2=RML1060088429.1.2.3.0,Phases=3,Linecode=CABBTG06_4_3,Length=0.017000000,Units=km
new line.RML10090675 bus1=BBT570935.1.2.3.0,bus2=RML1060090675.1.2.3.0,Phases=3,Linecode=CABBTG06_4_3,Length=0.017000000,Units=km
new line.RML10090734 bus1=BBT587427.1.2.0,bus2=RML1060090734.1.2.0,Phases=2,Linecode=CABBTG05_4_2,Length=0.017000000,Units=km
new line.RML10090771 bus1=BBT472886.1.2.3.0,bus2=RML1060090771.1.2.3.0,Phases=3,Linecode=CABBTG10_4_3,Length=0.017000000,Units=km
new line.RML10090867 bus1=BBT562976.1.2.0,bus2=RML1060090867.1.2.0,Phases=2,Linecode=CABBTG05_4_2,Length=0.017000000,Units=km
new line.RML10090962 bus1=BBT563025.1.2.0,bus2=RML1060090962.1.2.0,Phases=2,Linecode=CABBTG05_4_2,Length=0.017000000,Units=km
new line.RML10091017 bus1=BBT570970.1.2.0,bus2=RML1060091017.1.2.0,Phases=2,Linecode=CABBTG05_4_2,Length=0.017000000,Units=km
new line.RML10091066 bus1=BBT512891.1.2.0,bus2=RML1060091066.1.2.0,Phases=2,Linecode=CABBTG05_4_2,Length=0.017000000,Units=km
new line.RML10091387 bus1=BBT589933.1.2.0,bus2=RML1060091387.1.2.0,Phases=2,Linecode=CABBTG05_4_2,Length=0.017000000,Units=km
new line.RML10091473 bus1=BBT587448.1.2.0,bus2=RML1060091473.1.2.0,Phases=2,Linecode=CABBTG05_4_2,Length=0.017000000,Units=km
new line.RML10093519 bus1=BBT33181899.1.2.0,bus2=RML1060093519.1.2.0,Phases=2,Linecode=CABBTG05_4_2,Length=0.017000000,Units=km
new line.RML10094714 bus1=BBT2967574.1.2.0,bus2=RML1060094714.1.2.0,Phases=2,Linecode=CABBTG05_4_2,Length=0.017000000,Units=km
new line.RML10104606 bus1=BBT4203613.1.0,bus2=RML1060104606.1.0,Phases=1,Linecode=CABBTG02_4_1,Length=0.017000000,Units=km
new line.RML10104614 bus1=BBT3883937.1.2.3.0,bus2=RML1060104614.1.2.3.0,Phases=3,Linecode=CABBTG06_4_3,Length=0.017000000,Units=km
new line.RML10104832 bus1=BBT2842085.1.2.3.0,bus2=RML1060104832.1.2.3.0,Phases=3,Linecode=CABBTG08_4_3,Length=0.015000000,Units=km
new line.RML10104967 bus1=BBT3453010.1.0,bus2=RML1060104967.1.0,Phases=1,Linecode=CABBTG02_4_1,Length=0.022000000,Units=km
new line.RML10106270 bus1=BBT2983310.1.0,bus2=RML1060106270.1.0,Phases=1,Linecode=CABBTG02_4_1,Length=0.017000000,Units=km
new line.RML10108436 bus1=BBT2999578.1.0,bus2=RML1060108436.1.0,Phases=1,Linecode=CABBTG02_4_1,Length=0.017000000,Units=km
new line.RML10108475 bus1=BBT3883937.1.0,bus2=RML1060108475.1.0,Phases=1,Linecode=CABBTG02_4_1,Length=0.017000000,Units=km
new line.RML10109888 bus1=BBT3008419.1.2.3.0,bus2=RML1060109888.1.2.3.0,Phases=3,Linecode=CABBTG06_4_3,Length=0.017000000,Units=km
new line.RML10110040 bus1=BBT3427439.1.0,bus2=RML1060110040.1.0,Phases=1,Linecode=CABBTG01_4_1,Length=0.009000000,Units=km
new line.RML10111007 bus1=BBT33181899.1.0,bus2=RML1060111007.1.0,Phases=1,Linecode=CABBTG02_4_1,Length=0.017000000,Units=km
new line.RML10111205 bus1=BBT2966713.1.2.0,bus2=RML1060111205.1.2.0,Phases=2,Linecode=CABBTG05_4_2,Length=0.017000000,Units=km
new line.RML10111631 bus1=BBT512835.1.0,bus2=RML1060111631.1.0,Phases=1,Linecode=CABBTG02_4_1,Length=0.011000000,Units=km
new line.RML10111788 bus1=BBT520731.1.2.0,bus2=RML1060111788.1.2.0,Phases=2,Linecode=CABBTG13_4_2,Length=0.025000000,Units=km
new line.RML10114529 bus1=BBT2977157.1.2.0,bus2=RML1060114529.1.2.0,Phases=2,Linecode=CABBTG05_4_2,Length=0.017000000,Units=km
new line.RML10114549 bus1=BBT1629398.1.2.3.0,bus2=RML1060114549.1.2.3.0,Phases=3,Linecode=CABBTG06_4_3,Length=0.017000000,Units=km
new line.RML10114558 bus1=BBT2845592.1.2.0,bus2=RML1060114558.1.2.0,Phases=2,Linecode=CABBTG05_4_2,Length=0.017000000,Units=km
new line.RML10114568 bus1=BBT2841413.1.2.3.0,bus2=RML1060114568.1.2.3.0,Phases=3,Linecode=CABBTG06_4_3,Length=0.017000000,Units=km
new line.RML10114594 bus1=BBT2966769.1.0,bus2=RML1060114594.1.0,Phases=1,Linecode=CABBTG02_4_1,Length=0.017000000,Units=km
new line.RML10116415 bus1=BBT4581627.1.2.3.0,bus2=RML1060116415.1.2.3.0,Phases=3,Linecode=CABBTG12_4_3,Length=0.017000000,Units=km
new line.RML10119295 bus1=BBT2997177.1.2.0,bus2=RML1060119295.1.2.0,Phases=2,Linecode=CABBTG05_4_2,Length=0.017000000,Units=km
new line.RML10119616 bus1=BBT507697.1.2.0,bus2=RML1060119616.1.2.0,Phases=2,Linecode=CABBTG04_4_2,Length=0.008000000,Units=km
new line.RML10123828 bus1=BBT2844899.1.2.0,bus2=RML1060123828.1.2.0,Phases=2,Linecode=CABBTG05_4_2,Length=0.017000000,Units=km
new line.RML10124778 bus1=BBT562990.1.2.3.0,bus2=RML1060124778.1.2.3.0,Phases=3,Linecode=CABBTG06_4_3,Length=0.017000000,Units=km
new line.RML10127771 bus1=BBT5011035.1.2.3.0,bus2=RML1060127771.1.2.3.0,Phases=3,Linecode=CABBTG06_4_3,Length=0.017000000,Units=km
new line.RML10131534 bus1=BBT2968071.1.2.0,bus2=RML1060131534.1.2.0,Phases=2,Linecode=CABBTG05_4_2,Length=0.017000000,Units=km
new line.RML10132067 bus1=BBT4622227.1.2.3.0,bus2=RML1060132067.1.2.3.0,Phases=3,Linecode=CABBTG06_4_3,Length=0.017000000,Units=km
new line.RML10132232 bus1=BBT3007222.1.2.0,bus2=RML1060132232.1.2.0,Phases=2,Linecode=CABBTG05_4_2,Length=0.017000000,Units=km
new line.RML10132248 bus1=BBT3008482.1.2.3.0,bus2=RML1060132248.1.2.3.0,Phases=3,Linecode=CABBTG06_4_3,Length=0.017000000,Units=km
new line.RML10132258 bus1=BBT2842099.1.2.3.0,bus2=RML1060132258.1.2.3.0,Phases=3,Linecode=CABBTG06_4_3,Length=0.017000000,Units=km
new line.RML10132312 bus1=BBT1776027.1.2.0,bus2=RML1060132312.1.2.0,Phases=2,Linecode=CABBTG05_4_2,Length=0.017000000,Units=km
new line.RML10132324 bus1=BBT1667506.1.2.0,bus2=RML1060132324.1.2.0,Phases=2,Linecode=CABBTG05_4_2,Length=0.017000000,Units=km
new line.RML10132457 bus1=BBT2252104.1.2.0,bus2=RML1060132457.1.2.0,Phases=2,Linecode=CABBTG05_4_2,Length=0.017000000,Units=km
new line.RML10133710 bus1=BBT3452989.1.0,bus2=RML1060133710.1.0,Phases=1,Linecode=CABBTG02_4_1,Length=0.017000000,Units=km
new line.RML10134387 bus1=BBT3008993.1.2.0,bus2=RML1060134387.1.2.0,Phases=2,Linecode=CABBTG05_4_2,Length=0.017000000,Units=km
new line.RML10136343 bus1=BBT3453108.1.2.3.0,bus2=RML1060136343.1.2.3.0,Phases=3,Linecode=CABBTG06_4_3,Length=0.027000000,Units=km
new line.RML10136392 bus1=BBT33181892.1.0,bus2=RML1060136392.1.0,Phases=1,Linecode=CABBTG02_4_1,Length=0.006000000,Units=km
new line.RML10136442 bus1=BBT4052014.3.0,bus2=RML1060136442.3.0,Phases=1,Linecode=CABBTG02_4_1,Length=0.016000000,Units=km
new line.RML10136575 bus1=BBT487775.1.0,bus2=RML1060136575.1.0,Phases=1,Linecode=CABBTG02_4_1,Length=0.017000000,Units=km
new line.RML10136762 bus1=BBT570907.2.0,bus2=RML1060136762.2.0,Phases=1,Linecode=CABBTG02_4_1,Length=0.017000000,Units=km
new line.RML10137721 bus1=BBT557971.1.2.0,bus2=RML1060137721.1.2.0,Phases=2,Linecode=CABBTG05_4_2,Length=0.013000000,Units=km
new line.RML10144964 bus1=BBT585642.1.2.0,bus2=RML1060144964.1.2.0,Phases=2,Linecode=CABBTG05_4_2,Length=0.017000000,Units=km
new line.RML10144968 bus1=BBT585642.1.0,bus2=RML1060144968.1.0,Phases=1,Linecode=CABBTG02_4_1,Length=0.017000000,Units=km
new line.RML10144976 bus1=BBT570956.1.2.0,bus2=RML1060144976.1.2.0,Phases=2,Linecode=CABBTG05_4_2,Length=0.017000000,Units=km
new line.RML10144984 bus1=BBT3659307.1.2.0,bus2=RML1060144984.1.2.0,Phases=2,Linecode=CABBTG05_4_2,Length=0.017000000,Units=km
new line.RML10144986 bus1=BBT594770.1.2.3.0,bus2=RML1060144986.1.2.3.0,Phases=3,Linecode=CABBTG06_4_3,Length=0.017000000,Units=km
new line.RML10145009 bus1=BBT583339.1.0,bus2=RML1060145009.1.0,Phases=1,Linecode=CABBTG02_4_1,Length=0.029000000,Units=km
new line.RML10145014 bus1=BBT2840090.1.2.0,bus2=RML1060145014.1.2.0,Phases=2,Linecode=CABBTG05_4_2,Length=0.017000000,Units=km
new line.RML10149979 bus1=BBT2985774.1.2.3.0,bus2=RML1060149979.1.2.3.0,Phases=3,Linecode=CABBTG06_4_3,Length=0.017000000,Units=km
new line.RML10152411 bus1=BBT3008566.1.2.3.0,bus2=RML1060152411.1.2.3.0,Phases=3,Linecode=CABBTG08_4_3,Length=0.022000000,Units=km
new line.RML10156389 bus1=BBT4376625.1.2.0,bus2=RML1060156389.1.2.0,Phases=2,Linecode=CABBTG05_4_2,Length=0.017000000,Units=km
new line.RML10156393 bus1=BBT3537990.1.2.0,bus2=RML1060156393.1.2.0,Phases=2,Linecode=CABBTG05_4_2,Length=0.017000000,Units=km
new line.RML10156443 bus1=BBT3008398.2.3.0,bus2=RML1060156443.2.3.0,Phases=2,Linecode=CABBTG05_4_2,Length=0.017000000,Units=km
new line.RML10156633 bus1=BBT2826720.1.2.0,bus2=RML1060156633.1.2.0,Phases=2,Linecode=CABBTG05_4_2,Length=0.017000000,Units=km
new line.RML10160505 bus1=BBT3453171.1.2.0,bus2=RML1060160505.1.2.0,Phases=2,Linecode=CABBTG05_4_2,Length=0.017000000,Units=km
new line.RML10160602 bus1=BBT2980209.1.2.3.0,bus2=RML1060160602.1.2.3.0,Phases=3,Linecode=CABBT803_4_3,Length=0.017000000,Units=km
new line.RML10160603 bus1=BBT2967595.2.0,bus2=RML1060160603.2.0,Phases=1,Linecode=CABBT816_4_1,Length=0.017000000,Units=km
new line.RML10163843 bus1=BBT4100258.1.3.0,bus2=RML1060163843.1.3.0,Phases=2,Linecode=CABBTG04_4_2,Length=0.017000000,Units=km
new line.RML10164103 bus1=BBT1635425.1.3.0,bus2=RML1060164103.1.3.0,Phases=2,Linecode=CABBTG05_4_2,Length=0.016000000,Units=km
new line.RML10164141 bus1=BBT2967910.1.2.0,bus2=RML1060164141.1.2.0,Phases=2,Linecode=CABBTG05_4_2,Length=0.017000000,Units=km
new line.RML10164585 bus1=BBT1776923.1.2.3.0,bus2=RML1060164585.1.2.3.0,Phases=3,Linecode=CABBTG11_4_3,Length=0.017000000,Units=km
new line.RML10164598 bus1=BBT3008986.1.2.0,bus2=RML1060164598.1.2.0,Phases=2,Linecode=CABBTG04_4_2,Length=0.017000000,Units=km
new line.RML10165823 bus1=BBT61619553.1.0,bus2=RML1060165823.1.0,Phases=1,Linecode=CABBTG02_4_1,Length=0.015000000,Units=km
new line.RML10165824 bus1=BBT2839026.1.0,bus2=RML1060165824.1.0,Phases=1,Linecode=CABBTG02_4_1,Length=0.020000000,Units=km
new line.RML10166461 bus1=BBT2841007.1.2.0,bus2=RML1060166461.1.2.0,Phases=2,Linecode=CABBTG05_4_2,Length=0.014000000,Units=km
new line.RML10166974 bus1=BBT149994701.1.2.3.0,bus2=RML1060166974.1.2.3.0,Phases=3,Linecode=CABBTG08_4_3,Length=0.017000000,Units=km
new line.RML10168083 bus1=BBT2839257.1.0,bus2=RML1060168083.1.0,Phases=1,Linecode=CABBTG01_4_1,Length=0.017000000,Units=km
new line.RML10169450 bus1=BBT2235178.1.2.0,bus2=RML1060169450.1.2.0,Phases=2,Linecode=CABBTG04_4_2,Length=0.017000000,Units=km
new line.RML10171922 bus1=BBT2998017.1.2.0,bus2=RML1060171922.1.2.0,Phases=2,Linecode=CABBTG05_4_2,Length=0.017000000,Units=km
new line.RML10172487 bus1=BBT2841427.1.2.0,bus2=RML1060172487.1.2.0,Phases=2,Linecode=CABBTG05_4_2,Length=0.017000000,Units=km
new line.RML10173416 bus1=BBT2999368.2.0,bus2=RML1060173416.2.0,Phases=1,Linecode=CABBTG02_4_1,Length=0.017000000,Units=km
new line.RML10174950 bus1=BBT589856.1.2.0,bus2=RML1060174950.1.2.0,Phases=2,Linecode=CABBTG13_4_2,Length=0.017000000,Units=km
new line.RML10174952 bus1=BBT567449.2.0,bus2=RML1060174952.2.0,Phases=1,Linecode=CABBTG02_4_1,Length=0.017000000,Units=km
new line.RML10176001 bus1=BBT2998752.1.2.0,bus2=RML1060176001.1.2.0,Phases=2,Linecode=CABBTG05_4_2,Length=0.017000000,Units=km
new line.RML10176182 bus1=BBT2975428.1.2.3.0,bus2=RML1060176182.1.2.3.0,Phases=3,Linecode=CABBTG06_4_3,Length=0.017000000,Units=km
new line.RML10177457 bus1=BBT3001734.1.2.0,bus2=RML1060177457.1.2.0,Phases=2,Linecode=CABBTG05_4_2,Length=0.017000000,Units=km
new line.RML10178797 bus1=BBT557950.1.2.0,bus2=RML1060178797.1.2.0,Phases=2,Linecode=CABBTG05_4_2,Length=0.017000000,Units=km
new line.RML10179869 bus1=BBT2966503.1.2.0,bus2=RML1060179869.1.2.0,Phases=2,Linecode=CABBTG05_4_2,Length=0.017000000,Units=km
new line.RML10180849 bus1=BBT4376639.1.0,bus2=RML1060180849.1.0,Phases=1,Linecode=CABBTG02_4_1,Length=0.017000000,Units=km
new line.RML10180876 bus1=BBT4376639.2.0,bus2=RML1060180876.2.0,Phases=1,Linecode=CABBTG02_4_1,Length=0.017000000,Units=km
new line.RML10180897 bus1=BBT5011070.2.0,bus2=RML1060180897.2.0,Phases=1,Linecode=CABBTG02_4_1,Length=0.017000000,Units=km
new line.RML10182989 bus1=BBT583374.1.2.0,bus2=RML1060182989.1.2.0,Phases=2,Linecode=CABBTG05_4_2,Length=0.017000000,Units=km
new line.RML10186523 bus1=BBT2989890.1.2.3.0,bus2=RML1060186523.1.2.3.0,Phases=3,Linecode=CABBTG06_4_3,Length=0.017000000,Units=km
new line.RML10186542 bus1=BBT2997016.2.3.0,bus2=RML1060186542.2.3.0,Phases=2,Linecode=CABBTG05_4_2,Length=0.017000000,Units=km
new line.RML10186819 bus1=BBT4704197.1.2.0,bus2=RML1060186819.1.2.0,Phases=2,Linecode=CABBTG05_4_2,Length=0.017000000,Units=km
new line.RML10187352 bus1=BBT558909.1.2.3.0,bus2=RML1060187352.1.2.3.0,Phases=3,Linecode=CABBTG06_4_3,Length=0.017000000,Units=km
new line.RML10187617 bus1=BBT583395.1.2.0,bus2=RML1060187617.1.2.0,Phases=2,Linecode=CABBTG05_4_2,Length=0.017000000,Units=km
new line.RML10187987 bus1=BBT1622930.1.2.0,bus2=RML1060187987.1.2.0,Phases=2,Linecode=CABBTG05_4_2,Length=0.017000000,Units=km
new line.RML10187989 bus1=BBT2995581.2.0,bus2=RML1060187989.2.0,Phases=1,Linecode=CABBTG02_4_1,Length=0.017000000,Units=km
new line.RML10187995 bus1=BBT2998787.1.0,bus2=RML1060187995.1.0,Phases=1,Linecode=CABBTG02_4_1,Length=0.017000000,Units=km
new line.RML10187996 bus1=BBT2845578.2.0,bus2=RML1060187996.2.0,Phases=1,Linecode=CABBTG02_4_1,Length=0.017000000,Units=km
new line.RML10188011 bus1=BBT3188207.1.2.3.0,bus2=RML1060188011.1.2.3.0,Phases=3,Linecode=CABBTG12_4_3,Length=0.017000000,Units=km
new line.RML10188015 bus1=BBT12534461.1.2.3.0,bus2=RML1060188015.1.2.3.0,Phases=3,Linecode=CABBTG12_4_3,Length=0.017000000,Units=km
new line.RML10188016 bus1=BBT2997534.1.2.3.0,bus2=RML1060188016.1.2.3.0,Phases=3,Linecode=CABBTG12_4_3,Length=0.017000000,Units=km
new line.RML10188019 bus1=BBT2999550.1.0,bus2=RML1060188019.1.0,Phases=1,Linecode=CABBTG02_4_1,Length=0.017000000,Units=km
new line.RML10188022 bus1=BBT1653149.1.0,bus2=RML1060188022.1.0,Phases=1,Linecode=CABBTG02_4_1,Length=0.017000000,Units=km
new line.RML10195791 bus1=BBT1667555.3.0,bus2=RML1060195791.3.0,Phases=1,Linecode=CABBTG02_4_1,Length=0.017000000,Units=km
new line.RML10195830 bus1=BBT3412550.1.0,bus2=RML1060195830.1.0,Phases=1,Linecode=CABBTG02_4_1,Length=0.017000000,Units=km
new line.RML10199383 bus1=BBT2840076.1.2.0,bus2=RML1060199383.1.2.0,Phases=2,Linecode=CABBTG05_4_2,Length=0.017000000,Units=km
new line.RML10202050 bus1=BBT1626052.1.2.3.0,bus2=RML1060202050.1.2.3.0,Phases=3,Linecode=CABBTG12_4_3,Length=0.017000000,Units=km
new line.RML10203565 bus1=BBT5011035.1.2.3.0,bus2=RML1060203565.1.2.3.0,Phases=3,Linecode=CABBTG06_4_3,Length=0.011000000,Units=km
new line.RML10203763 bus1=BBT2930733.1.2.3.0,bus2=RML1060203763.1.2.3.0,Phases=3,Linecode=CABBTG12_4_3,Length=0.017000000,Units=km
new line.RML10203768 bus1=BBT2977808.1.3.0,bus2=RML1060203768.1.3.0,Phases=2,Linecode=CABBTG13_4_2,Length=0.017000000,Units=km
new line.RML10204029 bus1=BBT570928.1.2.0,bus2=RML1060204029.1.2.0,Phases=2,Linecode=CABBTG04_4_2,Length=0.017000000,Units=km
new line.RML10204653 bus1=BBT2842015.1.2.3.0,bus2=RML1060204653.1.2.3.0,Phases=3,Linecode=CABBTG06_4_3,Length=0.017000000,Units=km
new line.RML10205633 bus1=BBT596975.1.2.3.0,bus2=RML1060205633.1.2.3.0,Phases=3,Linecode=CABBTG08_4_3,Length=0.017000000,Units=km
new line.RML10206562 bus1=BBT3453185.1.2.0,bus2=RML1060206562.1.2.0,Phases=2,Linecode=CABBTG05_4_2,Length=0.017000000,Units=km
new line.RML10206665 bus1=BBT3001734.2.0,bus2=RML1060206665.2.0,Phases=1,Linecode=CABBTG02_4_1,Length=0.017000000,Units=km
new line.RML10206738 bus1=BBT557971.1.2.0,bus2=RML1060206738.1.2.0,Phases=2,Linecode=CABBTG05_4_2,Length=0.017000000,Units=km
new line.RML10206908 bus1=BBT2999809.1.0,bus2=RML1060206908.1.0,Phases=1,Linecode=CABBTG02_4_1,Length=0.017000000,Units=km
new line.RML10207168 bus1=BBT2999116.1.2.0,bus2=RML1060207168.1.2.0,Phases=2,Linecode=CABBTG05_4_2,Length=0.017000000,Units=km
new line.RML10208672 bus1=BBT2240764.1.2.3.0,bus2=RML1060208672.1.2.3.0,Phases=3,Linecode=CABBTG07_4_3,Length=0.017000000,Units=km
new line.RML10208675 bus1=BBT2999872.1.2.0,bus2=RML1060208675.1.2.0,Phases=2,Linecode=CABBTG13_4_2,Length=0.017000000,Units=km
new line.RML10208676 bus1=BBT2999872.1.3.0,bus2=RML1060208676.1.3.0,Phases=2,Linecode=CABBTG13_4_2,Length=0.017000000,Units=km
new line.RML10210639 bus1=BBT557999.1.2.3.0,bus2=RML1060210639.1.2.3.0,Phases=3,Linecode=CABBTG12_4_3,Length=0.017000000,Units=km
new line.RML10211505 bus1=BBT1634109.1.2.3.0,bus2=RML1060211505.1.2.3.0,Phases=3,Linecode=CABBTG12_4_3,Length=0.017000000,Units=km
new line.RML10211510 bus1=BBT2998024.1.2.0,bus2=RML1060211510.1.2.0,Phases=2,Linecode=CABBTG13_4_2,Length=0.017000000,Units=km
new line.RML10211514 bus1=BBT2844549.1.2.0,bus2=RML1060211514.1.2.0,Phases=2,Linecode=CABBTG13_4_2,Length=0.017000000,Units=km
new line.RML10211515 bus1=BBT2840293.1.0,bus2=RML1060211515.1.0,Phases=1,Linecode=CABBTG02_4_1,Length=0.017000000,Units=km
new line.RML10212241 bus1=BBT2998591.1.2.3.0,bus2=RML1060212241.1.2.3.0,Phases=3,Linecode=CABBTG12_4_3,Length=0.017000000,Units=km
new line.RML10212246 bus1=BBT3008916.1.2.3.0,bus2=RML1060212246.1.2.3.0,Phases=3,Linecode=CABBTG12_4_3,Length=0.017000000,Units=km
new line.RML10212250 bus1=BBT3008895.1.2.3.0,bus2=RML1060212250.1.2.3.0,Phases=3,Linecode=CABBTG12_4_3,Length=0.017000000,Units=km
new line.RML10212253 bus1=BBT3009140.1.2.0,bus2=RML1060212253.1.2.0,Phases=2,Linecode=CABBTG13_4_2,Length=0.017000000,Units=km
new line.RML10213849 bus1=BBT2974658.1.2.3.0,bus2=RML1060213849.1.2.3.0,Phases=3,Linecode=CABBTG10_4_3,Length=0.017000000,Units=km
new line.RML10217329 bus1=BBT576031.1.2.3.0,bus2=RML1060217329.1.2.3.0,Phases=3,Linecode=CABBTG12_4_3,Length=0.017000000,Units=km
new line.RML10217340 bus1=BBT3427446.2.0,bus2=RML1060217340.2.0,Phases=1,Linecode=CABBTG03_4_1,Length=0.017000000,Units=km
new line.RML10217348 bus1=BBT557999.1.2.0,bus2=RML1060217348.1.2.0,Phases=2,Linecode=CABBTG13_4_2,Length=0.017000000,Units=km
new line.RML10218096 bus1=BBT2840951.1.2.0,bus2=RML1060218096.1.2.0,Phases=2,Linecode=CABBTG13_4_2,Length=0.017000000,Units=km
new line.RML10218193 bus1=BBT2974721.1.2.0,bus2=RML1060218193.1.2.0,Phases=2,Linecode=CABBTG13_4_2,Length=0.017000000,Units=km
new line.RML10219759 bus1=BBT2969170.3.0,bus2=RML1060219759.3.0,Phases=1,Linecode=CABBTG02_4_1,Length=0.017000000,Units=km
new line.RML10220430 bus1=BBT3007411.1.2.3.0,bus2=RML1060220430.1.2.3.0,Phases=3,Linecode=CABBTG10_4_3,Length=0.017000000,Units=km
new line.RML10220432 bus1=BBT2248338.1.2.0,bus2=RML1060220432.1.2.0,Phases=2,Linecode=CABBTG13_4_2,Length=0.017000000,Units=km
new line.RML10223053 bus1=BBT33181850.1.2.0,bus2=RML1060223053.1.2.0,Phases=2,Linecode=CABBTG05_4_2,Length=0.017000000,Units=km
new line.RML10223171 bus1=BBT2968218.1.2.3.0,bus2=RML1060223171.1.2.3.0,Phases=3,Linecode=CABBTG10_4_3,Length=0.017000000,Units=km
new line.RML10223174 bus1=BBT2968267.1.0,bus2=RML1060223174.1.0,Phases=1,Linecode=CABBTG02_4_1,Length=0.017000000,Units=km
new line.RML10224950 bus1=BBT2975190.1.2.0,bus2=RML1060224950.1.2.0,Phases=2,Linecode=CABBTG13_4_2,Length=0.017000000,Units=km
new line.RML10224952 bus1=BBT2999557.2.0,bus2=RML1060224952.2.0,Phases=1,Linecode=CABBTG02_4_1,Length=0.017000000,Units=km
new line.RML10228149 bus1=BBT3452982.1.2.0,bus2=RML1060228149.1.2.0,Phases=2,Linecode=CABBTG04_4_2,Length=0.017000000,Units=km
new line.RML10228158 bus1=BBT3452982.1.2.0,bus2=RML1060228158.1.2.0,Phases=2,Linecode=CABBTG04_4_2,Length=0.017000000,Units=km
new line.RML10229710 bus1=BBT3453108.3.0,bus2=RML1060229710.3.0,Phases=1,Linecode=CABBTG02_4_1,Length=0.017000000,Units=km
new line.RML10233464 bus1=BBT2976373.1.3.0,bus2=RML1060233464.1.3.0,Phases=2,Linecode=CABBTG05_4_2,Length=0.017000000,Units=km
new line.RML10234097 bus1=BBT2965670.1.2.3.0,bus2=RML1060234097.1.2.3.0,Phases=3,Linecode=CABBTG06_4_3,Length=0.017000000,Units=km
new line.RML10234258 bus1=BBT3011828.1.3.0,bus2=RML1060234258.1.3.0,Phases=2,Linecode=CABBTG05_4_2,Length=0.017000000,Units=km
new line.RML10234273 bus1=BBT3011828.2.3.0,bus2=RML1060234273.2.3.0,Phases=2,Linecode=CABBTG05_4_2,Length=0.017000000,Units=km
new line.RML10235673 bus1=BBT2986348.1.2.3.0,bus2=RML1060235673.1.2.3.0,Phases=3,Linecode=CABBTG06_4_3,Length=0.017000000,Units=km
new line.RML10235951 bus1=BBT2842050.1.2.0,bus2=RML1060235951.1.2.0,Phases=2,Linecode=CABBTG05_4_2,Length=0.017000000,Units=km
new line.RML10237020 bus1=BBT594777.1.2.0,bus2=RML1060237020.1.2.0,Phases=2,Linecode=CABBTG05_4_2,Length=0.017000000,Units=km
new line.RML10237783 bus1=BBT3329887.1.0,bus2=RML1060237783.1.0,Phases=1,Linecode=CABBTG01_4_1,Length=0.017000000,Units=km
new line.RML10238919 bus1=BBT2826818.2.3.0,bus2=RML1060238919.2.3.0,Phases=2,Linecode=CABBTG05_4_2,Length=0.017000000,Units=km
new line.RML10238942 bus1=BBT2242934.1.2.3.0,bus2=RML1060238942.1.2.3.0,Phases=3,Linecode=CABBTG06_4_3,Length=0.017000000,Units=km
new line.RML10241410 bus1=BBT2966538.1.2.3.0,bus2=RML1060241410.1.2.3.0,Phases=3,Linecode=CABBTG06_4_3,Length=0.017000000,Units=km
new line.RML10242185 bus1=BBT3453108.1.0,bus2=RML1060242185.1.0,Phases=1,Linecode=CABBTG02_4_1,Length=0.017000000,Units=km
new line.RML10244407 bus1=BBT2840083.1.0,bus2=RML1060244407.1.0,Phases=1,Linecode=CABBTG02_4_1,Length=0.017000000,Units=km
new line.RML10246032 bus1=BBT603114.3.0,bus2=RML1060246032.3.0,Phases=1,Linecode=CABBTG01_4_1,Length=0.017000000,Units=km
new line.RML10248687 bus1=BBT2996918.1.2.3.0,bus2=RML1060248687.1.2.3.0,Phases=3,Linecode=CABBTG06_4_3,Length=0.017000000,Units=km
new line.RML10249174 bus1=BBT2840972.1.0,bus2=RML1060249174.1.0,Phases=1,Linecode=CABBTG02_4_1,Length=0.017000000,Units=km
new line.RML10255578 bus1=BBT2844626.1.0,bus2=RML1060255578.1.0,Phases=1,Linecode=CABBTG02_4_1,Length=0.017000000,Units=km
new line.RML10255633 bus1=BBT2844598.2.0,bus2=RML1060255633.2.0,Phases=1,Linecode=CABBTG02_4_1,Length=0.017000000,Units=km
new line.RML10255757 bus1=BBT3193226.1.0,bus2=RML1060255757.1.0,Phases=1,Linecode=CABBTG02_4_1,Length=0.017000000,Units=km
new line.RML10257868 bus1=BBT33181850.2.0,bus2=RML1060257868.2.0,Phases=1,Linecode=CABBTG02_4_1,Length=0.017000000,Units=km
new line.RML10258281 bus1=BBT3427551.1.2.0,bus2=RML1060258281.1.2.0,Phases=2,Linecode=CABBTG13_4_2,Length=0.017000000,Units=km
new line.RML10258282 bus1=BBT3427558.2.0,bus2=RML1060258282.2.0,Phases=1,Linecode=CABBTG02_4_1,Length=0.017000000,Units=km
new line.RML10258285 bus1=BBT585642.3.0,bus2=RML1060258285.3.0,Phases=1,Linecode=CABBTG02_4_1,Length=0.017000000,Units=km
new line.RML10258870 bus1=BBT3299479.1.2.0,bus2=RML1060258870.1.2.0,Phases=2,Linecode=CABBTG05_4_2,Length=0.017000000,Units=km
new line.RML10258878 bus1=BBT570970.1.3.0,bus2=RML1060258878.1.3.0,Phases=2,Linecode=CABBTG05_4_2,Length=0.017000000,Units=km
new line.RML10258900 bus1=BBT574687.1.2.0,bus2=RML1060258900.1.2.0,Phases=2,Linecode=CABBTG05_4_2,Length=0.017000000,Units=km
new line.RML10267269 bus1=BBT1610463.1.2.0,bus2=RML1060267269.1.2.0,Phases=2,Linecode=CABBTG05_4_2,Length=0.017000000,Units=km
new line.RML10267622 bus1=BBT3001608.1.0,bus2=RML1060267622.1.0,Phases=1,Linecode=CABBTG02_4_1,Length=0.017000000,Units=km
new line.RML10267630 bus1=BBT2967693.2.0,bus2=RML1060267630.2.0,Phases=1,Linecode=CABBTG02_4_1,Length=0.017000000,Units=km
new line.RML10267631 bus1=BBT1628691.1.2.3.0,bus2=RML1060267631.1.2.3.0,Phases=3,Linecode=CABBTG06_4_3,Length=0.017000000,Units=km
new line.RML10267632 bus1=BBT4364823.1.2.3.0,bus2=RML1060267632.1.2.3.0,Phases=3,Linecode=CABBTG06_4_3,Length=0.017000000,Units=km
new line.RML10267640 bus1=BBT2845571.1.2.0,bus2=RML1060267640.1.2.0,Phases=2,Linecode=CABBTG13_4_2,Length=0.017000000,Units=km
new line.RML10269766 bus1=BBT563004.2.0,bus2=RML1060269766.2.0,Phases=1,Linecode=CABBTG02_4_1,Length=0.017000000,Units=km
new line.RML10271410 bus1=BBT583374.1.0,bus2=RML1060271410.1.0,Phases=1,Linecode=CABBTG01_4_1,Length=0.017000000,Units=km
new line.RML10271446 bus1=BBT3412620.1.2.0,bus2=RML1060271446.1.2.0,Phases=2,Linecode=CABBTG05_4_2,Length=0.017000000,Units=km
new line.RML10271794 bus1=BBT1624197.1.2.3.0,bus2=RML1060271794.1.2.3.0,Phases=3,Linecode=CABBTG10_4_3,Length=0.017000000,Units=km
new line.RML10272030 bus1=BBT3883944.1.0,bus2=RML1060272030.1.0,Phases=1,Linecode=CABBTG02_4_1,Length=0.029000000,Units=km
new line.RML10272337 bus1=BBT558895.2.3.0,bus2=RML1060272337.2.3.0,Phases=2,Linecode=CABBTG05_4_2,Length=0.017000000,Units=km
new line.RML10272542 bus1=BBT3008076.1.0,bus2=RML1060272542.1.0,Phases=1,Linecode=CABBTG02_4_1,Length=0.017000000,Units=km
new line.RML10273107 bus1=BBT3427551.2.3.0,bus2=RML1060273107.2.3.0,Phases=2,Linecode=CABBTG05_4_2,Length=0.017000000,Units=km
new line.RML10273834 bus1=BBT2840181.2.3.0,bus2=RML1060273834.2.3.0,Phases=2,Linecode=CABBTG05_4_2,Length=0.017000000,Units=km
new line.RML10274382 bus1=BBT2236242.1.2.0,bus2=RML1060274382.1.2.0,Phases=2,Linecode=CABBTG05_4_2,Length=0.017000000,Units=km
new line.RML10274541 bus1=BBT4100083.1.0,bus2=RML1060274541.1.0,Phases=1,Linecode=CABBTG02_4_1,Length=0.017000000,Units=km
new line.RML10275534 bus1=BBT2967917.1.0,bus2=RML1060275534.1.0,Phases=1,Linecode=CABBTG02_4_1,Length=0.017000000,Units=km
new line.RML10275652 bus1=BBT2967371.2.3.0,bus2=RML1060275652.2.3.0,Phases=2,Linecode=CABBTG05_4_2,Length=0.017000000,Units=km
new line.RML10276448 bus1=BBT3007845.1.2.0,bus2=RML1060276448.1.2.0,Phases=2,Linecode=CABBTG05_4_2,Length=0.017000000,Units=km
new line.RML10276645 bus1=BBT2983744.1.2.0,bus2=RML1060276645.1.2.0,Phases=2,Linecode=CABBTG05_4_2,Length=0.017000000,Units=km