new line.TR11089548 bus1=BMT152676957.1.2.3,bus2=BMT1890960B.1.2.3,Phases=3,Linecode=CABA06_3_3,Length=0.037746000,Units=km
new line.TR11089562 bus1=BMT1890960B.1.2.3,bus2=BMT152676959.1.2.3,Phases=3,Linecode=CABA06_3_3,Length=0.039836000,Units=km
new line.TR11089653 bus1=BMT152676958.1.2.3,bus2=BMT1890995B.1.2.3,Phases=3,Linecode=CABA06_3_3,Length=0.037347000,Units=km
new line.TR11089660 bus1=BMT1890995B.1.2.3,bus2=BMT152676960.1.2.3,Phases=3,Linecode=CABA06_3_3,Length=0.035238000,Units=km
new line.TR11426045 bus1=BMT148564426.1.2.3,bus2=BMT102746359.1.2.3,Phases=3,Linecode=CABA08_3_3,Length=0.013606000,Units=km
new line.TR11426052 bus1=BMT148564427.1.2.3,bus2=BMT102746359.1.2.3,Phases=3,Linecode=CABA08_3_3,Length=0.015816000,Units=km
new line.TR11426059 bus1=BMT152416006.1.2.3,bus2=BMT2701567B.1.2.3,Phases=3,Linecode=CABA06_3_3,Length=0.030008000,Units=km
new line.TR11426066 bus1=BMT2701567B.1.2.3,bus2=BMT2701574B.1.2.3,Phases=3,Linecode=CABA06_3_3,Length=0.030422000,Units=km
new line.TR11426073 bus1=BMT2701574B.1.2.3,bus2=BMT2701581B.1.2.3,Phases=3,Linecode=CABA06_3_3,Length=0.020621000,Units=km
new line.TR11426080 bus1=BMT2701581B.1.2.3,bus2=BMT2701588B.1.2.3,Phases=3,Linecode=CABA06_3_3,Length=0.019241000,Units=km
new line.TR11426087 bus1=BMT2701588B.1.2.3,bus2=BMT2701609B.1.2.3,Phases=3,Linecode=CABA06_3_3,Length=0.019006000,Units=km
new line.TR11426094 bus1=BMT2701609B.1.2.3,bus2=BMT3867270B.1.2.3,Phases=3,Linecode=CABA06_3_3,Length=0.032025000,Units=km
new line.TR11426101 bus1=BMT3867270B.1.2.3,bus2=BMT3867277B.1.2.3,Phases=3,Linecode=CABA06_3_3,Length=0.032025000,Units=km
new line.TR11426108 bus1=BMT3867277B.1.2.3,bus2=BMT3867284B.1.2.3,Phases=3,Linecode=CABA06_3_3,Length=0.031057000,Units=km
new line.TR11426115 bus1=BMT3867284B.1.2.3,bus2=BMT3867291B.1.2.3,Phases=3,Linecode=CABA06_3_3,Length=0.028168000,Units=km
new line.TR11426157 bus1=BMT152416005.1.2.3,bus2=BMT3867291B.1.2.3,Phases=3,Linecode=CABA06_3_3,Length=0.022810000,Units=km
new line.TR11571015 bus1=BMT106739936.1.2.3,bus2=BMT106739943.1.2.3,Phases=3,Linecode=CABA06_3_3,Length=0.014565000,Units=km
new line.TR12290897 bus1=BMT154520471.1.2.3,bus2=BMT154520472.1.2.3,Phases=3,Linecode=CABA08_3_3,Length=0.003001000,Units=km
new line.TR12290898 bus1=BMT154520472.1.2.3,bus2=BMT6836748B.1.2.3,Phases=3,Linecode=CAB401_5_3,Length=0.003164000,Units=km
new line.TR12366213 bus1=BMT161873817.1.2.3,bus2=BMT161873818.1.2.3,Phases=3,Linecode=CAB902_4_3,Length=0.015816000,Units=km
new line.TR12523376 bus1=BMT164153933.1.2.3,bus2=BMT510217B.1.2.3,Phases=3,Linecode=CABA06_3_3,Length=0.036135000,Units=km
new line.TR12523382 bus1=BMT510217B.1.2.3,bus2=BMT164153936.1.2.3,Phases=3,Linecode=CABA06_3_3,Length=0.044307000,Units=km
new line.TR12681986 bus1=BMT169117414.1.2.3,bus2=BMT2710058B.1.2.3,Phases=3,Linecode=CABA08_3_3,Length=0.030373000,Units=km
new line.TR12708604 bus1=BMT169990067.1.2.3,bus2=BMT169990068.1.2.3,Phases=3,Linecode=CABA08_3_3,Length=0.000501000,Units=km
new line.TR12708605 bus1=BMT169990067.1.2.3,bus2=BMT527199C.1.2.3,Phases=3,Linecode=CABA08_3_3,Length=0.033847000,Units=km
new line.TR12708612 bus1=BMT527199C.1.2.3,bus2=BMT527213C.1.2.3,Phases=3,Linecode=CABA08_3_3,Length=0.028801000,Units=km
new line.TR12708633 bus1=BMT527213C.1.2.3,bus2=BMT527234C.1.2.3,Phases=3,Linecode=CABA08_3_3,Length=0.034142000,Units=km
new line.TR12708635 bus1=BMT527227C.1.2.3,bus2=BMT2718325C.1.2.3,Phases=3,Linecode=CABA08_3_3,Length=0.024214000,Units=km
new line.TR12708638 bus1=BMT527234C.1.2.3,bus2=BMT527227C.1.2.3,Phases=3,Linecode=CABA08_3_3,Length=0.027026000,Units=km
new line.TR12708642 bus1=BMT2718325C.1.2.3,bus2=BMT527206C.1.2.3,Phases=3,Linecode=CABA08_3_3,Length=0.010444000,Units=km
new line.TR12708643 bus1=BMT527206C.1.2.3,bus2=BMT9316498C.1.2.3,Phases=3,Linecode=CABA08_3_3,Length=0.030092000,Units=km
new line.TR12708644 bus1=BMT9316498C.1.2.3,bus2=BMT169990068.1.2.3,Phases=3,Linecode=CABA08_3_3,Length=0.039823000,Units=km
new line.TR12708645 bus1=BMT169990069.1.2.3,bus2=BMT9316500B.1.2.3,Phases=3,Linecode=CABA08_3_3,Length=0.034550000,Units=km
new line.TR12708646 bus1=BMT9316500B.1.2.3,bus2=BMT9316501B.1.2.3,Phases=3,Linecode=CABA08_3_3,Length=0.033251000,Units=km
new line.TR12708647 bus1=BMT9316501B.1.2.3,bus2=BMT9316503B.1.2.3,Phases=3,Linecode=CABA08_3_3,Length=0.031962000,Units=km
new line.TR12708659 bus1=BMT9316503B.1.2.3,bus2=BMT9316505B.1.2.3,Phases=3,Linecode=CABA08_3_3,Length=0.039936000,Units=km
new line.TR12708660 bus1=BMT9316505B.1.2.3,bus2=BMT9316508B.1.2.3,Phases=3,Linecode=CABA08_3_3,Length=0.033115000,Units=km
new line.TR12708661 bus1=BMT9316508B.1.2.3,bus2=BMT9221874B.1.2.3,Phases=3,Linecode=CABA08_3_3,Length=0.034550000,Units=km
new line.TR12708662 bus1=BMT9221874B.1.2.3,bus2=BMT9316511B.1.2.3,Phases=3,Linecode=CABA08_3_3,Length=0.032320000,Units=km
new line.TR12708663 bus1=BMT9316511B.1.2.3,bus2=BMT9316513B.1.2.3,Phases=3,Linecode=CABA08_3_3,Length=0.038637000,Units=km
new line.TR12708664 bus1=BMT9316513B.1.2.3,bus2=BMT9316514B.1.2.3,Phases=3,Linecode=CABA08_3_3,Length=0.037707000,Units=km
new line.TR12708665 bus1=BMT9316514B.1.2.3,bus2=BMT9316516B.1.2.3,Phases=3,Linecode=CABA08_3_3,Length=0.037707000,Units=km
new line.TR12708666 bus1=BMT9316516B.1.2.3,bus2=BMT9221875B.1.2.3,Phases=3,Linecode=CABA08_3_3,Length=0.025087000,Units=km
new line.TR12708713 bus1=BMT9221875B.1.2.3,bus2=BMT169990070.1.2.3,Phases=3,Linecode=CABA08_3_3,Length=0.019931000,Units=km
new line.TR12708768 bus1=BMT169991066.1.2.3,bus2=BMT169991067.1.2.3,Phases=3,Linecode=CAB108_3_3,Length=0.028292000,Units=km
new line.TR12742796 bus1=BMT171173370.1.2.3,bus2=BMT171173371.1.2.3,Phases=3,Linecode=CAB103_3_3,Length=0.012373000,Units=km
new line.TR12742797 bus1=BMT171173371.1.2.3,bus2=BMT171173372.1.2.3,Phases=3,Linecode=CAB103_3_3,Length=0.028469000,Units=km
new line.TR2091783 bus1=BMT1401961B.1.2.3,bus2=BMT1408058B.1.2.3,Phases=3,Linecode=CABA06_3_3,Length=0.025246000,Units=km
new line.TR2091790 bus1=BMT1401968B.1.2.3,bus2=BMT1401961B.1.2.3,Phases=3,Linecode=CABA06_3_3,Length=0.030537000,Units=km
new line.TR2091797 bus1=BMT1401975B.1.2.3,bus2=BMT2712711B.1.2.3,Phases=3,Linecode=CABA06_3_3,Length=0.023028000,Units=km
new line.TR2091804 bus1=BMT1401982B.1.2.3,bus2=BMT1401975B.1.2.3,Phases=3,Linecode=CABA06_3_3,Length=0.026934000,Units=km
new line.TR2091818 bus1=BMT1401989B.1.2.3,bus2=BMT1401982B.1.2.3,Phases=3,Linecode=CABA06_3_3,Length=0.031073000,Units=km
new line.TR2091825 bus1=BMT171491288.1.2.3,bus2=BMT1401989B.1.2.3,Phases=3,Linecode=CABA06_3_3,Length=0.028853000,Units=km
new line.TR2091832 bus1=BMT1402003B.1.2.3,bus2=BMT171491288.1.2.3,Phases=3,Linecode=CABA06_3_3,Length=0.031073000,Units=km
new line.TR2091839 bus1=BMT1402010B.1.2.3,bus2=BMT1402003B.1.2.3,Phases=3,Linecode=CABA06_3_3,Length=0.025561000,Units=km
new line.TR10593675 bus1=BMT164658735.1.2.3,bus2=BMT164658736.1.2.3,Phases=3,Linecode=CABA06_3_3,Length=0.041315000,Units=km
new line.TR11207575 bus1=BMT165599621.1.2.3,bus2=BMT2688890B.1.2.3,Phases=3,Linecode=CABA08_3_3,Length=0.029419000,Units=km
new line.TR11207603 bus1=BMT2688890B.1.2.3,bus2=BMT165599622.1.2.3,Phases=3,Linecode=CABA08_3_3,Length=0.043197000,Units=km
new line.TR11400299 bus1=BMT102745631.1.2.3,bus2=BMT7605229B.1.2.3,Phases=3,Linecode=CABA08_3_3,Length=0.006085000,Units=km
new line.TR11400306 bus1=BMT7605229B.1.2.3,bus2=BMT171611528.1.2.3,Phases=3,Linecode=CABA08_3_3,Length=0.006327000,Units=km
new line.TR11529582 bus1=BMT164033639.1.2.3,bus2=BMT2719039B.1.2.3,Phases=3,Linecode=CABA06_3_3,Length=0.033610000,Units=km
new line.TR11529596 bus1=BMT2719039B.1.2.3,bus2=BMT2719046B.1.2.3,Phases=3,Linecode=CABA06_3_3,Length=0.035010000,Units=km
new line.TR11529603 bus1=BMT2719046B.1.2.3,bus2=BMT164033638.1.2.3,Phases=3,Linecode=CABA06_3_3,Length=0.041412000,Units=km
new line.TR12608465 bus1=BMT169240569.1.2.3,bus2=BMT169240571.1.2.3,Phases=3,Linecode=CABA06_3_3,Length=0.021477000,Units=km
new line.TR12738246 bus1=BMT2539818B.1.2.3,bus2=BMT171006333.1.2.3,Phases=3,Linecode=CABA06_3_3,Length=0.013606000,Units=km
new line.TR12738247 bus1=BMT171006333.1.2.3,bus2=BMT2539825B.1.2.3,Phases=3,Linecode=CABA06_3_3,Length=0.016768000,Units=km
new line.TR12738248 bus1=BMT171598604.1.2.3,bus2=BMT9345512B.1.2.3,Phases=3,Linecode=CABA06_3_3,Length=0.042202000,Units=km
new line.TR12738249 bus1=BMT9345512B.1.2.3,bus2=BMT171598605.1.2.3,Phases=3,Linecode=CABA06_3_3,Length=0.040533000,Units=km
new line.TR12738250 bus1=BMT171598605.1.2.3,bus2=BMT171598606.1.2.3,Phases=3,Linecode=CABA06_3_3,Length=0.038611000,Units=km
new line.TR12738251 bus1=BMT171598724.1.2.3,bus2=BMT9345524B.1.2.3,Phases=3,Linecode=CABA06_3_3,Length=0.030603000,Units=km
new line.TR12738252 bus1=BMT9345524B.1.2.3,bus2=BMT9345520B.1.2.3,Phases=3,Linecode=CABA06_3_3,Length=0.024522000,Units=km
new line.TR12738253 bus1=BMT9345520B.1.2.3,bus2=BMT9345522B.1.2.3,Phases=3,Linecode=CABA06_3_3,Length=0.043024000,Units=km
new line.TR12738256 bus1=BMT9345522B.1.2.3,bus2=BMT9345529B.1.2.3,Phases=3,Linecode=CABA06_3_3,Length=0.034492000,Units=km
new line.TR12738262 bus1=BMT171598605.1.2.3,bus2=BMT9345533B.1.2.3,Phases=3,Linecode=CABA06_3_3,Length=0.042071000,Units=km
new line.TR12738263 bus1=BMT9345533B.1.2.3,bus2=BMT9345534B.1.2.3,Phases=3,Linecode=CABA06_3_3,Length=0.016497000,Units=km
new line.TR12738264 bus1=BMT9345534B.1.2.3,bus2=BMT171598607.1.2.3,Phases=3,Linecode=CABA06_3_3,Length=0.025007000,Units=km
new line.TR12738265 bus1=BMT171598607.1.2.3,bus2=BMT171598608.1.2.3,Phases=3,Linecode=CABA06_3_3,Length=0.038338000,Units=km
new line.TR12738266 bus1=BMT9345529B.1.2.3,bus2=BMT9345542B.1.2.3,Phases=3,Linecode=CABA06_3_3,Length=0.026578000,Units=km
new line.TR12738267 bus1=BMT9345542B.1.2.3,bus2=BMT9345541B.1.2.3,Phases=3,Linecode=CABA06_3_3,Length=0.028469000,Units=km
new line.TR12738268 bus1=BMT171598607.1.2.3,bus2=BMT9345545B.1.2.3,Phases=3,Linecode=CABA06_3_3,Length=0.017268000,Units=km
new line.TR12738269 bus1=BMT9345545B.1.2.3,bus2=BMT9345546B.1.2.3,Phases=3,Linecode=CABA06_3_3,Length=0.031789000,Units=km
new line.TR12738272 bus1=BMT9345541B.1.2.3,bus2=BMT171598725.1.2.3,Phases=3,Linecode=CABA06_3_3,Length=0.032766000,Units=km
new line.TR12738273 bus1=BMT171598725.1.2.3,bus2=BMT9345551B.1.2.3,Phases=3,Linecode=CABA06_3_3,Length=0.033296000,Units=km
new line.TR12738275 bus1=BMT171598725.1.2.3,bus2=BMT9345553B.1.2.3,Phases=3,Linecode=CABA06_3_3,Length=0.013042000,Units=km
new line.TR12738276 bus1=BMT9345553B.1.2.3,bus2=BMT171598727.1.2.3,Phases=3,Linecode=CABA06_3_3,Length=0.029436000,Units=km
new line.TR12738335 bus1=BMT9345551B.1.2.3,bus2=BMT171598726.1.2.3,Phases=3,Linecode=CABA06_3_3,Length=0.045718000,Units=km
new line.TR12738336 bus1=BMT171598726.1.2.3,bus2=BMT9345571B.1.2.3,Phases=3,Linecode=CABA06_3_3,Length=0.041785000,Units=km
new line.TR12738337 bus1=BMT9345571B.1.2.3,bus2=BMT171598728.1.2.3,Phases=3,Linecode=CABA06_3_3,Length=0.034723000,Units=km
new line.TR12738338 bus1=BMT171598728.1.2.3,bus2=BMT9345573B.1.2.3,Phases=3,Linecode=CABA06_3_3,Length=0.023777000,Units=km
new line.TR12738339 bus1=BMT171598728.1.2.3,bus2=BMT171598731.1.2.3,Phases=3,Linecode=CABA06_3_3,Length=0.033130000,Units=km
new line.TR12738350 bus1=BMT171598728.1.2.3,bus2=BMT171598732.1.2.3,Phases=3,Linecode=CABA06_3_3,Length=0.039634000,Units=km
new line.TR12738351 bus1=BMT171598732.1.2.3,bus2=BMT9345638B.1.2.3,Phases=3,Linecode=CABA06_3_3,Length=0.036259000,Units=km
new line.TR12738353 bus1=BMT171598732.1.2.3,bus2=BMT9345641B.1.2.3,Phases=3,Linecode=CABA06_3_3,Length=0.033431000,Units=km
new line.TR12738354 bus1=BMT9345641B.1.2.3,bus2=BMT171598734.1.2.3,Phases=3,Linecode=CABA06_3_3,Length=0.042650000,Units=km
new line.TR12738376 bus1=BMT171598726.1.2.3,bus2=BMT9345667B.1.2.3,Phases=3,Linecode=CABA06_3_3,Length=0.032289000,Units=km
new line.TR12738377 bus1=BMT9345667B.1.2.3,bus2=BMT9345669B.1.2.3,Phases=3,Linecode=CABA06_3_3,Length=0.031789000,Units=km
new line.TR12738378 bus1=BMT9345669B.1.2.3,bus2=BMT9345671B.1.2.3,Phases=3,Linecode=CABA06_3_3,Length=0.040273000,Units=km
new line.TR12738379 bus1=BMT9345671B.1.2.3,bus2=BMT171598729.1.2.3,Phases=3,Linecode=CABA06_3_3,Length=0.038908000,Units=km
new line.TR12738425 bus1=BMT9345573B.1.2.3,bus2=BMT171598730.1.2.3,Phases=3,Linecode=CABA06_3_3,Length=0.035365000,Units=km
new line.TR12738433 bus1=BMT9345638B.1.2.3,bus2=BMT9345724B.1.2.3,Phases=3,Linecode=CABA06_3_3,Length=0.042214000,Units=km
new line.TR12738434 bus1=BMT9345724B.1.2.3,bus2=BMT171598733.1.2.3,Phases=3,Linecode=CABA06_3_3,Length=0.041785000,Units=km
new line.TR2050091 bus1=BMT117377101.1.2.3,bus2=BMT2708483B.1.2.3,Phases=3,Linecode=CABA06_3_3,Length=0.026180000,Units=km
new line.TR2050980 bus1=BMT169117413.1.2.3,bus2=BMT2335362B.1.2.3,Phases=3,Linecode=CABA08_3_3,Length=0.029419000,Units=km
new line.TR2097957 bus1=BMT171491294.1.2.3,bus2=BMT2335593B.1.2.3,Phases=3,Linecode=CABA06_3_3,Length=0.031394000,Units=km
new line.TR2098993 bus1=BMT171010708.1.2.3,bus2=BMT102749068.1.2.3,Phases=3,Linecode=CAB103_3_3,Length=0.028328000,Units=km
new line.TR2100267 bus1=BMT171173372.1.2.3,bus2=BMT2420230B.1.2.3,Phases=3,Linecode=CAB103_3_3,Length=0.024746000,Units=km
new line.TR2101471 bus1=BMT1407547B.1.2.3,bus2=BMT1407561B.1.2.3,Phases=3,Linecode=CABA08_3_3,Length=0.022479000,Units=km
new line.TR2101485 bus1=BMT1407561B.1.2.3,bus2=BMT1407554B.1.2.3,Phases=3,Linecode=CABA08_3_3,Length=0.005833000,Units=km
new line.TR2101541 bus1=BMT171010706.1.2.3,bus2=BMT1407624B.1.2.3,Phases=3,Linecode=CAB103_3_3,Length=0.029841000,Units=km
new line.TR11152408 bus1=BMT2690752B.1.2.3,bus2=BMT165599620.1.2.3,Phases=3,Linecode=CABA08_3_3,Length=0.034142000,Units=km
new line.TR11460191 bus1=BMT169240566.1.2.3,bus2=BMT2689170B.1.2.3,Phases=3,Linecode=CABA06_3_3,Length=0.032149000,Units=km
new line.TR11460198 bus1=BMT2689170B.1.2.3,bus2=BMT169240568.1.2.3,Phases=3,Linecode=CABA06_3_3,Length=0.036135000,Units=km
new line.TR11460254 bus1=BMT169240567.1.2.3,bus2=BMT169240569.1.2.3,Phases=3,Linecode=CABA06_3_3,Length=0.042119000,Units=km
new line.TR11460261 bus1=BMT169240569.1.2.3,bus2=BMT2688050B.1.2.3,Phases=3,Linecode=CABA06_3_3,Length=0.032397000,Units=km
new line.TR11460268 bus1=BMT2688050B.1.2.3,bus2=BMT169240570.1.2.3,Phases=3,Linecode=CABA06_3_3,Length=0.027082000,Units=km
new line.TR11467394 bus1=BMT164153924.1.2.3,bus2=BMT164153925.1.2.3,Phases=3,Linecode=CABA06_3_3,Length=0.032025000,Units=km
new line.TR11627043 bus1=BMT164658728.1.2.3,bus2=BMT164658737.1.2.3,Phases=3,Linecode=CABA06_3_3,Length=0.040123000,Units=km
new line.TR11970379 bus1=BMT102748900.1.2.3,bus2=BMT135269640.1.2.3,Phases=3,Linecode=CABA08_3_3,Length=0.018116000,Units=km
new line.TR12380647 bus1=BMT6306603B.1.2.3,bus2=BMT157602018.1.2.3,Phases=3,Linecode=CABA06_3_3,Length=0.030422000,Units=km
new line.TR12380650 bus1=BMT169120365.1.2.3,bus2=BMT169120366.1.2.3,Phases=3,Linecode=CAB902_4_3,Length=0.006085000,Units=km
new line.TR12526371 bus1=BMT165591368.1.2.3,bus2=BMT9134120B.1.2.3,Phases=3,Linecode=CABA06_3_3,Length=0.005833000,Units=km
new line.TR12526372 bus1=BMT9134120B.1.2.3,bus2=BMT2711871B.1.2.3,Phases=3,Linecode=CABA06_3_3,Length=0.036685000,Units=km
new line.TR12686157 bus1=BMT169492856.1.2.3,bus2=BMT2715021B.1.2.3,Phases=3,Linecode=CABA06_3_3,Length=0.027302000,Units=km
new line.TR12686158 bus1=BMT2715021B.1.2.3,bus2=BMT167536185.1.2.3,Phases=3,Linecode=CABA06_3_3,Length=0.017122000,Units=km
new line.TR12711199 bus1=BMT171600555.2,bus2=BMT9319024B.2,Phases=1,Linecode=CABA06_3_1,Length=0.040509000,Units=km
new line.TR12711200 bus1=BMT9319024B.2,bus2=BMT9319027B.2,Phases=1,Linecode=CABA06_3_1,Length=0.037707000,Units=km
new line.TR12711201 bus1=BMT9319027B.2,bus2=BMT9319030B.2,Phases=1,Linecode=CABA06_3_1,Length=0.039011000,Units=km
new line.TR12711202 bus1=BMT9319030B.2,bus2=BMT171600557.2,Phases=1,Linecode=CABA06_3_1,Length=0.039011000,Units=km
new line.TR2061746 bus1=BMT1382221B.1.2.3,bus2=BMT102746576.1.2.3,Phases=3,Linecode=CAB103_3_3,Length=0.032397000,Units=km
new line.TR2061753 bus1=BMT1382228B.1.2.3,bus2=BMT1382221B.1.2.3,Phases=3,Linecode=CAB103_3_3,Length=0.034535000,Units=km
new line.TR2061760 bus1=BMT1382235B.1.2.3,bus2=BMT1382228B.1.2.3,Phases=3,Linecode=CAB103_3_3,Length=0.029163000,Units=km
new line.TR2101653 bus1=BMT1407652B.1.2.3,bus2=BMT1407659B.1.2.3,Phases=3,Linecode=CAB103_3_3,Length=0.033536000,Units=km
new line.TR2101667 bus1=BMT1407659B.1.2.3,bus2=BMT1407666B.1.2.3,Phases=3,Linecode=CAB103_3_3,Length=0.032766000,Units=km
new line.TR2101688 bus1=BMT1407666B.1.2.3,bus2=BMT1407673B.1.2.3,Phases=3,Linecode=CAB103_3_3,Length=0.018979000,Units=km
new line.TR2101702 bus1=BMT1407673B.1.2.3,bus2=BMT171010708.1.2.3,Phases=3,Linecode=CAB103_3_3,Length=0.029008000,Units=km
new line.TR2102220 bus1=BMT171491292.1.2.3,bus2=BMT2574307B.1.2.3,Phases=3,Linecode=CABA06_3_3,Length=0.033625000,Units=km
new line.TR2102227 bus1=BMT171491292.1.2.3,bus2=BMT2574342B.1.2.3,Phases=3,Linecode=CABA06_3_3,Length=0.031073000,Units=km
new line.TR2102241 bus1=BMT1408037B.1.2.3,bus2=BMT171491292.1.2.3,Phases=3,Linecode=CABA06_3_3,Length=0.020815000,Units=km
new line.TR2102262 bus1=BMT171491291.1.2.3,bus2=BMT1408037B.1.2.3,Phases=3,Linecode=CABA06_3_3,Length=0.028853000,Units=km
new line.TR2102290 bus1=BMT171491290.1.2.3,bus2=BMT171491291.1.2.3,Phases=3,Linecode=CABA06_3_3,Length=0.028310000,Units=km
new line.TR2102311 bus1=BMT1408058B.1.2.3,bus2=BMT171491290.1.2.3,Phases=3,Linecode=CABA06_3_3,Length=0.031915000,Units=km
new line.TR2104943 bus1=BMT102746275.1.2.3,bus2=BMT2420475B.1.2.3,Phases=3,Linecode=CAB103_3_3,Length=0.025620000,Units=km
new line.TR2105804 bus1=BMT171491287.1.2.3,bus2=BMT1402031B.1.2.3,Phases=3,Linecode=CABA06_3_3,Length=0.025814000,Units=km
new line.TR2105811 bus1=BMT171491287.1.2.3,bus2=BMT2857674B.1.2.3,Phases=3,Linecode=CABA06_3_3,Length=0.027667000,Units=km
new line.TR2105832 bus1=BMT171491286.1.2.3,bus2=BMT171491287.1.2.3,Phases=3,Linecode=CABA06_3_3,Length=0.034419000,Units=km
new line.TR2105853 bus1=BMT1410382B.1.2.3,bus2=BMT171491286.1.2.3,Phases=3,Linecode=CABA06_3_3,Length=0.033847000,Units=km
new line.TR2105867 bus1=BMT1410389B.1.2.3,bus2=BMT1410382B.1.2.3,Phases=3,Linecode=CABA06_3_3,Length=0.031837000,Units=km
new line.TR2105888 bus1=BMT1410396B.1.2.3,bus2=BMT1410389B.1.2.3,Phases=3,Linecode=CABA06_3_3,Length=0.031915000,Units=km
new line.TR2105909 bus1=BMT102746723.1.2.3,bus2=BMT1410396B.1.2.3,Phases=3,Linecode=CABA06_3_3,Length=0.027211000,Units=km
new line.TR2105930 bus1=BMT1410410B.1.2.3,bus2=BMT165591373.1.2.3,Phases=3,Linecode=CABA06_3_3,Length=0.016768000,Units=km
new line.TR2105937 bus1=BMT1410410B.1.2.3,bus2=BMT1410417B.1.2.3,Phases=3,Linecode=CABA06_3_3,Length=0.023352000,Units=km
new line.TR2105944 bus1=BMT1410417B.1.2.3,bus2=BMT1410424B.1.2.3,Phases=3,Linecode=CABA06_3_3,Length=0.022367000,Units=km
new line.TR2105951 bus1=BMT1410424B.1.2.3,bus2=BMT2688666B.1.2.3,Phases=3,Linecode=CABA06_3_3,Length=0.035521000,Units=km
new line.TR2106119 bus1=BMT171173365.1.2.3,bus2=BMT2575889B.1.2.3,Phases=3,Linecode=CABA08_3_3,Length=0.037010000,Units=km
new line.TR2106126 bus1=BMT171173365.1.2.3,bus2=BMT2576092B.1.2.3,Phases=3,Linecode=CABA08_3_3,Length=0.029163000,Units=km
new line.TR2258257 bus1=BMT169256699.1.2.3,bus2=BMT2334837B.1.2.3,Phases=3,Linecode=CABA08_3_3,Length=0.040459000,Units=km
new line.TR2260042 bus1=BMT1506163B.1.2.3,bus2=BMT2706124B.1.2.3,Phases=3,Linecode=CABA06_3_3,Length=0.029741000,Units=km
new line.TR2260252 bus1=BMT169256701.1.2.3,bus2=BMT2334886B.1.2.3,Phases=3,Linecode=CABA08_3_3,Length=0.029129000,Units=km
new line.TR2260434 bus1=BMT1506478B.1.2.3,bus2=BMT1506485B.1.2.3,Phases=3,Linecode=CABA08_3_3,Length=0.026027000,Units=km
new line.TR2260448 bus1=BMT1506485B.1.2.3,bus2=BMT1506492B.1.2.3,Phases=3,Linecode=CABA08_3_3,Length=0.034068000,Units=km
new line.TR2260462 bus1=BMT1506492B.1.2.3,bus2=BMT134723717.1.2.3,Phases=3,Linecode=CABA08_3_3,Length=0.030025000,Units=km
new line.TR2260476 bus1=BMT136051736.1.2.3,bus2=BMT136051743.1.2.3,Phases=3,Linecode=CABA08_3_3,Length=0.025027000,Units=km
new line.TR2260490 bus1=BMT136051743.1.2.3,bus2=BMT102748900.1.2.3,Phases=3,Linecode=CABA08_3_3,Length=0.021030000,Units=km
new line.TR2261470 bus1=BMT1507066B.1.2.3,bus2=BMT150552912.1.2.3,Phases=3,Linecode=CABA08_3_3,Length=0.027302000,Units=km
new line.TR10575790 bus1=BMT6836748B.1.2.3,bus2=BMT154520473.1.2.3,Phases=3,Linecode=CAB401_5_3,Length=0.011003000,Units=km
new line.TR11654420 bus1=BMT165599623.1.2.3,bus2=BMT2690444B.1.2.3,Phases=3,Linecode=CABA06_3_3,Length=0.032149000,Units=km
new line.TR11654441 bus1=BMT2690444B.1.2.3,bus2=BMT165599624.1.2.3,Phases=3,Linecode=CABA06_3_3,Length=0.033145000,Units=km
new line.TR12507605 bus1=BMT164033636.1.2.3,bus2=BMT164033634.1.2.3,Phases=3,Linecode=CABA08_3_3,Length=0.023352000,Units=km
new line.TR2088759 bus1=BMT171173366.1.2.3,bus2=BMT2420321B.1.2.3,Phases=3,Linecode=CABA08_3_3,Length=0.038063000,Units=km
new line.TR3314620 bus1=BMT162490957.1.2.3,bus2=BMT2382045B.1.2.3,Phases=3,Linecode=CABA06_3_3,Length=0.036135000,Units=km
new line.TR4609872 bus1=BMT150552911.1.2.3,bus2=BMT2710758B.1.2.3,Phases=3,Linecode=CABA08_3_3,Length=0.025502000,Units=km
new line.TR4609900 bus1=BMT169117406.1.2.3,bus2=BMT2710688B.1.2.3,Phases=3,Linecode=CABA08_3_3,Length=0.036507000,Units=km
new line.TR4609907 bus1=BMT169117406.1.2.3,bus2=BMT2710716B.1.2.3,Phases=3,Linecode=CABA08_3_3,Length=0.045190000,Units=km
new line.TR4609942 bus1=BMT168560597.1.2.3,bus2=BMT168560598.1.2.3,Phases=3,Linecode=CABA06_3_3,Length=0.039634000,Units=km
new line.TR4609970 bus1=BMT2335677B.1.2.3,bus2=BMT2711486B.1.2.3,Phases=3,Linecode=CABA06_3_3,Length=0.031266000,Units=km
new line.TR4609991 bus1=BMT2335684B.1.2.3,bus2=BMT2705627B.1.2.3,Phases=3,Linecode=CAB103_3_3,Length=0.030684000,Units=km
new line.TR4610012 bus1=BMT2335691B.1.2.3,bus2=BMT2335698B.1.2.3,Phases=3,Linecode=CABA06_3_3,Length=0.035703000,Units=km
new line.TR4610033 bus1=BMT2335698B.1.2.3,bus2=BMT2335705B.1.2.3,Phases=3,Linecode=CABA06_3_3,Length=0.042059000,Units=km
new line.TR4610047 bus1=BMT2335705B.1.2.3,bus2=BMT2335712B.1.2.3,Phases=3,Linecode=CABA06_3_3,Length=0.033070000,Units=km
new line.TR4610061 bus1=BMT2335712B.1.2.3,bus2=BMT2335719B.1.2.3,Phases=3,Linecode=CABA06_3_3,Length=0.040036000,Units=km
new line.TR4610082 bus1=BMT2335719B.1.2.3,bus2=BMT169492853.1.2.3,Phases=3,Linecode=CABA06_3_3,Length=0.035478000,Units=km
new line.TR4610103 bus1=BMT169492853.1.2.3,bus2=BMT2335733B.1.2.3,Phases=3,Linecode=CABA06_3_3,Length=0.029841000,Units=km
new line.TR4610110 bus1=BMT169492853.1.2.3,bus2=BMT2705305B.1.2.3,Phases=3,Linecode=CABA06_3_3,Length=0.033311000,Units=km
new line.TR4610117 bus1=BMT169492853.1.2.3,bus2=BMT2705361B.1.2.3,Phases=3,Linecode=CABA06_3_3,Length=0.021006000,Units=km
new line.TR4610138 bus1=BMT2335733B.1.2.3,bus2=BMT2705802B.1.2.3,Phases=3,Linecode=CABA06_3_3,Length=0.038299000,Units=km
new line.TR4610166 bus1=BMT2335740B.1.2.3,bus2=BMT2705795B.1.2.3,Phases=3,Linecode=CABA06_3_3,Length=0.031899000,Units=km
new line.TR4610215 bus1=BMT2335761B.1.2.3,bus2=BMT2696842B.1.2.3,Phases=3,Linecode=CABA08_3_3,Length=0.037547000,Units=km
new line.TR4610236 bus1=BMT2335768B.1.2.3,bus2=BMT2697003B.1.2.3,Phases=3,Linecode=CABA08_3_3,Length=0.029008000,Units=km
new line.TR4610264 bus1=BMT2335775B.1.2.3,bus2=BMT2697059B.1.2.3,Phases=3,Linecode=CABA08_3_3,Length=0.029283000,Units=km
new line.TR4610299 bus1=BMT171440939.1.2.3,bus2=BMT165118207.1.2.3,Phases=3,Linecode=CABA08_3_3,Length=0.036902000,Units=km
new line.TR4610306 bus1=BMT171440939.1.2.3,bus2=BMT171440940.1.2.3,Phases=3,Linecode=CABA08_3_3,Length=0.044295000,Units=km
new line.TR4610334 bus1=BMT165641429.1.2.3,bus2=BMT165641430.1.2.3,Phases=3,Linecode=CABA08_3_3,Length=0.033980000,Units=km
new line.TR4610355 bus1=BMT171440940.1.2.3,bus2=BMT102747479.1.2.3,Phases=3,Linecode=CABA06_3_3,Length=0.034142000,Units=km
new line.TR4610362 bus1=BMT171440940.1.2.3,bus2=BMT102747486.1.2.3,Phases=3,Linecode=CABA08_3_3,Length=0.037226000,Units=km
new line.TR4610383 bus1=BMT169240561.1.2.3,bus2=BMT169240562.1.2.3,Phases=3,Linecode=CAB103_3_3,Length=0.037226000,Units=km
new line.TR4610411 bus1=BMT165599524.1.2.3,bus2=BMT2657348B.1.2.3,Phases=3,Linecode=CABA08_3_3,Length=0.034375000,Units=km
new line.TR4610432 bus1=BMT2335817B.1.2.3,bus2=BMT2657460B.1.2.3,Phases=3,Linecode=CABA08_3_3,Length=0.035238000,Units=km
new line.TR4610453 bus1=BMT165599526.1.2.3,bus2=BMT1892101B.1.2.3,Phases=3,Linecode=CAB103_3_3,Length=0.044734000,Units=km
new line.TR4610460 bus1=BMT165599526.1.2.3,bus2=BMT165599528.1.2.3,Phases=3,Linecode=CABA08_3_3,Length=0.033070000,Units=km
new line.TR4610488 bus1=BMT169240562.1.2.3,bus2=BMT2335845B.1.2.3,Phases=3,Linecode=CAB103_3_3,Length=0.037132000,Units=km
new line.TR4610495 bus1=BMT169240562.1.2.3,bus2=BMT2690857B.1.2.3,Phases=3,Linecode=CAB103_3_3,Length=0.043197000,Units=km
new line.TR4610516 bus1=BMT169240564.1.2.3,bus2=BMT169240565.1.2.3,Phases=3,Linecode=CAB103_3_3,Length=0.035857000,Units=km
new line.TR4610523 bus1=BMT169240564.1.2.3,bus2=BMT2689163B.1.2.3,Phases=3,Linecode=CAB103_3_3,Length=0.031153000,Units=km
new line.TR4610565 bus1=BMT2335845B.1.2.3,bus2=BMT169240563.1.2.3,Phases=3,Linecode=CAB103_3_3,Length=0.033251000,Units=km
new line.TR4610607 bus1=BMT2335859B.1.2.3,bus2=BMT165641432.1.2.3,Phases=3,Linecode=CAB103_3_3,Length=0.038220000,Units=km
new line.TR4610628 bus1=BMT2335866B.1.2.3,bus2=BMT1625149B.1.2.3,Phases=3,Linecode=CAB103_3_3,Length=0.037547000,Units=km
new line.TR4610649 bus1=BMT165641433.1.2.3,bus2=BMT165641434.1.2.3,Phases=3,Linecode=CAB103_3_3,Length=0.043290000,Units=km
new line.TR4610656 bus1=BMT165641433.1.2.3,bus2=BMT2715448B.1.2.3,Phases=3,Linecode=CAB103_3_3,Length=0.031153000,Units=km
new line.TR4610670 bus1=BMT2335880B.1.2.3,bus2=BMT2335887B.1.2.3,Phases=3,Linecode=CAB103_3_3,Length=0.029740000,Units=km
new line.TR4610677 bus1=BMT2335880B.1.2.3,bus2=BMT2715455B.1.2.3,Phases=3,Linecode=CAB103_3_3,Length=0.032567000,Units=km
new line.TR4610691 bus1=BMT2335887B.1.2.3,bus2=BMT102747528.1.2.3,Phases=3,Linecode=CAB103_3_3,Length=0.035138000,Units=km
new line.TR4610705 bus1=BMT102747528.1.2.3,bus2=BMT165641435.1.2.3,Phases=3,Linecode=CAB103_3_3,Length=0.039330000,Units=km
new line.TR4610712 bus1=BMT152676956.1.2.3,bus2=BMT1890974B.1.2.3,Phases=3,Linecode=CAB103_3_3,Length=0.026007000,Units=km
new line.TR4610733 bus1=BMT165641436.1.2.3,bus2=BMT1889448B.1.2.3,Phases=3,Linecode=CAB103_3_3,Length=0.037667000,Units=km
new line.TR4610740 bus1=BMT165641436.1.2.3,bus2=BMT2715784B.1.2.3,Phases=3,Linecode=CAB103_3_3,Length=0.034244000,Units=km
new line.TR4610761 bus1=BMT165641439.1.2.3,bus2=BMT165641440.1.2.3,Phases=3,Linecode=CAB103_3_3,Length=0.035238000,Units=km
new line.TR4610768 bus1=BMT165641439.1.2.3,bus2=BMT2713362B.1.2.3,Phases=3,Linecode=CAB103_3_3,Length=0.040210000,Units=km
new line.TR4610789 bus1=BMT102747570.1.2.3,bus2=BMT2335936B.1.2.3,Phases=3,Linecode=CAB103_3_3,Length=0.032149000,Units=km
new line.TR4610796 bus1=BMT164658725.1.2.3,bus2=BMT164658726.1.2.3,Phases=3,Linecode=CAB103_3_3,Length=0.043116000,Units=km
new line.TR11359286 bus1=BMT165403546.1.2.3,bus2=BMT2624798B.1.2.3,Phases=3,Linecode=CAB902_4_3,Length=0.032705000,Units=km
new line.TR11359293 bus1=BMT2624798B.1.2.3,bus2=BMT165403549.1.2.3,Phases=3,Linecode=CAB902_4_3,Length=0.034938000,Units=km
new line.TR12018266 bus1=BMT148564425.1.2.3,bus2=BMT135805735.1.2.3,Phases=3,Linecode=CABA08_3_3,Length=0.014871000,Units=km
new line.TR12018273 bus1=BMT162298417.1.2.3,bus2=BMT162298418.1.2.3,Phases=3,Linecode=CABA08_3_3,Length=0.016160000,Units=km
new line.TR12496192 bus1=BMT163208805.1.2.3,bus2=BMT163208806.1.2.3,Phases=3,Linecode=CAB902_4_3,Length=0.015038000,Units=km
new line.TR12534255 bus1=BMT171491295.1.2.3,bus2=BMT2575602B.1.2.3,Phases=3,Linecode=CABA06_3_3,Length=0.038908000,Units=km
new line.TR12535693 bus1=BMT164033636.1.2.3,bus2=BMT164033637.1.2.3,Phases=3,Linecode=CAB907_4_3,Length=0.017697000,Units=km
new line.TR12535707 bus1=BMT164033637.1.2.3,bus2=BMT2719060B.1.2.3,Phases=3,Linecode=CABA08_3_3,Length=0.034419000,Units=km
new line.TR12535709 bus1=BMT2719060B.1.2.3,bus2=BMT164033638.1.2.3,Phases=3,Linecode=CABA08_3_3,Length=0.037212000,Units=km
new line.TR12573053 bus1=BMT165599622.1.2.3,bus2=BMT165431407.1.2.3,Phases=3,Linecode=CABA08_3_3,Length=0.042202000,Units=km
new line.TR12599470 bus1=BMT166446696.1.2.3,bus2=BMT2684823B.1.2.3,Phases=3,Linecode=CABA06_3_3,Length=0.027174000,Units=km
new line.TR12599471 bus1=BMT2684823B.1.2.3,bus2=BMT2684851B.1.2.3,Phases=3,Linecode=CABA06_3_3,Length=0.038338000,Units=km
new line.TR12599472 bus1=BMT2684851B.1.2.3,bus2=BMT2684858B.1.2.3,Phases=3,Linecode=CABA06_3_3,Length=0.035238000,Units=km
new line.TR12599475 bus1=BMT2684858B.1.2.3,bus2=BMT4132556B.1.2.3,Phases=3,Linecode=CABA06_3_3,Length=0.029283000,Units=km
new line.TR12599476 bus1=BMT4132556B.1.2.3,bus2=BMT4132563B.1.2.3,Phases=3,Linecode=CABA06_3_3,Length=0.029163000,Units=km
new line.TR12599477 bus1=BMT4132563B.1.2.3,bus2=BMT166446698.1.2.3,Phases=3,Linecode=CABA06_3_3,Length=0.022029000,Units=km
new line.TR12599484 bus1=BMT166446700.1.2.3,bus2=BMT166446701.1.2.3,Phases=3,Linecode=CABA06_3_3,Length=0.005833000,Units=km
new line.TR12599486 bus1=BMT166446701.1.2.3,bus2=BMT9208057B.1.2.3,Phases=3,Linecode=CAB601_3_3,Length=0.005101000,Units=km
new line.TR12599487 bus1=BMT9208057B.1.2.3,bus2=BMT166446702.1.2.3,Phases=3,Linecode=CAB601_3_3,Length=0.006002000,Units=km
new line.TR12633946 bus1=BMT167536592.1.2.3,bus2=BMT167536595.1.2.3,Phases=3,Linecode=CAB102_3_3,Length=0.007073000,Units=km
new line.TR12633947 bus1=BMT167536595.1.2.3,bus2=BMT9244123B.1.2.3,Phases=3,Linecode=CAB601_3_3,Length=0.003001000,Units=km
new line.TR12633948 bus1=BMT9244123B.1.2.3,bus2=BMT167536596.1.2.3,Phases=3,Linecode=CAB601_3_3,Length=0.006085000,Units=km
new line.TR12755913 bus1=BMT3554006B.1.2.3,bus2=BMT9361631B.1.2.3,Phases=3,Linecode=CABA08_3_3,Length=0.036135000,Units=km
new line.TR12755914 bus1=BMT9361631B.1.2.3,bus2=BMT3554027B.1.2.3,Phases=3,Linecode=CABA08_3_3,Length=0.012004000,Units=km