new load.3009002021M1 bus1=BMT101606871.1.2.3.0,Phases=3,kv=13.8,kW=22.43636,pf=0.92,Vminpu=0.93,Vmaxpu=1.5,model=1,daily=A4-2,status=variable
new load.3009003754M1 bus1=BMT163340083.1.2.3.0,Phases=3,kv=13.8,kW=808.42788,pf=0.92,Vminpu=0.93,Vmaxpu=1.5,model=1,daily=A4-6,status=variable
new load.3009008535M1 bus1=BMT101598086.1.2.3.0,Phases=3,kv=13.8,kW=201.49552,pf=0.92,Vminpu=0.93,Vmaxpu=1.5,model=1,daily=A4-5,status=variable
new load.3009009646M1 bus1=BMT167770594.1.2.3.0,Phases=3,kv=13.8,kW=14.93806,pf=0.92,Vminpu=0.93,Vmaxpu=1.5,model=1,daily=A4-4,status=variable
new load.3009010033M1 bus1=BMT101597477.1.2.3.0,Phases=3,kv=13.8,kW=6.38458,pf=0.92,Vminpu=0.93,Vmaxpu=1.5,model=1,daily=A4-1,status=variable
new load.3009010499M1 bus1=BMT165070690.1.2.3.0,Phases=3,kv=13.8,kW=14.68172,pf=0.92,Vminpu=0.93,Vmaxpu=1.5,model=1,daily=A4-3,status=variable
new load.3009012152M1 bus1=BMT101596973.1.2.3.0,Phases=3,kv=13.8,kW=520.94398,pf=0.92,Vminpu=0.93,Vmaxpu=1.5,model=1,daily=A4-6,status=variable
new load.3009013673M1 bus1=BMT165070752.1.2.3.0,Phases=3,kv=13.8,kW=4.78844,pf=0.92,Vminpu=0.93,Vmaxpu=1.5,model=1,daily=A4-1,status=variable
new load.3009014260M1 bus1=BMT165070841.1.2.3.0,Phases=3,kv=13.8,kW=211.83624,pf=0.92,Vminpu=0.93,Vmaxpu=1.5,model=1,daily=A4-3,status=variable
new load.3009014385M1 bus1=BMT157575575.1.2.3.0,Phases=3,kv=13.8,kW=424.47286,pf=0.92,Vminpu=0.93,Vmaxpu=1.5,model=1,daily=A4-6,status=variable
new load.3009014386M1 bus1=BMT101596616.1.2.3.0,Phases=3,kv=13.8,kW=571.10894,pf=0.92,Vminpu=0.93,Vmaxpu=1.5,model=1,daily=A4-6,status=variable
new load.3009016357M1 bus1=BMT165070457.1.2.3.0,Phases=3,kv=13.8,kW=108.83446,pf=0.92,Vminpu=0.93,Vmaxpu=1.5,model=1,daily=A4-4,status=variable
new load.3009017633M1 bus1=BMT101598058.1.2.3.0,Phases=3,kv=13.8,kW=31.41092,pf=0.92,Vminpu=0.93,Vmaxpu=1.5,model=1,daily=A4-2,status=variable
new load.3009017777M1 bus1=BMT165070991.1.2.3.0,Phases=3,kv=13.8,kW=17.07208,pf=0.92,Vminpu=0.93,Vmaxpu=1.5,model=1,daily=A4-4,status=variable
new load.3009019046M1 bus1=BMT101599997.1.2.3.0,Phases=3,kv=13.8,kW=1.59614,pf=0.92,Vminpu=0.93,Vmaxpu=1.5,model=1,daily=A4-1,status=variable
new load.3009020006M1 bus1=BMT101597435.1.2.3.0,Phases=3,kv=13.8,kW=4.78844,pf=0.92,Vminpu=0.93,Vmaxpu=1.5,model=1,daily=A4-1,status=variable
new load.3009021635M1 bus1=BMT101596861.1.2.3.0,Phases=3,kv=13.8,kW=8.97454,pf=0.92,Vminpu=0.93,Vmaxpu=1.5,model=1,daily=A4-2,status=variable
new load.3009022018M1 bus1=BMT101611505.1.2.3.0,Phases=3,kv=13.8,kW=44.04516,pf=0.92,Vminpu=0.93,Vmaxpu=1.5,model=1,daily=A4-3,status=variable
new load.3009022229M1 bus1=BMT154595069.1.2.0,Phases=2,kv=13.8,kW=88.49924,pf=0.92,Vminpu=0.93,Vmaxpu=1.5,model=1,daily=A4-7,status=variable
new load.3010099436M1 bus1=BMT154980362.1.2.3.0,Phases=3,kv=13.8,kW=195.05712,pf=0.92,Vminpu=0.93,Vmaxpu=1.5,model=1,daily=A4-3,status=variable
new load.3010167290M1 bus1=BMT165070692.1.2.3.0,Phases=3,kv=13.8,kW=22.43636,pf=0.92,Vminpu=0.93,Vmaxpu=1.5,model=1,daily=A4-2,status=variable
new load.3010480807M1 bus1=BMT154345032.1.2.3.0,Phases=3,kv=13.8,kW=1283.2389,pf=0.92,Vminpu=0.93,Vmaxpu=1.5,model=1,daily=A4-7,status=variable
new load.3010871500M1 bus1=BMT101597001.1.2.3.0,Phases=3,kv=13.8,kW=571.84122,pf=0.92,Vminpu=0.93,Vmaxpu=1.5,model=1,daily=A4-7,status=variable
new load.3011050049M1 bus1=BMT101591086.1.2.3.0,Phases=3,kv=13.8,kW=8.97454,pf=0.92,Vminpu=0.93,Vmaxpu=1.5,model=1,daily=A4-2,status=variable
new load.3011749058M1 bus1=BMT164045543.1.2.3.0,Phases=3,kv=13.8,kW=53.84728,pf=0.92,Vminpu=0.93,Vmaxpu=1.5,model=1,daily=A4-2,status=variable
new load.3011951555M1 bus1=BMT150343443.1.2.3.0,Phases=3,kv=13.8,kW=106.96682,pf=0.92,Vminpu=0.93,Vmaxpu=1.5,model=1,daily=A4-3,status=variable
new load.3012221158M1 bus1=BMT162577615.1.2.3.0,Phases=3,kv=13.8,kW=39.85038,pf=0.92,Vminpu=0.93,Vmaxpu=1.5,model=1,daily=A4-3,status=variable
new load.3012257838M1 bus1=BMT150017052.1.2.3.0,Phases=3,kv=13.8,kW=4.78844,pf=0.92,Vminpu=0.93,Vmaxpu=1.5,model=1,daily=A4-1,status=variable
new load.3012408732M1 bus1=BMT165070694.1.2.3.0,Phases=3,kv=13.8,kW=9.57688,pf=0.92,Vminpu=0.93,Vmaxpu=1.5,model=1,daily=A4-1,status=variable
new load.3012611032M1 bus1=BMT165070677.1.2.3.0,Phases=3,kv=13.8,kW=20.19272,pf=0.92,Vminpu=0.93,Vmaxpu=1.5,model=1,daily=A4-2,status=variable
new load.3012737644M1 bus1=BMT153076806.1.2.3.0,Phases=3,kv=13.8,kW=121.15638,pf=0.92,Vminpu=0.93,Vmaxpu=1.5,model=1,daily=A4-2,status=variable
new load.3012775580M1 bus1=BMT156225473.1.2.3.0,Phases=3,kv=13.8,kW=32.01014,pf=0.92,Vminpu=0.93,Vmaxpu=1.5,model=1,daily=A4-4,status=variable
new load.3012951611M1 bus1=BMT161871478.1.2.3.0,Phases=3,kv=13.8,kW=78.52728,pf=0.92,Vminpu=0.93,Vmaxpu=1.5,model=1,daily=A4-2,status=variable
new load.3013158236M1 bus1=BMT165070816.1.2.3.0,Phases=3,kv=13.8,kW=702.88816,pf=0.92,Vminpu=0.93,Vmaxpu=1.5,model=1,daily=A4-7,status=variable
new load.3013168555M1 bus1=BMT161727031.1.2.3.0,Phases=3,kv=13.8,kW=60.82426,pf=0.92,Vminpu=0.93,Vmaxpu=1.5,model=1,daily=A4-3,status=variable
new load.3013190850M1 bus1=BMT159705504.1.2.3.0,Phases=3,kv=13.8,kW=23.9422,pf=0.92,Vminpu=0.93,Vmaxpu=1.5,model=1,daily=A4-1,status=variable
new load.3013201043M1 bus1=BMT157594879.1.2.3.0,Phases=3,kv=13.8,kW=927.54006,pf=0.92,Vminpu=0.93,Vmaxpu=1.5,model=1,daily=A4-7,status=variable
new load.3013239228M1 bus1=BMT165070671.1.2.3.0,Phases=3,kv=13.8,kW=96.47636,pf=0.92,Vminpu=0.93,Vmaxpu=1.5,model=1,daily=A4-2,status=variable
new load.3013240808M1 bus1=BMT163796588.1.2.3.0,Phases=3,kv=13.8,kW=31.92294,pf=0.92,Vminpu=0.93,Vmaxpu=1.5,model=1,daily=A4-1,status=variable
new load.3013314946M1 bus1=BMT162782712.1.2.3.0,Phases=3,kv=13.8,kW=31.41092,pf=0.92,Vminpu=0.93,Vmaxpu=1.5,model=1,daily=A4-2,status=variable
new load.3013691623M1 bus1=BMT171491285.1.2.3.0,Phases=3,kv=13.8,kW=3.1923,pf=0.92,Vminpu=0.93,Vmaxpu=1.5,model=1,daily=A4-1,status=variable
