new line.RML10074488 bus1=BBT4167325.1.2.0,bus2=RML1060074488.1.2.0,Phases=2,Linecode=CABBTG05_4_2,Length=0.017000000,Units=km
new line.RML10074524 bus1=BBT1687470.1.2.0,bus2=RML1060074524.1.2.0,Phases=2,Linecode=CABBTG05_4_2,Length=0.017000000,Units=km
new line.RML10074598 bus1=BBT4536995.1.2.0,bus2=RML1060074598.1.2.0,Phases=2,Linecode=CABBTG05_4_2,Length=0.017000000,Units=km
new line.RML10074600 bus1=BBT127414513.1.2.0,bus2=RML1060074600.1.2.0,Phases=2,Linecode=CABBTG05_4_2,Length=0.017000000,Units=km
new line.RML10074723 bus1=BBT149142347.1.2.0,bus2=RML1060074723.1.2.0,Phases=2,Linecode=CABBTG05_4_2,Length=0.017000000,Units=km
new line.RML10074813 bus1=BBT4519887.1.0,bus2=RML1060074813.1.0,Phases=1,Linecode=CABBTG02_4_1,Length=0.017000000,Units=km
new line.RML10074814 bus1=BBT4563231.1.2.0,bus2=RML1060074814.1.2.0,Phases=2,Linecode=CABBTG05_4_2,Length=0.017000000,Units=km
new line.RML10074816 bus1=BBT111187995.1.2.0,bus2=RML1060074816.1.2.0,Phases=2,Linecode=CABBTG05_4_2,Length=0.017000000,Units=km
new line.RML10074817 bus1=BBT2079617.1.2.0,bus2=RML1060074817.1.2.0,Phases=2,Linecode=CABBTG05_4_2,Length=0.006000000,Units=km
new line.RML10074818 bus1=BBT1682409.1.0,bus2=RML1060074818.1.0,Phases=1,Linecode=CABBTG02_4_1,Length=0.017000000,Units=km
new line.RML10074892 bus1=BBT1533652.1.2.0,bus2=RML1060074892.1.2.0,Phases=2,Linecode=CABBTG04_4_2,Length=0.017000000,Units=km
new line.RML10074895 bus1=BBT1532231.1.2.0,bus2=RML1060074895.1.2.0,Phases=2,Linecode=CABBTG05_4_2,Length=0.017000000,Units=km
new line.RML10074907 bus1=BBT2078973.1.2.0,bus2=RML1060074907.1.2.0,Phases=2,Linecode=CABBTG05_4_2,Length=0.017000000,Units=km
new line.RML10075101 bus1=BBT3563680.1.0,bus2=RML1060075101.1.0,Phases=1,Linecode=CABBTG02_4_1,Length=0.017000000,Units=km
new line.RML10075103 bus1=BBT1673834.1.2.0,bus2=RML1060075103.1.2.0,Phases=2,Linecode=CABBTG05_4_2,Length=0.017000000,Units=km
new line.RML10075104 bus1=BBT1673757.2.0,bus2=RML1060075104.2.0,Phases=1,Linecode=CABBTG02_4_1,Length=0.017000000,Units=km
new line.RML10075105 bus1=BBT1537250.1.0,bus2=RML1060075105.1.0,Phases=1,Linecode=CABBTG02_4_1,Length=0.017000000,Units=km
new line.RML10075190 bus1=BBT2052044.1.2.0,bus2=RML1060075190.1.2.0,Phases=2,Linecode=CABBTG05_4_2,Length=0.017000000,Units=km
new line.RML10075192 bus1=BBT1678986.2.3.0,bus2=RML1060075192.2.3.0,Phases=2,Linecode=CABBTG05_4_2,Length=0.017000000,Units=km
new line.RML10075944 bus1=BBT4147424.1.0,bus2=RML1060075944.1.0,Phases=1,Linecode=CABBTG02_4_1,Length=0.017000000,Units=km
new line.RML10075945 bus1=BBT1533631.2.0,bus2=RML1060075945.2.0,Phases=1,Linecode=CABBTG02_4_1,Length=0.017000000,Units=km
new line.RML10076031 bus1=BBT4522554.1.0,bus2=RML1060076031.1.0,Phases=1,Linecode=CABBTG02_4_1,Length=0.017000000,Units=km
new line.RML10076149 bus1=BBT20463319.2.0,bus2=RML1060076149.2.0,Phases=1,Linecode=CABBTG02_4_1,Length=0.017000000,Units=km
new line.RML10076151 bus1=BBT77440015.1.0,bus2=RML1060076151.1.0,Phases=1,Linecode=CABBTG02_4_1,Length=0.017000000,Units=km
new line.RML10076166 bus1=BBT1680694.1.0,bus2=RML1060076166.1.0,Phases=1,Linecode=CABBTG02_4_1,Length=0.017000000,Units=km
new line.RML10076168 bus1=BBT1681359.2.0,bus2=RML1060076168.2.0,Phases=1,Linecode=CABBTG02_4_1,Length=0.017000000,Units=km
new line.RML10076171 bus1=BBT2079078.1.2.0,bus2=RML1060076171.1.2.0,Phases=2,Linecode=CABBTG05_4_2,Length=0.017000000,Units=km
new line.RML10076635 bus1=BBT2078952.2.0,bus2=RML1060076635.2.0,Phases=1,Linecode=CABBTG02_4_1,Length=0.017000000,Units=km
new line.RML10076646 bus1=BBT2078812.1.2.0,bus2=RML1060076646.1.2.0,Phases=2,Linecode=CABBTG05_4_2,Length=0.017000000,Units=km
new line.RML10076658 bus1=BBT4878945.3.0,bus2=RML1060076658.3.0,Phases=1,Linecode=CABBTG02_4_1,Length=0.017000000,Units=km
new line.RML10076903 bus1=BBT2080380.1.2.3.0,bus2=RML1060076903.1.2.3.0,Phases=3,Linecode=CABBTG06_4_3,Length=0.029000000,Units=km
new line.RML10076920 bus1=BBT2085210.1.2.0,bus2=RML1060076920.1.2.0,Phases=2,Linecode=CABBTG05_4_2,Length=0.017000000,Units=km
new line.RML10076921 bus1=BBT4135517.1.0,bus2=RML1060076921.1.0,Phases=1,Linecode=CABBTG02_4_1,Length=0.017000000,Units=km
new line.RML10077075 bus1=BBT1531195.1.2.0,bus2=RML1060077075.1.2.0,Phases=2,Linecode=CABBTG05_4_2,Length=0.017000000,Units=km
new line.RML10077078 bus1=BBT3619533.1.2.0,bus2=RML1060077078.1.2.0,Phases=2,Linecode=CABBTG05_4_2,Length=0.017000000,Units=km
new line.RML10077236 bus1=BBT1670607.2.0,bus2=RML1060077236.2.0,Phases=1,Linecode=CABBTG02_4_1,Length=0.017000000,Units=km
new line.RML10077241 bus1=BBT2079533.1.2.0,bus2=RML1060077241.1.2.0,Phases=2,Linecode=CABBTG05_4_2,Length=0.017000000,Units=km
new line.RML10077301 bus1=BBT150602095.1.2.0,bus2=RML1060077301.1.2.0,Phases=2,Linecode=CABBTG05_4_2,Length=0.030000000,Units=km
new line.RML10077618 bus1=BBT2085385.1.2.0,bus2=RML1060077618.1.2.0,Phases=2,Linecode=CABBTG05_4_2,Length=0.017000000,Units=km
new line.RML10077619 bus1=BBT3548504.1.2.0,bus2=RML1060077619.1.2.0,Phases=2,Linecode=CABBTG05_4_2,Length=0.017000000,Units=km
new line.RML10077732 bus1=BBT1684159.1.0,bus2=RML1060077732.1.0,Phases=1,Linecode=CABBTG02_4_1,Length=0.017000000,Units=km
new line.RML10079157 bus1=BBT3669331.1.2.0,bus2=RML1060079157.1.2.0,Phases=2,Linecode=CABBTG05_4_2,Length=0.017000000,Units=km
new line.RML10079160 bus1=BBT3669331.1.2.0,bus2=RML1060079160.1.2.0,Phases=2,Linecode=CABBTG05_4_2,Length=0.017000000,Units=km
new line.RML10079206 bus1=BBT3397206.1.2.0,bus2=RML1060079206.1.2.0,Phases=2,Linecode=CABBTG05_4_2,Length=0.017000000,Units=km
new line.RML10079218 bus1=BBT4411485.1.2.0,bus2=RML1060079218.1.2.0,Phases=2,Linecode=CABBTG04_4_2,Length=0.017000000,Units=km
new line.RML10079224 bus1=BBT4134957.1.2.0,bus2=RML1060079224.1.2.0,Phases=2,Linecode=CABBTG04_4_2,Length=0.017000000,Units=km
new line.RML10079618 bus1=BBT1545251.1.2.3.0,bus2=RML1060079618.1.2.3.0,Phases=3,Linecode=CABBTG06_4_3,Length=0.017000000,Units=km
new line.RML10079661 bus1=BBT1540141.1.2.0,bus2=RML1060079661.1.2.0,Phases=2,Linecode=CABBTG05_4_2,Length=0.017000000,Units=km
new line.RML10080090 bus1=BBT1677040.3.0,bus2=RML1060080090.3.0,Phases=1,Linecode=CABBTG02_4_1,Length=0.014000000,Units=km
new line.RML10080092 bus1=BBT2080149.1.2.3.0,bus2=RML1060080092.1.2.3.0,Phases=3,Linecode=CABBTG06_4_3,Length=0.016000000,Units=km
new line.RML10080094 bus1=BBT1682157.2.0,bus2=RML1060080094.2.0,Phases=1,Linecode=CABBTG01_4_1,Length=0.016000000,Units=km
new line.RML10080294 bus1=BBT1097167.2.3.0,bus2=RML1060080294.2.3.0,Phases=2,Linecode=CABBTG05_4_2,Length=0.017000000,Units=km
new line.RML10080322 bus1=BBT1685517.1.2.0,bus2=RML1060080322.1.2.0,Phases=2,Linecode=CABBTG05_4_2,Length=0.017000000,Units=km
new line.RML10080411 bus1=BBT1537264.1.2.0,bus2=RML1060080411.1.2.0,Phases=2,Linecode=CABBTG05_4_2,Length=0.017000000,Units=km
new line.RML10080446 bus1=BBT4271002.1.0,bus2=RML1060080446.1.0,Phases=1,Linecode=CABBTG02_4_1,Length=0.017000000,Units=km
new line.RML10080457 bus1=BBT1677012.1.0,bus2=RML1060080457.1.0,Phases=1,Linecode=CABBTG02_4_1,Length=0.017000000,Units=km
new line.RML10080472 bus1=BBT2878338.1.0,bus2=RML1060080472.1.0,Phases=1,Linecode=CABBTG02_4_1,Length=0.017000000,Units=km
new line.RML10059891 bus1=BBT1677019.1.0,bus2=RML1060059891.1.0,Phases=1,Linecode=CABBTG02_4_1,Length=0.017000000,Units=km
new line.RML10059893 bus1=BBT1678720.1.0,bus2=RML1060059893.1.0,Phases=1,Linecode=CABBTG02_4_1,Length=0.017000000,Units=km
new line.RML10059898 bus1=BBT1678797.1.0,bus2=RML1060059898.1.0,Phases=1,Linecode=CABBTG02_4_1,Length=0.017000000,Units=km
new line.RML10059899 bus1=BBT1678944.1.3.0,bus2=RML1060059899.1.3.0,Phases=2,Linecode=CABBTG04_4_2,Length=0.017000000,Units=km
new line.RML10059906 bus1=BBT1678944.1.2.0,bus2=RML1060059906.1.2.0,Phases=2,Linecode=CABBTG04_4_2,Length=0.017000000,Units=km
new line.RML10059912 bus1=BBT4313996.1.2.0,bus2=RML1060059912.1.2.0,Phases=2,Linecode=CABBTG04_4_2,Length=0.017000000,Units=km
new line.RML10059915 bus1=BBT4363787.1.2.0,bus2=RML1060059915.1.2.0,Phases=2,Linecode=CABBTG05_4_2,Length=0.017000000,Units=km
new line.RML10059918 bus1=BBT4363787.1.0,bus2=RML1060059918.1.0,Phases=1,Linecode=CABBTG02_4_1,Length=0.017000000,Units=km
new line.RML10059963 bus1=BBT4363815.1.0,bus2=RML1060059963.1.0,Phases=1,Linecode=CABBTG02_4_1,Length=0.017000000,Units=km
new line.RML10059966 bus1=BBT4363822.1.2.0,bus2=RML1060059966.1.2.0,Phases=2,Linecode=CABBTG04_4_2,Length=0.017000000,Units=km
new line.RML10059969 bus1=BBT4363822.1.0,bus2=RML1060059969.1.0,Phases=1,Linecode=CABBTG01_4_1,Length=0.017000000,Units=km
new line.RML10059971 bus1=BBT4363822.1.0,bus2=RML1060059971.1.0,Phases=1,Linecode=CABBTG01_4_1,Length=0.017000000,Units=km
new line.RML10063867 bus1=BBT4270995.1.2.0,bus2=RML1060063867.1.2.0,Phases=2,Linecode=CABBTG05_4_2,Length=0.017000000,Units=km
new line.RML10064103 bus1=BBT1671146.1.2.0,bus2=RML1060064103.1.2.0,Phases=2,Linecode=CABBTG05_4_2,Length=0.017000000,Units=km
new line.RML10064106 bus1=BBT1672056.3.0,bus2=RML1060064106.3.0,Phases=1,Linecode=CABBTG01_4_1,Length=0.017000000,Units=km
new line.RML10064108 bus1=BBT4148586.1.0,bus2=RML1060064108.1.0,Phases=1,Linecode=CABBTG01_4_1,Length=0.017000000,Units=km
new line.RML10064113 bus1=BBT3461235.1.0,bus2=RML1060064113.1.0,Phases=1,Linecode=CABBTG02_4_1,Length=0.017000000,Units=km
new line.RML10064132 bus1=BBT1681688.3.0,bus2=RML1060064132.3.0,Phases=1,Linecode=CABBTG01_4_1,Length=0.017000000,Units=km
new line.RML10064140 bus1=BBT3665271.1.2.0,bus2=RML1060064140.1.2.0,Phases=2,Linecode=CABBTG05_4_2,Length=0.017000000,Units=km
new line.RML10064142 bus1=BBT1688961.1.2.0,bus2=RML1060064142.1.2.0,Phases=2,Linecode=CABBTG05_4_2,Length=0.017000000,Units=km
new line.RML10064148 bus1=BBT1688961.1.2.0,bus2=RML1060064148.1.2.0,Phases=2,Linecode=CABBTG05_4_2,Length=0.017000000,Units=km
new line.RML10064959 bus1=BBT148716099.1.2.0,bus2=RML1060064959.1.2.0,Phases=2,Linecode=CABBTG05_4_2,Length=0.020000000,Units=km
new line.RML10065172 bus1=BBT1672525.1.2.0,bus2=RML1060065172.1.2.0,Phases=2,Linecode=CABBTG13_4_2,Length=0.017000000,Units=km
new line.RML10065687 bus1=BBT4629017.2.3.0,bus2=RML1060065687.2.3.0,Phases=2,Linecode=CABBTG05_4_2,Length=0.017000000,Units=km
new line.RML10065698 bus1=BBT2082536.1.2.3.0,bus2=RML1060065698.1.2.3.0,Phases=3,Linecode=CABBTG06_4_3,Length=0.017000000,Units=km
new line.RML10065700 bus1=BBT2080625.1.0,bus2=RML1060065700.1.0,Phases=1,Linecode=CABBTG02_4_1,Length=0.017000000,Units=km
new line.RML10065703 bus1=BBT2082130.1.2.0,bus2=RML1060065703.1.2.0,Phases=2,Linecode=CABBTG05_4_2,Length=0.017000000,Units=km
new line.RML10065730 bus1=BBT3548560.1.2.0,bus2=RML1060065730.1.2.0,Phases=2,Linecode=CABBTG04_4_2,Length=0.017000000,Units=km
new line.RML10065739 bus1=BBT4901226.1.2.0,bus2=RML1060065739.1.2.0,Phases=2,Linecode=CABBTG04_4_2,Length=0.017000000,Units=km
new line.RML10065742 bus1=BBT3606772.1.0,bus2=RML1060065742.1.0,Phases=1,Linecode=CABBTG02_4_1,Length=0.017000000,Units=km
new line.RML10065745 bus1=BBT3606758.1.2.0,bus2=RML1060065745.1.2.0,Phases=2,Linecode=CABBTG04_4_2,Length=0.017000000,Units=km
new line.RML10115457 bus1=BBT2081836.1.2.0,bus2=RML1060115457.1.2.0,Phases=2,Linecode=CABBTG05_4_2,Length=0.017000000,Units=km
new line.RML10115464 bus1=BBT2083586.1.2.0,bus2=RML1060115464.1.2.0,Phases=2,Linecode=CABBTG05_4_2,Length=0.017000000,Units=km
new line.RML10115475 bus1=BBT2075711.1.2.0,bus2=RML1060115475.1.2.0,Phases=2,Linecode=CABBTG05_4_2,Length=0.017000000,Units=km
new line.RML10115477 bus1=BBT2078630.1.2.0,bus2=RML1060115477.1.2.0,Phases=2,Linecode=CABBTG05_4_2,Length=0.017000000,Units=km
new line.RML10115484 bus1=BBT4285499.1.2.0,bus2=RML1060115484.1.2.0,Phases=2,Linecode=CABBTG05_4_2,Length=0.017000000,Units=km
new line.RML10115488 bus1=BBT2078812.1.2.0,bus2=RML1060115488.1.2.0,Phases=2,Linecode=CABBTG05_4_2,Length=0.017000000,Units=km
new line.RML10115492 bus1=BBT2078168.1.2.0,bus2=RML1060115492.1.2.0,Phases=2,Linecode=CABBTG05_4_2,Length=0.017000000,Units=km
new line.RML10115499 bus1=BBT2078182.1.2.0,bus2=RML1060115499.1.2.0,Phases=2,Linecode=CABBTG05_4_2,Length=0.017000000,Units=km
new line.RML10115505 bus1=BBT2066233.1.2.0,bus2=RML1060115505.1.2.0,Phases=2,Linecode=CABBTG05_4_2,Length=0.017000000,Units=km
new line.RML10115510 bus1=BBT2065764.1.2.0,bus2=RML1060115510.1.2.0,Phases=2,Linecode=CABBTG05_4_2,Length=0.017000000,Units=km
new line.RML10116635 bus1=BBT4782352.2.0,bus2=RML1060116635.2.0,Phases=1,Linecode=CABBTG02_4_1,Length=0.017000000,Units=km
new line.RML10116898 bus1=BBT1098294.1.2.0,bus2=RML1060116898.1.2.0,Phases=2,Linecode=CABBTG05_4_2,Length=0.017000000,Units=km
new line.RML10117008 bus1=BBT2081080.1.0,bus2=RML1060117008.1.0,Phases=1,Linecode=CABBTG02_4_1,Length=0.017000000,Units=km
new line.RML10117011 bus1=BBT2077860.1.0,bus2=RML1060117011.1.0,Phases=1,Linecode=CABBTG02_4_1,Length=0.017000000,Units=km
new line.RML10117029 bus1=BBT2077447.1.2.0,bus2=RML1060117029.1.2.0,Phases=2,Linecode=CABBTG05_4_2,Length=0.017000000,Units=km
new line.RML10117048 bus1=BBT148499527.1.2.0,bus2=RML1060117048.1.2.0,Phases=2,Linecode=CABBTG05_4_2,Length=0.017000000,Units=km
new line.RML10117050 bus1=BBT4624432.1.2.0,bus2=RML1060117050.1.2.0,Phases=2,Linecode=CABBTG05_4_2,Length=0.017000000,Units=km
new line.RML10117583 bus1=BBT148610098.1.2.0,bus2=RML1060117583.1.2.0,Phases=2,Linecode=CABBTG05_4_2,Length=0.017000000,Units=km
new line.RML10117633 bus1=BBT2069257.2.0,bus2=RML1060117633.2.0,Phases=1,Linecode=CABBTG01_4_1,Length=0.017000000,Units=km
new line.RML10117781 bus1=BBT2829611.2.0,bus2=RML1060117781.2.0,Phases=1,Linecode=CABBTG01_4_1,Length=0.017000000,Units=km
new line.RML10117999 bus1=BBT1680043.2.0,bus2=RML1060117999.2.0,Phases=1,Linecode=CABBTG02_4_1,Length=0.017000000,Units=km
new line.RML10118081 bus1=BBT5142341.1.2.0,bus2=RML1060118081.1.2.0,Phases=2,Linecode=CABBTG05_4_2,Length=0.017000000,Units=km
new line.RML10118114 bus1=BBT2078511.1.0,bus2=RML1060118114.1.0,Phases=1,Linecode=CABBTG02_4_1,Length=0.017000000,Units=km
new line.RML10118230 bus1=BBT4110373.1.2.0,bus2=RML1060118230.1.2.0,Phases=2,Linecode=CABBTG05_4_2,Length=0.017000000,Units=km
new line.RML10118241 bus1=BBT2077363.1.0,bus2=RML1060118241.1.0,Phases=1,Linecode=CABBTG02_4_1,Length=0.017000000,Units=km
new line.RML10118244 bus1=BBT2070426.2.0,bus2=RML1060118244.2.0,Phases=1,Linecode=CABBTG02_4_1,Length=0.017000000,Units=km
new line.RML10080473 bus1=BBT2056762.1.0,bus2=RML1060080473.1.0,Phases=1,Linecode=CABBTG02_4_1,Length=0.017000000,Units=km
new line.RML10080492 bus1=BBT112784681.1.2.0,bus2=RML1060080492.1.2.0,Phases=2,Linecode=CABBTG05_4_2,Length=0.017000000,Units=km
new line.RML10080494 bus1=BBT1675836.1.0,bus2=RML1060080494.1.0,Phases=1,Linecode=CABBTG02_4_1,Length=0.017000000,Units=km
new line.RML10080567 bus1=BBT1685482.1.0,bus2=RML1060080567.1.0,Phases=1,Linecode=CABBTG02_4_1,Length=0.017000000,Units=km
new line.RML10080572 bus1=BBT3421944.1.2.0,bus2=RML1060080572.1.2.0,Phases=2,Linecode=CABBTG05_4_2,Length=0.017000000,Units=km
new line.RML10080620 bus1=BBT2077881.1.0,bus2=RML1060080620.1.0,Phases=1,Linecode=CABBTG02_4_1,Length=0.017000000,Units=km
new line.RML10080649 bus1=BBT4167276.1.2.0,bus2=RML1060080649.1.2.0,Phases=2,Linecode=CABBTG05_4_2,Length=0.017000000,Units=km
new line.RML10080726 bus1=BBT1097860.1.2.0,bus2=RML1060080726.1.2.0,Phases=2,Linecode=CABBTG05_4_2,Length=0.017000000,Units=km
new line.RML10081182 bus1=BBT131801574.1.0,bus2=RML1060081182.1.0,Phases=1,Linecode=CABBTG02_4_1,Length=0.017000000,Units=km
new line.RML10081351 bus1=BBT149097537.1.0,bus2=RML1060081351.1.0,Phases=1,Linecode=CABBTG02_4_1,Length=0.017000000,Units=km
new line.RML10081370 bus1=BBT1676522.1.0,bus2=RML1060081370.1.0,Phases=1,Linecode=CABBTG02_4_1,Length=0.017000000,Units=km
new line.RML10081379 bus1=BBT1678762.1.0,bus2=RML1060081379.1.0,Phases=1,Linecode=CABBTG02_4_1,Length=0.017000000,Units=km
new line.RML10081389 bus1=BBT4138114.2.0,bus2=RML1060081389.2.0,Phases=1,Linecode=CABBTG02_4_1,Length=0.017000000,Units=km
new line.RML10081575 bus1=BBT1549507.1.2.0,bus2=RML1060081575.1.2.0,Phases=2,Linecode=CABBTG05_4_2,Length=0.017000000,Units=km
new line.RML10082092 bus1=BBT1676753.1.0,bus2=RML1060082092.1.0,Phases=1,Linecode=CABBTG02_4_1,Length=0.017000000,Units=km
new line.RML10082103 bus1=BBT2078273.1.0,bus2=RML1060082103.1.0,Phases=1,Linecode=CABBTG02_4_1,Length=0.017000000,Units=km
new line.RML10082163 bus1=BBT4534125.1.0,bus2=RML1060082163.1.0,Phases=1,Linecode=CABBTG02_4_1,Length=0.017000000,Units=km
new line.RML10106975 bus1=BBT3539663.1.2.0,bus2=RML1060106975.1.2.0,Phases=2,Linecode=CABBTG05_4_2,Length=0.011000000,Units=km
new line.RML10107455 bus1=BBT2077440.1.0,bus2=RML1060107455.1.0,Phases=1,Linecode=CABBTG01_4_1,Length=0.007000000,Units=km
new line.RML10107458 bus1=BBT4283350.2.0,bus2=RML1060107458.2.0,Phases=1,Linecode=CABBTG01_4_1,Length=0.012000000,Units=km
new line.RML10107896 bus1=BBT4148698.2.0,bus2=RML1060107896.2.0,Phases=1,Linecode=CABBTG02_4_1,Length=0.006000000,Units=km
new line.RML10107901 bus1=BBT4241952.1.0,bus2=RML1060107901.1.0,Phases=1,Linecode=CABBTG02_4_1,Length=0.012000000,Units=km
new line.RML10107953 bus1=BBT4135503.1.2.0,bus2=RML1060107953.1.2.0,Phases=2,Linecode=CABBTG05_4_2,Length=0.012000000,Units=km
new line.RML10107957 bus1=BBT4059665.2.0,bus2=RML1060107957.2.0,Phases=1,Linecode=CABBTG01_4_1,Length=0.017000000,Units=km
new line.RML10107997 bus1=BBT4332840.3.0,bus2=RML1060107997.3.0,Phases=1,Linecode=CABBTG01_4_1,Length=0.008000000,Units=km
new line.RML10107999 bus1=BBT2079554.1.2.3.0,bus2=RML1060107999.1.2.3.0,Phases=3,Linecode=CABBTG06_4_3,Length=0.010000000,Units=km
new line.RML10108015 bus1=BBT4735627.1.0,bus2=RML1060108015.1.0,Phases=1,Linecode=CABBTG03_4_1,Length=0.010000000,Units=km
new line.RML10108024 bus1=BBT3986389.1.2.0,bus2=RML1060108024.1.2.0,Phases=2,Linecode=CABBTG13_4_2,Length=0.008000000,Units=km
new line.RML10108031 bus1=BBT1680169.1.2.0,bus2=RML1060108031.1.2.0,Phases=2,Linecode=CABBTG04_4_2,Length=0.008000000,Units=km
new line.RML10108037 bus1=BBT1683599.2.0,bus2=RML1060108037.2.0,Phases=1,Linecode=CABBTG01_4_1,Length=0.012000000,Units=km
new line.RML10108169 bus1=BBT1526197.1.2.0,bus2=RML1060108169.1.2.0,Phases=2,Linecode=CABBTG05_4_2,Length=0.006000000,Units=km
new line.RML10108616 bus1=BBT1099078.2.3.0,bus2=RML1060108616.2.3.0,Phases=2,Linecode=CABBTG05_4_2,Length=0.017000000,Units=km
new line.RML10108750 bus1=BBT3757769.2.3.0,bus2=RML1060108750.2.3.0,Phases=2,Linecode=CABBTG05_4_2,Length=0.017000000,Units=km
new line.RML10109284 bus1=BBT1534905.2.0,bus2=RML1060109284.2.0,Phases=1,Linecode=CABBTG01_4_1,Length=0.017000000,Units=km
new line.RML10109368 bus1=BBT1688212.2.0,bus2=RML1060109368.2.0,Phases=1,Linecode=CABBTG01_4_1,Length=0.017000000,Units=km
new line.RML10109381 bus1=BBT2845326.1.2.0,bus2=RML1060109381.1.2.0,Phases=2,Linecode=CABBTG05_4_2,Length=0.012000000,Units=km
new line.RML10109400 bus1=BBT4411457.1.2.0,bus2=RML1060109400.1.2.0,Phases=2,Linecode=CABBTG05_4_2,Length=0.010000000,Units=km
new line.RML10109401 bus1=BBT1675052.2.0,bus2=RML1060109401.2.0,Phases=1,Linecode=CABBTG01_4_1,Length=0.012000000,Units=km
new line.RML10109405 bus1=BBT3539621.1.2.0,bus2=RML1060109405.1.2.0,Phases=2,Linecode=CABBTG05_4_2,Length=0.010000000,Units=km
new line.RML10109418 bus1=BBT2075088.1.2.0,bus2=RML1060109418.1.2.0,Phases=2,Linecode=CABBTG04_4_2,Length=0.010000000,Units=km
new line.RML10109423 bus1=BBT2077937.2.0,bus2=RML1060109423.2.0,Phases=1,Linecode=CABBTG01_4_1,Length=0.006000000,Units=km
new line.RML10109891 bus1=BBT2083670.1.2.0,bus2=RML1060109891.1.2.0,Phases=2,Linecode=CABBTG05_4_2,Length=0.017000000,Units=km
new line.RML10109901 bus1=BBT3535624.1.2.0,bus2=RML1060109901.1.2.0,Phases=2,Linecode=CABBTG05_4_2,Length=0.017000000,Units=km
new line.RML10109914 bus1=BBT4585939.1.2.0,bus2=RML1060109914.1.2.0,Phases=2,Linecode=CABBTG05_4_2,Length=0.017000000,Units=km
new line.RML10110932 bus1=BBT1677831.1.2.0,bus2=RML1060110932.1.2.0,Phases=2,Linecode=CABBTG05_4_2,Length=0.017000000,Units=km
new line.RML10111414 bus1=BBT4496227.2.3.0,bus2=RML1060111414.2.3.0,Phases=2,Linecode=CABBTG05_4_2,Length=0.008000000,Units=km
new line.RML10111502 bus1=BBT2081080.1.2.3.0,bus2=RML1060111502.1.2.3.0,Phases=3,Linecode=CABBTG06_4_3,Length=0.017000000,Units=km
new line.RML10111580 bus1=BBT4059672.2.0,bus2=RML1060111580.2.0,Phases=1,Linecode=CABBTG01_4_1,Length=0.019000000,Units=km
new line.RML10111599 bus1=BBT1677047.3.0,bus2=RML1060111599.3.0,Phases=1,Linecode=CABBTG01_4_1,Length=0.012000000,Units=km
new line.RML10111800 bus1=BBT153397558.1.0,bus2=RML1060111800.1.0,Phases=1,Linecode=CABBTG02_4_1,Length=0.020000000,Units=km
new line.RML10111805 bus1=BBT4878938.2.0,bus2=RML1060111805.2.0,Phases=1,Linecode=CABBTG01_4_1,Length=0.012000000,Units=km
new line.RML10111808 bus1=BBT2085035.2.3.0,bus2=RML1060111808.2.3.0,Phases=2,Linecode=CABBTG05_4_2,Length=0.017000000,Units=km
new line.RML10111812 bus1=BBT4545402.1.2.3.0,bus2=RML1060111812.1.2.3.0,Phases=3,Linecode=CABBTG07_4_3,Length=0.020000000,Units=km
new line.RML10111816 bus1=BBT97688873.1.2.0,bus2=RML1060111816.1.2.0,Phases=2,Linecode=CABBTG05_4_2,Length=0.008000000,Units=km
new line.RML10111820 bus1=BBT148363257.1.2.0,bus2=RML1060111820.1.2.0,Phases=2,Linecode=CABBTG05_4_2,Length=0.008000000,Units=km
new line.RML10111823 bus1=BBT1531272.3.0,bus2=RML1060111823.3.0,Phases=1,Linecode=CABBTG01_4_1,Length=0.012000000,Units=km
new line.RML10111835 bus1=BBT3548301.1.2.0,bus2=RML1060111835.1.2.0,Phases=2,Linecode=CABBTG05_4_2,Length=0.030000000,Units=km
new line.RML10009266 bus1=BBT5017174.1.0,bus2=RML1060009266.1.0,Phases=1,Linecode=CABBTG02_4_1,Length=0.017000000,Units=km
new line.RML10009273 bus1=BBT4271338.1.2.0,bus2=RML1060009273.1.2.0,Phases=2,Linecode=CABBTG05_4_2,Length=0.017000000,Units=km
new line.RML10012682 bus1=BBT4148726.1.0,bus2=RML1060012682.1.0,Phases=1,Linecode=CABBTG02_4_1,Length=0.017000000,Units=km
new line.RML10013956 bus1=BBT4147410.1.0,bus2=RML1060013956.1.0,Phases=1,Linecode=CABBTG02_4_1,Length=0.017000000,Units=km
new line.RML10014887 bus1=BBT1680022.1.0,bus2=RML1060014887.1.0,Phases=1,Linecode=CABBTG02_4_1,Length=0.017000000,Units=km
new line.RML10014978 bus1=BBT4398801.2.0,bus2=RML1060014978.2.0,Phases=1,Linecode=CABBTG02_4_1,Length=0.017000000,Units=km
new line.RML10015111 bus1=BBT4901590.2.0,bus2=RML1060015111.2.0,Phases=1,Linecode=CABBTG02_4_1,Length=0.017000000,Units=km
new line.RML10015125 bus1=BBT2081605.2.0,bus2=RML1060015125.2.0,Phases=1,Linecode=CABBTG02_4_1,Length=0.017000000,Units=km
new line.RML10015174 bus1=BBT1097797.2.0,bus2=RML1060015174.2.0,Phases=1,Linecode=CABBTG02_4_1,Length=0.017000000,Units=km
new line.RML10015993 bus1=BBT1686791.1.2.0,bus2=RML1060015993.1.2.0,Phases=2,Linecode=CABBTG05_4_2,Length=0.017000000,Units=km
new line.RML10018597 bus1=BBT139618187.3.0,bus2=RML1060018597.3.0,Phases=1,Linecode=CABBTG02_4_1,Length=0.017000000,Units=km
new line.RML10018611 bus1=BBT1687750.2.0,bus2=RML1060018611.2.0,Phases=1,Linecode=CABBTG02_4_1,Length=0.017000000,Units=km
new line.RML10018667 bus1=BBT1548996.1.2.0,bus2=RML1060018667.1.2.0,Phases=2,Linecode=CABBTG05_4_2,Length=0.017000000,Units=km
new line.RML10018723 bus1=BBT2049531.1.2.0,bus2=RML1060018723.1.2.0,Phases=2,Linecode=CABBTG05_4_2,Length=0.017000000,Units=km
new line.RML10018730 bus1=BBT4593744.2.0,bus2=RML1060018730.2.0,Phases=1,Linecode=CABBTG02_4_1,Length=0.017000000,Units=km
new line.RML10018744 bus1=BBT2069271.1.0,bus2=RML1060018744.1.0,Phases=1,Linecode=CABBTG02_4_1,Length=0.017000000,Units=km
new line.RML10019388 bus1=BBT5034149.2.0,bus2=RML1060019388.2.0,Phases=1,Linecode=CABBTG02_4_1,Length=0.017000000,Units=km
new line.RML10019521 bus1=BBT75026275.2.0,bus2=RML1060019521.2.0,Phases=1,Linecode=CABBTG02_4_1,Length=0.017000000,Units=km
new line.RML10019899 bus1=BBT1534982.1.2.0,bus2=RML1060019899.1.2.0,Phases=2,Linecode=CABBTG05_4_2,Length=0.017000000,Units=km
new line.RML10019906 bus1=BBT1538419.1.2.0,bus2=RML1060019906.1.2.0,Phases=2,Linecode=CABBTG05_4_2,Length=0.017000000,Units=km
new line.RML10020074 bus1=BBT4218866.1.2.0,bus2=RML1060020074.1.2.0,Phases=2,Linecode=CABBTG05_4_2,Length=0.017000000,Units=km
new line.RML10020109 bus1=BBT4496248.1.0,bus2=RML1060020109.1.0,Phases=1,Linecode=CABBTG02_4_1,Length=0.017000000,Units=km
new line.RML10020683 bus1=BBT3548364.1.0,bus2=RML1060020683.1.0,Phases=1,Linecode=CABBTG02_4_1,Length=0.017000000,Units=km
new line.RML10020823 bus1=BBT2063762.1.0,bus2=RML1060020823.1.0,Phases=1,Linecode=CABBTG02_4_1,Length=0.017000000,Units=km
new line.RML10020844 bus1=BBT26071670.1.2.0,bus2=RML1060020844.1.2.0,Phases=2,Linecode=CABBTG05_4_2,Length=0.017000000,Units=km
new line.RML10020865 bus1=BBT148163921.1.0,bus2=RML1060020865.1.0,Phases=1,Linecode=CABBTG01_4_1,Length=0.017000000,Units=km
new line.RML10022328 bus1=BBT2081640.1.2.0,bus2=RML1060022328.1.2.0,Phases=2,Linecode=CABBTG05_4_2,Length=0.017000000,Units=km
new line.RML10022342 bus1=BBT2078987.2.0,bus2=RML1060022342.2.0,Phases=1,Linecode=CABBTG02_4_1,Length=0.017000000,Units=km
new line.RML10022349 bus1=BBT2070657.2.0,bus2=RML1060022349.2.0,Phases=1,Linecode=CABBTG02_4_1,Length=0.017000000,Units=km
new line.RML10022398 bus1=BBT148187472.2.0,bus2=RML1060022398.2.0,Phases=1,Linecode=CABBTG02_4_1,Length=0.017000000,Units=km
new line.RML10022573 bus1=BBT2066247.1.0,bus2=RML1060022573.1.0,Phases=1,Linecode=CABBTG02_4_1,Length=0.017000000,Units=km
new line.RML10022622 bus1=BBT1673463.1.2.0,bus2=RML1060022622.1.2.0,Phases=2,Linecode=CABBTG05_4_2,Length=0.017000000,Units=km
new line.RML10022636 bus1=BBT137455425.2.0,bus2=RML1060022636.2.0,Phases=1,Linecode=CABBTG02_4_1,Length=0.017000000,Units=km
new line.RML10022650 bus1=BBT2069271.1.0,bus2=RML1060022650.1.0,Phases=1,Linecode=CABBTG02_4_1,Length=0.017000000,Units=km
new line.RML10022755 bus1=BBT4206763.1.2.0,bus2=RML1060022755.1.2.0,Phases=2,Linecode=CABBTG05_4_2,Length=0.017000000,Units=km
new line.RML10022769 bus1=BBT4906952.1.0,bus2=RML1060022769.1.0,Phases=1,Linecode=CABBTG02_4_1,Length=0.017000000,Units=km
new line.RML10024022 bus1=BBT4906728.1.2.0,bus2=RML1060024022.1.2.0,Phases=2,Linecode=CABBTG05_4_2,Length=0.017000000,Units=km
new line.RML10024043 bus1=BBT1538034.1.2.3.0,bus2=RML1060024043.1.2.3.0,Phases=3,Linecode=CABBTG06_4_3,Length=0.017000000,Units=km
new line.RML10024085 bus1=BBT1677005.3.0,bus2=RML1060024085.3.0,Phases=1,Linecode=CABBTG02_4_1,Length=0.017000000,Units=km
new line.RML10024484 bus1=BBT4135489.1.2.0,bus2=RML1060024484.1.2.0,Phases=2,Linecode=CABBTG05_4_2,Length=0.017000000,Units=km
new line.RML10024638 bus1=BBT4314234.2.0,bus2=RML1060024638.2.0,Phases=1,Linecode=CABBTG02_4_1,Length=0.017000000,Units=km
new line.RML10024652 bus1=BBT4901226.2.0,bus2=RML1060024652.2.0,Phases=1,Linecode=CABBTG02_4_1,Length=0.017000000,Units=km
new line.RML10024953 bus1=BBT2077363.1.0,bus2=RML1060024953.1.0,Phases=1,Linecode=CABBTG02_4_1,Length=0.017000000,Units=km
new line.RML10027466 bus1=BBT2053703.1.0,bus2=RML1060027466.1.0,Phases=1,Linecode=CABBTG02_4_1,Length=0.017000000,Units=km
new line.RML10027473 bus1=BBT27049073.1.0,bus2=RML1060027473.1.0,Phases=1,Linecode=CABBTG02_4_1,Length=0.017000000,Units=km
new line.RML10028327 bus1=BBT1689255.1.0,bus2=RML1060028327.1.0,Phases=1,Linecode=CABBTG02_4_1,Length=0.017000000,Units=km
new line.RML10029461 bus1=BBT2082480.1.3.0,bus2=RML1060029461.1.3.0,Phases=2,Linecode=CABBTG05_4_2,Length=0.018000000,Units=km
new line.RML10030546 bus1=BBT4146500.1.0,bus2=RML1060030546.1.0,Phases=1,Linecode=CABBTG02_4_1,Length=0.017000000,Units=km
new line.RML10031092 bus1=BBT2072750.1.2.0,bus2=RML1060031092.1.2.0,Phases=2,Linecode=CABBTG04_4_2,Length=0.017000000,Units=km
new line.RML10031106 bus1=BBT2072750.1.0,bus2=RML1060031106.1.0,Phases=1,Linecode=CABBTG02_4_1,Length=0.017000000,Units=km
new line.RML10031162 bus1=BBT4224130.1.0,bus2=RML1060031162.1.0,Phases=1,Linecode=CABBTG02_4_1,Length=0.017000000,Units=km
new line.RML10031871 bus1=BBT2052576.1.0,bus2=RML1060031871.1.0,Phases=1,Linecode=CABBTG02_4_1,Length=0.017000000,Units=km
new line.RML10032026 bus1=BBT4906518.1.0,bus2=RML1060032026.1.0,Phases=1,Linecode=CABBTG02_4_1,Length=0.017000000,Units=km
new line.RML10032189 bus1=BBT3650837.1.0,bus2=RML1060032189.1.0,Phases=1,Linecode=CABBTG02_4_1,Length=0.017000000,Units=km
new line.RML10100161 bus1=BBT148606370.1.0,bus2=RML1060100161.1.0,Phases=1,Linecode=CABBTG02_4_1,Length=0.017000000,Units=km
new line.RML10101043 bus1=BBT149458362.1.2.0,bus2=RML1060101043.1.2.0,Phases=2,Linecode=CABBT807_4_2,Length=0.020000000,Units=km
new line.RML10101504 bus1=BBT4138730.1.2.0,bus2=RML1060101504.1.2.0,Phases=2,Linecode=CABBTG05_4_2,Length=0.017000000,Units=km
new line.RML10067479 bus1=BBT148951698.2.0,bus2=RML1060067479.2.0,Phases=1,Linecode=CABBTG02_4_1,Length=0.016000000,Units=km
new line.RML10070766 bus1=BBT4635499.2.0,bus2=RML1060070766.2.0,Phases=1,Linecode=CABBTG02_4_1,Length=0.017000000,Units=km
new line.RML10070790 bus1=BBT1677817.2.0,bus2=RML1060070790.2.0,Phases=1,Linecode=CABBTG02_4_1,Length=0.017000000,Units=km
new line.RML10070791 bus1=BBT1684159.1.2.0,bus2=RML1060070791.1.2.0,Phases=2,Linecode=CABBTG05_4_2,Length=0.017000000,Units=km
new line.RML10070793 bus1=BBT2077720.1.2.0,bus2=RML1060070793.1.2.0,Phases=2,Linecode=CABBTG05_4_2,Length=0.017000000,Units=km
new line.RML10070795 bus1=BBT1674072.1.0,bus2=RML1060070795.1.0,Phases=1,Linecode=CABBTG02_4_1,Length=0.017000000,Units=km
new line.RML10070798 bus1=BBT2076852.1.2.3.0,bus2=RML1060070798.1.2.3.0,Phases=3,Linecode=CABBTG06_4_3,Length=0.017000000,Units=km
new line.RML10070864 bus1=BBT3525747.1.3.0,bus2=RML1060070864.1.3.0,Phases=2,Linecode=CABBTG05_4_2,Length=0.017000000,Units=km
new line.RML10070889 bus1=BBT2075088.1.2.0,bus2=RML1060070889.1.2.0,Phases=2,Linecode=CABBTG05_4_2,Length=0.017000000,Units=km
new line.RML10071148 bus1=BBT1684306.1.2.0,bus2=RML1060071148.1.2.0,Phases=2,Linecode=CABBTG05_4_2,Length=0.017000000,Units=km
new line.RML10071152 bus1=BBT1689101.2.0,bus2=RML1060071152.2.0,Phases=1,Linecode=CABBTG02_4_1,Length=0.017000000,Units=km