new load.3011118088M1 bus1=RML1058132608.1.2.3.0,Phases=3,kv=0.22,kW=0.44832,pf=0.92,Vminpu=0.92,Vmaxpu=1.5,model=1,daily=RES2_26,status=variable
new load.3011120427M1 bus1=RML1058132608.1.2.3.0,Phases=3,kv=0.22,kW=0.53372,pf=0.92,Vminpu=0.92,Vmaxpu=1.5,model=1,daily=RES2_26,status=variable
new load.3011122851M1 bus1=RML1058132608.1.2.3.0,Phases=3,kv=0.22,kW=0.35438,pf=0.92,Vminpu=0.92,Vmaxpu=1.5,model=1,daily=RES2_26,status=variable
new load.3011817703M1 bus1=RML1058132608.1.2.3.0,Phases=3,kv=0.22,kW=0.89364,pf=0.92,Vminpu=0.92,Vmaxpu=1.5,model=1,daily=RES2_7,status=variable
new load.3011083135M1 bus1=RML1058132608.1.2.3.0,Phases=3,kv=0.22,kW=0.49916,pf=0.92,Vminpu=0.92,Vmaxpu=1.5,model=1,daily=RES3_19,status=variable
new load.3011097244M1 bus1=RML1058132608.1.2.3.0,Phases=3,kv=0.22,kW=0.74334,pf=0.92,Vminpu=0.92,Vmaxpu=1.5,model=1,daily=RES2_25,status=variable
new load.3011101010M1 bus1=RML1058132608.1.2.3.0,Phases=3,kv=0.22,kW=0.43576,pf=0.92,Vminpu=0.92,Vmaxpu=1.5,model=1,daily=RES2_25,status=variable
new load.3011108968M1 bus1=RML1058132608.1.2.3.0,Phases=3,kv=0.22,kW=0.26046,pf=0.92,Vminpu=0.92,Vmaxpu=1.5,model=1,daily=RES2_26,status=variable
new load.3011802492M1 bus1=RML1058132608.1.2.3.0,Phases=3,kv=0.22,kW=0.37312,pf=0.92,Vminpu=0.92,Vmaxpu=1.5,model=1,daily=RES1_7,status=variable
new load.3011059851M1 bus1=RML1058132608.1.2.3.0,Phases=3,kv=0.22,kW=0.30778,pf=0.92,Vminpu=0.92,Vmaxpu=1.5,model=1,daily=RES1_20,status=variable
new load.3011061863M1 bus1=RML1058132608.1.2.3.0,Phases=3,kv=0.22,kW=0.31882,pf=0.92,Vminpu=0.92,Vmaxpu=1.5,model=1,daily=RES3_19,status=variable
new load.3011073302M1 bus1=RML1058132608.1.2.3.0,Phases=3,kv=0.22,kW=0.1898,pf=0.92,Vminpu=0.92,Vmaxpu=1.5,model=1,daily=RES1_21,status=variable
new load.3011079580M1 bus1=RML1058132608.1.2.3.0,Phases=3,kv=0.22,kW=0.42026,pf=0.92,Vminpu=0.92,Vmaxpu=1.5,model=1,daily=RES1_21,status=variable
new load.3011053389M1 bus1=RML1058132608.1.2.3.0,Phases=3,kv=0.22,kW=0.1482,pf=0.92,Vminpu=0.92,Vmaxpu=1.5,model=1,daily=RES1_20,status=variable
new load.3011053431M1 bus1=RML1058132608.1.2.3.0,Phases=3,kv=0.22,kW=0.58284,pf=0.92,Vminpu=0.92,Vmaxpu=1.5,model=1,daily=RES2_23,status=variable
new load.3011027415M1 bus1=RML1058132608.1.2.3.0,Phases=3,kv=0.22,kW=4.17546,pf=0.92,Vminpu=0.92,Vmaxpu=1.5,model=1,daily=RES6_13,status=variable
new load.3011028719M1 bus1=RML1058132608.1.2.3.0,Phases=3,kv=0.22,kW=0.43712,pf=0.92,Vminpu=0.92,Vmaxpu=1.5,model=1,daily=RES2_23,status=variable
new load.3003073890M1 bus1=RML1052090236.1.0,Phases=1,kv=0.127,kW=0.68884,pf=0.92,Vminpu=0.92,Vmaxpu=1.5,model=1,daily=RES2_21,status=variable
new load.3003073892M1 bus1=RML1052090250.1.2.0,Phases=2,kv=0.22,kW=1.05136,pf=0.92,Vminpu=0.92,Vmaxpu=1.5,model=1,daily=RES4_19,status=variable
new load.3004936421M1 bus1=RML1052090229.3.0,Phases=1,kv=0.127,kW=0.05572,pf=0.92,Vminpu=0.92,Vmaxpu=1.5,model=1,daily=RES1_10,status=variable
new load.3005184687M1 bus1=RML1052119160.1.2.3.0,Phases=3,kv=0.22,kW=0.19008,pf=0.92,Vminpu=0.92,Vmaxpu=1.5,model=1,daily=RES1_17,status=variable
new load.IP7305418M1 bus1=BBT1096495.1.2.0,Phases=2,kv=0.22,kW=0.16666,pf=0.92,Vminpu=0.92,Vmaxpu=1.5,model=1,daily=IP,status=variable
new load.IP7305425M1 bus1=BBT1096502.1.2.0,Phases=2,kv=0.22,kW=0.16666,pf=0.92,Vminpu=0.92,Vmaxpu=1.5,model=1,daily=IP,status=variable
new load.IP7305432M1 bus1=BBT1096509.1.2.0,Phases=2,kv=0.22,kW=0.16666,pf=0.92,Vminpu=0.92,Vmaxpu=1.5,model=1,daily=IP,status=variable
new load.IP7305446M1 bus1=BBT1096418.1.2.0,Phases=2,kv=0.22,kW=0.16666,pf=0.92,Vminpu=0.92,Vmaxpu=1.5,model=1,daily=IP,status=variable
new load.IP7305376M1 bus1=BBT1096453.1.2.0,Phases=2,kv=0.22,kW=0.16666,pf=0.92,Vminpu=0.92,Vmaxpu=1.5,model=1,daily=IP,status=variable
new load.IP7305383M1 bus1=BBT1096460.1.2.0,Phases=2,kv=0.22,kW=0.16666,pf=0.92,Vminpu=0.92,Vmaxpu=1.5,model=1,daily=IP,status=variable
new load.IP7305390M1 bus1=BBT1096467.1.3.0,Phases=2,kv=0.22,kW=0.16666,pf=0.92,Vminpu=0.92,Vmaxpu=1.5,model=1,daily=IP,status=variable
new load.IP7305397M1 bus1=BBT1096474.1.3.0,Phases=2,kv=0.22,kW=0.16666,pf=0.92,Vminpu=0.92,Vmaxpu=1.5,model=1,daily=IP,status=variable
new load.IP7305404M1 bus1=BBT1096481.1.3.0,Phases=2,kv=0.22,kW=0.16666,pf=0.92,Vminpu=0.92,Vmaxpu=1.5,model=1,daily=IP,status=variable
new load.IP7305411M1 bus1=BBT1096488.1.2.0,Phases=2,kv=0.22,kW=0.16666,pf=0.92,Vminpu=0.92,Vmaxpu=1.5,model=1,daily=IP,status=variable
new load.IP6107837M1 bus1=BBT1096411.2.3.0,Phases=2,kv=0.22,kW=0.1317,pf=0.92,Vminpu=0.92,Vmaxpu=1.5,model=1,daily=IP,status=variable
new load.IP6107872M1 bus1=BBT1096425.2.3.0,Phases=2,kv=0.22,kW=0.1317,pf=0.92,Vminpu=0.92,Vmaxpu=1.5,model=1,daily=IP,status=variable
new load.IP6108005M1 bus1=BBT1096432.1.2.0,Phases=2,kv=0.22,kW=0.1317,pf=0.92,Vminpu=0.92,Vmaxpu=1.5,model=1,daily=IP,status=variable
new load.IP7305348M1 bus1=BBT1096418.1.2.0,Phases=2,kv=0.22,kW=0.16666,pf=0.92,Vminpu=0.92,Vmaxpu=1.5,model=1,daily=IP,status=variable
new load.IP7305362M1 bus1=BBT1096439.1.2.0,Phases=2,kv=0.22,kW=0.16666,pf=0.92,Vminpu=0.92,Vmaxpu=1.5,model=1,daily=IP,status=variable
new load.IP7305369M1 bus1=BBT1096446.1.2.0,Phases=2,kv=0.22,kW=0.16666,pf=0.92,Vminpu=0.92,Vmaxpu=1.5,model=1,daily=IP,status=variable
new load.3011699706M1 bus1=RML1059742825.1.2.0,Phases=2,kv=0.22,kW=0.10634,pf=0.92,Vminpu=0.92,Vmaxpu=1.5,model=1,daily=RES2_6,status=variable
new load.3010855071M1 bus1=RML1058361116.1.2.0,Phases=2,kv=0.22,kW=0.4814,pf=0.92,Vminpu=0.92,Vmaxpu=1.5,model=1,daily=RES2_17,status=variable
new load.3013747858M1 bus1=RML1060905950.1.2.0,Phases=2,kv=0.22,kW=0.24658,pf=0.92,Vminpu=0.92,Vmaxpu=1.5,model=1,daily=RES1_17,status=variable
new load.3010991888M1 bus1=RML1058597884.2.3.0,Phases=2,kv=0.22,kW=0.73038,pf=0.92,Vminpu=0.92,Vmaxpu=1.5,model=1,daily=RES3_18,status=variable
new load.3013246805M1 bus1=RML1060673606.2.3.0,Phases=2,kv=0.22,kW=0.513,pf=0.92,Vminpu=0.92,Vmaxpu=1.5,model=1,daily=RES2_10,status=variable
new load.3012076840M1 bus1=RML1060651463.1.2.0,Phases=2,kv=0.22,kW=0.55222,pf=0.92,Vminpu=0.92,Vmaxpu=1.5,model=1,daily=RES3_13,status=variable
new load.3012158540M1 bus1=RML1060101043.1.2.0,Phases=2,kv=0.24,kW=1.27026,pf=0.92,Vminpu=0.92,Vmaxpu=1.5,model=1,daily=RES6_12,status=variable
new load.3013204075M1 bus1=RML1060285413.1.2.0,Phases=2,kv=0.22,kW=0.11866,pf=0.92,Vminpu=0.92,Vmaxpu=1.5,model=1,daily=RES1_6,status=variable
new load.3013204167M1 bus1=RML1060285413.1.2.0,Phases=2,kv=0.22,kW=0.26106,pf=0.92,Vminpu=0.92,Vmaxpu=1.5,model=1,daily=RES1_6,status=variable
new load.3013214720M1 bus1=RML1060285413.1.2.0,Phases=2,kv=0.22,kW=1.09052,pf=0.92,Vminpu=0.92,Vmaxpu=1.5,model=1,daily=RES2_9,status=variable
new load.3013160036M1 bus1=RML1060285413.1.2.0,Phases=2,kv=0.22,kW=0.68828,pf=0.92,Vminpu=0.92,Vmaxpu=1.5,model=1,daily=RES1_6,status=variable
new load.3013185063M1 bus1=RML1060285413.1.2.0,Phases=2,kv=0.22,kW=1.37174,pf=0.92,Vminpu=0.92,Vmaxpu=1.5,model=1,daily=RES2_8,status=variable
new load.3013187860M1 bus1=RML1060285413.1.2.0,Phases=2,kv=0.22,kW=0.92766,pf=0.92,Vminpu=0.92,Vmaxpu=1.5,model=1,daily=RES2_8,status=variable
new load.3013771483M1 bus1=RML1060828707.1.0,Phases=1,kv=0.127,kW=0.55528,pf=0.92,Vminpu=0.92,Vmaxpu=1.5,model=1,daily=RES2_23,status=variable
new load.3013889059M1 bus1=RML1060285413.1.2.0,Phases=2,kv=0.22,kW=0.17668,pf=0.92,Vminpu=0.92,Vmaxpu=1.5,model=1,daily=RES2_27,status=variable
new load.3013147558M1 bus1=RML1060285413.1.2.0,Phases=2,kv=0.22,kW=0.8188,pf=0.92,Vminpu=0.92,Vmaxpu=1.5,model=1,daily=RES1_6,status=variable
new load.3013148596M1 bus1=RML1060285413.1.2.0,Phases=2,kv=0.22,kW=0.91374,pf=0.92,Vminpu=0.92,Vmaxpu=1.5,model=1,daily=RES1_6,status=variable
new load.3013149260M1 bus1=RML1060285413.1.2.0,Phases=2,kv=0.22,kW=1.2616,pf=0.92,Vminpu=0.92,Vmaxpu=1.5,model=1,daily=RES2_7,status=variable
new load.3013085730M1 bus1=RML1060285413.1.2.0,Phases=2,kv=0.22,kW=0.63804,pf=0.92,Vminpu=0.92,Vmaxpu=1.5,model=1,daily=RES2_6,status=variable
new load.3013111883M1 bus1=RML1060285413.1.2.0,Phases=2,kv=0.22,kW=1.46242,pf=0.92,Vminpu=0.92,Vmaxpu=1.5,model=1,daily=RES5_9,status=variable
new load.3013127192M1 bus1=RML1060285413.1.2.0,Phases=2,kv=0.22,kW=0.0712,pf=0.92,Vminpu=0.92,Vmaxpu=1.5,model=1,daily=RES1_6,status=variable
new load.3013142271M1 bus1=RML1060285413.1.2.0,Phases=2,kv=0.22,kW=0.51816,pf=0.92,Vminpu=0.92,Vmaxpu=1.5,model=1,daily=RES2_7,status=variable
new load.3013081206M1 bus1=RML1060285413.1.2.0,Phases=2,kv=0.22,kW=0.60676,pf=0.92,Vminpu=0.92,Vmaxpu=1.5,model=1,daily=RES2_6,status=variable
new load.3011029861M1 bus1=RML1058132608.1.2.3.0,Phases=3,kv=0.22,kW=0.17636,pf=0.92,Vminpu=0.92,Vmaxpu=1.5,model=1,daily=RES1_19,status=variable
new load.3011032288M1 bus1=RML1058132608.1.2.3.0,Phases=3,kv=0.22,kW=0.00896,pf=0.92,Vminpu=0.92,Vmaxpu=1.5,model=1,daily=RES1_19,status=variable
new load.3011033051M1 bus1=RML1058132608.1.2.3.0,Phases=3,kv=0.22,kW=0.25992,pf=0.92,Vminpu=0.92,Vmaxpu=1.5,model=1,daily=RES2_23,status=variable
new load.3011011218M1 bus1=RML1058132608.1.2.3.0,Phases=3,kv=0.22,kW=0.32192,pf=0.92,Vminpu=0.92,Vmaxpu=1.5,model=1,daily=RES2_22,status=variable
new load.3011013365M1 bus1=RML1058132608.1.2.3.0,Phases=3,kv=0.22,kW=0.21024,pf=0.92,Vminpu=0.92,Vmaxpu=1.5,model=1,daily=RES2_22,status=variable
new load.3011014011M1 bus1=RML1058132608.1.2.3.0,Phases=3,kv=0.22,kW=0.01494,pf=0.92,Vminpu=0.92,Vmaxpu=1.5,model=1,daily=RES1_19,status=variable
new load.3011014054M1 bus1=RML1058132608.1.2.3.0,Phases=3,kv=0.22,kW=0.23316,pf=0.92,Vminpu=0.92,Vmaxpu=1.5,model=1,daily=RES1_19,status=variable
new load.3011014210M1 bus1=RML1058132608.1.2.3.0,Phases=3,kv=0.22,kW=0.13796,pf=0.92,Vminpu=0.92,Vmaxpu=1.5,model=1,daily=RES2_22,status=variable
new load.3011022009M1 bus1=RML1058132608.1.2.3.0,Phases=3,kv=0.22,kW=0.42926,pf=0.92,Vminpu=0.92,Vmaxpu=1.5,model=1,daily=RES2_23,status=variable
new load.3011005171M1 bus1=RML1058132608.1.2.3.0,Phases=3,kv=0.22,kW=0.22188,pf=0.92,Vminpu=0.92,Vmaxpu=1.5,model=1,daily=RES1_18,status=variable
new load.3011005506M1 bus1=RML1058132608.1.2.3.0,Phases=3,kv=0.22,kW=0.23688,pf=0.92,Vminpu=0.92,Vmaxpu=1.5,model=1,daily=RES1_18,status=variable
new load.3011008564M1 bus1=RML1058132608.1.2.3.0,Phases=3,kv=0.22,kW=0.018,pf=0.92,Vminpu=0.92,Vmaxpu=1.5,model=1,daily=RES1_18,status=variable
new load.3010978310M1 bus1=RML1058132608.1.2.3.0,Phases=3,kv=0.22,kW=0.15896,pf=0.92,Vminpu=0.92,Vmaxpu=1.5,model=1,daily=RES2_21,status=variable
new load.3010982201M1 bus1=RML1058132608.1.2.3.0,Phases=3,kv=0.22,kW=0.11994,pf=0.92,Vminpu=0.92,Vmaxpu=1.5,model=1,daily=RES1_18,status=variable
new load.3010987713M1 bus1=RML1058132608.1.2.3.0,Phases=3,kv=0.22,kW=0.28578,pf=0.92,Vminpu=0.92,Vmaxpu=1.5,model=1,daily=RES2_22,status=variable
new load.3011788016M1 bus1=RML1058132608.1.2.3.0,Phases=3,kv=0.22,kW=2.39042,pf=0.92,Vminpu=0.92,Vmaxpu=1.5,model=1,daily=RES3_8,status=variable
new load.3010976209M1 bus1=RML1058132608.1.2.3.0,Phases=3,kv=0.22,kW=0.63586,pf=0.92,Vminpu=0.92,Vmaxpu=1.5,model=1,daily=RES2_21,status=variable
new load.3010976447M1 bus1=RML1058132608.1.2.3.0,Phases=3,kv=0.22,kW=0.13194,pf=0.92,Vminpu=0.92,Vmaxpu=1.5,model=1,daily=RES1_18,status=variable
new load.3010976604M1 bus1=RML1058132608.1.2.3.0,Phases=3,kv=0.22,kW=0.14392,pf=0.92,Vminpu=0.92,Vmaxpu=1.5,model=1,daily=RES1_18,status=variable
new load.3010977053M1 bus1=RML1058132608.1.2.3.0,Phases=3,kv=0.22,kW=0.6756,pf=0.92,Vminpu=0.92,Vmaxpu=1.5,model=1,daily=RES2_21,status=variable
new load.3010977188M1 bus1=RML1058132608.1.2.3.0,Phases=3,kv=0.22,kW=0.43052,pf=0.92,Vminpu=0.92,Vmaxpu=1.5,model=1,daily=RES2_21,status=variable
new load.3012012351M1 bus1=RML1060074600.1.2.0,Phases=2,kv=0.24,kW=1.13388,pf=0.92,Vminpu=0.92,Vmaxpu=1.5,model=1,daily=RES3_12,status=variable
new load.3013245933M1 bus1=RML1060833129.1.2.3.0,Phases=3,kv=0.22,kW=1.70634,pf=0.92,Vminpu=0.92,Vmaxpu=1.5,model=1,daily=RES4_12,status=variable
new load.3011533433M1 bus1=RML1060335272.1.2.3.0,Phases=3,kv=0.22,kW=0.44704,pf=0.92,Vminpu=0.92,Vmaxpu=1.5,model=1,daily=COM1_5,status=variable
new load.3011787627M1 bus1=RML1059845676.1.2.3.0,Phases=3,kv=0.22,kW=0.96188,pf=0.92,Vminpu=0.92,Vmaxpu=1.5,model=1,daily=COM1_11,status=variable
new load.3011788880M1 bus1=RML1059845683.1.2.3.0,Phases=3,kv=0.22,kW=0.40566,pf=0.92,Vminpu=0.92,Vmaxpu=1.5,model=1,daily=COM1_11,status=variable
new load.3013874727M1 bus1=RML1060989377.1.2.3.0,Phases=3,kv=0.22,kW=0.45346,pf=0.92,Vminpu=0.92,Vmaxpu=1.5,model=1,daily=COM1_22,status=variable
new load.3011899995M1 bus1=RML1060038923.1.2.0,Phases=2,kv=0.24,kW=0.57708,pf=0.92,Vminpu=0.92,Vmaxpu=1.5,model=1,daily=RUR1_14,status=variable
new load.3012362254M1 bus1=RML1060279078.1.2.3.0,Phases=3,kv=0.22,kW=1.04104,pf=0.92,Vminpu=0.92,Vmaxpu=1.5,model=1,daily=RES5_17,status=variable
new load.3012474739M1 bus1=RML1060338420.1.2.0,Phases=2,kv=0.24,kW=0.85984,pf=0.92,Vminpu=0.92,Vmaxpu=1.5,model=1,daily=RES3_19,status=variable
new load.3013227828M1 bus1=RML1060663164.1.2.0,Phases=2,kv=0.22,kW=0.71954,pf=0.92,Vminpu=0.92,Vmaxpu=1.5,model=1,daily=RES2_10,status=variable
new load.3013227829M1 bus1=RML1060663164.1.2.0,Phases=2,kv=0.22,kW=0.59294,pf=0.92,Vminpu=0.92,Vmaxpu=1.5,model=1,daily=RES2_10,status=variable
new load.3012411660M1 bus1=RML1060722858.1.2.0,Phases=2,kv=0.22,kW=0.5789,pf=0.92,Vminpu=0.92,Vmaxpu=1.5,model=1,daily=RES2_23,status=variable
new load.3013836174M1 bus1=RML1060945470.1.2.0,Phases=2,kv=0.22,kW=0.49812,pf=0.92,Vminpu=0.92,Vmaxpu=1.5,model=1,daily=RES2_24,status=variable
new load.3013836185M1 bus1=RML1060945470.1.2.0,Phases=2,kv=0.22,kW=0.15892,pf=0.92,Vminpu=0.92,Vmaxpu=1.5,model=1,daily=RES1_18,status=variable
new load.3013836203M1 bus1=RML1060945470.1.2.0,Phases=2,kv=0.22,kW=0.1393,pf=0.92,Vminpu=0.92,Vmaxpu=1.5,model=1,daily=RES2_24,status=variable
new load.3002964998M1 bus1=RML1057040223.1.2.0,Phases=2,kv=0.24,kW=0.84904,pf=0.92,Vminpu=0.92,Vmaxpu=1.5,model=1,daily=RUR4_15,status=variable
new load.3002965087M1 bus1=RML1056395075.1.2.0,Phases=2,kv=0.24,kW=0.00946,pf=0.92,Vminpu=0.92,Vmaxpu=1.5,model=1,daily=RUR1_17,status=variable
new load.3002964814M1 bus1=RML1056945884.1.2.0,Phases=2,kv=0.24,kW=5.98366,pf=0.92,Vminpu=0.92,Vmaxpu=1.5,model=1,daily=RUR4_15,status=variable
new load.3002964816M1 bus1=RML1056945681.1.2.0,Phases=2,kv=0.24,kW=0.83184,pf=0.92,Vminpu=0.92,Vmaxpu=1.5,model=1,daily=RUR2_19,status=variable
new load.3002964793M1 bus1=RML1056420758.1.2.0,Phases=2,kv=0.24,kW=0.63366,pf=0.92,Vminpu=0.92,Vmaxpu=1.5,model=1,daily=RUR1_17,status=variable
new load.3005820352M1 bus1=RML1060237827.1.2.0,Phases=2,kv=0.24,kW=1.15108,pf=0.92,Vminpu=0.92,Vmaxpu=1.5,model=1,daily=RES1_6,status=variable
new load.3005820353M1 bus1=RML1056808376.1.2.0,Phases=2,kv=0.24,kW=1.07988,pf=0.92,Vminpu=0.92,Vmaxpu=1.5,model=1,daily=RES1_6,status=variable
new load.3005896668M1 bus1=RML1057006756.2.0,Phases=1,kv=0.12,kW=0.9462,pf=0.92,Vminpu=0.92,Vmaxpu=1.5,model=1,daily=RES2_7,status=variable
new load.3006050014M1 bus1=RML1056286995.1.2.0,Phases=2,kv=0.24,kW=0.6229,pf=0.92,Vminpu=0.92,Vmaxpu=1.5,model=1,daily=RUR2_12,status=variable
new load.3007190474M1 bus1=RML1057426238.1.2.0,Phases=2,kv=0.24,kW=1.33276,pf=0.92,Vminpu=0.92,Vmaxpu=1.5,model=1,daily=RUR2_14,status=variable
new load.3013706725M1 bus1=RML1060828707.1.0,Phases=1,kv=0.127,kW=0.5353,pf=0.92,Vminpu=0.92,Vmaxpu=1.5,model=1,daily=RES1_16,status=variable
new load.3013082006M1 bus1=RML1060285413.1.2.0,Phases=2,kv=0.22,kW=0.4191,pf=0.92,Vminpu=0.92,Vmaxpu=1.5,model=1,daily=RES2_6,status=variable
new load.3013031181M1 bus1=RML1060285413.1.2.0,Phases=2,kv=0.22,kW=0.58798,pf=0.92,Vminpu=0.92,Vmaxpu=1.5,model=1,daily=RES2_6,status=variable
new load.3013044047M1 bus1=RML1060285413.1.2.0,Phases=2,kv=0.22,kW=0.68138,pf=0.92,Vminpu=0.92,Vmaxpu=1.5,model=1,daily=RES1_4,status=variable
new load.3013070644M1 bus1=RML1060285413.1.2.0,Phases=2,kv=0.22,kW=0.6405,pf=0.92,Vminpu=0.92,Vmaxpu=1.5,model=1,daily=RES1_4,status=variable
new load.3013629984M1 bus1=RML1060828707.1.0,Phases=1,kv=0.127,kW=1.6213,pf=0.92,Vminpu=0.92,Vmaxpu=1.5,model=1,daily=RES1_15,status=variable
new load.3013635492M1 bus1=RML1060285413.1.2.0,Phases=2,kv=0.22,kW=1.63878,pf=0.92,Vminpu=0.92,Vmaxpu=1.5,model=1,daily=RES2_20,status=variable
new load.3013022123M1 bus1=RML1060285413.1.2.0,Phases=2,kv=0.22,kW=0.99458,pf=0.92,Vminpu=0.92,Vmaxpu=1.5,model=1,daily=RES2_6,status=variable
new load.3013026876M1 bus1=RML1060285413.1.2.0,Phases=2,kv=0.22,kW=0.7131,pf=0.92,Vminpu=0.92,Vmaxpu=1.5,model=1,daily=RES2_6,status=variable
new load.3013027166M1 bus1=RML1060285413.1.2.0,Phases=2,kv=0.22,kW=0.40882,pf=0.92,Vminpu=0.92,Vmaxpu=1.5,model=1,daily=RES1_4,status=variable
new load.3013020957M1 bus1=RML1060285413.1.2.0,Phases=2,kv=0.22,kW=0.73812,pf=0.92,Vminpu=0.92,Vmaxpu=1.5,model=1,daily=RES2_6,status=variable
new load.3013021017M1 bus1=RML1060285413.1.2.0,Phases=2,kv=0.22,kW=0.4497,pf=0.92,Vminpu=0.92,Vmaxpu=1.5,model=1,daily=RES1_4,status=variable
new load.3013613695M1 bus1=RML1060285413.1.2.0,Phases=2,kv=0.22,kW=0.57524,pf=0.92,Vminpu=0.92,Vmaxpu=1.5,model=1,daily=RES2_19,status=variable
new load.3013629215M1 bus1=RML1060285413.1.2.0,Phases=2,kv=0.22,kW=0.70754,pf=0.92,Vminpu=0.92,Vmaxpu=1.5,model=1,daily=RES2_19,status=variable
new load.3013629521M1 bus1=RML1060285413.1.2.0,Phases=2,kv=0.22,kW=0.31062,pf=0.92,Vminpu=0.92,Vmaxpu=1.5,model=1,daily=RES2_19,status=variable
new load.3012978107M1 bus1=RML1060285413.1.2.0,Phases=2,kv=0.22,kW=0.05748,pf=0.92,Vminpu=0.92,Vmaxpu=1.5,model=1,daily=RES1_3,status=variable
new load.3012981687M1 bus1=RML1060285413.1.2.0,Phases=2,kv=0.22,kW=2.20932,pf=0.92,Vminpu=0.92,Vmaxpu=1.5,model=1,daily=RES3_6,status=variable
new load.3012990460M1 bus1=RML1060285413.1.2.0,Phases=2,kv=0.22,kW=0.80692,pf=0.92,Vminpu=0.92,Vmaxpu=1.5,model=1,daily=RES2_6,status=variable
new load.3012996277M1 bus1=RML1060285413.1.2.0,Phases=2,kv=0.22,kW=1.33488,pf=0.92,Vminpu=0.92,Vmaxpu=1.5,model=1,daily=RES4_8,status=variable
new load.3013009397M1 bus1=RML1060285413.1.2.0,Phases=2,kv=0.22,kW=0.57484,pf=0.92,Vminpu=0.92,Vmaxpu=1.5,model=1,daily=RES1_3,status=variable
new load.3013020794M1 bus1=RML1060285413.1.2.0,Phases=2,kv=0.22,kW=0.92576,pf=0.92,Vminpu=0.92,Vmaxpu=1.5,model=1,daily=RES2_6,status=variable
new load.3013613608M1 bus1=RML1060828707.1.0,Phases=1,kv=0.127,kW=0.74204,pf=0.92,Vminpu=0.92,Vmaxpu=1.5,model=1,daily=RES2_19,status=variable
new load.3011617138M1 bus1=RML1059505455.1.0,Phases=1,kv=0.127,kW=0.86786,pf=0.92,Vminpu=0.92,Vmaxpu=1.5,model=1,daily=RES2_5,status=variable
new load.3005963798M1 bus1=RML1056213684.3.0,Phases=1,kv=0.127,kW=0.01114,pf=0.92,Vminpu=0.92,Vmaxpu=1.5,model=1,daily=RES1_10,status=variable
new load.3006311006M1 bus1=RML1056677224.2.3.0,Phases=2,kv=0.22,kW=1.02216,pf=0.92,Vminpu=0.92,Vmaxpu=1.5,model=1,daily=RES4_19,status=variable
new load.3006549688M1 bus1=RML1056842928.1.2.0,Phases=2,kv=0.22,kW=0.12884,pf=0.92,Vminpu=0.92,Vmaxpu=1.5,model=1,daily=RES2_2,status=variable
new load.3007192252M1 bus1=RML1057229930.1.2.0,Phases=2,kv=0.22,kW=0.15064,pf=0.92,Vminpu=0.92,Vmaxpu=1.5,model=1,daily=RES1_11,status=variable
new load.3011209304M1 bus1=RML1058913787.2.0,Phases=1,kv=0.127,kW=0.14872,pf=0.92,Vminpu=0.92,Vmaxpu=1.5,model=1,daily=RES2_28,status=variable
new load.3003073853M1 bus1=RML1052090390.1.2.3.0,Phases=3,kv=0.22,kW=1.1678,pf=0.92,Vminpu=0.92,Vmaxpu=1.5,model=1,daily=RES3_17,status=variable
new load.3003073854M1 bus1=RML1052090369.2.3.0,Phases=2,kv=0.22,kW=0.87278,pf=0.92,Vminpu=0.92,Vmaxpu=1.5,model=1,daily=RES3_17,status=variable
new load.3003073874M1 bus1=RML1052090355.1.2.0,Phases=2,kv=0.22,kW=0.43052,pf=0.92,Vminpu=0.92,Vmaxpu=1.5,model=1,daily=RES2_21,status=variable
new load.3003911321M1 bus1=RML1052090397.1.2.3.0,Phases=3,kv=0.22,kW=0.82794,pf=0.92,Vminpu=0.92,Vmaxpu=1.5,model=1,daily=RES3_11,status=variable
new load.3004936420M1 bus1=RML1052090383.2.3.0,Phases=2,kv=0.22,kW=0.01114,pf=0.92,Vminpu=0.92,Vmaxpu=1.5,model=1,daily=RES1_10,status=variable
new load.IP6123559M1 bus1=BBT1096796.1.2.0,Phases=2,kv=0.22,kW=0.1317,pf=0.92,Vminpu=0.92,Vmaxpu=1.5,model=1,daily=IP,status=variable
new load.IP6123622M1 bus1=BBT1096810.1.3.0,Phases=2,kv=0.22,kW=0.1317,pf=0.92,Vminpu=0.92,Vmaxpu=1.5,model=1,daily=IP,status=variable
new load.IP6123629M1 bus1=BBT1096817.1.3.0,Phases=2,kv=0.22,kW=0.1317,pf=0.92,Vminpu=0.92,Vmaxpu=1.5,model=1,daily=IP,status=variable
new load.IP6123636M1 bus1=BBT1096824.2.3.0,Phases=2,kv=0.22,kW=0.1317,pf=0.92,Vminpu=0.92,Vmaxpu=1.5,model=1,daily=IP,status=variable
new load.IP6123657M1 bus1=BBT1096831.1.3.0,Phases=2,kv=0.22,kW=0.1317,pf=0.92,Vminpu=0.92,Vmaxpu=1.5,model=1,daily=IP,status=variable
new load.IP6893006M1 bus1=BBT1096859.1.2.0,Phases=2,kv=0.22,kW=0.1129,pf=0.92,Vminpu=0.92,Vmaxpu=1.5,model=1,daily=IP,status=variable
new load.IP6123454M1 bus1=BBT1096782.2.3.0,Phases=2,kv=0.22,kW=0.1317,pf=0.92,Vminpu=0.92,Vmaxpu=1.5,model=1,daily=IP,status=variable
new load.IP6123482M1 bus1=BBT1096789.2.3.0,Phases=2,kv=0.22,kW=0.1317,pf=0.92,Vminpu=0.92,Vmaxpu=1.5,model=1,daily=IP,status=variable
new load.IP6123510M1 bus1=BBT1096838.1.2.0,Phases=2,kv=0.22,kW=0.1317,pf=0.92,Vminpu=0.92,Vmaxpu=1.5,model=1,daily=IP,status=variable
new load.IP6123517M1 bus1=BBT1096845.2.3.0,Phases=2,kv=0.22,kW=0.1317,pf=0.92,Vminpu=0.92,Vmaxpu=1.5,model=1,daily=IP,status=variable
new load.IP6123524M1 bus1=BBT1096852.2.3.0,Phases=2,kv=0.22,kW=0.1317,pf=0.92,Vminpu=0.92,Vmaxpu=1.5,model=1,daily=IP,status=variable
new load.IP6123552M1 bus1=BBT1096803.1.3.0,Phases=2,kv=0.22,kW=0.1317,pf=0.92,Vminpu=0.92,Vmaxpu=1.5,model=1,daily=IP,status=variable
new load.3005833719M1 bus1=RML1056116195.2.0,Phases=1,kv=0.127,kW=0.70684,pf=0.92,Vminpu=0.92,Vmaxpu=1.5,model=1,daily=RES2_6,status=variable
new load.3005987263M1 bus1=RML1056243238.1.0,Phases=1,kv=0.127,kW=0.27116,pf=0.92,Vminpu=0.92,Vmaxpu=1.5,model=1,daily=RES1_11,status=variable
new load.3006694055M1 bus1=RML1056989907.3.0,Phases=1,kv=0.127,kW=0.5106,pf=0.92,Vminpu=0.92,Vmaxpu=1.5,model=1,daily=RES1_2,status=variable
new load.3002964941M1 bus1=RML1060168245.1.2.3.0,Phases=3,kv=0.22,kW=33.75918,pf=0.92,Vminpu=0.92,Vmaxpu=1.5,model=1,daily=RUR4_15,status=variable
new load.3004914160M1 bus1=RML1053139235.1.2.0,Phases=2,kv=0.24,kW=0.90608,pf=0.92,Vminpu=0.92,Vmaxpu=1.5,model=1,daily=RES2_10,status=variable
new load.3006010805M1 bus1=RML1053139235.1.2.0,Phases=2,kv=0.24,kW=0.44188,pf=0.92,Vminpu=0.92,Vmaxpu=1.5,model=1,daily=RES1_11,status=variable
new load.3006043759M1 bus1=RML1056287002.1.0,Phases=1,kv=0.12,kW=0.79166,pf=0.92,Vminpu=0.92,Vmaxpu=1.5,model=1,daily=RES2_11,status=variable
new load.IP5886154M1 bus1=BBT3669338.1.2.0,Phases=2,kv=0.24,kW=0.08064,pf=0.92,Vminpu=0.92,Vmaxpu=1.5,model=1,daily=IP,status=variable
new load.IP5886161M1 bus1=BBT3669331.1.2.0,Phases=2,kv=0.24,kW=0.08064,pf=0.92,Vminpu=0.92,Vmaxpu=1.5,model=1,daily=IP,status=variable
new load.IP6725846M1 bus1=BBT26807713.1.2.0,Phases=2,kv=0.24,kW=0.08064,pf=0.92,Vminpu=0.92,Vmaxpu=1.5,model=1,daily=IP,status=variable
new load.3012249765M1 bus1=RML1060188037.1.2.0,Phases=2,kv=0.24,kW=0.38528,pf=0.92,Vminpu=0.92,Vmaxpu=1.5,model=1,daily=RES1_17,status=variable
new load.3013291507M1 bus1=RML1060685478.1.2.0,Phases=2,kv=0.24,kW=0.65742,pf=0.92,Vminpu=0.92,Vmaxpu=1.5,model=1,daily=RES1_8,status=variable
new load.3006831157M1 bus1=RML1057091939.1.0,Phases=1,kv=0.12,kW=0.6408,pf=0.92,Vminpu=0.92,Vmaxpu=1.5,model=1,daily=RES1_6,status=variable
new load.3006144364M1 bus1=RML1056637450.1.2.0,Phases=2,kv=0.24,kW=0.45134,pf=0.92,Vminpu=0.92,Vmaxpu=1.5,model=1,daily=RES1_16,status=variable
new load.3003745605M1 bus1=RML1056145567.1.2.0,Phases=2,kv=0.24,kW=0.50758,pf=0.92,Vminpu=0.92,Vmaxpu=1.5,model=1,daily=RUR2_8,status=variable
new load.IP6118253M1 bus1=BBT1108654.1.2.0,Phases=2,kv=0.24,kW=0.1317,pf=0.92,Vminpu=0.92,Vmaxpu=1.5,model=1,daily=IP,status=variable
new load.3004047806M1 bus1=RML1052120560.1.2.0,Phases=2,kv=0.24,kW=1.01804,pf=0.92,Vminpu=0.92,Vmaxpu=1.5,model=1,daily=COM1_19,status=variable
new load.3011066413M1 bus1=RML1058628705.1.0,Phases=1,kv=0.12,kW=0.60814,pf=0.92,Vminpu=0.92,Vmaxpu=1.5,model=1,daily=RUR1_22,status=variable
new load.3011702864M1 bus1=RML1059728860.1.0,Phases=1,kv=0.12,kW=0.61926,pf=0.92,Vminpu=0.92,Vmaxpu=1.5,model=1,daily=RES2_6,status=variable
new load.3011983486M1 bus1=RML1060037597.1.0,Phases=1,kv=0.12,kW=1.23524,pf=0.92,Vminpu=0.92,Vmaxpu=1.5,model=1,daily=RUR1_16,status=variable
new load.3012339217M1 bus1=RML1060577026.1.0,Phases=1,kv=0.12,kW=0.98028,pf=0.92,Vminpu=0.92,Vmaxpu=1.5,model=1,daily=RES2_21,status=variable
new load.3001975297M1 bus1=RML1056136166.1.2.0,Phases=2,kv=0.24,kW=1.47396,pf=0.92,Vminpu=0.92,Vmaxpu=1.5,model=1,daily=RUR3_18,status=variable
new load.3011587881M1 bus1=RML1059441272.1.2.0,Phases=2,kv=0.24,kW=1.53354,pf=0.92,Vminpu=0.92,Vmaxpu=1.5,model=1,daily=RUR2_8,status=variable
new load.3000200141M1 bus1=RML1052720215.2.0,Phases=1,kv=0.127,kW=1.59084,pf=0.92,Vminpu=0.92,Vmaxpu=1.5,model=1,daily=RES2_3,status=variable
new load.3000200142M1 bus1=RML1052720201.1.2.3.0,Phases=3,kv=0.22,kW=2.01156,pf=0.92,Vminpu=0.92,Vmaxpu=1.5,model=1,daily=RES2_3,status=variable
new load.3000200143M1 bus1=RML1052720271.2.3.0,Phases=2,kv=0.22,kW=1.2753,pf=0.92,Vminpu=0.92,Vmaxpu=1.5,model=1,daily=RES2_3,status=variable
new load.3000200144M1 bus1=RML1052720341.2.0,Phases=1,kv=0.127,kW=1.8012,pf=0.92,Vminpu=0.92,Vmaxpu=1.5,model=1,daily=RES2_3,status=variable
new load.3000200145M1 bus1=RML1052720285.1.0,Phases=1,kv=0.127,kW=0.94662,pf=0.92,Vminpu=0.92,Vmaxpu=1.5,model=1,daily=RES2_3,status=variable
new load.3000200146M1 bus1=RML1052720306.1.2.0,Phases=2,kv=0.22,kW=0.73626,pf=0.92,Vminpu=0.92,Vmaxpu=1.5,model=1,daily=RES2_3,status=variable
new load.IP5380012M1 bus1=BBT1538034.1.2.0,Phases=2,kv=0.22,kW=0.1317,pf=0.92,Vminpu=0.92,Vmaxpu=1.5,model=1,daily=IP,status=variable
new load.IP5380026M1 bus1=BBT1538069.1.2.0,Phases=2,kv=0.22,kW=0.16666,pf=0.92,Vminpu=0.92,Vmaxpu=1.5,model=1,daily=IP,status=variable
new load.IP6740161M1 bus1=BBT1538062.1.2.0,Phases=2,kv=0.22,kW=0.16666,pf=0.92,Vminpu=0.92,Vmaxpu=1.5,model=1,daily=IP,status=variable
new load.IP969298M1 bus1=BBT1538055.1.2.0,Phases=2,kv=0.22,kW=0.08602,pf=0.92,Vminpu=0.92,Vmaxpu=1.5,model=1,daily=IP,status=variable
new load.IP969319M1 bus1=BBT1538062.1.2.0,Phases=2,kv=0.22,kW=0.1129,pf=0.92,Vminpu=0.92,Vmaxpu=1.5,model=1,daily=IP,status=variable
new load.IP4558975M1 bus1=BBT1538041.1.2.0,Phases=2,kv=0.22,kW=0.1317,pf=0.92,Vminpu=0.92,Vmaxpu=1.5,model=1,daily=IP,status=variable
new load.3013878371M1 bus1=RML1052720341.2.0,Phases=1,kv=0.127,kW=0.67036,pf=0.92,Vminpu=0.92,Vmaxpu=1.5,model=1,daily=RES2_26,status=variable
new load.IP5379564M1 bus1=BBT1538076.1.2.0,Phases=2,kv=0.22,kW=0.16666,pf=0.92,Vminpu=0.92,Vmaxpu=1.5,model=1,daily=IP,status=variable
new load.IP5379697M1 bus1=BBT1538048.1.2.0,Phases=2,kv=0.22,kW=0.1129,pf=0.92,Vminpu=0.92,Vmaxpu=1.5,model=1,daily=IP,status=variable
new load.IP5379970M1 bus1=BBT1537999.1.2.0,Phases=2,kv=0.22,kW=0.1317,pf=0.92,Vminpu=0.92,Vmaxpu=1.5,model=1,daily=IP,status=variable
new load.IP5379998M1 bus1=BBT1538013.1.3.0,Phases=2,kv=0.22,kW=0.1317,pf=0.92,Vminpu=0.92,Vmaxpu=1.5,model=1,daily=IP,status=variable
new load.IP5380005M1 bus1=BBT1538034.2.3.0,Phases=2,kv=0.22,kW=0.1129,pf=0.92,Vminpu=0.92,Vmaxpu=1.5,model=1,daily=IP,status=variable
new load.3007514834M1 bus1=RML1052720313.1.2.0,Phases=2,kv=0.22,kW=1.36002,pf=0.92,Vminpu=0.92,Vmaxpu=1.5,model=1,daily=RES2_20,status=variable
new load.3011712056M1 bus1=RML1057608105.1.2.0,Phases=2,kv=0.22,kW=0.00626,pf=0.92,Vminpu=0.92,Vmaxpu=1.5,model=1,daily=RES2_6,status=variable
new load.3011758749M1 bus1=RML1052720215.2.0,Phases=1,kv=0.127,kW=0.70684,pf=0.92,Vminpu=0.92,Vmaxpu=1.5,model=1,daily=RES2_6,status=variable
new load.3012422994M1 bus1=RML1060024043.1.2.3.0,Phases=3,kv=0.22,kW=0.3367,pf=0.92,Vminpu=0.92,Vmaxpu=1.5,model=1,daily=COM1_23,status=variable
new load.3003073837M1 bus1=RML1052090271.1.0,Phases=1,kv=0.127,kW=0.86768,pf=0.92,Vminpu=0.92,Vmaxpu=1.5,model=1,daily=RES2_21,status=variable
new load.3003073838M1 bus1=RML1052090285.2.3.0,Phases=2,kv=0.22,kW=0.27818,pf=0.92,Vminpu=0.92,Vmaxpu=1.5,model=1,daily=RES2_21,status=variable
new load.3003610606M1 bus1=RML1052090292.1.2.0,Phases=2,kv=0.22,kW=0.87346,pf=0.92,Vminpu=0.92,Vmaxpu=1.5,model=1,daily=RES2_5,status=variable
new load.3003584132M1 bus1=RML1060831942.1.2.3.0,Phases=3,kv=0.22,kW=0.73908,pf=0.92,Vminpu=0.92,Vmaxpu=1.5,model=1,daily=RES2_5,status=variable
new load.3004458289M1 bus1=RML1052090313.1.2.0,Phases=2,kv=0.22,kW=0.3865,pf=0.92,Vminpu=0.92,Vmaxpu=1.5,model=1,daily=RES2_2,status=variable
new load.IP6111295M1 bus1=BBT1096544.1.3.0,Phases=2,kv=0.22,kW=0.08602,pf=0.92,Vminpu=0.92,Vmaxpu=1.5,model=1,daily=IP,status=variable
new load.IP6111491M1 bus1=BBT1096593.1.2.0,Phases=2,kv=0.22,kW=0.1317,pf=0.92,Vminpu=0.92,Vmaxpu=1.5,model=1,daily=IP,status=variable
new load.IP6111197M1 bus1=BBT1096586.1.3.0,Phases=2,kv=0.22,kW=0.1317,pf=0.92,Vminpu=0.92,Vmaxpu=1.5,model=1,daily=IP,status=variable
new load.IP6111204M1 bus1=BBT1096551.1.2.0,Phases=2,kv=0.22,kW=0.08602,pf=0.92,Vminpu=0.92,Vmaxpu=1.5,model=1,daily=IP,status=variable
new load.IP6111218M1 bus1=BBT1096558.1.2.0,Phases=2,kv=0.22,kW=0.1317,pf=0.92,Vminpu=0.92,Vmaxpu=1.5,model=1,daily=IP,status=variable
new load.IP6111274M1 bus1=BBT1096572.1.3.0,Phases=2,kv=0.22,kW=0.1317,pf=0.92,Vminpu=0.92,Vmaxpu=1.5,model=1,daily=IP,status=variable
new load.IP6111281M1 bus1=BBT1096579.1.3.0,Phases=2,kv=0.22,kW=0.1317,pf=0.92,Vminpu=0.92,Vmaxpu=1.5,model=1,daily=IP,status=variable
new load.IP6111288M1 bus1=BBT1096565.1.2.0,Phases=2,kv=0.22,kW=0.08602,pf=0.92,Vminpu=0.92,Vmaxpu=1.5,model=1,daily=IP,status=variable
new load.3005605879M1 bus1=RML1052090264.1.2.0,Phases=2,kv=0.22,kW=0.11784,pf=0.92,Vminpu=0.92,Vmaxpu=1.5,model=1,daily=RES1_2,status=variable
new load.3006132247M1 bus1=RML1056352991.1.2.0,Phases=2,kv=0.22,kW=0.30952,pf=0.92,Vminpu=0.92,Vmaxpu=1.5,model=1,daily=COM1_19,status=variable