new line.10242926 bus1=BBT2978025.1.2.3.0,bus2=BBT2978032.1.2.3.0,Phases=3,Linecode=BT107_BT107_7_3_1,Length=0.037670000,Units=km
new line.10244102 bus1=BBT2978242.1.2.3.0,bus2=BBT2076271.1.2.3.0,Phases=3,Linecode=BT803_BT803_4_3_4,Length=0.030011000,Units=km
new line.10244130 bus1=BBT2978228.1.2.3.0,bus2=BBT2076285.1.2.3.0,Phases=3,Linecode=BT803_BT803_4_3_4,Length=0.032815000,Units=km
new line.10244151 bus1=BBT2978235.1.2.3.0,bus2=BBT2076299.1.2.3.0,Phases=3,Linecode=BT803_BT803_4_3_4,Length=0.034841000,Units=km
new line.10244165 bus1=BBT2983926.1.2.3.0,bus2=BBT2983933.1.2.3.0,Phases=3,Linecode=BT803_BT803_4_3_4,Length=0.040623000,Units=km
new line.10244487 bus1=BBT2053682.1.2.3.0,bus2=BBT2053689.1.2.3.0,Phases=3,Linecode=BT514_BT514_7_3_1,Length=0.000501000,Units=km
new line.10254028 bus1=BBT2981406.1.2.0,bus2=BBT2981413.1.2.0,Phases=2,Linecode=BT307_BT307_7_2_1,Length=0.000501000,Units=km
new line.10261728 bus1=BBT2984388.1.2.3.0,bus2=BBT2984395.1.2.3.0,Phases=3,Linecode=BT810_BT810_4_3_4,Length=0.035396000,Units=km
new line.10261756 bus1=BBT2984395.1.2.3.0,bus2=BBT3555189.1.2.3.0,Phases=3,Linecode=BT810_BT810_4_3_4,Length=0.036783000,Units=km
new line.10304484 bus1=BBT3001755.1.2.0,bus2=BBT3001762.1.2.0,Phases=2,Linecode=BT801_BT801_4_2_3,Length=0.035127000,Units=km
new line.10760436 bus1=BBT3175425.1.2.0,bus2=BBT3175432.1.2.0,Phases=2,Linecode=BT106_BT106_7_2_1,Length=0.063268000,Units=km
new line.10760583 bus1=BBT3175446.1.2.0,bus2=BBT3175453.1.2.0,Phases=2,Linecode=BT106_BT106_7_2_1,Length=0.063725000,Units=km
new line.11317349 bus1=BBT3390472.1.2.0,bus2=BBT3390479.1.2.0,Phases=2,Linecode=BT505_BT505_7_2_1,Length=0.000501000,Units=km
new line.11320485 bus1=BBT3390878.1.2.0,bus2=BBT3390885.1.2.0,Phases=2,Linecode=BT316_BT316_7_2_1,Length=0.000501000,Units=km
new line.11338622 bus1=BBT3396380.1.2.3.0,bus2=BBT3396387.1.2.3.0,Phases=3,Linecode=BT810_BT810_4_3_4,Length=0.029743000,Units=km
new line.11338636 bus1=BBT3396387.1.2.3.0,bus2=BBT3396394.1.2.3.0,Phases=3,Linecode=BT810_BT810_4_3_4,Length=0.030376000,Units=km
new line.11338657 bus1=BBT3396394.1.2.3.0,bus2=BBT3396401.1.2.3.0,Phases=3,Linecode=BT810_BT810_4_3_4,Length=0.036701000,Units=km
new line.11338678 bus1=BBT3396401.1.2.3.0,bus2=BBT3396408.1.2.3.0,Phases=3,Linecode=BT810_BT810_4_3_4,Length=0.036069000,Units=km
new line.11338867 bus1=BBT3396457.1.2.0,bus2=BBT3396464.1.2.0,Phases=2,Linecode=BT505_BT505_7_2_1,Length=0.000501000,Units=km
new line.11339014 bus1=BBT3396604.1.2.0,bus2=BBT3396611.1.2.0,Phases=2,Linecode=BT803_BT803_4_2_4,Length=0.052488000,Units=km
new line.11339021 bus1=BBT159138550.1.2.0,bus2=BBT26071649.1.2.0,Phases=2,Linecode=BT808_BT808_4_2_3,Length=0.034218000,Units=km
new line.11339049 bus1=BBT3396597.1.2.0,bus2=BBT3396604.1.2.0,Phases=2,Linecode=BT803_BT803_4_2_4,Length=0.029439000,Units=km
new line.11339070 bus1=BBT3396576.1.2.0,bus2=BBT3396597.1.2.0,Phases=2,Linecode=BT803_BT803_4_2_4,Length=0.036359000,Units=km
new line.11339077 bus1=BBT3396576.1.2.0,bus2=BBT3396583.1.2.0,Phases=2,Linecode=BT803_BT803_4_2_4,Length=0.034378000,Units=km
new line.11339084 bus1=BBT3396576.1.2.0,bus2=BBT4394832.1.2.0,Phases=2,Linecode=BT808_BT808_4_2_3,Length=0.049048000,Units=km
new line.11339168 bus1=BBT3396583.1.2.0,bus2=BBT3396590.1.2.0,Phases=2,Linecode=BT803_BT803_4_2_4,Length=0.039219000,Units=km
new line.11339196 bus1=BBT3396541.1.2.0,bus2=BBT3396576.1.2.0,Phases=2,Linecode=BT803_BT803_4_2_4,Length=0.022812000,Units=km
new line.11339203 bus1=BBT3396534.1.2.0,bus2=BBT3396541.1.2.0,Phases=2,Linecode=BT513_BT513_7_2_1,Length=0.000501000,Units=km
new line.11339210 bus1=BBT3396541.1.2.0,bus2=BBT3396548.1.2.0,Phases=2,Linecode=BT803_BT803_4_2_4,Length=0.040623000,Units=km
new line.11339252 bus1=BBT3396548.1.2.0,bus2=BBT3396555.1.2.0,Phases=2,Linecode=BT803_BT803_4_2_4,Length=0.043062000,Units=km
new line.11339273 bus1=BBT3396555.1.2.0,bus2=BBT3396562.1.2.0,Phases=2,Linecode=BT803_BT803_4_2_4,Length=0.038963000,Units=km
new line.11340988 bus1=BBT3397178.1.2.0,bus2=BBT3397185.1.2.0,Phases=2,Linecode=BT107_BT107_7_2_1,Length=0.044961000,Units=km
new line.11341023 bus1=BBT3397171.1.2.0,bus2=BBT3397178.1.2.0,Phases=2,Linecode=BT107_BT107_7_2_1,Length=0.039638000,Units=km
new line.11341044 bus1=BBT3397164.1.2.0,bus2=BBT3397171.1.2.0,Phases=2,Linecode=BT108_BT107_7_2_1,Length=0.077398000,Units=km
new line.11341065 bus1=BBT3397129.1.2.0,bus2=BBT3397136.1.2.0,Phases=2,Linecode=BT518_BT518_7_2_1,Length=0.000501000,Units=km
new line.11341072 bus1=BBT3397136.1.2.0,bus2=BBT3397192.1.2.0,Phases=2,Linecode=BT108_BT107_7_2_1,Length=0.043754000,Units=km
new line.11341079 bus1=BBT3397136.1.2.0,bus2=BBT3397157.1.2.0,Phases=2,Linecode=BT108_BT107_7_2_1,Length=0.042395000,Units=km
new line.11341093 bus1=BBT3397192.1.2.0,bus2=BBT3397199.1.2.0,Phases=2,Linecode=BT108_BT107_7_2_1,Length=0.051643000,Units=km
new line.11341135 bus1=BBT3397220.1.2.0,bus2=BBT3397227.1.2.0,Phases=2,Linecode=BT106_BT106_7_2_1,Length=0.030622000,Units=km
new line.11341156 bus1=BBT3397213.1.2.0,bus2=BBT3397220.1.2.0,Phases=2,Linecode=BT106_BT106_7_2_1,Length=0.072828000,Units=km
new line.11341170 bus1=BBT3397157.1.2.0,bus2=BBT3397164.1.2.0,Phases=2,Linecode=BT108_BT107_7_2_1,Length=0.032323000,Units=km
new line.11342388 bus1=BBT3397451.1.2.0,bus2=BBT2874187.1.2.0,Phases=2,Linecode=BT808_BT808_4_2_3,Length=0.044794000,Units=km
new line.11346630 bus1=BBT3398711.1.2.0,bus2=BBT3398718.1.2.0,Phases=2,Linecode=BT307_BT307_7_2_1,Length=0.000501000,Units=km
new line.11346637 bus1=BBT3398718.1.2.0,bus2=BBT4563560.1.2.0,Phases=2,Linecode=BT808_BT808_4_2_3,Length=0.051632000,Units=km
new line.11346651 bus1=BBT3398697.1.2.0,bus2=BBT3398704.1.2.0,Phases=2,Linecode=BT304_BT304_7_2_1,Length=0.000501000,Units=km
new line.11349892 bus1=BBT3399635.1.2.0,bus2=BBT3399642.1.2.0,Phases=2,Linecode=BT316_BT316_7_2_1,Length=0.000501000,Units=km
new line.11350046 bus1=BBT3399747.1.2.0,bus2=BBT3399754.1.2.0,Phases=2,Linecode=BT517_BT517_7_2_1,Length=0.000501000,Units=km
new line.11350095 bus1=BBT3399824.1.2.0,bus2=BBT3399831.1.2.0,Phases=2,Linecode=BT316_BT316_7_2_1,Length=0.000501000,Units=km
new line.11350116 bus1=BBT3399880.1.2.0,bus2=BBT3399887.1.2.0,Phases=2,Linecode=BT302_BT302_7_2_1,Length=0.000501000,Units=km
new line.11350144 bus1=BBT3399894.1.2.0,bus2=BBT3399901.1.2.0,Phases=2,Linecode=BT316_BT316_7_2_1,Length=0.000501000,Units=km
new line.11350151 bus1=BBT3399901.1.2.0,bus2=BBT4394433.1.2.0,Phases=2,Linecode=BT808_BT808_4_2_3,Length=0.023779000,Units=km
new line.11350172 bus1=BBT3399908.1.2.0,bus2=BBT3399915.1.2.0,Phases=2,Linecode=BT505_BT505_7_2_1,Length=0.000501000,Units=km
new line.11350235 bus1=BBT3399922.1.2.0,bus2=BBT3399929.1.2.0,Phases=2,Linecode=BT316_BT316_7_2_1,Length=0.000501000,Units=km
new line.11351054 bus1=BBT3400118.1.2.0,bus2=BBT4380447.1.2.0,Phases=2,Linecode=BT808_BT808_4_2_3,Length=0.034494000,Units=km
new line.11351061 bus1=BBT3400111.1.2.0,bus2=BBT3400118.1.2.0,Phases=2,Linecode=BT316_BT316_7_2_1,Length=0.000501000,Units=km
new line.11351110 bus1=BBT3400146.1.2.0,bus2=BBT3400153.1.2.0,Phases=2,Linecode=BT316_BT316_7_2_1,Length=0.000501000,Units=km
new line.11351831 bus1=BBT3400230.1.2.0,bus2=BBT3400237.1.2.0,Phases=2,Linecode=BT501_BT501_7_2_1,Length=0.000501000,Units=km
new line.11355387 bus1=BBT3401483.1.2.0,bus2=BBT3401490.1.2.0,Phases=2,Linecode=BT519_BT519_7_2_1,Length=0.000501000,Units=km
new line.11257926 bus1=BBT3369997.1.2.0,bus2=BBT3370004.1.2.0,Phases=2,Linecode=BT316_BT316_7_2_1,Length=0.000501000,Units=km
new line.11264618 bus1=BBT3372027.1.2.0,bus2=BBT3372034.1.2.0,Phases=2,Linecode=BT316_BT316_7_2_1,Length=0.000501000,Units=km
new line.11264639 bus1=BBT4572324.1.2.0,bus2=BBT4572331.1.2.0,Phases=2,Linecode=BT508_BT508_7_2_1,Length=0.000501000,Units=km
new line.11264653 bus1=BBT4572331.1.2.0,bus2=BBT4605469.1.2.0,Phases=2,Linecode=BT808_BT808_4_2_3,Length=0.063276000,Units=km
new line.11281236 bus1=BBT3379216.1.2.0,bus2=BBT3379223.1.2.0,Phases=2,Linecode=BT304_BT304_7_2_1,Length=0.000501000,Units=km
new line.11285093 bus1=BBT3380791.1.2.0,bus2=BBT3380798.1.2.0,Phases=2,Linecode=BT316_BT316_7_2_1,Length=0.000501000,Units=km
new line.11303412 bus1=BBT3385894.1.2.0,bus2=BBT3385929.1.2.0,Phases=2,Linecode=BT803_BT803_4_2_4,Length=0.033148000,Units=km
new line.11710448 bus1=BBT3525376.1.2.3.0,bus2=BBT3525383.1.2.3.0,Phases=3,Linecode=BT803_BT803_4_3_4,Length=0.015238000,Units=km
new line.11710455 bus1=BBT3525376.1.2.3.0,bus2=BBT3525488.1.2.3.0,Phases=3,Linecode=BT810_BT810_4_3_4,Length=0.033628000,Units=km
new line.11710469 bus1=BBT3525404.1.2.3.0,bus2=BBT3525411.1.2.3.0,Phases=3,Linecode=BT803_BT803_4_3_4,Length=0.019034000,Units=km
new line.11710490 bus1=BBT3525411.1.2.3.0,bus2=BBT3525418.1.2.3.0,Phases=3,Linecode=BT803_BT803_4_3_4,Length=0.047028000,Units=km
new line.11710497 bus1=BBT3525411.1.2.3.0,bus2=BBT3525453.1.2.3.0,Phases=3,Linecode=BT810_BT810_4_3_4,Length=0.029422000,Units=km
new line.11710525 bus1=BBT3525418.1.2.3.0,bus2=BBT3525425.1.2.3.0,Phases=3,Linecode=BT803_BT803_4_3_4,Length=0.040326000,Units=km
new line.11710546 bus1=BBT3525425.1.2.3.0,bus2=BBT3525432.1.2.3.0,Phases=3,Linecode=BT803_BT803_4_3_4,Length=0.050268000,Units=km
new line.11710882 bus1=BBT3525460.1.2.3.0,bus2=BBT3525467.1.2.3.0,Phases=3,Linecode=BT810_BT810_4_3_4,Length=0.042560000,Units=km
new line.11710903 bus1=BBT3525453.1.2.3.0,bus2=BBT3525460.1.2.3.0,Phases=3,Linecode=BT810_BT810_4_3_4,Length=0.044401000,Units=km
new line.11710924 bus1=BBT3525467.1.2.3.0,bus2=BBT3525474.1.2.3.0,Phases=3,Linecode=BT810_BT810_4_3_4,Length=0.041801000,Units=km
new line.11711008 bus1=BBT3525488.1.2.3.0,bus2=BBT3525495.1.2.3.0,Phases=3,Linecode=BT810_BT810_4_3_4,Length=0.044961000,Units=km
new line.11711029 bus1=BBT3525495.1.2.3.0,bus2=BBT3525502.1.2.3.0,Phases=3,Linecode=BT810_BT810_4_3_4,Length=0.043479000,Units=km
new line.11711043 bus1=BBT3525502.1.2.3.0,bus2=BBT3525509.1.2.3.0,Phases=3,Linecode=BT810_BT810_4_3_4,Length=0.044939000,Units=km
new line.11711064 bus1=BBT3525509.1.2.3.0,bus2=BBT3525537.1.2.3.0,Phases=3,Linecode=BT810_BT810_4_3_4,Length=0.045635000,Units=km
new line.11711106 bus1=BBT3525530.1.2.0,bus2=BBT4038455.1.2.0,Phases=2,Linecode=BT503_BT503_5_2_1,Length=0.039130000,Units=km
new line.11711141 bus1=BBT3525320.1.2.3.0,bus2=BBT2079120.1.2.3.0,Phases=3,Linecode=BT810_BT810_4_3_4,Length=0.036414000,Units=km
new line.11711148 bus1=BBT3525320.1.2.3.0,bus2=BBT3525628.1.2.3.0,Phases=3,Linecode=BT810_BT810_4_3_4,Length=0.044961000,Units=km
new line.11711183 bus1=BBT3525313.1.2.3.0,bus2=BBT3525320.1.2.3.0,Phases=3,Linecode=BT803_BT803_4_3_4,Length=0.040869000,Units=km
new line.11711225 bus1=BBT3525306.1.2.3.0,bus2=BBT3525313.1.2.3.0,Phases=3,Linecode=BT803_BT803_4_3_4,Length=0.043028000,Units=km
new line.11711232 bus1=BBT3525299.1.2.3.0,bus2=BBT3525306.1.2.3.0,Phases=3,Linecode=BT518_BT518_7_3_1,Length=0.000501000,Units=km
new line.11711267 bus1=BBT3525516.1.2.3.0,bus2=BBT3525523.1.2.3.0,Phases=3,Linecode=BT803_BT803_4_3_4,Length=0.056101000,Units=km
new line.11711288 bus1=BBT3525523.1.2.3.0,bus2=BBT3525530.1.2.3.0,Phases=3,Linecode=BT810_BT810_4_3_4,Length=0.046082000,Units=km
new line.11711295 bus1=BBT3525523.1.2.3.0,bus2=BBT3525691.1.2.3.0,Phases=3,Linecode=BT810_BT810_4_3_4,Length=0.034451000,Units=km
new line.11711323 bus1=BBT3525614.1.2.3.0,bus2=BBT3525621.1.2.3.0,Phases=3,Linecode=BT810_BT810_4_3_4,Length=0.044794000,Units=km
new line.11711330 bus1=BBT3525614.1.2.3.0,bus2=BBT3525754.1.2.3.0,Phases=3,Linecode=BT810_BT810_4_3_4,Length=0.043674000,Units=km
new line.11711337 bus1=BBT3525614.1.2.3.0,bus2=BBT4271338.1.2.3.0,Phases=3,Linecode=BT810_BT810_4_3_4,Length=0.040869000,Units=km
new line.11711400 bus1=BBT3525607.1.2.3.0,bus2=BBT3525614.1.2.3.0,Phases=3,Linecode=BT803_BT803_4_3_4,Length=0.034027000,Units=km
new line.11711414 bus1=BBT3525593.1.2.3.0,bus2=BBT3525607.1.2.3.0,Phases=3,Linecode=BT803_BT803_4_3_4,Length=0.040177000,Units=km
new line.11711421 bus1=BBT3525586.1.2.3.0,bus2=BBT3525593.1.2.3.0,Phases=3,Linecode=BT518_BT518_7_3_1,Length=0.000501000,Units=km
new line.11711428 bus1=BBT3525593.1.2.3.0,bus2=BBT3525663.1.2.3.0,Phases=3,Linecode=BT803_BT803_4_3_4,Length=0.038641000,Units=km
new line.11711449 bus1=BBT3525663.1.2.3.0,bus2=BBT3525670.1.2.3.0,Phases=3,Linecode=BT803_BT803_4_3_4,Length=0.034189000,Units=km
new line.11711512 bus1=BBT3525684.1.2.3.0,bus2=BBT3525698.1.2.3.0,Phases=3,Linecode=BT810_BT810_4_3_4,Length=0.031317000,Units=km
new line.11711554 bus1=BBT3525677.1.2.3.0,bus2=BBT3525684.1.2.3.0,Phases=3,Linecode=BT810_BT810_4_3_4,Length=0.031317000,Units=km
new line.11711561 bus1=BBT3525677.1.2.3.0,bus2=BBT3525824.1.2.3.0,Phases=3,Linecode=BT810_BT810_4_3_4,Length=0.034451000,Units=km
new line.11711603 bus1=BBT3525670.1.2.3.0,bus2=BBT3525677.1.2.3.0,Phases=3,Linecode=BT803_BT803_4_3_4,Length=0.040177000,Units=km
new line.11711687 bus1=BBT3525726.1.2.3.0,bus2=BBT3525747.1.2.3.0,Phases=3,Linecode=BT810_BT810_4_3_4,Length=0.042170000,Units=km
new line.11711694 bus1=BBT3525726.1.2.3.0,bus2=BBT3525873.1.2.3.0,Phases=3,Linecode=BT810_BT810_4_3_4,Length=0.029743000,Units=km
new line.11711729 bus1=BBT3525719.1.2.3.0,bus2=BBT3525726.1.2.3.0,Phases=3,Linecode=BT803_BT803_4_3_4,Length=0.039014000,Units=km
new line.11711750 bus1=BBT3525712.1.2.3.0,bus2=BBT3525719.1.2.3.0,Phases=3,Linecode=BT803_BT803_4_3_4,Length=0.042736000,Units=km
new line.11711757 bus1=BBT3525705.1.2.3.0,bus2=BBT3525712.1.2.3.0,Phases=3,Linecode=BT518_BT518_7_3_1,Length=0.000501000,Units=km
new line.11711764 bus1=BBT3525712.1.2.3.0,bus2=BBT3525782.1.2.3.0,Phases=3,Linecode=BT803_BT803_4_3_4,Length=0.041645000,Units=km
new line.11711820 bus1=BBT3525782.1.2.3.0,bus2=BBT3525789.1.2.3.0,Phases=3,Linecode=BT803_BT803_4_3_4,Length=0.043097000,Units=km
new line.11711834 bus1=BBT3525789.1.2.3.0,bus2=BBT3525803.1.2.3.0,Phases=3,Linecode=BT803_BT803_4_3_4,Length=0.037350000,Units=km
new line.11711855 bus1=BBT3525803.1.2.3.0,bus2=BBT3525817.1.2.3.0,Phases=3,Linecode=BT810_BT810_4_3_4,Length=0.032662000,Units=km
new line.11711862 bus1=BBT3525803.1.2.3.0,bus2=BBT3525810.1.2.3.0,Phases=3,Linecode=BT810_BT810_4_3_4,Length=0.031777000,Units=km
new line.11711876 bus1=BBT3525817.1.2.3.0,bus2=BBT3525831.1.2.3.0,Phases=3,Linecode=BT810_BT810_4_3_4,Length=0.033554000,Units=km
new line.11711911 bus1=BBT3525859.1.2.3.0,bus2=BBT3525866.1.2.3.0,Phases=3,Linecode=BT810_BT810_4_3_4,Length=0.036414000,Units=km
new line.11711932 bus1=BBT3525852.1.2.3.0,bus2=BBT3525859.1.2.3.0,Phases=3,Linecode=BT810_BT810_4_3_4,Length=0.025952000,Units=km
new line.11711981 bus1=BBT3525845.1.2.3.0,bus2=BBT3525852.1.2.3.0,Phases=3,Linecode=BT803_BT803_4_3_4,Length=0.045712000,Units=km
new line.11711988 bus1=BBT3525838.1.2.3.0,bus2=BBT3525845.1.2.3.0,Phases=3,Linecode=BT518_BT518_7_3_1,Length=0.000501000,Units=km
new line.11711995 bus1=BBT3525845.1.2.3.0,bus2=BBT3525880.1.2.3.0,Phases=3,Linecode=BT803_BT803_4_3_4,Length=0.046256000,Units=km
new line.11712016 bus1=BBT3525880.1.2.3.0,bus2=BBT3525887.1.2.3.0,Phases=3,Linecode=BT803_BT803_4_3_4,Length=0.044794000,Units=km
new line.11712072 bus1=BBT3525887.1.2.3.0,bus2=BBT3525894.1.2.3.0,Phases=3,Linecode=BT803_BT803_4_3_4,Length=0.047028000,Units=km
new line.11726639 bus1=BBT4705786.1.2.0,bus2=BBT4705793.1.2.0,Phases=2,Linecode=BT519_BT519_7_2_1,Length=0.000501000,Units=km
new line.11726891 bus1=BBT3530332.1.2.3.0,bus2=BBT3530339.1.2.3.0,Phases=3,Linecode=BT513_BT513_7_3_1,Length=0.000501000,Units=km
new line.11727780 bus1=BBT3530437.1.2.0,bus2=BBT3530444.1.2.0,Phases=2,Linecode=BT505_BT505_7_2_1,Length=0.000501000,Units=km
new line.11727829 bus1=BBT3530423.1.2.0,bus2=BBT3530430.1.2.0,Phases=2,Linecode=BT505_BT505_7_2_1,Length=0.000501000,Units=km
new line.11727990 bus1=BBT3530626.1.2.0,bus2=BBT3530633.1.2.0,Phases=2,Linecode=BT808_BT808_4_2_3,Length=0.023354000,Units=km
new line.11728011 bus1=BBT3530612.1.2.0,bus2=BBT3530626.1.2.0,Phases=2,Linecode=BT808_BT808_4_2_3,Length=0.023863000,Units=km
new line.11728018 bus1=BBT3530605.1.2.0,bus2=BBT3530612.1.2.0,Phases=2,Linecode=BT505_BT505_7_2_1,Length=0.000501000,Units=km
new line.11728025 bus1=BBT3530612.1.2.0,bus2=BBT3530640.1.2.0,Phases=2,Linecode=BT808_BT808_4_2_3,Length=0.045908000,Units=km
new line.11730377 bus1=BBT3531326.1.2.0,bus2=BBT3531333.1.2.0,Phases=2,Linecode=BT505_BT505_7_2_1,Length=0.000501000,Units=km
new line.11730755 bus1=BBT3531424.1.2.0,bus2=BBT3531431.1.2.0,Phases=2,Linecode=BT505_BT505_7_2_1,Length=0.000501000,Units=km
new line.11730762 bus1=BBT3531431.1.2.0,bus2=BBT3531522.1.2.0,Phases=2,Linecode=BT808_BT808_4_2_3,Length=0.025010000,Units=km
new line.11730895 bus1=BBT3531529.1.2.0,bus2=BBT3531536.1.2.0,Phases=2,Linecode=BT505_BT505_7_2_1,Length=0.000501000,Units=km
new line.11731189 bus1=BBT3531718.1.2.0,bus2=BBT3531725.1.2.0,Phases=2,Linecode=BT505_BT505_7_2_1,Length=0.000501000,Units=km
new line.11731238 bus1=BBT4705765.1.2.0,bus2=BBT4705772.1.2.0,Phases=2,Linecode=BT808_BT808_4_2_3,Length=0.041885000,Units=km
new line.11731539 bus1=BBT3531809.1.2.0,bus2=BBT3531816.1.2.0,Phases=2,Linecode=BT304_BT304_7_2_1,Length=0.000501000,Units=km
new line.11731651 bus1=BBT3531872.1.2.0,bus2=BBT3531879.1.2.0,Phases=2,Linecode=BT507_BT507_7_2_1,Length=0.000501000,Units=km
new line.11731756 bus1=BBT3531893.1.2.0,bus2=BBT3531900.1.2.0,Phases=2,Linecode=BT519_BT519_7_2_1,Length=0.000501000,Units=km
new line.11731903 bus1=BBT3532663.1.2.3.0,bus2=BBT3532670.1.2.3.0,Phases=3,Linecode=BT107_BT108_7_3_1,Length=0.051263000,Units=km
new line.11731917 bus1=BBT3532656.1.2.3.0,bus2=BBT3532663.1.2.3.0,Phases=3,Linecode=BT107_BT108_7_3_1,Length=0.052411000,Units=km
new line.11731938 bus1=BBT3532642.1.2.3.0,bus2=BBT3532649.1.2.3.0,Phases=3,Linecode=BT107_BT108_7_3_1,Length=0.028295000,Units=km
new line.11731973 bus1=BBT3532635.1.2.3.0,bus2=BBT3532642.1.2.3.0,Phases=3,Linecode=BT107_BT108_7_3_1,Length=0.040214000,Units=km
new line.11731994 bus1=BBT3532628.1.2.3.0,bus2=BBT3532635.1.2.3.0,Phases=3,Linecode=BT107_BT108_7_3_1,Length=0.037027000,Units=km
new line.11732029 bus1=BBT3532621.1.2.3.0,bus2=BBT3532628.1.2.3.0,Phases=3,Linecode=BT107_BT108_7_3_1,Length=0.032027000,Units=km
new line.11732057 bus1=BBT3532614.1.2.3.0,bus2=BBT3532621.1.2.3.0,Phases=3,Linecode=BT108_BT108_7_3_1,Length=0.031268000,Units=km
new line.11732120 bus1=BBT3532649.1.2.3.0,bus2=BBT3532656.1.2.3.0,Phases=3,Linecode=BT107_BT108_7_3_1,Length=0.024340000,Units=km
new line.11732155 bus1=BBT3532299.1.2.3.0,bus2=BBT3532677.1.2.3.0,Phases=3,Linecode=BT108_BT108_7_3_1,Length=0.028646000,Units=km
new line.11732162 bus1=BBT3532292.1.2.3.0,bus2=BBT3532299.1.2.3.0,Phases=3,Linecode=BT513_BT513_7_3_1,Length=0.000501000,Units=km
new line.11732169 bus1=BBT3532299.1.2.3.0,bus2=BBT3532607.1.2.3.0,Phases=3,Linecode=BT108_BT108_7_3_1,Length=0.027305000,Units=km
new line.11732190 bus1=BBT3531949.1.2.0,bus2=BBT3531956.1.2.0,Phases=2,Linecode=BT505_BT505_7_2_1,Length=0.000501000,Units=km
new line.11732974 bus1=BBT3532684.1.2.3.0,bus2=BBT3532691.1.2.3.0,Phases=3,Linecode=BT108_BT108_7_3_1,Length=0.036068000,Units=km
new line.11732995 bus1=BBT3532691.1.2.3.0,bus2=BBT3532698.1.2.3.0,Phases=3,Linecode=BT108_BT108_7_3_1,Length=0.035748000,Units=km
new line.11733023 bus1=BBT3532698.1.2.3.0,bus2=BBT3532705.1.2.3.0,Phases=3,Linecode=BT107_BT108_7_3_1,Length=0.036068000,Units=km
new line.11733051 bus1=BBT3532705.1.2.3.0,bus2=BBT3532712.1.2.3.0,Phases=3,Linecode=BT107_BT108_7_3_1,Length=0.031634000,Units=km
new line.11733079 bus1=BBT3532712.1.2.3.0,bus2=BBT3532719.1.2.3.0,Phases=3,Linecode=BT107_BT108_7_3_1,Length=0.036414000,Units=km
new line.11733415 bus1=BBT3532607.1.2.3.0,bus2=BBT3532614.1.2.3.0,Phases=3,Linecode=BT108_BT108_7_3_1,Length=0.029439000,Units=km
new line.11741423 bus1=BBT3534903.1.2.0,bus2=BBT3534910.1.2.0,Phases=2,Linecode=BT505_BT505_7_2_1,Length=0.000501000,Units=km
new line.11743012 bus1=BBT3535666.1.2.0,bus2=BBT3535673.1.2.0,Phases=2,Linecode=BT808_BT808_4_2_3,Length=0.041198000,Units=km
new line.11743026 bus1=BBT3535659.1.2.0,bus2=BBT3535666.1.2.0,Phases=2,Linecode=BT808_BT808_4_2_3,Length=0.038498000,Units=km
new line.11743047 bus1=BBT3535638.1.2.0,bus2=BBT3535659.1.2.0,Phases=2,Linecode=BT808_BT808_4_2_3,Length=0.039372000,Units=km
new line.11743061 bus1=BBT3535575.1.2.0,bus2=BBT3535638.1.2.0,Phases=2,Linecode=BT808_BT808_4_2_3,Length=0.038028000,Units=km
new line.11743068 bus1=BBT3535568.1.2.0,bus2=BBT3535575.1.2.0,Phases=2,Linecode=BT518_BT518_7_2_1,Length=0.000501000,Units=km
new line.11743075 bus1=BBT3535575.1.2.0,bus2=BBT3535624.1.2.0,Phases=2,Linecode=BT808_BT808_4_2_3,Length=0.038198000,Units=km
new line.11743117 bus1=BBT3535624.1.2.0,bus2=BBT3535631.1.2.0,Phases=2,Linecode=BT808_BT808_4_2_3,Length=0.038615000,Units=km
new line.11743131 bus1=BBT3535631.1.2.0,bus2=BBT3535645.1.2.0,Phases=2,Linecode=BT808_BT808_4_2_3,Length=0.037816000,Units=km
new line.11743152 bus1=BBT3535645.1.2.0,bus2=BBT3535652.1.2.0,Phases=2,Linecode=BT808_BT808_4_2_3,Length=0.038028000,Units=km
new line.11743180 bus1=BBT3535652.1.2.0,bus2=BBT11118718.1.2.0,Phases=2,Linecode=BT808_BT808_4_2_3,Length=0.034899000,Units=km
new line.11748241 bus1=BBT3537472.1.2.3.0,bus2=BBT3537479.1.2.3.0,Phases=3,Linecode=BT810_BT810_4_3_4,Length=0.025009000,Units=km
new line.11748262 bus1=BBT3537479.1.2.0,bus2=BBT4896725.1.2.0,Phases=2,Linecode=BT808_BT808_4_2_3,Length=0.044659000,Units=km
new line.11749193 bus1=BBT3537703.1.2.3.0,bus2=BBT2075907.1.2.3.0,Phases=3,Linecode=BT807_BT807_4_3_3,Length=0.022834000,Units=km
new line.11749214 bus1=BBT4884237.1.2.0,bus2=BBT4884244.1.2.0,Phases=2,Linecode=BT808_BT808_4_2_3,Length=0.039473000,Units=km
new line.11750376 bus1=BBT3538046.1.2.0,bus2=BBT1683676.1.2.0,Phases=2,Linecode=BT107_BT106_7_2_1,Length=0.007619000,Units=km
new line.11750383 bus1=BBT3538046.1.2.0,bus2=BBT3538060.1.2.0,Phases=2,Linecode=BT810_BT810_4_2_4,Length=0.037175000,Units=km
new line.11750390 bus1=BBT3538046.1.2.0,bus2=BBT3538053.1.2.0,Phases=2,Linecode=BT810_BT810_4_2_4,Length=0.008606000,Units=km
new line.11752028 bus1=BBT3538557.1.2.0,bus2=BBT3538564.1.2.0,Phases=2,Linecode=BT517_BT517_7_2_1,Length=0.000501000,Units=km
new line.11753659 bus1=BBT3539544.1.2.0,bus2=BBT3539551.1.2.0,Phases=2,Linecode=BT807_BT807_4_2_3,Length=0.060462000,Units=km
new line.11753680 bus1=BBT3539551.1.2.0,bus2=BBT3539558.1.2.0,Phases=2,Linecode=BT807_BT807_4_2_3,Length=0.058920000,Units=km
new line.11148320 bus1=BBT3329971.1.2.0,bus2=BBT3329978.1.2.0,Phases=2,Linecode=BT811_BT811_4_2_3,Length=0.080651000,Units=km
new line.11148341 bus1=BBT3329978.1.2.0,bus2=BBT3969883.1.2.0,Phases=2,Linecode=BT808_BT808_4_2_3,Length=0.044793000,Units=km
new line.11159233 bus1=BBT3335760.1.2.0,bus2=BBT4141201.1.2.0,Phases=2,Linecode=BT808_BT808_4_2_3,Length=0.047187000,Units=km
new line.11168914 bus1=BBT3339001.1.2.0,bus2=BBT3339008.1.2.0,Phases=2,Linecode=BT505_BT505_7_2_1,Length=0.000501000,Units=km
new line.11168949 bus1=BBT3616257.1.2.0,bus2=BBT3616264.1.2.0,Phases=2,Linecode=BT519_BT519_7_2_1,Length=0.000501000,Units=km
new line.11169565 bus1=BBT3339288.1.2.0,bus2=BBT3339295.1.2.0,Phases=2,Linecode=BT505_BT505_7_2_1,Length=0.000501000,Units=km
new line.11600317 bus1=BBT3483544.1.2.0,bus2=BBT3483551.1.2.0,Phases=2,Linecode=BT810_BT810_4_2_4,Length=0.037497000,Units=km
new line.11600345 bus1=BBT3483551.1.2.0,bus2=BBT3483558.1.2.0,Phases=2,Linecode=BT810_BT810_4_2_4,Length=0.044118000,Units=km
new line.11600373 bus1=BBT3483558.1.2.0,bus2=BBT3483565.1.2.0,Phases=2,Linecode=BT810_BT810_4_2_4,Length=0.043925000,Units=km
new line.11606225 bus1=BBT3485644.1.2.0,bus2=BBT3485651.1.2.0,Phases=2,Linecode=BT519_BT519_7_2_1,Length=0.000501000,Units=km
new line.11606253 bus1=BBT3485658.1.2.0,bus2=BBT3485665.1.2.0,Phases=2,Linecode=BT519_BT519_7_2_1,Length=0.000501000,Units=km
new line.11627099 bus1=BBT3494877.1.2.0,bus2=BBT3494884.1.2.0,Phases=2,Linecode=BT519_BT519_7_2_1,Length=0.000501000,Units=km
new line.11636353 bus1=BBT3498209.1.2.0,bus2=BBT3498216.1.2.0,Phases=2,Linecode=BT808_BT808_4_2_3,Length=0.040512000,Units=km
new line.11636374 bus1=BBT3498216.1.2.0,bus2=BBT3498223.1.2.0,Phases=2,Linecode=BT808_BT808_4_2_3,Length=0.039865000,Units=km
new line.11636388 bus1=BBT3498223.1.2.0,bus2=BBT3498230.1.2.0,Phases=2,Linecode=BT808_BT808_4_2_3,Length=0.036892000,Units=km
new line.11636409 bus1=BBT3498230.1.2.0,bus2=BBT3535372.1.2.0,Phases=2,Linecode=BT808_BT808_4_2_3,Length=0.044838000,Units=km
new line.11767631 bus1=BBT3543863.1.2.0,bus2=BBT3543870.1.2.0,Phases=2,Linecode=BT313_BT313_7_2_1,Length=0.000501000,Units=km
new line.11779398 bus1=BBT3547986.1.2.0,bus2=BBT3548007.1.2.0,Phases=2,Linecode=BT107_BT107_7_2_1,Length=0.073108000,Units=km
new line.11779426 bus1=BBT3548007.1.2.0,bus2=BBT3548014.1.2.0,Phases=2,Linecode=BT107_BT107_7_2_1,Length=0.071865000,Units=km
new line.11779454 bus1=BBT3548014.1.2.0,bus2=BBT3548021.1.2.0,Phases=2,Linecode=BT107_BT107_7_2_1,Length=0.073402000,Units=km
new line.11779468 bus1=BBT3548021.1.2.0,bus2=BBT14325117.1.2.0,Phases=2,Linecode=BT808_BT808_4_2_3,Length=0.029131000,Units=km
new line.11779531 bus1=BBT3548126.1.2.0,bus2=BBT3548133.1.2.0,Phases=2,Linecode=BT810_BT810_4_2_4,Length=0.046190000,Units=km
new line.11779636 bus1=BBT3548112.1.2.0,bus2=BBT3548119.1.2.0,Phases=2,Linecode=BT810_BT810_4_2_4,Length=0.045414000,Units=km
new line.11779657 bus1=BBT3548070.1.2.0,bus2=BBT3548077.1.2.0,Phases=2,Linecode=BT107_BT107_7_2_1,Length=0.050267000,Units=km
new line.11779664 bus1=BBT3548063.1.2.0,bus2=BBT3548070.1.2.0,Phases=2,Linecode=BT517_BT517_7_2_1,Length=0.000501000,Units=km
new line.11779671 bus1=BBT3548070.1.2.0,bus2=BBT3548084.1.2.0,Phases=2,Linecode=BT107_BT107_7_2_1,Length=0.050267000,Units=km
new line.11779692 bus1=BBT3548084.1.2.0,bus2=BBT3548091.1.2.0,Phases=2,Linecode=BT107_BT107_7_2_1,Length=0.051496000,Units=km
new line.11779713 bus1=BBT3548091.1.2.0,bus2=BBT3548098.1.2.0,Phases=2,Linecode=BT107_BT107_7_2_1,Length=0.050018000,Units=km
new line.11779720 bus1=BBT3548091.1.2.0,bus2=BBT3548294.1.2.0,Phases=2,Linecode=BT107_BT107_7_2_1,Length=0.054250000,Units=km
new line.11779727 bus1=BBT3548098.1.2.0,bus2=BBT3548105.1.2.0,Phases=2,Linecode=BT107_BT107_7_2_1,Length=0.055101000,Units=km
new line.11782716 bus1=BBT3548294.1.2.0,bus2=BBT3548301.1.2.0,Phases=2,Linecode=BT107_BT107_7_2_1,Length=0.053357000,Units=km
new line.11782765 bus1=BBT3548343.1.2.0,bus2=BBT3548350.1.2.0,Phases=2,Linecode=BT808_BT808_4_2_3,Length=0.072827000,Units=km
new line.11782786 bus1=BBT3548336.1.2.0,bus2=BBT3548343.1.2.0,Phases=2,Linecode=BT107_BT107_7_2_1,Length=0.073108000,Units=km
new line.11782807 bus1=BBT3548322.1.2.0,bus2=BBT3548336.1.2.0,Phases=2,Linecode=BT107_BT107_7_2_1,Length=0.073108000,Units=km
new line.11782828 bus1=BBT3548315.1.2.0,bus2=BBT3548322.1.2.0,Phases=2,Linecode=BT108_BT107_7_2_1,Length=0.072827000,Units=km
new line.11782835 bus1=BBT3548308.1.2.0,bus2=BBT3548315.1.2.0,Phases=2,Linecode=BT513_BT513_7_2_1,Length=0.000501000,Units=km
new line.11782842 bus1=BBT3548315.1.2.0,bus2=BBT3548329.1.2.0,Phases=2,Linecode=BT108_BT107_7_2_1,Length=0.073108000,Units=km
new line.11782863 bus1=BBT3548329.1.2.0,bus2=BBT4938984.1.2.0,Phases=2,Linecode=BT808_BT808_4_2_3,Length=0.075313000,Units=km
new line.11782975 bus1=BBT3548406.1.2.0,bus2=BBT3548413.1.2.0,Phases=2,Linecode=BT107_BT107_7_2_1,Length=0.050307000,Units=km
new line.11782996 bus1=BBT3548399.1.2.0,bus2=BBT3548406.1.2.0,Phases=2,Linecode=BT107_BT107_7_2_1,Length=0.051263000,Units=km
new line.11783017 bus1=BBT3548392.1.2.0,bus2=BBT3548399.1.2.0,Phases=2,Linecode=BT107_BT107_7_2_1,Length=0.051263000,Units=km
new line.11783052 bus1=BBT3548364.1.2.0,bus2=BBT3548392.1.2.0,Phases=2,Linecode=BT107_BT107_7_2_1,Length=0.051263000,Units=km
new line.11783059 bus1=BBT3548357.1.2.0,bus2=BBT3548364.1.2.0,Phases=2,Linecode=BT505_BT505_7_2_1,Length=0.000501000,Units=km
new line.11783066 bus1=BBT3548364.1.2.0,bus2=BBT3548371.1.2.0,Phases=2,Linecode=BT107_BT107_7_2_1,Length=0.051263000,Units=km
new line.11783080 bus1=BBT3548371.1.2.0,bus2=BBT3548378.1.2.0,Phases=2,Linecode=BT107_BT107_7_2_1,Length=0.052220000,Units=km
new line.11783101 bus1=BBT3548378.1.2.0,bus2=BBT3548385.1.2.0,Phases=2,Linecode=BT107_BT107_7_2_1,Length=0.038614000,Units=km
new line.11783171 bus1=BBT3937550.1.2.0,bus2=BBT4397688.1.2.0,Phases=2,Linecode=BT808_BT808_4_2_3,Length=0.034012000,Units=km
new line.11783213 bus1=BBT3937536.1.2.0,bus2=BBT3937543.1.2.0,Phases=2,Linecode=BT807_BT807_4_2_3,Length=0.030161000,Units=km
new line.11783241 bus1=BBT3548476.1.2.0,bus2=BBT3937536.1.2.0,Phases=2,Linecode=BT807_BT807_4_2_3,Length=0.069487000,Units=km
new line.11783248 bus1=BBT3548476.1.2.0,bus2=BBT3548511.1.2.0,Phases=2,Linecode=BT810_BT810_4_2_4,Length=0.053179000,Units=km
new line.11783297 bus1=BBT3548427.1.2.0,bus2=BBT3548448.1.2.0,Phases=2,Linecode=BT107_BT107_7_2_1,Length=0.062664000,Units=km
new line.11783304 bus1=BBT3548420.1.2.0,bus2=BBT3548427.1.2.0,Phases=2,Linecode=BT517_BT517_7_2_1,Length=0.000501000,Units=km
new line.11783311 bus1=BBT3548427.1.2.0,bus2=BBT3548455.1.2.0,Phases=2,Linecode=BT107_BT107_7_2_1,Length=0.061422000,Units=km
new line.11783339 bus1=BBT3548455.1.2.0,bus2=BBT3548462.1.2.0,Phases=2,Linecode=BT107_BT107_7_2_1,Length=0.061706000,Units=km
new line.11783360 bus1=BBT3548462.1.2.0,bus2=BBT3548469.1.2.0,Phases=2,Linecode=BT107_BT107_7_2_1,Length=0.061706000,Units=km
new line.11783388 bus1=BBT3548441.1.2.0,bus2=BBT3548476.1.2.0,Phases=2,Linecode=BT807_BT807_4_2_3,Length=0.057891000,Units=km
new line.11783395 bus1=BBT3548434.1.2.0,bus2=BBT3548441.1.2.0,Phases=2,Linecode=BT517_BT517_7_2_1,Length=0.000501000,Units=km
new line.11783402 bus1=BBT3548441.1.2.0,bus2=BBT3548483.1.2.0,Phases=2,Linecode=BT807_BT807_4_2_3,Length=0.057588000,Units=km
new line.10934659 bus1=BBT3247035.1.2.0,bus2=BBT3247042.1.2.0,Phases=2,Linecode=BT505_BT505_7_2_1,Length=0.000501000,Units=km
new line.10944249 bus1=BBT3250150.1.2.0,bus2=BBT3250157.1.2.0,Phases=2,Linecode=BT307_BT307_7_2_1,Length=0.000501000,Units=km
new line.10947819 bus1=BBT3251977.1.2.0,bus2=BBT3251984.1.2.0,Phases=2,Linecode=BT304_BT304_7_2_1,Length=0.000501000,Units=km