new line.CTR13063 bus1=BMT158344690.2,bus2=BMT101589875.2,Phases=1,LineCode=tieSwitch1,Length=0.001,Units=km,switch=T !numEQ 128634
new line.CTR144761 bus1=BMT101586760.1,bus2=BMT101587950.1,Phases=1,LineCode=tieSwitch1,Length=0.001,Units=km,switch=T !numEQ 64420
new line.CTR144817 bus1=BMT101587110.1,bus2=BMT169215961.1,Phases=1,LineCode=tieSwitch1,Length=0.001,Units=km,switch=T !numEQ 63016
new line.CTR144873 bus1=BMT101586802.1.2.3,bus2=BMT101587964.1.2.3,Phases=3,LineCode=tieSwitch,Length=0.001,Units=km,switch=T !numEQ 64423
new line.CTR144901 bus1=BMT101588097.1,bus2=BMT101588111.1,Phases=1,LineCode=tieSwitch1,Length=0.001,Units=km,switch=T !numEQ 63448
new line.CTR144929 bus1=BMT101596441.1.2.3,bus2=BMT158369208.1.2.3,Phases=3,LineCode=tieSwitch,Length=0.001,Units=km,switch=T !numEQ 62809
new line.CTR144957 bus1=BMT165071037.2,bus2=BMT165071048.2,Phases=1,LineCode=tieSwitch1,Length=0.001,Units=km,switch=T !numEQ 64393
new line.CTR144985 bus1=BMT163588597.1.2.3,bus2=BMT101596476.1.2.3,Phases=3,LineCode=tieSwitch,Length=0.001,Units=km,switch=T !numEQ 62379
new line.CTR145027 bus1=BMT165070714.1,bus2=BMT165070745.1,Phases=1,LineCode=tieSwitch1,Length=0.001,Units=km,switch=T !numEQ 64471
new line.CTR145069 bus1=BMT165070579.1.2.3,bus2=BMT165070619.1.2.3,Phases=3,LineCode=tieSwitch,Length=0.001,Units=km,switch=T !numEQ 64220
new line.CTR145251 bus1=BMT101591716.2,bus2=BMT101592080.2,Phases=1,LineCode=tieSwitch1,Length=0.001,Units=km,switch=T !numEQ 64358
new line.CTR145265 bus1=BMT169680719.3,bus2=BMT101591744.3,Phases=1,LineCode=tieSwitch1,Length=0.001,Units=km,switch=T !numEQ 13403
new line.CTR145293 bus1=BMT101591807.2,bus2=BMT150512210.2,Phases=1,LineCode=tieSwitch1,Length=0.001,Units=km,switch=T !numEQ 64397
new line.CTR145321 bus1=BMT101592640.1,bus2=BMT150264186.1,Phases=1,LineCode=tieSwitch1,Length=0.001,Units=km,switch=T !numEQ 64485
new line.CTR145349 bus1=BMT101596525.1.2.3,bus2=BMT169191764.1.2.3,Phases=3,LineCode=tieSwitch,Length=0.001,Units=km,switch=T !numEQ 64092
new line.CTR145433 bus1=BMT101607529.1.2.3,bus2=BMT101608026.1.2.3,Phases=3,LineCode=tieSwitch,Length=0.001,Units=km,switch=T !numEQ 64492
new line.CTR174973 bus1=BMT101598849.1.2.3,bus2=BMT101598940.1.2.3,Phases=3,LineCode=tieSwitch,Length=0.001,Units=km,switch=T !numEQ 65009
new line.CTR18873 bus1=BMT158544866.1.2.3,bus2=BMT101609755.1.2.3,Phases=3,LineCode=tieSwitch,Length=0.001,Units=km,switch=T !numEQ 148741
open line.CTR18873 term=1
new line.CTR188791 bus1=BMT101588181.1,bus2=BMT101588188.1,Phases=1,LineCode=tieSwitch1,Length=0.001,Units=km,switch=T !numEQ 149834
new line.CTR18901 bus1=BMT101609769.1.2.3,bus2=BMT163725373.1.2.3,Phases=3,LineCode=tieSwitch,Length=0.001,Units=km,switch=T !numEQ 148744
new line.CTR200985 bus1=BMT101599164.3,bus2=BMT101599507.3,Phases=1,LineCode=tieSwitch1,Length=0.001,Units=km,switch=T !numEQ 148374
new line.CTR201181 bus1=BMT101611057.1,bus2=BMT121973077.1,Phases=1,LineCode=tieSwitch1,Length=0.001,Units=km,switch=T !numEQ 63789
new line.CTR201209 bus1=BMT101609608.2,bus2=BMT101610721.2,Phases=1,LineCode=tieSwitch1,Length=0.001,Units=km,switch=T !numEQ 65065
new line.CTR201454 bus1=BMT101611281.1,bus2=BMT101611834.1,Phases=1,LineCode=tieSwitch1,Length=0.001,Units=km,switch=T !numEQ 64430
new line.CTR201468 bus1=BMT101611330.2,bus2=BMT101611771.2,Phases=1,LineCode=tieSwitch1,Length=0.001,Units=km,switch=T !numEQ 148728
new line.CTR201482 bus1=BMT101611365.3,bus2=BMT101611729.3,Phases=1,LineCode=tieSwitch1,Length=0.001,Units=km,switch=T !numEQ 64431
new line.CTR20175 bus1=BMT135713636.1.2.3,bus2=BMT135730618.1.2.3,Phases=3,LineCode=tieSwitch,Length=0.001,Units=km,switch=T !numEQ 135545
new line.CTR20203 bus1=BMT101598499.2,bus2=BMT101598520.2,Phases=1,LineCode=tieSwitch1,Length=0.001,Units=km,switch=T !numEQ 135546
new line.CTR202427 bus1=BMT101588076.1,bus2=BMT101588622.1,Phases=1,LineCode=tieSwitch1,Length=0.001,Units=km,switch=T !numEQ 63945
new line.CTR20329 bus1=BMT172703657.1.2.3,bus2=BMT101596539.1.2.3,Phases=3,LineCode=tieSwitch,Length=0.001,Units=km,switch=T !numEQ 11194
new line.CTR219143 bus1=BMT101602559.1.2.3,bus2=BMT168447916.1.2.3,Phases=3,LineCode=tieSwitch,Length=0.001,Units=km,switch=T !numEQ 64022
new line.CTR234557 bus1=BMT101604386.2,bus2=BMT101604442.2,Phases=1,LineCode=tieSwitch1,Length=0.001,Units=km,switch=T !numEQ 64520
new line.CTR234571 bus1=BMT101605583.2,bus2=BMT101605597.2,Phases=1,LineCode=tieSwitch1,Length=0.001,Units=km,switch=T !numEQ 64504
new line.CTR234599 bus1=BMT101606045.3,bus2=BMT101606052.3,Phases=1,LineCode=tieSwitch1,Length=0.001,Units=km,switch=T !numEQ 63231
new line.CTR234641 bus1=BMT101597932.1.2.3,bus2=BMT167756467.1.2.3,Phases=3,LineCode=tieSwitch,Length=0.001,Units=km,switch=T !numEQ 225826
new line.CTR234711 bus1=BMT101602601.1.2.3,bus2=BMT167656934.1.2.3,Phases=3,LineCode=tieSwitch,Length=0.001,Units=km,switch=T !numEQ 204022
new line.CTR234760 bus1=BMT101602734.1.2.3,bus2=BMT101605506.1.2.3,Phases=3,LineCode=tieSwitch,Length=0.001,Units=km,switch=T !numEQ 63210
new line.CTR234774 bus1=BMT101602790.2,bus2=BMT101605366.2,Phases=1,LineCode=tieSwitch1,Length=0.001,Units=km,switch=T !numEQ 64507
new line.CTR234788 bus1=BMT101602818.1.2.3,bus2=BMT159892848.1.2.3,Phases=3,LineCode=tieSwitch,Length=0.001,Units=km,switch=T !numEQ 307032
new line.CTR234802 bus1=BMT101602916.1.2.3,bus2=BMT163763385.1.2.3,Phases=3,LineCode=tieSwitch,Length=0.001,Units=km,switch=T !numEQ 63358
new line.CTR234816 bus1=BMT101605100.1,bus2=BMT156534860.1,Phases=1,LineCode=tieSwitch1,Length=0.001,Units=km,switch=T !numEQ 148256
new line.CTR234844 bus1=BMT150726088.1.2.3,bus2=BMT162665981.1.2.3,Phases=3,LineCode=tieSwitch,Length=0.001,Units=km,switch=T !numEQ 62780
new line.CTR234907 bus1=BMT101601222.2,bus2=BMT101601229.2,Phases=1,LineCode=tieSwitch1,Length=0.001,Units=km,switch=T !numEQ 64080
new line.CTR234935 bus1=BMT101590008.2,bus2=BMT101590358.2,Phases=1,LineCode=tieSwitch1,Length=0.001,Units=km,switch=T !numEQ 63250
new line.CTR234963 bus1=BMT101590211.2,bus2=BMT101590281.2,Phases=1,LineCode=tieSwitch1,Length=0.001,Units=km,switch=T !numEQ 64077
new line.CTR234977 bus1=BMT101590288.2,bus2=BMT101590302.2,Phases=1,LineCode=tieSwitch1,Length=0.001,Units=km,switch=T !numEQ 64076
new line.CTR234991 bus1=BMT101589728.2,bus2=BMT172810128.2,Phases=1,LineCode=tieSwitch1,Length=0.001,Units=km,switch=T !numEQ 302057
new line.CTR235019 bus1=BMT101597022.1.2.3,bus2=BMT101597071.1.2.3,Phases=3,LineCode=tieSwitch,Length=0.001,Units=km,switch=T !numEQ 111906
new line.CTR235061 bus1=BMT101606675.1.2.3,bus2=BMT101606773.1.2.3,Phases=3,LineCode=tieSwitch,Length=0.001,Units=km,switch=T !numEQ 64386
new line.CTR235103 bus1=BMT161872004.1.2.3,bus2=BMT155670050.1.2.3,Phases=3,LineCode=tieSwitch,Length=0.001,Units=km,switch=T !numEQ 382431
new line.CTR235117 bus1=BMT101598408.2,bus2=BMT156680487.2,Phases=1,LineCode=tieSwitch1,Length=0.001,Units=km,switch=T !numEQ 12770
new line.CTR235131 bus1=BMT101598737.1.2.3,bus2=BMT155106121.1.2.3,Phases=3,LineCode=tieSwitch,Length=0.001,Units=km,switch=T !numEQ 62380
new line.CTR235159 bus1=BMT101598968.1,bus2=BMT101600221.1,Phases=1,LineCode=tieSwitch1,Length=0.001,Units=km,switch=T !numEQ 64068
new line.CTR235173 bus1=BMT101596350.2,bus2=BMT101597764.2,Phases=1,LineCode=tieSwitch1,Length=0.001,Units=km,switch=T !numEQ 194714
new line.CTR235187 bus1=BMT101607263.1.2.3,bus2=BMT156225465.1.2.3,Phases=3,LineCode=tieSwitch,Length=0.001,Units=km,switch=T !numEQ 159238
new line.CTR235201 bus1=BMT101607319.2,bus2=BMT101608467.2,Phases=1,LineCode=tieSwitch1,Length=0.001,Units=km,switch=T !numEQ 99553
new line.CTR235229 bus1=BMT101607368.1.2.3,bus2=BMT101608355.1.2.3,Phases=3,LineCode=tieSwitch,Length=0.001,Units=km,switch=T !numEQ 62484
new line.CTR235243 bus1=BMT101607403.1.2.3,bus2=BMT163823478.1.2.3,Phases=3,LineCode=tieSwitch,Length=0.001,Units=km,switch=T !numEQ 195278
new line.CTR235257 bus1=BMT101607522.3,bus2=BMT101608194.3,Phases=1,LineCode=tieSwitch1,Length=0.001,Units=km,switch=T !numEQ 62927
new line.CTR235271 bus1=BMT101607578.2,bus2=BMT101608005.2,Phases=1,LineCode=tieSwitch1,Length=0.001,Units=km,switch=T !numEQ 64496
new line.CTR235285 bus1=BMT101607585.1.2.3,bus2=BMT161731927.1.2.3,Phases=3,LineCode=tieSwitch,Length=0.001,Units=km,switch=T !numEQ 226084
new line.CTR235299 bus1=BMT101607655.1.2.3,bus2=BMT101607851.1.2.3,Phases=3,LineCode=tieSwitch,Length=0.001,Units=km,switch=T !numEQ 64493
new line.CTR235313 bus1=BMT101596945.1.2.3,bus2=BMT101596966.1.2.3,Phases=3,LineCode=tieSwitch,Length=0.001,Units=km,switch=T !numEQ 64086
new line.CTR235341 bus1=BMT101596574.1.2.3,bus2=BMT101596623.1.2.3,Phases=3,LineCode=tieSwitch,Length=0.001,Units=km,switch=T !numEQ 64387
new line.CTR235355 bus1=BMT101596497.1.2.3,bus2=BMT101596546.1.2.3,Phases=3,LineCode=tieSwitch,Length=0.001,Units=km,switch=T !numEQ 64385
new line.CTR235383 bus1=BMT101597673.1.2.3,bus2=BMT101597715.1.2.3,Phases=3,LineCode=tieSwitch,Length=0.001,Units=km,switch=T !numEQ 64381
new line.CTR235397 bus1=BMT165070412.1.2.3,bus2=BMT5090695.1.2.3,Phases=3,LineCode=tieSwitch,Length=0.001,Units=km,switch=T !numEQ 194713
open line.CTR235397 term=1
new line.CTR235411 bus1=BMT3764489.1.2.3,bus2=BMT169190984.1.2.3,Phases=3,LineCode=tieSwitch,Length=0.001,Units=km,switch=T !numEQ 256454
new line.CTR235425 bus1=BMT165071076.1,bus2=BMT165071081.1,Phases=1,LineCode=tieSwitch1,Length=0.001,Units=km,switch=T !numEQ 64380
new line.CTR235453 bus1=BMT165070560.1.2.3,bus2=BMT165070689.1.2.3,Phases=3,LineCode=tieSwitch,Length=0.001,Units=km,switch=T !numEQ 63841
new line.CTR235481 bus1=BMT165070627.1.2.3,bus2=BMT165070652.1.2.3,Phases=3,LineCode=tieSwitch,Length=0.001,Units=km,switch=T !numEQ 64404
new line.CTR235495 bus1=BMT165070625.1.2.3,bus2=BMT165070640.1.2.3,Phases=3,LineCode=tieSwitch,Length=0.001,Units=km,switch=T !numEQ 64403
new line.CTR235565 bus1=BMT165070454.1.2.3,bus2=BMT165070458.1.2.3,Phases=3,LineCode=tieSwitch,Length=0.001,Units=km,switch=T !numEQ 62913
new line.CTR235586 bus1=BMT101596931.1.2.3,bus2=BMT16130109.1.2.3,Phases=3,LineCode=tieSwitch,Length=0.001,Units=km,switch=T !numEQ 194729
open line.CTR235586 term=1
new line.CTR235621 bus1=BMT101596784.3,bus2=BMT158544998.3,Phases=1,LineCode=tieSwitch1,Length=0.001,Units=km,switch=T !numEQ 384453
new line.CTR235656 bus1=BMT165070518.1.2.3,bus2=BMT171382991.1.2.3,Phases=3,LineCode=tieSwitch,Length=0.001,Units=km,switch=T !numEQ 64964
new line.CTR235712 bus1=BMT165070831.3,bus2=BMT165070833.3,Phases=1,LineCode=tieSwitch1,Length=0.001,Units=km,switch=T !numEQ 64472
new line.CTR235747 bus1=BMT162372254.1.2.3,bus2=BMT70733098.1.2.3,Phases=3,LineCode=tieSwitch,Length=0.001,Units=km,switch=T !numEQ 204034
open line.CTR235747 term=1
new line.CTR235789 bus1=BMT101596420.2,bus2=BMT101597743.2,Phases=1,LineCode=tieSwitch1,Length=0.001,Units=km,switch=T !numEQ 62806
new line.CTR235803 bus1=BMT101596455.1.2.3,bus2=BMT151428131.1.2.3,Phases=3,LineCode=tieSwitch,Length=0.001,Units=km,switch=T !numEQ 62819
new line.CTR235817 bus1=BMT101597582.1.2.3,bus2=BMT101597624.1.2.3,Phases=3,LineCode=tieSwitch,Length=0.001,Units=km,switch=T !numEQ 64384
new line.CTR235831 bus1=BMT165071054.2,bus2=BMT165071057.2,Phases=1,LineCode=tieSwitch1,Length=0.001,Units=km,switch=T !numEQ 64486
new line.CTR235866 bus1=BMT101582567.1.2.3,bus2=BMT160581879.1.2.3,Phases=3,LineCode=tieSwitch,Length=0.001,Units=km,switch=T !numEQ 63916
new line.CTR235894 bus1=BMT101582322.3,bus2=BMT149327559.3,Phases=1,LineCode=tieSwitch1,Length=0.001,Units=km,switch=T !numEQ 62636
new line.CTR235908 bus1=BMT101586368.3,bus2=BMT101586459.3,Phases=1,LineCode=tieSwitch1,Length=0.001,Units=km,switch=T !numEQ 64440
new line.CTR235957 bus1=BMT101588335.1,bus2=BMT149797974.1,Phases=1,LineCode=tieSwitch1,Length=0.001,Units=km,switch=T !numEQ 63949
new line.CTR235971 bus1=BMT101588370.1,bus2=BMT101588503.1,Phases=1,LineCode=tieSwitch1,Length=0.001,Units=km,switch=T !numEQ 63951
new line.CTR236118 bus1=BMT101582889.1.2.3,bus2=BMT101583022.1.2.3,Phases=3,LineCode=tieSwitch,Length=0.001,Units=km,switch=T !numEQ 63918
new line.CTR236132 bus1=BMT101582882.1.2.3,bus2=BMT101584093.1.2.3,Phases=3,LineCode=tieSwitch,Length=0.001,Units=km,switch=T !numEQ 63280
new line.CTR236244 bus1=BMT100814807.1.2.3,bus2=BMT154345031.1.2.3,Phases=3,LineCode=tieSwitch,Length=0.001,Units=km,switch=T !numEQ 64573
new line.CTR236272 bus1=BMT100814842.2,bus2=BMT154346481.2,Phases=1,LineCode=tieSwitch1,Length=0.001,Units=km,switch=T !numEQ 378631
new line.CTR236286 bus1=BMT101581769.1,bus2=BMT166067526.1,Phases=1,LineCode=tieSwitch1,Length=0.001,Units=km,switch=T !numEQ 63795
new line.CTR236328 bus1=BMT101582301.1.2.3,bus2=BMT101586473.1.2.3,Phases=3,LineCode=tieSwitch,Length=0.001,Units=km,switch=T !numEQ 63909
new line.CTR260100 bus1=BMT101602622.1.2.3,bus2=BMT152676205.1.2.3,Phases=3,LineCode=tieSwitch,Length=0.001,Units=km,switch=T !numEQ 63379
new line.CTR277264 bus1=BMT165070479.1.2.3,bus2=BMT165070933.1.2.3,Phases=3,LineCode=tieSwitch,Length=0.001,Units=km,switch=T !numEQ 62438
new line.CTR277817 bus1=BMT101605912.3,bus2=BMT101605933.3,Phases=1,LineCode=tieSwitch1,Length=0.001,Units=km,switch=T !numEQ 63211
new line.CTR328287 bus1=BMT101598394.1,bus2=BMT103963120.1,Phases=1,LineCode=tieSwitch1,Length=0.001,Units=km,switch=T !numEQ 12735
new line.CTR106583 bus1=BMT101602909.1.2.3,bus2=BMT168448087.1.2.3,Phases=3,LineCode=tieSwitch,Length=0.001,Units=km,switch=T !numEQ 196306
new line.CTR181980 bus1=BMT165070509.1,bus2=BMT169992726.1,Phases=1,LineCode=tieSwitch1,Length=0.001,Units=km,switch=T !numEQ 64473
new line.CTR182351 bus1=BMT170869625.2,bus2=BMT170869626.2,Phases=1,LineCode=tieSwitch1,Length=0.001,Units=km,switch=T !numEQ 63224
new line.CTR2038 bus1=BMT169215789.1,bus2=BMT101586900.1,Phases=1,LineCode=tieSwitch1,Length=0.001,Units=km,switch=T !numEQ 205909
new line.CTR204842 bus1=BMT101586585.2,bus2=BMT112961550.2,Phases=1,LineCode=tieSwitch1,Length=0.001,Units=km,switch=T !numEQ 63953
new line.CTR224652 bus1=BMT101603308.2,bus2=BMT159886512.2,Phases=1,LineCode=tieSwitch1,Length=0.001,Units=km,switch=T !numEQ 62053
new line.CTR236356 bus1=BMT101582385.1.2.3,bus2=BMT170970615.1.2.3,Phases=3,LineCode=tieSwitch,Length=0.001,Units=km,switch=T !numEQ 204036
new line.CTR236370 bus1=BMT101582406.1.2.3,bus2=BMT105877137.1.2.3,Phases=3,LineCode=tieSwitch,Length=0.001,Units=km,switch=T !numEQ 99222
new line.CTR236384 bus1=BMT101584205.1.2.3,bus2=BMT149812396.1.2.3,Phases=3,LineCode=tieSwitch,Length=0.001,Units=km,switch=T !numEQ 63159
new line.CTR236552 bus1=BMT101581706.3,bus2=BMT155479727.3,Phases=1,LineCode=tieSwitch1,Length=0.001,Units=km,switch=T !numEQ 63792
new line.CTR237938 bus1=BMT154301079.2,bus2=BMT160068802.2,Phases=1,LineCode=tieSwitch1,Length=0.001,Units=km,switch=T !numEQ 99508
new line.CTR238386 bus1=BMT101588251.1,bus2=BMT157988066.1,Phases=1,LineCode=tieSwitch1,Length=0.001,Units=km,switch=T !numEQ 383993
new line.CTR256026 bus1=BMT101587390.1,bus2=BMT169215939.1,Phases=1,LineCode=tieSwitch1,Length=0.001,Units=km,switch=T !numEQ 62028
new line.CTR256621 bus1=BMT165070699.1.2.3,bus2=BMT166667816.1.2.3,Phases=3,LineCode=tieSwitch,Length=0.001,Units=km,switch=T !numEQ 149211
new line.CTR271545 bus1=BMT101581405.3,bus2=BMT101591380.3,Phases=1,LineCode=tieSwitch1,Length=0.001,Units=km,switch=T !numEQ 63783
new line.CTR271692 bus1=BMT101600984.2,bus2=BMT162006393.2,Phases=1,LineCode=tieSwitch1,Length=0.001,Units=km,switch=T !numEQ 63249
new line.CTR273547 bus1=BMT101606500.1.2.3,bus2=BMT170934753.1.2.3,Phases=3,LineCode=tieSwitch,Length=0.001,Units=km,switch=T !numEQ 64972
new line.CTR295401 bus1=BMT169251688.1.2.3,bus2=BMT101609496.1.2.3,Phases=3,LineCode=tieSwitch,Length=0.001,Units=km,switch=T !numEQ 148727
open line.CTR295401 term=1
new line.CTR297046 bus1=BMT101590372.2,bus2=BMT101590386.2,Phases=1,LineCode=tieSwitch1,Length=0.001,Units=km,switch=T !numEQ 99496
new line.CTR32495 bus1=BMT165070450.1.2.3,bus2=BMT166426341.1.2.3,Phases=3,LineCode=tieSwitch,Length=0.001,Units=km,switch=T !numEQ 177748
new line.CTR327111 bus1=BMT101581818.1.2.3,bus2=BMT170036928.1.2.3,Phases=3,LineCode=tieSwitch,Length=0.001,Units=km,switch=T !numEQ 63796
new line.CTR327167 bus1=BMT101584492.1,bus2=BMT101584961.1,Phases=1,LineCode=tieSwitch1,Length=0.001,Units=km,switch=T !numEQ 64443
new line.CTR327181 bus1=BMT101585010.1,bus2=BMT160037334.1,Phases=1,LineCode=tieSwitch1,Length=0.001,Units=km,switch=T !numEQ 63382
new line.CTR327209 bus1=BMT101582546.1.2.3,bus2=BMT101582581.1.2.3,Phases=3,LineCode=tieSwitch,Length=0.001,Units=km,switch=T !numEQ 63915
new line.CTR327223 bus1=BMT101582973.1.2.3,bus2=BMT150518911.1.2.3,Phases=3,LineCode=tieSwitch,Length=0.001,Units=km,switch=T !numEQ 63921
new line.CTR327237 bus1=BMT101583407.1,bus2=BMT137074527.1,Phases=1,LineCode=tieSwitch1,Length=0.001,Units=km,switch=T !numEQ 10759
new line.CTR327468 bus1=BMT101582945.1.2.3,bus2=BMT101584079.1.2.3,Phases=3,LineCode=tieSwitch,Length=0.001,Units=km,switch=T !numEQ 63919
new line.CTR327482 bus1=BMT101582861.1.2.3,bus2=BMT101583008.1.2.3,Phases=3,LineCode=tieSwitch,Length=0.001,Units=km,switch=T !numEQ 63283
new line.CTR327496 bus1=BMT101582749.2,bus2=BMT101582763.2,Phases=1,LineCode=tieSwitch1,Length=0.001,Units=km,switch=T !numEQ 63449
new line.CTR327510 bus1=BMT101585661.1,bus2=BMT101585787.1,Phases=1,LineCode=tieSwitch1,Length=0.001,Units=km,switch=T !numEQ 62727
new line.CTR327524 bus1=BMT101582259.1.2.3,bus2=BMT167303363.1.2.3,Phases=3,LineCode=tieSwitch,Length=0.001,Units=km,switch=T !numEQ 63798
new line.CTR327538 bus1=BMT101586606.1,bus2=BMT101589385.1,Phases=1,LineCode=tieSwitch1,Length=0.001,Units=km,switch=T !numEQ 64418
new line.CTR327573 bus1=BMT101588349.1,bus2=BMT161603539.1,Phases=1,LineCode=tieSwitch1,Length=0.001,Units=km,switch=T !numEQ 296866
new line.CTR327601 bus1=BMT101588384.1,bus2=BMT101588482.1,Phases=1,LineCode=tieSwitch1,Length=0.001,Units=km,switch=T !numEQ 63952
new line.CTR327615 bus1=BMT101582168.2,bus2=BMT153558542.2,Phases=1,LineCode=tieSwitch1,Length=0.001,Units=km,switch=T !numEQ 63956
new line.CTR327643 bus1=BMT101588874.3,bus2=BMT101589007.3,Phases=1,LineCode=tieSwitch1,Length=0.001,Units=km,switch=T !numEQ 64428
new line.CTR327692 bus1=BMT154711300.1.2.3,bus2=BMT154710665.1.2.3,Phases=3,LineCode=tieSwitch,Length=0.001,Units=km,switch=T !numEQ 62772
open line.CTR327692 term=1
new line.CTR327706 bus1=BMT101597463.1.2.3,bus2=BMT101597470.1.2.3,Phases=3,LineCode=tieSwitch,Length=0.001,Units=km,switch=T !numEQ 63569
new line.CTR327720 bus1=BMT165070428.1,bus2=BMT165071017.1,Phases=1,LineCode=tieSwitch1,Length=0.001,Units=km,switch=T !numEQ 64390
new line.CTR327734 bus1=BMT165070443.1.2.3,bus2=BMT165071013.1.2.3,Phases=3,LineCode=tieSwitch,Length=0.001,Units=km,switch=T !numEQ 11181
new line.CTR327790 bus1=BMT165070478.3,bus2=BMT165070931.3,Phases=1,LineCode=tieSwitch1,Length=0.001,Units=km,switch=T !numEQ 63227
new line.CTR327804 bus1=BMT165070498.1,bus2=BMT165070902.1,Phases=1,LineCode=tieSwitch1,Length=0.001,Units=km,switch=T !numEQ 62877
new line.CTR327832 bus1=BMT165070505.1.2.3,bus2=BMT165070840.1.2.3,Phases=3,LineCode=tieSwitch,Length=0.001,Units=km,switch=T !numEQ 64396
new line.CTR327902 bus1=BMT165070631.1.2.3,bus2=BMT165070643.1.2.3,Phases=3,LineCode=tieSwitch,Length=0.001,Units=km,switch=T !numEQ 64405
new line.CTR327916 bus1=BMT165070623.1.2.3,bus2=BMT165070634.1.2.3,Phases=3,LineCode=tieSwitch,Length=0.001,Units=km,switch=T !numEQ 62855
new line.CTR327930 bus1=BMT165070614.1.2.3,bus2=BMT165070617.1.2.3,Phases=3,LineCode=tieSwitch,Length=0.001,Units=km,switch=T !numEQ 64402
new line.CTR327958 bus1=BMT165070449.1.2.3,bus2=BMT165070456.1.2.3,Phases=3,LineCode=tieSwitch,Length=0.001,Units=km,switch=T !numEQ 62837
new line.CTR327972 bus1=BMT101596987.1.2.3,bus2=BMT101596994.1.2.3,Phases=3,LineCode=tieSwitch,Length=0.001,Units=km,switch=T !numEQ 64087
new line.CTR110923 bus1=BMT151242999.1.2.3,bus2=BMT166352558.1.2.3,Phases=3,LineCode=tieSwitch,Length=0.001,Units=km,switch=T !numEQ 225825
new line.CTR111077 bus1=BMT165070455.1.2.3,bus2=BMT172536635.1.2.3,Phases=3,LineCode=tieSwitch,Length=0.001,Units=km,switch=T !numEQ 106258
new line.CTR122823 bus1=BMT101607256.1,bus2=BMT101608523.1,Phases=1,LineCode=tieSwitch1,Length=0.001,Units=km,switch=T !numEQ 64503
new line.CTR135745 bus1=BMT156260974.1.2.3,bus2=BMT156260975.1.2.3,Phases=3,LineCode=tieSwitch,Length=0.001,Units=km,switch=T !numEQ 104359
new line.CTR148583 bus1=BMT101601145.2,bus2=BMT101601201.2,Phases=1,LineCode=tieSwitch1,Length=0.001,Units=km,switch=T !numEQ 63248
new line.CTR184563 bus1=BMT165070417.1.2.3,bus2=BMT165071034.1.2.3,Phases=3,LineCode=tieSwitch,Length=0.001,Units=km,switch=T !numEQ 194717
new line.CTR185088 bus1=BMT101603245.1,bus2=BMT166114486.1,Phases=1,LineCode=tieSwitch1,Length=0.001,Units=km,switch=T !numEQ 147729
new line.CTR185620 bus1=BMT101609209.1,bus2=BMT148817853.1,Phases=1,LineCode=tieSwitch1,Length=0.001,Units=km,switch=T !numEQ 147769
new line.CTR18565 bus1=BMT169251691.1.2.3,bus2=BMT101609559.1.2.3,Phases=3,LineCode=tieSwitch,Length=0.001,Units=km,switch=T !numEQ 148726
open line.CTR18565 term=1
new line.CTR18593 bus1=BMT101609580.1.2.3,bus2=BMT148810523.1.2.3,Phases=3,LineCode=tieSwitch,Length=0.001,Units=km,switch=T !numEQ 148732
new line.CTR195805 bus1=BMT101600802.2,bus2=BMT4073476.2,Phases=1,LineCode=tieSwitch1,Length=0.001,Units=km,switch=T !numEQ 62013
open line.CTR195805 term=1
new line.CTR195868 bus1=BMT101611372.1,bus2=BMT101611715.1,Phases=1,LineCode=tieSwitch1,Length=0.001,Units=km,switch=T !numEQ 63957
new line.CTR209483 bus1=BMT101604071.2,bus2=BMT101604190.2,Phases=1,LineCode=tieSwitch1,Length=0.001,Units=km,switch=T !numEQ 130891
new line.CTR232359 bus1=BMT165070531.1.2.3,bus2=BMT165070691.1.2.3,Phases=3,LineCode=tieSwitch,Length=0.001,Units=km,switch=T !numEQ 150480
new line.CTR244399 bus1=BMT101586781.1.2.3,bus2=BMT150625267.1.2.3,Phases=3,LineCode=tieSwitch,Length=0.001,Units=km,switch=T !numEQ 64422
new line.CTR24459 bus1=BMT101599094.3,bus2=BMT171452394.3,Phases=1,LineCode=tieSwitch1,Length=0.001,Units=km,switch=T !numEQ 62669
new line.CTR245568 bus1=BMT150631513.1.2.3,bus2=BMT150632473.1.2.3,Phases=3,LineCode=tieSwitch,Length=0.001,Units=km,switch=T !numEQ 107233
new line.CTR267667 bus1=BMT165070578.1.2.3,bus2=BMT165070613.1.2.3,Phases=3,LineCode=tieSwitch,Length=0.001,Units=km,switch=T !numEQ 72856
new line.CTR267723 bus1=BMT165070482.1,bus2=BMT165070489.1,Phases=1,LineCode=tieSwitch1,Length=0.001,Units=km,switch=T !numEQ 64470
new line.CTR289234 bus1=BMT101602755.2,bus2=BMT168777209.2,Phases=1,LineCode=tieSwitch1,Length=0.001,Units=km,switch=T !numEQ 63212
new line.CTR290935 bus1=BMT101599206.3,bus2=BMT101599430.3,Phases=1,LineCode=tieSwitch1,Length=0.001,Units=km,switch=T !numEQ 62476
new line.CTR341020 bus1=BMT101582637.2,bus2=BMT101582679.2,Phases=1,LineCode=tieSwitch1,Length=0.001,Units=km,switch=T !numEQ 99266
new line.CTR417488 bus1=BMT19805725.1.2.3,bus2=BMT165294887.1.2.3,Phases=3,LineCode=tieSwitch,Length=0.001,Units=km,switch=T !numEQ 12710
new line.CTR52375 bus1=BMT101606962.2,bus2=BMT101607067.2,Phases=1,LineCode=tieSwitch1,Length=0.001,Units=km,switch=T !numEQ 64082
new line.CTR52431 bus1=BMT122094373.1.2.3,bus2=BMT163606339.1.2.3,Phases=3,LineCode=tieSwitch,Length=0.001,Units=km,switch=T !numEQ 286171
new line.CTR52459 bus1=BMT101606381.1.2.3,bus2=BMT101606843.1.2.3,Phases=3,LineCode=tieSwitch,Length=0.001,Units=km,switch=T !numEQ 64394
new line.CTR52487 bus1=BMT101601733.1,bus2=BMT101601768.1,Phases=1,LineCode=tieSwitch1,Length=0.001,Units=km,switch=T !numEQ 62019
new line.CTR52529 bus1=BMT101606948.1.2.3,bus2=BMT101607081.1.2.3,Phases=3,LineCode=tieSwitch,Length=0.001,Units=km,switch=T !numEQ 12715
new line.CTR52585 bus1=BMT101607123.1.2.3,bus2=BMT168092981.1.2.3,Phases=3,LineCode=tieSwitch,Length=0.001,Units=km,switch=T !numEQ 257009
new line.CTR526282 bus1=BMT101610385.2,bus2=BMT101610392.2,Phases=1,LineCode=tieSwitch1,Length=0.001,Units=km,switch=T !numEQ 54526
new line.CTR526331 bus1=BMT101607214.1.2.3,bus2=BMT101608866.1.2.3,Phases=3,LineCode=tieSwitch,Length=0.001,Units=km,switch=T !numEQ 63483
new line.CTR52683 bus1=BMT101591695.1.2.3,bus2=BMT169680715.1.2.3,Phases=3,LineCode=tieSwitch,Length=0.001,Units=km,switch=T !numEQ 255181
new line.CTR52711 bus1=BMT101591730.1.2.3,bus2=BMT101591751.1.2.3,Phases=3,LineCode=tieSwitch,Length=0.001,Units=km,switch=T !numEQ 62427
new line.CTR52732 bus1=BMT101591821.1,bus2=BMT101591968.1,Phases=1,LineCode=tieSwitch1,Length=0.001,Units=km,switch=T !numEQ 64398
new line.CTR527430 bus1=BMT101609972.1.2.3,bus2=BMT101610364.1.2.3,Phases=3,LineCode=tieSwitch,Length=0.001,Units=km,switch=T !numEQ 69571
new line.CTR527521 bus1=BMT101596980.1.2.3,bus2=BMT169156377.1.2.3,Phases=3,LineCode=tieSwitch,Length=0.001,Units=km,switch=T !numEQ 111905
new line.CTR52760 bus1=BMT101591989.1,bus2=BMT101592024.1,Phases=1,LineCode=tieSwitch1,Length=0.001,Units=km,switch=T !numEQ 99445
new line.CTR554359 bus1=BMT101601425.2,bus2=BMT153115303.2,Phases=1,LineCode=tieSwitch1,Length=0.001,Units=km,switch=T !numEQ 12742
new line.CTR554429 bus1=BMT101603196.2,bus2=BMT101604260.2,Phases=1,LineCode=tieSwitch1,Length=0.001,Units=km,switch=T !numEQ 62033
new line.CTR554478 bus1=BMT101599584.3,bus2=BMT101599892.3,Phases=1,LineCode=tieSwitch1,Length=0.001,Units=km,switch=T !numEQ 301546
new line.CTR554506 bus1=BMT101599178.3,bus2=BMT101599402.3,Phases=1,LineCode=tieSwitch1,Length=0.001,Units=km,switch=T !numEQ 64703
new line.CTR554555 bus1=BMT101600424.1,bus2=BMT101600494.1,Phases=1,LineCode=tieSwitch1,Length=0.001,Units=km,switch=T !numEQ 149178
new line.CTR554625 bus1=BMT101608733.2,bus2=BMT149874319.2,Phases=1,LineCode=tieSwitch1,Length=0.001,Units=km,switch=T !numEQ 99471
new line.CTR554681 bus1=BMT101608390.1.2.3,bus2=BMT101608432.1.2.3,Phases=3,LineCode=tieSwitch,Length=0.001,Units=km,switch=T !numEQ 99475
new line.CTR554751 bus1=BMT101597890.1.2.3,bus2=BMT101609153.1.2.3,Phases=3,LineCode=tieSwitch,Length=0.001,Units=km,switch=T !numEQ 64357
new line.CTR554779 bus1=BMT101598114.1.2.3,bus2=BMT101609132.1.2.3,Phases=3,LineCode=tieSwitch,Length=0.001,Units=km,switch=T !numEQ 12775
new line.CTR554807 bus1=BMT101606283.1.2.3,bus2=BMT101609118.1.2.3,Phases=3,LineCode=tieSwitch,Length=0.001,Units=km,switch=T !numEQ 63002
new line.CTR554835 bus1=BMT101606325.1.2.3,bus2=BMT101609090.1.2.3,Phases=3,LineCode=tieSwitch,Length=0.001,Units=km,switch=T !numEQ 12781
new line.CTR554905 bus1=BMT101596896.1.2.3,bus2=BMT101596917.1.2.3,Phases=3,LineCode=tieSwitch,Length=0.001,Units=km,switch=T !numEQ 194728
new line.CTR118511 bus1=BMT101608033.3,bus2=BMT101608047.3,Phases=1,LineCode=tieSwitch1,Length=0.001,Units=km,switch=T !numEQ 63245
new line.CTR145461 bus1=BMT101607606.1,bus2=BMT101607914.1,Phases=1,LineCode=tieSwitch1,Length=0.001,Units=km,switch=T !numEQ 64495
new line.CTR145489 bus1=BMT165183336.1.2.3,bus2=BMT165184232.1.2.3,Phases=3,LineCode=tieSwitch,Length=0.001,Units=km,switch=T !numEQ 12789
new line.CTR145601 bus1=BMT101599045.3,bus2=BMT101599073.3,Phases=1,LineCode=tieSwitch1,Length=0.001,Units=km,switch=T !numEQ 63219
new line.CTR145699 bus1=BMT101602461.1.2.3,bus2=BMT101606248.1.2.3,Phases=3,LineCode=tieSwitch,Length=0.001,Units=km,switch=T !numEQ 99482
new line.CTR145727 bus1=BMT101602552.1.2.3,bus2=BMT106645268.1.2.3,Phases=3,LineCode=tieSwitch,Length=0.001,Units=km,switch=T !numEQ 204023
new line.CTR145755 bus1=BMT101602615.1.2.3,bus2=BMT101606143.1.2.3,Phases=3,LineCode=tieSwitch,Length=0.001,Units=km,switch=T !numEQ 204030
new line.CTR145895 bus1=BMT101606185.3,bus2=BMT101606206.3,Phases=1,LineCode=tieSwitch1,Length=0.001,Units=km,switch=T !numEQ 99480
new line.CTR145923 bus1=BMT101598191.1.2.3,bus2=BMT101606262.1.2.3,Phases=3,LineCode=tieSwitch,Length=0.001,Units=km,switch=T !numEQ 99476
new line.CTR145951 bus1=BMT101598023.1.2.3,bus2=BMT101598079.1.2.3,Phases=3,LineCode=tieSwitch,Length=0.001,Units=km,switch=T !numEQ 382426
new line.CTR145979 bus1=BMT101598037.1.2.3,bus2=BMT101598051.1.2.3,Phases=3,LineCode=tieSwitch,Length=0.001,Units=km,switch=T !numEQ 382429
new line.CTR166524 bus1=BMT101601005.2,bus2=BMT101601012.2,Phases=1,LineCode=tieSwitch1,Length=0.001,Units=km,switch=T !numEQ 139937
new line.CTR167056 bus1=BMT165071077.1,bus2=BMT165071079.1,Phases=1,LineCode=tieSwitch1,Length=0.001,Units=km,switch=T !numEQ 147730
new line.CTR183471 bus1=BMT101607158.1,bus2=BMT101608922.1,Phases=1,LineCode=tieSwitch1,Length=0.001,Units=km,switch=T !numEQ 63218
new line.CTR197240 bus1=BMT151025079.1.2.3,bus2=BMT166951410.1.2.3,Phases=3,LineCode=tieSwitch,Length=0.001,Units=km,switch=T !numEQ 149005
new line.CTR222251 bus1=BMT101610693.3,bus2=BMT165527830.3,Phases=1,LineCode=tieSwitch1,Length=0.001,Units=km,switch=T !numEQ 147868
new line.CTR22226 bus1=BMT4719401.1.2.3,bus2=BMT170555086.1.2.3,Phases=3,LineCode=tieSwitch,Length=0.001,Units=km,switch=T !numEQ 149145
new line.CTR239226 bus1=BMT101586851.1,bus2=BMT169215792.1,Phases=1,LineCode=tieSwitch1,Length=0.001,Units=km,switch=T !numEQ 102634
new line.CTR239408 bus1=BMT170753235.1,bus2=BMT101611316.1,Phases=1,LineCode=tieSwitch1,Length=0.001,Units=km,switch=T !numEQ 63254
new line.CTR261255 bus1=BMT165070897.1,bus2=BMT165070898.1,Phases=1,LineCode=tieSwitch1,Length=0.001,Units=km,switch=T !numEQ 136165
new line.CTR317864 bus1=BMT165070470.1.2.3,bus2=BMT170133767.1.2.3,Phases=3,LineCode=tieSwitch,Length=0.001,Units=km,switch=T !numEQ 110332
new line.CTR352220 bus1=BMT101611078.1,bus2=BMT101611911.1,Phases=1,LineCode=tieSwitch1,Length=0.001,Units=km,switch=T !numEQ 63793
new line.CTR51927 bus1=BMT101602958.1.2.3,bus2=BMT152356947.1.2.3,Phases=3,LineCode=tieSwitch,Length=0.001,Units=km,switch=T !numEQ 302059
new line.CTR519422 bus1=BMT101582413.1,bus2=BMT163822571.1,Phases=1,LineCode=tieSwitch1,Length=0.001,Units=km,switch=T !numEQ 226353
new line.CTR52004 bus1=BMT101604463.2,bus2=BMT101604645.2,Phases=1,LineCode=tieSwitch1,Length=0.001,Units=km,switch=T !numEQ 64498