new load.3009001578M1 bus1=BMT146712920.1.2.3.0,Phases=3,kv=13.8,kW=2.93634,pf=0.92,Vminpu=0.93,Vmaxpu=1.5,model=8,zipv=[0.5,0,0.5,1,0,0,0],daily=A4-3,status=variable
new load.3009008394M1 bus1=BMT125140628.1.2.3.0,Phases=3,kv=13.8,kW=122.9782,pf=0.92,Vminpu=0.93,Vmaxpu=1.5,model=8,zipv=[0.5,0,0.5,1,0,0,0],daily=A4-7,status=variable
new load.3009010301M1 bus1=BMT146338224.1.2.3.0,Phases=3,kv=13.8,kW=4.66074,pf=0.92,Vminpu=0.93,Vmaxpu=1.5,model=8,zipv=[0.5,0,0.5,1,0,0,0],daily=A4-1,status=variable
new load.3009015687M1 bus1=BMT125138311.1.2.3.0,Phases=3,kv=13.8,kW=12.96072,pf=0.92,Vminpu=0.93,Vmaxpu=1.5,model=8,zipv=[0.5,0,0.5,1,0,0,0],daily=A4-1,status=variable
new load.3011146054M1 bus1=BMT149850273.1.2.3.0,Phases=3,kv=13.8,kW=4.19972,pf=0.92,Vminpu=0.93,Vmaxpu=1.5,model=8,zipv=[0.5,0,0.5,1,0,0,0],daily=A4-4,status=variable
new load.3011420334M1 bus1=BMT161513868.1.2.3.0,Phases=3,kv=13.8,kW=82.7252,pf=0.92,Vminpu=0.93,Vmaxpu=1.5,model=8,zipv=[0.5,0,0.5,1,0,0,0],daily=A4-3,status=variable
new load.3011515226M1 bus1=BMT151660534.1.2.3.0,Phases=3,kv=13.8,kW=6.1915,pf=0.92,Vminpu=0.93,Vmaxpu=1.5,model=8,zipv=[0.5,0,0.5,1,0,0,0],daily=A4-3,status=variable
new load.3012128818M1 bus1=BMT149125854.1.2.3.0,Phases=3,kv=13.8,kW=1.6558,pf=0.92,Vminpu=0.93,Vmaxpu=1.5,model=8,zipv=[0.5,0,0.5,1,0,0,0],daily=A4-2,status=variable
new load.3012345552M1 bus1=BMT160426083.1.2.3.0,Phases=3,kv=13.8,kW=45.6266,pf=0.92,Vminpu=0.93,Vmaxpu=1.5,model=8,zipv=[0.5,0,0.5,1,0,0,0],daily=A4-2,status=variable
new load.3012954888M1 bus1=BMT158906793.1.2.3.0,Phases=3,kv=13.8,kW=0.09198,pf=0.92,Vminpu=0.93,Vmaxpu=1.5,model=8,zipv=[0.5,0,0.5,1,0,0,0],daily=A4-2,status=variable
new load.3013232100M1 bus1=BMT160597883.1.2.3.0,Phases=3,kv=13.8,kW=1.01188,pf=0.92,Vminpu=0.93,Vmaxpu=1.5,model=8,zipv=[0.5,0,0.5,1,0,0,0],daily=A4-2,status=variable
