new line.RML10036729 bus1=BBT2925816.1.2.3.0,bus2=RML1060036729.1.2.3.0,Phases=3,Linecode=CABBTG06_4_3,Length=0.017000000,Units=km
new line.RML10043846 bus1=BBT3197094.1.2.0,bus2=RML1060043846.1.2.0,Phases=2,Linecode=CABBTG05_4_2,Length=0.017000000,Units=km
new line.RML10043927 bus1=BBT3384547.1.2.0,bus2=RML1060043927.1.2.0,Phases=2,Linecode=CABBTG05_4_2,Length=0.017000000,Units=km
new line.RML10044929 bus1=BBT2294472.2.0,bus2=RML1060044929.2.0,Phases=1,Linecode=CABBTG01_4_1,Length=0.017000000,Units=km
new line.RML10045106 bus1=BBT144547827.1.2.0,bus2=RML1060045106.1.2.0,Phases=2,Linecode=CABBTG05_4_2,Length=0.017000000,Units=km
new line.RML10046472 bus1=BBT148376565.1.2.3.0,bus2=RML1060046472.1.2.3.0,Phases=3,Linecode=CABBTG12_4_3,Length=0.017000000,Units=km
new line.RML10063204 bus1=BBT1922142.1.2.0,bus2=RML1060063204.1.2.0,Phases=2,Linecode=CABBTG05_4_2,Length=0.017000000,Units=km
new line.RML10063213 bus1=BBT2565323.1.2.0,bus2=RML1060063213.1.2.0,Phases=2,Linecode=CABBTG05_4_2,Length=0.017000000,Units=km
new line.RML10063552 bus1=BBT1543008.1.2.0,bus2=RML1060063552.1.2.0,Phases=2,Linecode=CABBTG05_4_2,Length=0.017000000,Units=km
new line.RML10073864 bus1=BBT2547438.1.2.0,bus2=RML1060073864.1.2.0,Phases=2,Linecode=CABBTG05_4_2,Length=0.017000000,Units=km
new line.RML10074390 bus1=BBT145193612.1.2.0,bus2=RML1060074390.1.2.0,Phases=2,Linecode=CABBTG05_4_2,Length=0.017000000,Units=km
new line.RML10074400 bus1=BBT2049339.1.2.0,bus2=RML1060074400.1.2.0,Phases=2,Linecode=CABBTG05_4_2,Length=0.017000000,Units=km
new line.RML10074656 bus1=BBT5242375.1.2.0,bus2=RML1060074656.1.2.0,Phases=2,Linecode=CABBTG05_4_2,Length=0.017000000,Units=km
new line.RML10074682 bus1=BBT1594451.1.2.0,bus2=RML1060074682.1.2.0,Phases=2,Linecode=CABBTG05_4_2,Length=0.017000000,Units=km
new line.RML10074684 bus1=BBT5242382.1.2.0,bus2=RML1060074684.1.2.0,Phases=2,Linecode=CABBTG05_4_2,Length=0.017000000,Units=km
new line.RML10075788 bus1=BBT2906202.1.0,bus2=RML1060075788.1.0,Phases=1,Linecode=CABBTG01_4_1,Length=0.030000000,Units=km
new line.RML10075844 bus1=BBT2294878.2.0,bus2=RML1060075844.2.0,Phases=1,Linecode=CABBTG01_4_1,Length=0.030000000,Units=km
new line.RML10075933 bus1=BBT5242375.2.0,bus2=RML1060075933.2.0,Phases=1,Linecode=CABBTG02_4_1,Length=0.014000000,Units=km
new line.RML10076300 bus1=BBT1542007.3.0,bus2=RML1060076300.3.0,Phases=1,Linecode=CABBTG01_4_1,Length=0.010000000,Units=km
new line.RML10076526 bus1=BBT1922247.2.0,bus2=RML1060076526.2.0,Phases=1,Linecode=CABBTG02_4_1,Length=0.030000000,Units=km
new line.RML10076654 bus1=BBT148367095.1.0,bus2=RML1060076654.1.0,Phases=1,Linecode=CABBTG01_4_1,Length=0.022000000,Units=km
new line.RML10076672 bus1=BBT148367096.1.0,bus2=RML1060076672.1.0,Phases=1,Linecode=CABBTG02_4_1,Length=0.010000000,Units=km
new line.RML10076760 bus1=BBT1541748.1.2.0,bus2=RML1060076760.1.2.0,Phases=2,Linecode=CABBTG05_4_2,Length=0.020000000,Units=km
new line.RML10077647 bus1=BBT148367095.3.0,bus2=RML1060077647.3.0,Phases=1,Linecode=CABBTG01_4_1,Length=0.022000000,Units=km
new line.RML10079340 bus1=BBT148063993.1.2.0,bus2=RML1060079340.1.2.0,Phases=2,Linecode=CABBTG05_4_2,Length=0.012000000,Units=km
new line.RML10079523 bus1=BBT2404911.1.2.0,bus2=RML1060079523.1.2.0,Phases=2,Linecode=CABBTG05_4_2,Length=0.009000000,Units=km
new line.RML10079864 bus1=BBT2184614.1.2.0,bus2=RML1060079864.1.2.0,Phases=2,Linecode=CABBTG05_4_2,Length=0.017000000,Units=km
new line.RML10079990 bus1=BBT1564071.1.2.0,bus2=RML1060079990.1.2.0,Phases=2,Linecode=CABBTG05_4_2,Length=0.017000000,Units=km
new line.RML10080345 bus1=BBT2578630.1.0,bus2=RML1060080345.1.0,Phases=1,Linecode=CABBTG01_4_1,Length=0.016000000,Units=km
new line.RML10080408 bus1=BBT2251072.1.2.0,bus2=RML1060080408.1.2.0,Phases=2,Linecode=CABBTG05_4_2,Length=0.017000000,Units=km
new line.RML10080413 bus1=BBT2080734.1.2.0,bus2=RML1060080413.1.2.0,Phases=2,Linecode=CABBTG05_4_2,Length=0.017000000,Units=km
new line.RML10080709 bus1=BBT1541608.2.3.0,bus2=RML1060080709.2.3.0,Phases=2,Linecode=CABBTG05_4_2,Length=0.020000000,Units=km
new line.RML10091241 bus1=BBT2576733.3.0,bus2=RML1060091241.3.0,Phases=1,Linecode=CABBTG01_4_1,Length=0.017000000,Units=km
new line.RML10091880 bus1=BBT1542070.2.3.0,bus2=RML1060091880.2.3.0,Phases=2,Linecode=CABBTG05_4_2,Length=0.017000000,Units=km
new line.RML10091915 bus1=BBT2840395.2.0,bus2=RML1060091915.2.0,Phases=1,Linecode=CABBTG02_4_1,Length=0.013000000,Units=km
new line.RML10098466 bus1=BBT2295732.1.0,bus2=RML1060098466.1.0,Phases=1,Linecode=CABBTG01_4_1,Length=0.017000000,Units=km
new line.RML10098759 bus1=BBT1542378.1.2.0,bus2=RML1060098759.1.2.0,Phases=2,Linecode=CABBTG05_4_2,Length=0.017000000,Units=km
new line.RML10098761 bus1=BBT1541307.1.2.0,bus2=RML1060098761.1.2.0,Phases=2,Linecode=CABBTG05_4_2,Length=0.017000000,Units=km
new line.RML10099284 bus1=BBT1541531.1.2.0,bus2=RML1060099284.1.2.0,Phases=2,Linecode=CABBTG04_4_2,Length=0.017000000,Units=km
new line.RML10099494 bus1=BBT2577664.1.2.0,bus2=RML1060099494.1.2.0,Phases=2,Linecode=CABBTG05_4_2,Length=0.017000000,Units=km
new line.RML10099736 bus1=BBT2565358.1.2.0,bus2=RML1060099736.1.2.0,Phases=2,Linecode=CABBTG04_4_2,Length=0.017000000,Units=km
new line.RML10099845 bus1=BBT1541531.1.2.3.0,bus2=RML1060099845.1.2.3.0,Phases=3,Linecode=CABBTG06_4_3,Length=0.017000000,Units=km
new line.RML10100103 bus1=BBT2565211.1.3.0,bus2=RML1060100103.1.3.0,Phases=2,Linecode=CABBTG05_4_2,Length=0.017000000,Units=km
new line.RML10100248 bus1=BBT2840381.1.2.0,bus2=RML1060100248.1.2.0,Phases=2,Linecode=CABBTG05_4_2,Length=0.017000000,Units=km
new line.RML10100301 bus1=BBT1647833.1.2.0,bus2=RML1060100301.1.2.0,Phases=2,Linecode=CABBTG05_4_2,Length=0.017000000,Units=km
new line.RML10100435 bus1=BBT2578546.1.2.0,bus2=RML1060100435.1.2.0,Phases=2,Linecode=CABBTG05_4_2,Length=0.017000000,Units=km
new line.RML10100496 bus1=BBT3650288.1.2.0,bus2=RML1060100496.1.2.0,Phases=2,Linecode=CABBTG05_4_2,Length=0.017000000,Units=km
new line.RML10100559 bus1=BBT1966109.1.2.0,bus2=RML1060100559.1.2.0,Phases=2,Linecode=CABBTG05_4_2,Length=0.017000000,Units=km
new line.RML10100583 bus1=BBT1966109.1.2.0,bus2=RML1060100583.1.2.0,Phases=2,Linecode=CABBTG05_4_2,Length=0.017000000,Units=km
new line.RML10100715 bus1=BBT1922583.1.2.0,bus2=RML1060100715.1.2.0,Phases=2,Linecode=CABBTG05_4_2,Length=0.017000000,Units=km
new line.RML10100824 bus1=BBT3916330.1.2.0,bus2=RML1060100824.1.2.0,Phases=2,Linecode=CABBTG05_4_2,Length=0.017000000,Units=km
new line.RML10101015 bus1=BBT148367095.1.2.0,bus2=RML1060101015.1.2.0,Phases=2,Linecode=CABBTG05_4_2,Length=0.017000000,Units=km
new line.RML10101109 bus1=BBT1922443.1.2.0,bus2=RML1060101109.1.2.0,Phases=2,Linecode=CABBTG05_4_2,Length=0.017000000,Units=km
new line.RML10101229 bus1=BBT1541503.1.2.0,bus2=RML1060101229.1.2.0,Phases=2,Linecode=CABBTG05_4_2,Length=0.017000000,Units=km
new line.RML10101603 bus1=BBT1921925.1.2.3.0,bus2=RML1060101603.1.2.3.0,Phases=3,Linecode=CABBTG06_4_3,Length=0.017000000,Units=km
new line.RML10101628 bus1=BBT1651277.1.2.0,bus2=RML1060101628.1.2.0,Phases=2,Linecode=CABBTG05_4_2,Length=0.017000000,Units=km
new line.RML10101763 bus1=BBT1543253.1.2.0,bus2=RML1060101763.1.2.0,Phases=2,Linecode=CABBTG05_4_2,Length=0.017000000,Units=km
new line.RML10101992 bus1=BBT2410917.1.2.0,bus2=RML1060101992.1.2.0,Phases=2,Linecode=CABBTG05_4_2,Length=0.017000000,Units=km
new line.RML10102233 bus1=BBT2576845.1.2.3.0,bus2=RML1060102233.1.2.3.0,Phases=3,Linecode=CABBTG06_4_3,Length=0.017000000,Units=km
new line.RML10102257 bus1=BBT2576887.1.2.0,bus2=RML1060102257.1.2.0,Phases=2,Linecode=CABBTG05_4_2,Length=0.017000000,Units=km
new line.RML10102262 bus1=BBT2840332.1.2.0,bus2=RML1060102262.1.2.0,Phases=2,Linecode=CABBTG05_4_2,Length=0.017000000,Units=km
new line.RML10102266 bus1=BBT1923374.1.2.0,bus2=RML1060102266.1.2.0,Phases=2,Linecode=CABBTG05_4_2,Length=0.017000000,Units=km
new line.RML10102275 bus1=BBT141835418.1.2.0,bus2=RML1060102275.1.2.0,Phases=2,Linecode=CABBTG05_4_2,Length=0.017000000,Units=km
new line.RML10102326 bus1=BBT2411603.1.2.0,bus2=RML1060102326.1.2.0,Phases=2,Linecode=CABBTG05_4_2,Length=0.017000000,Units=km
new line.RML10102411 bus1=BBT1647763.1.2.0,bus2=RML1060102411.1.2.0,Phases=2,Linecode=CABBTG05_4_2,Length=0.017000000,Units=km
new line.RML10102414 bus1=BBT1541048.1.2.0,bus2=RML1060102414.1.2.0,Phases=2,Linecode=CABBTG05_4_2,Length=0.017000000,Units=km
new line.RML10102458 bus1=BBT2845463.1.2.0,bus2=RML1060102458.1.2.0,Phases=2,Linecode=CABBTG05_4_2,Length=0.017000000,Units=km
new line.RML10102683 bus1=BBT2906181.1.2.0,bus2=RML1060102683.1.2.0,Phases=2,Linecode=CABBTG05_4_2,Length=0.017000000,Units=km
new line.RML10102790 bus1=BBT1922023.1.2.3.0,bus2=RML1060102790.1.2.3.0,Phases=3,Linecode=CABBTG06_4_3,Length=0.017000000,Units=km
new line.RML10102946 bus1=BBT1922030.1.2.0,bus2=RML1060102946.1.2.0,Phases=2,Linecode=CABBTG05_4_2,Length=0.017000000,Units=km
new line.RML10103659 bus1=BBT2576726.1.2.0,bus2=RML1060103659.1.2.0,Phases=2,Linecode=CABBTG05_4_2,Length=0.017000000,Units=km
new line.RML10103944 bus1=BBT1922457.1.2.0,bus2=RML1060103944.1.2.0,Phases=2,Linecode=CABBTG05_4_2,Length=0.017000000,Units=km
new line.RML10104305 bus1=BBT1921897.1.2.0,bus2=RML1060104305.1.2.0,Phases=2,Linecode=CABBTG05_4_2,Length=0.017000000,Units=km
new line.RML10104368 bus1=BBT2578413.1.2.0,bus2=RML1060104368.1.2.0,Phases=2,Linecode=CABBTG05_4_2,Length=0.017000000,Units=km
new line.RML10104372 bus1=BBT1542805.1.2.0,bus2=RML1060104372.1.2.0,Phases=2,Linecode=CABBTG05_4_2,Length=0.017000000,Units=km
new line.RML10104661 bus1=BBT3035646.1.2.0,bus2=RML1060104661.1.2.0,Phases=2,Linecode=CABBTG05_4_2,Length=0.017000000,Units=km
new line.RML10104785 bus1=BBT1442313.1.2.0,bus2=RML1060104785.1.2.0,Phases=2,Linecode=CABBTG05_4_2,Length=0.017000000,Units=km
new line.RML10104866 bus1=BBT138089907.1.2.3.0,bus2=RML1060104866.1.2.3.0,Phases=3,Linecode=CABBTG06_4_3,Length=0.017000000,Units=km
new line.RML10105011 bus1=BBT134772012.1.2.0,bus2=RML1060105011.1.2.0,Phases=2,Linecode=CABBTG05_4_2,Length=0.017000000,Units=km
new line.RML10105104 bus1=BBT133692745.1.2.0,bus2=RML1060105104.1.2.0,Phases=2,Linecode=CABBTG05_4_2,Length=0.017000000,Units=km
new line.RML10105125 bus1=BBT141834970.1.0,bus2=RML1060105125.1.0,Phases=1,Linecode=CABBTG02_4_1,Length=0.017000000,Units=km
new line.RML10105235 bus1=BBT1969119.1.2.0,bus2=RML1060105235.1.2.0,Phases=2,Linecode=CABBTG05_4_2,Length=0.017000000,Units=km
new line.RML10105309 bus1=BBT1572037.1.2.0,bus2=RML1060105309.1.2.0,Phases=2,Linecode=CABBTG05_4_2,Length=0.017000000,Units=km
new line.RML10105563 bus1=BBT144098224.1.2.0,bus2=RML1060105563.1.2.0,Phases=2,Linecode=CABBTG05_4_2,Length=0.017000000,Units=km
new line.RML10105645 bus1=BBT140542686.1.2.0,bus2=RML1060105645.1.2.0,Phases=2,Linecode=CABBTG05_4_2,Length=0.017000000,Units=km
new line.RML10105657 bus1=BBT129705951.1.2.0,bus2=RML1060105657.1.2.0,Phases=2,Linecode=CABBTG05_4_2,Length=0.017000000,Units=km
new line.RML10105716 bus1=BBT148180836.1.2.0,bus2=RML1060105716.1.2.0,Phases=2,Linecode=CABBTG05_4_2,Length=0.017000000,Units=km
new line.RML10105719 bus1=BBT146328893.1.2.0,bus2=RML1060105719.1.2.0,Phases=2,Linecode=CABBTG05_4_2,Length=0.019000000,Units=km
new line.RML10105722 bus1=BBT146792188.1.0,bus2=RML1060105722.1.0,Phases=1,Linecode=CABBTG02_4_1,Length=0.017000000,Units=km
new line.RML10105776 bus1=BBT5242382.1.2.0,bus2=RML1060105776.1.2.0,Phases=2,Linecode=CABBTG05_4_2,Length=0.017000000,Units=km
new line.RML10105789 bus1=BBT148309693.1.2.0,bus2=RML1060105789.1.2.0,Phases=2,Linecode=CABBTG05_4_2,Length=0.017000000,Units=km
new line.RML10106004 bus1=BBT149035286.1.2.3.0,bus2=RML1060106004.1.2.3.0,Phases=3,Linecode=CABBTG07_4_3,Length=0.017000000,Units=km
new line.RML10107605 bus1=BBT2906251.1.0,bus2=RML1060107605.1.0,Phases=1,Linecode=CABBTG02_4_1,Length=0.009000000,Units=km
new line.RML10107698 bus1=BBT5242333.2.0,bus2=RML1060107698.2.0,Phases=1,Linecode=CABBTG02_4_1,Length=0.010000000,Units=km
new line.RML10107776 bus1=BBT2294507.2.0,bus2=RML1060107776.2.0,Phases=1,Linecode=CABBTG01_4_1,Length=0.010000000,Units=km
new line.RML10111716 bus1=BBT1923304.1.2.0,bus2=RML1060111716.1.2.0,Phases=2,Linecode=CABBTG05_4_2,Length=0.017000000,Units=km
new line.RML10114416 bus1=BBT1647182.1.0,bus2=RML1060114416.1.0,Phases=1,Linecode=CABBTG02_4_1,Length=0.012000000,Units=km
new line.RML10114705 bus1=BBT141835033.1.0,bus2=RML1060114705.1.0,Phases=1,Linecode=CABBTG01_4_1,Length=0.015000000,Units=km
new line.RML10114707 bus1=BBT2305490.1.0,bus2=RML1060114707.1.0,Phases=1,Linecode=CABBTG01_4_1,Length=0.030000000,Units=km
new line.RML10115360 bus1=BBT5242298.1.0,bus2=RML1060115360.1.0,Phases=1,Linecode=CABBTG01_4_1,Length=0.012000000,Units=km
new line.RML10120231 bus1=BBT1541531.3.0,bus2=RML1060120231.3.0,Phases=1,Linecode=CABBTG02_4_1,Length=0.026000000,Units=km
new line.RML10120505 bus1=BBT1647833.2.0,bus2=RML1060120505.2.0,Phases=1,Linecode=CABBTG02_4_1,Length=0.016000000,Units=km
new line.RML10120514 bus1=BBT2295690.1.0,bus2=RML1060120514.1.0,Phases=1,Linecode=CABBTG02_4_1,Length=0.012000000,Units=km
new line.RML10120536 bus1=BBT2578637.1.0,bus2=RML1060120536.1.0,Phases=1,Linecode=CABBTG02_4_1,Length=0.018000000,Units=km
new line.RML10122763 bus1=BBT141834963.3.0,bus2=RML1060122763.3.0,Phases=1,Linecode=CABBTG02_4_1,Length=0.017000000,Units=km
new line.RML10129182 bus1=BBT2840402.1.0,bus2=RML1060129182.1.0,Phases=1,Linecode=CABBTG01_4_1,Length=0.017000000,Units=km
new line.RML10134488 bus1=BBT2062359.1.2.0,bus2=RML1060134488.1.2.0,Phases=2,Linecode=CABBTG05_4_2,Length=0.017000000,Units=km
new line.RML10138993 bus1=BBT141835033.1.0,bus2=RML1060138993.1.0,Phases=1,Linecode=CABBTG02_4_1,Length=0.017000000,Units=km
new line.RML10139023 bus1=BBT2576866.1.0,bus2=RML1060139023.1.0,Phases=1,Linecode=CABBTG02_4_1,Length=0.017000000,Units=km
new line.RML10139029 bus1=BBT2764459.1.2.3.0,bus2=RML1060139029.1.2.3.0,Phases=3,Linecode=CABBTG06_4_3,Length=0.017000000,Units=km
new line.RML10139425 bus1=BBT1570679.1.0,bus2=RML1060139425.1.0,Phases=1,Linecode=CABBTG02_4_1,Length=0.017000000,Units=km
new line.RML10139822 bus1=BBT1923353.1.2.0,bus2=RML1060139822.1.2.0,Phases=2,Linecode=CABBTG05_4_2,Length=0.017000000,Units=km
new line.RML10140038 bus1=BBT5242375.1.0,bus2=RML1060140038.1.0,Phases=1,Linecode=CABBTG02_4_1,Length=0.017000000,Units=km
new line.RML10141686 bus1=BBT2565106.1.0,bus2=RML1060141686.1.0,Phases=1,Linecode=CABBTG02_4_1,Length=0.017000000,Units=km
new line.RML10141983 bus1=BBT2213293.1.2.0,bus2=RML1060141983.1.2.0,Phases=2,Linecode=CABBTG05_4_2,Length=0.017000000,Units=km
new line.RML10158196 bus1=BBT1542987.1.3.0,bus2=RML1060158196.1.3.0,Phases=2,Linecode=CABBTG05_4_2,Length=0.010000000,Units=km
new line.RML10158530 bus1=BBT11675202.2.0,bus2=RML1060158530.2.0,Phases=1,Linecode=CABBTG02_4_1,Length=0.027000000,Units=km
new line.RML10160295 bus1=BBT149125784.1.2.3.0,bus2=RML1060160295.1.2.3.0,Phases=3,Linecode=CABBTG12_4_3,Length=0.017000000,Units=km
new line.RML10162790 bus1=BBT2060455.1.2.0,bus2=RML1060162790.1.2.0,Phases=2,Linecode=CABBTG05_4_2,Length=0.017000000,Units=km
new line.RML10164226 bus1=BBT148367095.1.2.0,bus2=RML1060164226.1.2.0,Phases=2,Linecode=CABBTG05_4_2,Length=0.017000000,Units=km
new line.RML10164409 bus1=BBT135010278.1.2.0,bus2=RML1060164409.1.2.0,Phases=2,Linecode=CABBTG04_4_2,Length=0.017000000,Units=km
new line.RML10171164 bus1=BBT149722059.1.0,bus2=RML1060171164.1.0,Phases=1,Linecode=CABBTG02_4_1,Length=0.017000000,Units=km
new line.RML10171187 bus1=BBT1655729.1.2.0,bus2=RML1060171187.1.2.0,Phases=2,Linecode=CABBTG05_4_2,Length=0.017000000,Units=km
new line.RML10171953 bus1=BBT2551106.1.0,bus2=RML1060171953.1.0,Phases=1,Linecode=CABBTG02_4_1,Length=0.017000000,Units=km
new line.RML10172117 bus1=BBT2049199.1.2.0,bus2=RML1060172117.1.2.0,Phases=2,Linecode=CABBTG05_4_2,Length=0.017000000,Units=km
new line.RML10172187 bus1=BBT1571407.1.0,bus2=RML1060172187.1.0,Phases=1,Linecode=CABBTG02_4_1,Length=0.017000000,Units=km
new line.RML10172283 bus1=BBT149013042.2.0,bus2=RML1060172283.2.0,Phases=1,Linecode=CABBTG02_4_1,Length=0.017000000,Units=km
new line.RML10172290 bus1=BBT1958059.1.2.0,bus2=RML1060172290.1.2.0,Phases=2,Linecode=CABBTG05_4_2,Length=0.017000000,Units=km
new line.RML10173652 bus1=BBT2295760.1.0,bus2=RML1060173652.1.0,Phases=1,Linecode=CABBTG02_4_1,Length=0.017000000,Units=km
new line.RML10174597 bus1=BBT1512635.1.2.0,bus2=RML1060174597.1.2.0,Phases=2,Linecode=CABBTG05_4_2,Length=0.017000000,Units=km
new line.RML10186141 bus1=BBT1647630.1.2.3.0,bus2=RML1060186141.1.2.3.0,Phases=3,Linecode=CABBTG06_4_3,Length=0.017000000,Units=km
new line.RML10193828 bus1=BBT2294612.1.2.0,bus2=RML1060193828.1.2.0,Phases=2,Linecode=CABBTG05_4_2,Length=0.017000000,Units=km
new line.RML10194165 bus1=BBT1922520.1.0,bus2=RML1060194165.1.0,Phases=1,Linecode=CABBTG02_4_1,Length=0.017000000,Units=km
new line.RML10194277 bus1=BBT1651179.3.0,bus2=RML1060194277.3.0,Phases=1,Linecode=CABBTG02_4_1,Length=0.017000000,Units=km
new line.RML10194279 bus1=BBT141834977.2.0,bus2=RML1060194279.2.0,Phases=1,Linecode=CABBTG02_4_1,Length=0.017000000,Units=km
new line.RML10194285 bus1=BBT1922443.1.3.0,bus2=RML1060194285.1.3.0,Phases=2,Linecode=CABBTG05_4_2,Length=0.017000000,Units=km
new line.RML10194287 bus1=BBT1922114.1.2.0,bus2=RML1060194287.1.2.0,Phases=2,Linecode=CABBTG05_4_2,Length=0.017000000,Units=km
new line.RML10197349 bus1=BBT1541755.2.3.0,bus2=RML1060197349.2.3.0,Phases=2,Linecode=CABBTG05_4_2,Length=0.010000000,Units=km
new line.RML10197377 bus1=BBT2294759.1.2.0,bus2=RML1060197377.1.2.0,Phases=2,Linecode=CABBTG05_4_2,Length=0.017000000,Units=km
new line.RML10197460 bus1=BBT1621527.2.0,bus2=RML1060197460.2.0,Phases=1,Linecode=CABBTG02_4_1,Length=0.017000000,Units=km
new line.RML10201186 bus1=BBT1922520.2.3.0,bus2=RML1060201186.2.3.0,Phases=2,Linecode=CABBTG05_4_2,Length=0.017000000,Units=km
new line.RML10205550 bus1=BBT1973473.1.0,bus2=RML1060205550.1.0,Phases=1,Linecode=CABBTG02_4_1,Length=0.017000000,Units=km
new line.RML10205799 bus1=BBT2449403.1.0,bus2=RML1060205799.1.0,Phases=1,Linecode=CABBTG02_4_1,Length=0.017000000,Units=km
new line.RML10205802 bus1=BBT2576747.1.0,bus2=RML1060205802.1.0,Phases=1,Linecode=CABBTG02_4_1,Length=0.017000000,Units=km
new line.RML10208768 bus1=BBT115313748.2.0,bus2=RML1060208768.2.0,Phases=1,Linecode=CABBTG02_4_1,Length=0.017000000,Units=km
new line.RML10208937 bus1=BBT2578413.1.0,bus2=RML1060208937.1.0,Phases=1,Linecode=CABBTG02_4_1,Length=0.017000000,Units=km
new line.RML10209451 bus1=BBT139356872.1.2.0,bus2=RML1060209451.1.2.0,Phases=2,Linecode=CABBTG05_4_2,Length=0.017000000,Units=km
new line.RML10235215 bus1=BBT151013058.1.0,bus2=RML1060235215.1.0,Phases=1,Linecode=CABBTG02_4_1,Length=0.017000000,Units=km
new line.RML10254149 bus1=BBT1923332.1.0,bus2=RML1060254149.1.0,Phases=1,Linecode=CABBTG02_4_1,Length=0.017000000,Units=km
new line.RML10264194 bus1=BBT1922226.1.2.0,bus2=RML1060264194.1.2.0,Phases=2,Linecode=CABBTG05_4_2,Length=0.017000000,Units=km
new line.RML10264203 bus1=BBT137109333.1.0,bus2=RML1060264203.1.0,Phases=1,Linecode=CABBTG02_4_1,Length=0.017000000,Units=km
new line.RML10264208 bus1=BBT1592204.1.0,bus2=RML1060264208.1.0,Phases=1,Linecode=CABBTG02_4_1,Length=0.017000000,Units=km
new line.RML10264218 bus1=BBT3078255.1.2.0,bus2=RML1060264218.1.2.0,Phases=2,Linecode=CABBTG05_4_2,Length=0.017000000,Units=km
new line.RML10264455 bus1=BBT2578273.1.0,bus2=RML1060264455.1.0,Phases=1,Linecode=CABBTG02_4_1,Length=0.017000000,Units=km
new line.RML10264539 bus1=BBT2578364.1.2.0,bus2=RML1060264539.1.2.0,Phases=2,Linecode=CABBTG05_4_2,Length=0.017000000,Units=km
new line.RML10264569 bus1=BBT2449396.1.0,bus2=RML1060264569.1.0,Phases=1,Linecode=CABBTG02_4_1,Length=0.017000000,Units=km
new line.RML10264734 bus1=BBT1922520.1.0,bus2=RML1060264734.1.0,Phases=1,Linecode=CABBTG02_4_1,Length=0.017000000,Units=km
new line.RML10264744 bus1=BBT2294612.1.0,bus2=RML1060264744.1.0,Phases=1,Linecode=CABBTG02_4_1,Length=0.017000000,Units=km
new line.RML10264874 bus1=BBT150364209.1.2.0,bus2=RML1060264874.1.2.0,Phases=2,Linecode=CABBTG05_4_2,Length=0.017000000,Units=km
new line.RML10264888 bus1=BBT1922555.1.2.0,bus2=RML1060264888.1.2.0,Phases=2,Linecode=CABBTG05_4_2,Length=0.017000000,Units=km
new line.RML10265110 bus1=BBT5242298.1.0,bus2=RML1060265110.1.0,Phases=1,Linecode=CABBTG02_4_1,Length=0.017000000,Units=km
new line.RML10265117 bus1=BBT5242298.1.2.0,bus2=RML1060265117.1.2.0,Phases=2,Linecode=CABBTG05_4_2,Length=0.017000000,Units=km
new line.RML10265164 bus1=BBT2294451.3.0,bus2=RML1060265164.3.0,Phases=1,Linecode=CABBTG02_4_1,Length=0.016000000,Units=km
new line.RML10265179 bus1=BBT2840402.1.2.0,bus2=RML1060265179.1.2.0,Phases=2,Linecode=CABBTG05_4_2,Length=0.017000000,Units=km
new line.RML10265220 bus1=BBT151173989.1.2.3.0,bus2=RML1060265220.1.2.3.0,Phases=3,Linecode=CABBTG08_4_3,Length=0.017000000,Units=km
new line.RML10271606 bus1=BBT3384547.1.2.3.0,bus2=RML1060271606.1.2.3.0,Phases=3,Linecode=CABBTG06_4_3,Length=0.017000000,Units=km
new line.RML10272052 bus1=BBT1543442.2.3.0,bus2=RML1060272052.2.3.0,Phases=2,Linecode=CABBTG05_4_2,Length=0.017000000,Units=km
new line.RML10294028 bus1=BBT1923353.1.2.0,bus2=RML1060294028.1.2.0,Phases=2,Linecode=CABBTG05_4_2,Length=0.017000000,Units=km
new line.RML10294266 bus1=BBT2294878.1.0,bus2=RML1060294266.1.0,Phases=1,Linecode=CABBTG02_4_1,Length=0.017000000,Units=km
new line.RML10302804 bus1=BBT2840332.1.0,bus2=RML1060302804.1.0,Phases=1,Linecode=CABBTG02_4_1,Length=0.017000000,Units=km
new line.RML10302875 bus1=BBT2578224.1.0,bus2=RML1060302875.1.0,Phases=1,Linecode=CABBTG02_4_1,Length=0.017000000,Units=km
new line.RML10302894 bus1=BBT1956274.1.2.0,bus2=RML1060302894.1.2.0,Phases=2,Linecode=CABBTG05_4_2,Length=0.017000000,Units=km
new line.RML10303179 bus1=BBT135051207.1.2.0,bus2=RML1060303179.1.2.0,Phases=2,Linecode=CABBTG05_4_2,Length=0.017000000,Units=km
new line.RML10304909 bus1=BBT2840416.1.0,bus2=RML1060304909.1.0,Phases=1,Linecode=CABBTG02_4_1,Length=0.017000000,Units=km
new line.RML10305236 bus1=BBT2404876.1.0,bus2=RML1060305236.1.0,Phases=1,Linecode=CABBTG02_4_1,Length=0.017000000,Units=km
new line.RML10305237 bus1=BBT2295235.2.3.0,bus2=RML1060305237.2.3.0,Phases=2,Linecode=CABBTG05_4_2,Length=0.017000000,Units=km
new line.RML10305239 bus1=BBT2576733.3.0,bus2=RML1060305239.3.0,Phases=1,Linecode=CABBTG02_4_1,Length=0.017000000,Units=km
new line.RML10305262 bus1=BBT3078262.1.0,bus2=RML1060305262.1.0,Phases=1,Linecode=CABBTG02_4_1,Length=0.017000000,Units=km
new line.RML10305316 bus1=BBT1618391.1.2.0,bus2=RML1060305316.1.2.0,Phases=2,Linecode=CABBTG05_4_2,Length=0.017000000,Units=km
new line.RML10305521 bus1=BBT5306033.1.0,bus2=RML1060305521.1.0,Phases=1,Linecode=CABBTG02_4_1,Length=0.017000000,Units=km
new line.RML10305554 bus1=BBT2578385.1.0,bus2=RML1060305554.1.0,Phases=1,Linecode=CABBTG02_4_1,Length=0.017000000,Units=km
new line.RML10305620 bus1=BBT1921904.1.0,bus2=RML1060305620.1.0,Phases=1,Linecode=CABBTG02_4_1,Length=0.017000000,Units=km
new line.RML10307169 bus1=BBT1650521.1.2.0,bus2=RML1060307169.1.2.0,Phases=2,Linecode=CABBTG05_4_2,Length=0.017000000,Units=km
new line.RML10326100 bus1=BBT141834970.2.0,bus2=RML1060326100.2.0,Phases=1,Linecode=CABBTG02_4_1,Length=0.017000000,Units=km
new line.RML10327633 bus1=BBT1921890.2.3.0,bus2=RML1060327633.2.3.0,Phases=2,Linecode=CABBTG05_4_2,Length=0.017000000,Units=km
new line.RML10327689 bus1=BBT1542805.1.2.3.0,bus2=RML1060327689.1.2.3.0,Phases=3,Linecode=CABBTG06_4_3,Length=0.017000000,Units=km
new line.RML10327789 bus1=BBT152275743.1.0,bus2=RML1060327789.1.0,Phases=1,Linecode=CABBTG02_4_1,Length=0.020000000,Units=km
new line.RML10327790 bus1=BBT152275743.1.0,bus2=RML1060327790.1.0,Phases=1,Linecode=CABBTG02_4_1,Length=0.020000000,Units=km
new line.RML10327791 bus1=BBT152275743.1.0,bus2=RML1060327791.1.0,Phases=1,Linecode=CABBTG02_4_1,Length=0.020000000,Units=km
new line.RML10327792 bus1=BBT152275743.1.0,bus2=RML1060327792.1.0,Phases=1,Linecode=CABBTG02_4_1,Length=0.020000000,Units=km
new line.RML10327793 bus1=BBT152275743.1.0,bus2=RML1060327793.1.0,Phases=1,Linecode=CABBTG02_4_1,Length=0.020000000,Units=km
new line.RML10328101 bus1=BBT2576887.1.2.3.0,bus2=RML1060328101.1.2.3.0,Phases=3,Linecode=CABBTG06_4_3,Length=0.017000000,Units=km
new line.RML10328116 bus1=BBT149013042.1.0,bus2=RML1060328116.1.0,Phases=1,Linecode=CABBTG02_4_1,Length=0.017000000,Units=km
new line.RML10328122 bus1=BBT2404939.1.2.0,bus2=RML1060328122.1.2.0,Phases=2,Linecode=CABBTG05_4_2,Length=0.017000000,Units=km
new line.RML10328123 bus1=BBT141834970.1.0,bus2=RML1060328123.1.0,Phases=1,Linecode=CABBTG02_4_1,Length=0.017000000,Units=km
new line.RML10332430 bus1=BBT130414582.2.3.0,bus2=RML1060332430.2.3.0,Phases=2,Linecode=CABBTG05_4_2,Length=0.017000000,Units=km
new line.RML10334418 bus1=BBT3460826.2.0,bus2=RML1060334418.2.0,Phases=1,Linecode=CABBTG02_4_1,Length=0.017000000,Units=km
new line.RML10334423 bus1=BBT1647819.2.0,bus2=RML1060334423.2.0,Phases=1,Linecode=CABBTG02_4_1,Length=0.017000000,Units=km
new line.RML10334497 bus1=BBT2294472.2.0,bus2=RML1060334497.2.0,Phases=1,Linecode=CABBTG02_4_1,Length=0.017000000,Units=km
new line.RML10338534 bus1=BBT2578630.1.0,bus2=RML1060338534.1.0,Phases=1,Linecode=CABBTG02_4_1,Length=0.017000000,Units=km
new line.RML10338662 bus1=BBT1542252.1.2.3.0,bus2=RML1060338662.1.2.3.0,Phases=3,Linecode=CABBTG06_4_3,Length=0.017000000,Units=km
new line.RML10347615 bus1=BBT1541566.1.3.0,bus2=RML1060347615.1.3.0,Phases=2,Linecode=CABBTG05_4_2,Length=0.017000000,Units=km
new line.RML10347659 bus1=BBT2565379.1.2.0,bus2=RML1060347659.1.2.0,Phases=2,Linecode=CABBTG05_4_2,Length=0.017000000,Units=km
new line.RML10347710 bus1=BBT141834970.1.0,bus2=RML1060347710.1.0,Phases=1,Linecode=CABBTG02_4_1,Length=0.017000000,Units=km
new line.RML10347713 bus1=BBT1541615.1.2.3.0,bus2=RML1060347713.1.2.3.0,Phases=3,Linecode=CABBTG06_4_3,Length=0.017000000,Units=km
new line.RML10347742 bus1=BBT1542364.1.2.3.0,bus2=RML1060347742.1.2.3.0,Phases=3,Linecode=CABBTG06_4_3,Length=0.017000000,Units=km
new line.RML10355130 bus1=BBT157971492.1.2.0,bus2=RML1060355130.1.2.0,Phases=2,Linecode=CABBTG05_4_2,Length=0.017000000,Units=km
new line.RML10356991 bus1=BBT5887558.1.0,bus2=RML1060356991.1.0,Phases=1,Linecode=CABBTG02_4_1,Length=0.030000000,Units=km
new line.RML10362633 bus1=BBT1512628.1.2.0,bus2=RML1060362633.1.2.0,Phases=2,Linecode=CABBTG05_4_2,Length=0.017000000,Units=km
new line.RML10364983 bus1=BBT1922443.1.0,bus2=RML1060364983.1.0,Phases=1,Linecode=CABBTG02_4_1,Length=0.017000000,Units=km
new line.RML10365371 bus1=BBT152275810.1.0,bus2=RML1060365371.1.0,Phases=1,Linecode=CABBTG02_4_1,Length=0.020000000,Units=km
new line.RML10365395 bus1=BBT152107226.2.0,bus2=RML1060365395.2.0,Phases=1,Linecode=CABBTG02_4_1,Length=0.017000000,Units=km
new line.RML10365417 bus1=BBT152981091.1.2.0,bus2=RML1060365417.1.2.0,Phases=2,Linecode=CABBTG05_4_2,Length=0.017000000,Units=km
new line.RML10366364 bus1=BBT2578609.1.0,bus2=RML1060366364.1.0,Phases=1,Linecode=CABBTG02_4_1,Length=0.017000000,Units=km
new line.RML10366676 bus1=BBT1922233.1.0,bus2=RML1060366676.1.0,Phases=1,Linecode=CABBTG02_4_1,Length=0.017000000,Units=km
new line.RML10366715 bus1=BBT149248908.1.2.0,bus2=RML1060366715.1.2.0,Phases=2,Linecode=CABBTG05_4_2,Length=0.025000000,Units=km
new line.RML10367355 bus1=BBT1922023.1.2.3.0,bus2=RML1060367355.1.2.3.0,Phases=3,Linecode=CABBTG06_4_3,Length=0.017000000,Units=km
new line.RML10367546 bus1=BBT2578105.2.0,bus2=RML1060367546.2.0,Phases=1,Linecode=CABBTG02_4_1,Length=0.017000000,Units=km
new line.RML10371351 bus1=BBT2840332.1.2.0,bus2=RML1060371351.1.2.0,Phases=2,Linecode=CABBTG05_4_2,Length=0.017000000,Units=km
new line.RML10371478 bus1=BBT2576838.2.0,bus2=RML1060371478.2.0,Phases=1,Linecode=CABBTG02_4_1,Length=0.017000000,Units=km
new line.RML10371506 bus1=BBT153060282.1.2.0,bus2=RML1060371506.1.2.0,Phases=2,Linecode=CABBTG05_4_2,Length=0.017000000,Units=km
new line.RML10371684 bus1=BBT3957154.1.2.0,bus2=RML1060371684.1.2.0,Phases=2,Linecode=CABBTG05_4_2,Length=0.017000000,Units=km
new line.RML10371837 bus1=BBT152453962.1.0,bus2=RML1060371837.1.0,Phases=1,Linecode=CABBTG02_4_1,Length=0.017000000,Units=km
new line.RML10372204 bus1=BBT1922499.1.0,bus2=RML1060372204.1.0,Phases=1,Linecode=CABBTG02_4_1,Length=0.017000000,Units=km
new line.RML10372409 bus1=BBT152729014.1.2.0,bus2=RML1060372409.1.2.0,Phases=2,Linecode=CABBTG05_4_2,Length=0.017000000,Units=km
new line.RML10378413 bus1=BBT149249060.1.2.0,bus2=RML1060378413.1.2.0,Phases=2,Linecode=CABBTG05_4_2,Length=0.025000000,Units=km
new line.RML10381174 bus1=BBT1564029.1.0,bus2=RML1060381174.1.0,Phases=1,Linecode=CABBTG02_4_1,Length=0.017000000,Units=km
new line.RML10382255 bus1=BBT11675202.2.0,bus2=RML1060382255.2.0,Phases=1,Linecode=CABBTG02_4_1,Length=0.017000000,Units=km
new line.RML10382809 bus1=BBT2264176.1.2.3.0,bus2=RML1060382809.1.2.3.0,Phases=3,Linecode=CABBTG06_4_3,Length=0.017000000,Units=km
new line.RML10384324 bus1=BBT2294892.2.0,bus2=RML1060384324.2.0,Phases=1,Linecode=CABBTG02_4_1,Length=0.017000000,Units=km
new line.RML10384495 bus1=BBT1923339.1.2.0,bus2=RML1060384495.1.2.0,Phases=2,Linecode=CABBTG05_4_2,Length=0.017000000,Units=km
new line.RML10387465 bus1=BBT1588536.1.2.0,bus2=RML1060387465.1.2.0,Phases=2,Linecode=CABBTG05_4_2,Length=0.017000000,Units=km
new line.RML10387840 bus1=BBT1599358.2.0,bus2=RML1060387840.2.0,Phases=1,Linecode=CABBTG02_4_1,Length=0.017000000,Units=km
new line.RML10390022 bus1=BBT1543309.1.2.3.0,bus2=RML1060390022.1.2.3.0,Phases=3,Linecode=CABBTG06_4_3,Length=0.017000000,Units=km
new line.RML10392701 bus1=BBT1541517.2.3.0,bus2=RML1060392701.2.3.0,Phases=2,Linecode=CABBTG05_4_2,Length=0.017000000,Units=km
new line.RML10392776 bus1=BBT115313748.1.0,bus2=RML1060392776.1.0,Phases=1,Linecode=CABBTG02_4_1,Length=0.017000000,Units=km
new line.RML10394407 bus1=BBT1973473.1.3.0,bus2=RML1060394407.1.3.0,Phases=2,Linecode=CABBTG05_4_2,Length=0.017000000,Units=km