new line.CTR103185 bus1=BMT125117766.3,bus2=BMT165947844.3,Phases=1,LineCode=tieSwitch1,Length=0.001,Units=km,switch=T !numEQ 27079
new line.CTR10344 bus1=BMT125125081.1,bus2=BMT125125627.1,Phases=1,LineCode=tieSwitch1,Length=0.001,Units=km,switch=T !numEQ 130561
new line.CTR115554 bus1=BMT125125109.1.2.3,bus2=BMT172497515.1.2.3,Phases=3,LineCode=tieSwitch,Length=0.001,Units=km,switch=T !numEQ 100858
new line.CTR115743 bus1=BMT152605074.1.2.3,bus2=BMT2583621.1.2.3,Phases=3,LineCode=tieSwitch,Length=0.001,Units=km,switch=T !numEQ 27665
open line.CTR115743 term=1
new line.CTR115750 bus1=BMT125127930.1.2.3,bus2=BMT125127944.1.2.3,Phases=3,LineCode=tieSwitch,Length=0.001,Units=km,switch=T !numEQ 4005
new line.CTR115764 bus1=BMT125128112.1.2.3,bus2=BMT157398780.1.2.3,Phases=3,LineCode=tieSwitch,Length=0.001,Units=km,switch=T !numEQ 97741
new line.CTR115771 bus1=BMT125140593.1,bus2=BMT169429648.1,Phases=1,LineCode=tieSwitch1,Length=0.001,Units=km,switch=T !numEQ 99967
new line.CTR115778 bus1=BMT125140607.1.2.3,bus2=BMT125140621.1.2.3,Phases=3,LineCode=tieSwitch,Length=0.001,Units=km,switch=T !numEQ 97740
new line.CTR115785 bus1=BMT125128175.1,bus2=BMT125140509.1,Phases=1,LineCode=tieSwitch1,Length=0.001,Units=km,switch=T !numEQ 26636
new line.CTR115792 bus1=BMT125128196.1.2.3,bus2=BMT162251665.1.2.3,Phases=3,LineCode=tieSwitch,Length=0.001,Units=km,switch=T !numEQ 26017
new line.CTR115799 bus1=BMT125128630.2,bus2=BMT125139879.2,Phases=1,LineCode=tieSwitch1,Length=0.001,Units=km,switch=T !numEQ 26013
new line.CTR115813 bus1=BMT125128322.3,bus2=BMT161033926.3,Phases=1,LineCode=tieSwitch1,Length=0.001,Units=km,switch=T !numEQ 26586
new line.CTR115827 bus1=BMT125128420.1.2.3,bus2=BMT125128602.1.2.3,Phases=3,LineCode=tieSwitch,Length=0.001,Units=km,switch=T !numEQ 26039
new line.CTR115834 bus1=BMT125128658.1,bus2=BMT125139865.1,Phases=1,LineCode=tieSwitch1,Length=0.001,Units=km,switch=T !numEQ 26353
new line.CTR115883 bus1=BMT125129008.3,bus2=BMT168075965.3,Phases=1,LineCode=tieSwitch1,Length=0.001,Units=km,switch=T !numEQ 27726
new line.CTR115890 bus1=BMT125129246.1.2.3,bus2=BMT125129253.1.2.3,Phases=3,LineCode=tieSwitch,Length=0.001,Units=km,switch=T !numEQ 26202
new line.CTR115897 bus1=BMT125125907.2,bus2=BMT159797155.2,Phases=1,LineCode=tieSwitch1,Length=0.001,Units=km,switch=T !numEQ 116315
new line.CTR115911 bus1=BMT125138381.3,bus2=BMT125138759.3,Phases=1,LineCode=tieSwitch1,Length=0.001,Units=km,switch=T !numEQ 97296
new line.CTR115918 bus1=BMT125138290.1,bus2=BMT171788651.1,Phases=1,LineCode=tieSwitch1,Length=0.001,Units=km,switch=T !numEQ 97285
new line.CTR115925 bus1=BMT125128896.1.2.3,bus2=BMT125138276.1.2.3,Phases=3,LineCode=tieSwitch,Length=0.001,Units=km,switch=T !numEQ 27828
new line.CTR115932 bus1=BMT125128889.3,bus2=BMT125138262.3,Phases=1,LineCode=tieSwitch1,Length=0.001,Units=km,switch=T !numEQ 27162
new line.CTR115939 bus1=BMT125128903.1.2.3,bus2=BMT170837105.1.2.3,Phases=3,LineCode=tieSwitch,Length=0.001,Units=km,switch=T !numEQ 26023
new line.CTR115974 bus1=BMT125137023.1,bus2=BMT125137597.1,Phases=1,LineCode=tieSwitch1,Length=0.001,Units=km,switch=T !numEQ 97290
new line.CTR115981 bus1=BMT125137086.1,bus2=BMT125137429.1,Phases=1,LineCode=tieSwitch1,Length=0.001,Units=km,switch=T !numEQ 27739
new line.CTR115988 bus1=BMT125137464.1,bus2=BMT125137541.1,Phases=1,LineCode=tieSwitch1,Length=0.001,Units=km,switch=T !numEQ 27731
new line.CTR115995 bus1=BMT125137590.1,bus2=BMT1705289.1,Phases=1,LineCode=tieSwitch1,Length=0.001,Units=km,switch=T !numEQ 120501
open line.CTR115995 term=1
new line.CTR116002 bus1=BMT125137443.1,bus2=BMT125137478.1,Phases=1,LineCode=tieSwitch1,Length=0.001,Units=km,switch=T !numEQ 99850
new line.CTR116009 bus1=BMT125137142.1,bus2=BMT160617622.1,Phases=1,LineCode=tieSwitch1,Length=0.001,Units=km,switch=T !numEQ 27039
new line.CTR116023 bus1=BMT125137912.3,bus2=BMT152069814.3,Phases=1,LineCode=tieSwitch1,Length=0.001,Units=km,switch=T !numEQ 26606
new line.CTR116030 bus1=BMT125135959.3,bus2=BMT125136015.3,Phases=1,LineCode=tieSwitch1,Length=0.001,Units=km,switch=T !numEQ 97281
new line.CTR116037 bus1=BMT125129043.1.2.3,bus2=BMT165027310.1.2.3,Phases=3,LineCode=tieSwitch,Length=0.001,Units=km,switch=T !numEQ 26025
new line.CTR116044 bus1=BMT125129113.1.2.3,bus2=BMT151661483.1.2.3,Phases=3,LineCode=tieSwitch,Length=0.001,Units=km,switch=T !numEQ 26001
new line.CTR116051 bus1=BMT125129127.1,bus2=BMT125135700.1,Phases=1,LineCode=tieSwitch1,Length=0.001,Units=km,switch=T !numEQ 97706
new line.CTR116058 bus1=BMT125129274.1.2.3,bus2=BMT172070855.1.2.3,Phases=3,LineCode=tieSwitch,Length=0.001,Units=km,switch=T !numEQ 27566
new line.CTR116072 bus1=BMT125129267.1.2.3,bus2=BMT125129309.1.2.3,Phases=3,LineCode=tieSwitch,Length=0.001,Units=km,switch=T !numEQ 97707
new line.CTR116079 bus1=BMT125129295.1.2.3,bus2=BMT171423270.1.2.3,Phases=3,LineCode=tieSwitch,Length=0.001,Units=km,switch=T !numEQ 26049
new line.CTR116093 bus1=BMT125129428.1.2.3,bus2=BMT160087647.1.2.3,Phases=3,LineCode=tieSwitch,Length=0.001,Units=km,switch=T !numEQ 26660
new line.CTR116100 bus1=BMT125132760.1.2.3,bus2=BMT158585057.1.2.3,Phases=3,LineCode=tieSwitch,Length=0.001,Units=km,switch=T !numEQ 91919
new line.CTR116107 bus1=BMT125132802.1.2.3,bus2=BMT125135441.1.2.3,Phases=3,LineCode=tieSwitch,Length=0.001,Units=km,switch=T !numEQ 27406
new line.CTR116114 bus1=BMT158585066.1.2.3,bus2=BMT125132837.1.2.3,Phases=3,LineCode=tieSwitch,Length=0.001,Units=km,switch=T !numEQ 27729
new line.CTR116121 bus1=BMT125133348.1.2.3,bus2=BMT151862726.1.2.3,Phases=3,LineCode=tieSwitch,Length=0.001,Units=km,switch=T !numEQ 26609
new line.CTR116128 bus1=BMT125132949.1.2.3,bus2=BMT172790218.1.2.3,Phases=3,LineCode=tieSwitch,Length=0.001,Units=km,switch=T !numEQ 97400
new line.CTR116142 bus1=BMT125129477.1,bus2=BMT170104923.1,Phases=1,LineCode=tieSwitch1,Length=0.001,Units=km,switch=T !numEQ 27404
new line.CTR116149 bus1=BMT125130233.3,bus2=BMT146538900.3,Phases=1,LineCode=tieSwitch1,Length=0.001,Units=km,switch=T !numEQ 26588
new line.CTR116156 bus1=BMT125133705.1,bus2=BMT171746534.1,Phases=1,LineCode=tieSwitch1,Length=0.001,Units=km,switch=T !numEQ 97366
new line.CTR116177 bus1=BMT125133712.1,bus2=BMT125133789.1,Phases=1,LineCode=tieSwitch1,Length=0.001,Units=km,switch=T !numEQ 97317
new line.CTR116184 bus1=BMT125129596.1.2.3,bus2=BMT125129687.1.2.3,Phases=3,LineCode=tieSwitch,Length=0.001,Units=km,switch=T !numEQ 27466
new line.CTR116191 bus1=BMT125130254.1,bus2=BMT125130394.1,Phases=1,LineCode=tieSwitch1,Length=0.001,Units=km,switch=T !numEQ 26603
new line.CTR116205 bus1=BMT125132928.1.2.3,bus2=BMT154657191.1.2.3,Phases=3,LineCode=tieSwitch,Length=0.001,Units=km,switch=T !numEQ 27071
new line.CTR106209 bus1=BMT151864495.3,bus2=BMT152069819.3,Phases=1,LineCode=tieSwitch1,Length=0.001,Units=km,switch=T !numEQ 122579
new line.CTR106517 bus1=BMT125135553.1.2.3,bus2=BMT125135560.1.2.3,Phases=3,LineCode=tieSwitch,Length=0.001,Units=km,switch=T !numEQ 138396
new line.CTR11863 bus1=BMT125126061.2,bus2=BMT159543589.2,Phases=1,LineCode=tieSwitch1,Length=0.001,Units=km,switch=T !numEQ 124728
new line.CTR118865 bus1=BMT125118060.2,bus2=BMT125119663.2,Phases=1,LineCode=tieSwitch1,Length=0.001,Units=km,switch=T !numEQ 100855
new line.CTR120160 bus1=BMT125121602.3,bus2=BMT154998752.3,Phases=1,LineCode=tieSwitch1,Length=0.001,Units=km,switch=T !numEQ 153744
new line.CTR120167 bus1=BMT125134398.1,bus2=BMT125134447.1,Phases=1,LineCode=tieSwitch1,Length=0.001,Units=km,switch=T !numEQ 26674
new line.CTR133159 bus1=BMT125133684.1,bus2=BMT169853815.1,Phases=1,LineCode=tieSwitch1,Length=0.001,Units=km,switch=T !numEQ 153659
new line.CTR134454 bus1=BMT125140754.3,bus2=BMT125140761.3,Phases=1,LineCode=tieSwitch1,Length=0.001,Units=km,switch=T !numEQ 201552
new line.CTR148328 bus1=BMT125127790.1.2.3,bus2=BMT170380172.1.2.3,Phases=3,LineCode=tieSwitch,Length=0.001,Units=km,switch=T !numEQ 140763
new line.CTR148349 bus1=BMT125134314.1,bus2=BMT168509225.1,Phases=1,LineCode=tieSwitch1,Length=0.001,Units=km,switch=T !numEQ 142760
new line.CTR148496 bus1=BMT125134622.1,bus2=BMT125134629.1,Phases=1,LineCode=tieSwitch1,Length=0.001,Units=km,switch=T !numEQ 153656
new line.CTR148797 bus1=BMT125138528.2,bus2=BMT125138577.2,Phases=1,LineCode=tieSwitch1,Length=0.001,Units=km,switch=T !numEQ 140774
new line.CTR14880 bus1=BMT125129400.1.2.3,bus2=BMT129150585.1.2.3,Phases=3,LineCode=tieSwitch,Length=0.001,Units=km,switch=T !numEQ 135983
new line.CTR148804 bus1=BMT125117388.2,bus2=BMT125124633.2,Phases=1,LineCode=tieSwitch1,Length=0.001,Units=km,switch=T !numEQ 145040
new line.CTR148867 bus1=BMT125128434.1.2.3,bus2=BMT145193017.1.2.3,Phases=3,LineCode=tieSwitch,Length=0.001,Units=km,switch=T !numEQ 144450
new line.CTR148881 bus1=BMT125122435.2,bus2=BMT125122449.2,Phases=1,LineCode=tieSwitch1,Length=0.001,Units=km,switch=T !numEQ 143365
new line.CTR148888 bus1=BMT125122134.1,bus2=BMT169225727.1,Phases=1,LineCode=tieSwitch1,Length=0.001,Units=km,switch=T !numEQ 143370
new line.CTR148993 bus1=BMT125117444.3,bus2=BMT125124444.3,Phases=1,LineCode=tieSwitch1,Length=0.001,Units=km,switch=T !numEQ 144813
new line.CTR149140 bus1=BMT125135812.1.2.3,bus2=BMT125135819.1.2.3,Phases=3,LineCode=tieSwitch,Length=0.001,Units=km,switch=T !numEQ 143449
new line.CTR149238 bus1=BMT125138297.1.2.3,bus2=BMT125138304.1.2.3,Phases=3,LineCode=tieSwitch,Length=0.001,Units=km,switch=T !numEQ 144464
new line.CTR149350 bus1=BMT125117234.1.2.3,bus2=BMT167772132.1.2.3,Phases=3,LineCode=tieSwitch,Length=0.001,Units=km,switch=T !numEQ 26229
new line.CTR149357 bus1=BMT125117283.1,bus2=BMT125127202.1,Phases=1,LineCode=tieSwitch1,Length=0.001,Units=km,switch=T !numEQ 95763
new line.CTR149364 bus1=BMT125117325.1.2.3,bus2=BMT163562801.1.2.3,Phases=3,LineCode=tieSwitch,Length=0.001,Units=km,switch=T !numEQ 27425
new line.CTR149371 bus1=BMT163817668.1.2.3,bus2=BMT163818039.1.2.3,Phases=3,LineCode=tieSwitch,Length=0.001,Units=km,switch=T !numEQ 26297
new line.CTR149378 bus1=BMT125124899.1.2.3,bus2=BMT125124913.1.2.3,Phases=3,LineCode=tieSwitch,Length=0.001,Units=km,switch=T !numEQ 27414
new line.CTR149392 bus1=BMT125117507.2,bus2=BMT125123989.2,Phases=1,LineCode=tieSwitch1,Length=0.001,Units=km,switch=T !numEQ 26236
new line.CTR149399 bus1=BMT125117640.1.2.3,bus2=BMT154384085.1.2.3,Phases=3,LineCode=tieSwitch,Length=0.001,Units=km,switch=T !numEQ 27437
new line.CTR149413 bus1=BMT125117689.1,bus2=BMT125123345.1,Phases=1,LineCode=tieSwitch1,Length=0.001,Units=km,switch=T !numEQ 27432
new line.CTR149420 bus1=BMT125117948.1,bus2=BMT169225712.1,Phases=1,LineCode=tieSwitch1,Length=0.001,Units=km,switch=T !numEQ 27538
new line.CTR149427 bus1=BMT125117857.3,bus2=BMT125122547.3,Phases=1,LineCode=tieSwitch1,Length=0.001,Units=km,switch=T !numEQ 27375
new line.CTR149434 bus1=BMT125117927.2,bus2=BMT125122428.2,Phases=1,LineCode=tieSwitch1,Length=0.001,Units=km,switch=T !numEQ 27442
new line.CTR149441 bus1=BMT125117934.1,bus2=BMT125122365.1,Phases=1,LineCode=tieSwitch1,Length=0.001,Units=km,switch=T !numEQ 27435
new line.CTR149448 bus1=BMT125122078.1,bus2=BMT169225722.1,Phases=1,LineCode=tieSwitch1,Length=0.001,Units=km,switch=T !numEQ 99775
new line.CTR149455 bus1=BMT125122113.1,bus2=BMT169225725.1,Phases=1,LineCode=tieSwitch1,Length=0.001,Units=km,switch=T !numEQ 97796
new line.CTR149476 bus1=BMT125120972.3,bus2=BMT154998888.3,Phases=1,LineCode=tieSwitch1,Length=0.001,Units=km,switch=T !numEQ 99779
new line.CTR149749 bus1=BMT125137625.1,bus2=BMT125137639.1,Phases=1,LineCode=tieSwitch1,Length=0.001,Units=km,switch=T !numEQ 143345
new line.CTR149756 bus1=BMT125136757.1,bus2=BMT125137695.1,Phases=1,LineCode=tieSwitch1,Length=0.001,Units=km,switch=T !numEQ 97321
new line.CTR149763 bus1=BMT170498781.1.2.3,bus2=BMT173218370.1.2.3,Phases=3,LineCode=tieSwitch,Length=0.001,Units=km,switch=T !numEQ 319678
new line.CTR149777 bus1=BMT125136589.1,bus2=BMT125136687.1,Phases=1,LineCode=tieSwitch1,Length=0.001,Units=km,switch=T !numEQ 97322
new line.CTR149784 bus1=BMT125128973.3,bus2=BMT125136372.3,Phases=1,LineCode=tieSwitch1,Length=0.001,Units=km,switch=T !numEQ 97311
new line.CTR149791 bus1=BMT125135994.3,bus2=BMT125136225.3,Phases=1,LineCode=tieSwitch1,Length=0.001,Units=km,switch=T !numEQ 97722
new line.CTR149798 bus1=BMT125129015.1.2.3,bus2=BMT125135805.1.2.3,Phases=3,LineCode=tieSwitch,Length=0.001,Units=km,switch=T !numEQ 97286
new line.CTR149812 bus1=BMT125129106.1.2.3,bus2=BMT156004259.1.2.3,Phases=3,LineCode=tieSwitch,Length=0.001,Units=km,switch=T !numEQ 97390
new line.CTR149826 bus1=BMT125129911.2,bus2=BMT125129939.2,Phases=1,LineCode=tieSwitch1,Length=0.001,Units=km,switch=T !numEQ 136244
new line.CTR149854 bus1=BMT125134244.1,bus2=BMT125134909.1,Phases=1,LineCode=tieSwitch1,Length=0.001,Units=km,switch=T !numEQ 97313
new line.CTR149861 bus1=BMT125135203.1,bus2=BMT125135210.1,Phases=1,LineCode=tieSwitch1,Length=0.001,Units=km,switch=T !numEQ 27347
new line.CTR149868 bus1=BMT125137877.1,bus2=BMT125137891.1,Phases=1,LineCode=tieSwitch1,Length=0.001,Units=km,switch=T !numEQ 122577
new line.CTR149889 bus1=BMT125130527.3,bus2=BMT125130555.3,Phases=1,LineCode=tieSwitch1,Length=0.001,Units=km,switch=T !numEQ 97370
new line.CTR149896 bus1=BMT125130534.3,bus2=BMT125130541.3,Phases=1,LineCode=tieSwitch1,Length=0.001,Units=km,switch=T !numEQ 97377
new line.CTR116212 bus1=BMT125132746.1.2.3,bus2=BMT125135574.1.2.3,Phases=3,LineCode=tieSwitch,Length=0.001,Units=km,switch=T !numEQ 97721
new line.CTR116226 bus1=BMT125129435.1.2.3,bus2=BMT169296136.1.2.3,Phases=3,LineCode=tieSwitch,Length=0.001,Units=km,switch=T !numEQ 27075
new line.CTR116233 bus1=BMT125130758.1,bus2=BMT149491431.1,Phases=1,LineCode=tieSwitch1,Length=0.001,Units=km,switch=T !numEQ 97718
new line.CTR116240 bus1=BMT125129694.2,bus2=BMT166356855.2,Phases=1,LineCode=tieSwitch1,Length=0.001,Units=km,switch=T !numEQ 97350
new line.CTR116247 bus1=BMT152695281.1.2.3,bus2=BMT159841529.1.2.3,Phases=3,LineCode=tieSwitch,Length=0.001,Units=km,switch=T !numEQ 27468
new line.CTR116296 bus1=BMT125131164.3,bus2=BMT172797192.3,Phases=1,LineCode=tieSwitch1,Length=0.001,Units=km,switch=T !numEQ 27317
new line.CTR116303 bus1=BMT125131192.2,bus2=BMT147716216.2,Phases=1,LineCode=tieSwitch1,Length=0.001,Units=km,switch=T !numEQ 26672
new line.CTR116310 bus1=BMT125131248.2,bus2=BMT159663647.2,Phases=1,LineCode=tieSwitch1,Length=0.001,Units=km,switch=T !numEQ 26439
new line.CTR116324 bus1=BMT125131752.2,bus2=BMT153457292.2,Phases=1,LineCode=tieSwitch1,Length=0.001,Units=km,switch=T !numEQ 97382
new line.CTR116331 bus1=BMT125131430.2,bus2=BMT147716986.2,Phases=1,LineCode=tieSwitch1,Length=0.001,Units=km,switch=T !numEQ 97723
new line.CTR116338 bus1=BMT125128189.1.2.3,bus2=BMT125128203.1.2.3,Phases=3,LineCode=tieSwitch,Length=0.001,Units=km,switch=T !numEQ 97260
new line.CTR131612 bus1=BMT125131556.2,bus2=BMT169766735.2,Phases=1,LineCode=tieSwitch1,Length=0.001,Units=km,switch=T !numEQ 153321
new line.CTR131619 bus1=BMT125136141.3,bus2=BMT125136155.3,Phases=1,LineCode=tieSwitch1,Length=0.001,Units=km,switch=T !numEQ 153713
new line.CTR132683 bus1=BMT125138283.1,bus2=BMT125138339.1,Phases=1,LineCode=tieSwitch1,Length=0.001,Units=km,switch=T !numEQ 195402
new line.CTR14642 bus1=BMT125125361.1,bus2=BMT169225886.1,Phases=1,LineCode=tieSwitch1,Length=0.001,Units=km,switch=T !numEQ 140915
new line.CTR146606 bus1=BMT125130107.2,bus2=BMT125130135.2,Phases=1,LineCode=tieSwitch1,Length=0.001,Units=km,switch=T !numEQ 151780
new line.CTR147054 bus1=BMT125127923.1.2.3,bus2=BMT125140922.1.2.3,Phases=3,LineCode=tieSwitch,Length=0.001,Units=km,switch=T !numEQ 131438
new line.CTR147320 bus1=BMT125126663.2,bus2=BMT125126733.2,Phases=1,LineCode=tieSwitch1,Length=0.001,Units=km,switch=T !numEQ 147368
new line.CTR147334 bus1=BMT125117178.2,bus2=BMT163888609.2,Phases=1,LineCode=tieSwitch1,Length=0.001,Units=km,switch=T !numEQ 27412
new line.CTR14775 bus1=BMT125124283.1,bus2=BMT125124297.1,Phases=1,LineCode=tieSwitch1,Length=0.001,Units=km,switch=T !numEQ 151817
new line.CTR161026 bus1=BMT125126551.2,bus2=BMT169896644.2,Phases=1,LineCode=tieSwitch1,Length=0.001,Units=km,switch=T !numEQ 151909
new line.CTR161320 bus1=BMT125129302.2,bus2=BMT165714249.2,Phases=1,LineCode=tieSwitch1,Length=0.001,Units=km,switch=T !numEQ 154042
new line.CTR161327 bus1=BMT125131360.2,bus2=BMT147717028.2,Phases=1,LineCode=tieSwitch1,Length=0.001,Units=km,switch=T !numEQ 153813
new line.CTR161341 bus1=BMT125135413.2,bus2=BMT159239796.2,Phases=1,LineCode=tieSwitch1,Length=0.001,Units=km,switch=T !numEQ 140883
new line.CTR161362 bus1=BMT148802142.3,bus2=BMT148821052.3,Phases=1,LineCode=tieSwitch1,Length=0.001,Units=km,switch=T !numEQ 153814
new line.CTR161579 bus1=BMT125137121.1,bus2=BMT125137401.1,Phases=1,LineCode=tieSwitch1,Length=0.001,Units=km,switch=T !numEQ 146383
new line.CTR161628 bus1=BMT125137961.3,bus2=BMT171485364.3,Phases=1,LineCode=tieSwitch1,Length=0.001,Units=km,switch=T !numEQ 154043
new line.CTR161642 bus1=BMT125132242.2,bus2=BMT147717266.2,Phases=1,LineCode=tieSwitch1,Length=0.001,Units=km,switch=T !numEQ 154044
new line.CTR161971 bus1=BMT125132333.2,bus2=BMT147717224.2,Phases=1,LineCode=tieSwitch1,Length=0.001,Units=km,switch=T !numEQ 154828
new line.CTR162167 bus1=BMT125122841.3,bus2=BMT165947861.3,Phases=1,LineCode=tieSwitch1,Length=0.001,Units=km,switch=T !numEQ 151953
new line.CTR162307 bus1=BMT146338196.1.2.3,bus2=BMT146338217.1.2.3,Phases=3,LineCode=tieSwitch,Length=0.001,Units=km,switch=T !numEQ 154820
new line.CTR176055 bus1=BMT125138395.1,bus2=BMT135558700.1,Phases=1,LineCode=tieSwitch1,Length=0.001,Units=km,switch=T !numEQ 141000
new line.CTR176279 bus1=BMT125125788.1,bus2=BMT125125802.1,Phases=1,LineCode=tieSwitch1,Length=0.001,Units=km,switch=T !numEQ 147611
new line.CTR176405 bus1=BMT125119467.2,bus2=BMT162966198.2,Phases=1,LineCode=tieSwitch1,Length=0.001,Units=km,switch=T !numEQ 153323
new line.CTR176433 bus1=BMT125119159.1,bus2=BMT125119187.1,Phases=1,LineCode=tieSwitch1,Length=0.001,Units=km,switch=T !numEQ 153172
new line.CTR176531 bus1=BMT125133971.1,bus2=BMT125133985.1,Phases=1,LineCode=tieSwitch1,Length=0.001,Units=km,switch=T !numEQ 151783
new line.CTR176538 bus1=BMT125136064.3,bus2=BMT125136211.3,Phases=1,LineCode=tieSwitch1,Length=0.001,Units=km,switch=T !numEQ 151784
new line.CTR176545 bus1=BMT153745222.1,bus2=BMT153745224.1,Phases=1,LineCode=tieSwitch1,Length=0.001,Units=km,switch=T !numEQ 151786
new line.CTR176699 bus1=BMT125122876.3,bus2=BMT165947874.3,Phases=1,LineCode=tieSwitch1,Length=0.001,Units=km,switch=T !numEQ 152187
new line.CTR176706 bus1=BMT125122981.3,bus2=BMT165947888.3,Phases=1,LineCode=tieSwitch1,Length=0.001,Units=km,switch=T !numEQ 152188
new line.CTR177231 bus1=BMT125127048.2,bus2=BMT125127069.2,Phases=1,LineCode=tieSwitch1,Length=0.001,Units=km,switch=T !numEQ 140776
new line.CTR177476 bus1=BMT125124934.1.2.3,bus2=BMT125104452.1.2.3,Phases=3,LineCode=tieSwitch,Length=0.001,Units=km,switch=T !numEQ 154641
open line.CTR177476 term=1
new line.CTR177567 bus1=BMT125122204.1,bus2=BMT169225735.1,Phases=1,LineCode=tieSwitch1,Length=0.001,Units=km,switch=T !numEQ 152374
new line.CTR177616 bus1=BMT125136617.1,bus2=BMT125138227.1,Phases=1,LineCode=tieSwitch1,Length=0.001,Units=km,switch=T !numEQ 151745
new line.CTR177637 bus1=BMT125126054.2,bus2=BMT125126089.2,Phases=1,LineCode=tieSwitch1,Length=0.001,Units=km,switch=T !numEQ 151918
new line.CTR177742 bus1=BMT125117661.3,bus2=BMT125123450.3,Phases=1,LineCode=tieSwitch1,Length=0.001,Units=km,switch=T !numEQ 143451
new line.CTR191973 bus1=BMT136045949.2,bus2=BMT153916449.2,Phases=1,LineCode=tieSwitch1,Length=0.001,Units=km,switch=T !numEQ 224661
new line.CTR20769 bus1=BMT160795125.1,bus2=BMT160795127.1,Phases=1,LineCode=tieSwitch1,Length=0.001,Units=km,switch=T !numEQ 74292
new line.CTR356089 bus1=BMT125131437.2,bus2=BMT147716958.2,Phases=1,LineCode=tieSwitch1,Length=0.001,Units=km,switch=T !numEQ 224697
new line.CTR108771 bus1=BMT125131017.1,bus2=BMT125131087.1,Phases=1,LineCode=tieSwitch1,Length=0.001,Units=km,switch=T !numEQ 142904
new line.CTR120293 bus1=BMT125125207.1,bus2=BMT169225863.1,Phases=1,LineCode=tieSwitch1,Length=0.001,Units=km,switch=T !numEQ 100861
new line.CTR120405 bus1=BMT125117773.2,bus2=BMT125122771.2,Phases=1,LineCode=tieSwitch1,Length=0.001,Units=km,switch=T !numEQ 143952
new line.CTR121161 bus1=BMT125128350.3,bus2=BMT125140005.3,Phases=1,LineCode=tieSwitch1,Length=0.001,Units=km,switch=T !numEQ 140911
new line.CTR135140 bus1=BMT125117696.1.2.3,bus2=BMT137662739.1.2.3,Phases=3,LineCode=tieSwitch,Length=0.001,Units=km,switch=T !numEQ 27694
new line.CTR136008 bus1=BMT125124640.2,bus2=BMT160328250.2,Phases=1,LineCode=tieSwitch1,Length=0.001,Units=km,switch=T !numEQ 143452
new line.CTR136232 bus1=BMT125138374.3,bus2=BMT125138787.3,Phases=1,LineCode=tieSwitch1,Length=0.001,Units=km,switch=T !numEQ 122576
new line.CTR136309 bus1=BMT125124122.1,bus2=BMT125124416.1,Phases=1,LineCode=tieSwitch1,Length=0.001,Units=km,switch=T !numEQ 152046
new line.CTR136596 bus1=BMT125138437.3,bus2=BMT167287389.3,Phases=1,LineCode=tieSwitch1,Length=0.001,Units=km,switch=T !numEQ 139841
new line.CTR149917 bus1=BMT125129603.1,bus2=BMT160904871.1,Phases=1,LineCode=tieSwitch1,Length=0.001,Units=km,switch=T !numEQ 27135
new line.CTR149931 bus1=BMT125117976.1.2.3,bus2=BMT158906785.1.2.3,Phases=3,LineCode=tieSwitch,Length=0.001,Units=km,switch=T !numEQ 27423
new line.CTR149959 bus1=BMT125131297.2,bus2=BMT166614208.2,Phases=1,LineCode=tieSwitch1,Length=0.001,Units=km,switch=T !numEQ 26607
new line.CTR149966 bus1=BMT125131367.2,bus2=BMT153060310.2,Phases=1,LineCode=tieSwitch1,Length=0.001,Units=km,switch=T !numEQ 97283
new line.CTR149973 bus1=BMT125131402.2,bus2=BMT147716944.2,Phases=1,LineCode=tieSwitch1,Length=0.001,Units=km,switch=T !numEQ 97315
new line.CTR150071 bus1=BMT125131640.2,bus2=BMT147716727.2,Phases=1,LineCode=tieSwitch1,Length=0.001,Units=km,switch=T !numEQ 99778
new line.CTR150099 bus1=BMT125117878.1,bus2=BMT125122484.1,Phases=1,LineCode=tieSwitch1,Length=0.001,Units=km,switch=T !numEQ 27023
new line.CTR150176 bus1=BMT125130968.1,bus2=BMT125130982.1,Phases=1,LineCode=tieSwitch1,Length=0.001,Units=km,switch=T !numEQ 151781
new line.CTR150204 bus1=BMT125131325.2,bus2=BMT148912457.2,Phases=1,LineCode=tieSwitch1,Length=0.001,Units=km,switch=T !numEQ 97331
new line.CTR150267 bus1=BMT170177306.1.2.3,bus2=BMT170251976.1.2.3,Phases=3,LineCode=tieSwitch,Length=0.001,Units=km,switch=T !numEQ 26751
open line.CTR150267 term=1
new line.CTR15027 bus1=BMT125125165.1.2.3,bus2=BMT152729025.1.2.3,Phases=3,LineCode=tieSwitch,Length=0.001,Units=km,switch=T !numEQ 136861
new line.CTR150400 bus1=BMT125118172.1.2.3,bus2=BMT125118179.1.2.3,Phases=3,LineCode=tieSwitch,Length=0.001,Units=km,switch=T !numEQ 143947
new line.CTR150659 bus1=BMT125137933.3,bus2=BMT172168324.3,Phases=1,LineCode=tieSwitch1,Length=0.001,Units=km,switch=T !numEQ 26675
new line.CTR150841 bus1=BMT125138661.1,bus2=BMT125138675.1,Phases=1,LineCode=tieSwitch1,Length=0.001,Units=km,switch=T !numEQ 201683
new line.CTR15090 bus1=BMT125136778.1,bus2=BMT125137681.1,Phases=1,LineCode=tieSwitch1,Length=0.001,Units=km,switch=T !numEQ 127173
new line.CTR151247 bus1=BMT125123849.3,bus2=BMT125123856.3,Phases=1,LineCode=tieSwitch1,Length=0.001,Units=km,switch=T !numEQ 152284
new line.CTR151492 bus1=BMT125117955.1.2.3,bus2=BMT154998680.1.2.3,Phases=3,LineCode=tieSwitch,Length=0.001,Units=km,switch=T !numEQ 27444
new line.CTR151527 bus1=BMT125129484.1.2.3,bus2=BMT157546932.1.2.3,Phases=3,LineCode=tieSwitch,Length=0.001,Units=km,switch=T !numEQ 27170
new line.CTR151604 bus1=BMT125118438.1,bus2=BMT125118725.1,Phases=1,LineCode=tieSwitch1,Length=0.001,Units=km,switch=T !numEQ 142918
new line.CTR163798 bus1=BMT125128875.1.2.3,bus2=BMT170895952.1.2.3,Phases=3,LineCode=tieSwitch,Length=0.001,Units=km,switch=T !numEQ 27567
new line.CTR178232 bus1=BMT125117528.1,bus2=BMT125123961.1,Phases=1,LineCode=tieSwitch1,Length=0.001,Units=km,switch=T !numEQ 151815
new line.CTR178610 bus1=BMT151174264.1.2.3,bus2=BMT146681140.1.2.3,Phases=3,LineCode=tieSwitch,Length=0.001,Units=km,switch=T !numEQ 126585
new line.CTR178673 bus1=BMT125127916.1,bus2=BMT173045939.1,Phases=1,LineCode=tieSwitch1,Length=0.001,Units=km,switch=T !numEQ 152207
new line.CTR178890 bus1=BMT125129624.1,bus2=BMT125129631.1,Phases=1,LineCode=tieSwitch1,Length=0.001,Units=km,switch=T !numEQ 153103
new line.CTR178925 bus1=BMT125120839.3,bus2=BMT168850584.3,Phases=1,LineCode=tieSwitch1,Length=0.001,Units=km,switch=T !numEQ 152977
new line.CTR178974 bus1=BMT125133369.2,bus2=BMT125133411.2,Phases=1,LineCode=tieSwitch1,Length=0.001,Units=km,switch=T !numEQ 153165
new line.CTR178981 bus1=BMT125123541.2,bus2=BMT125123555.2,Phases=1,LineCode=tieSwitch1,Length=0.001,Units=km,switch=T !numEQ 151954
new line.CTR179261 bus1=BMT125128378.2,bus2=BMT125139991.2,Phases=1,LineCode=tieSwitch1,Length=0.001,Units=km,switch=T !numEQ 140771
new line.CTR179618 bus1=BMT125133313.2,bus2=BMT125133446.2,Phases=1,LineCode=tieSwitch1,Length=0.001,Units=km,switch=T !numEQ 193602
new line.CTR194087298 bus1=BMT2389066535.1.2.3,bus2=BMT2194085083.1.2.3,Phases=3,LineCode=tieSwitch,Length=0.001,Units=km,switch=T !numEQ 
new line.CTR194087310 bus1=BMT2194087311.1.2.3,bus2=BMT2389066535.1.2.3,Phases=3,LineCode=tieSwitch,Length=0.001,Units=km,switch=T !numEQ 
new line.CTR194087449 bus1=BMT2194087450.1.2.3,bus2=BMT2194087311.1.2.3,Phases=3,LineCode=tieSwitch,Length=0.001,Units=km,switch=T !numEQ 
new line.CTR2448 bus1=BMT125122827.3,bus2=BMT165947913.3,Phases=1,LineCode=tieSwitch1,Length=0.001,Units=km,switch=T !numEQ 143953
new line.CTR2616 bus1=BMT125140194.3,bus2=BMT125140236.3,Phases=1,LineCode=tieSwitch1,Length=0.001,Units=km,switch=T !numEQ 99979
new line.CTR26290 bus1=BMT125123471.2,bus2=BMT125123695.2,Phases=1,LineCode=tieSwitch1,Length=0.001,Units=km,switch=T !numEQ 143468
new line.CTR27914 bus1=BMT160608693.2,bus2=BMT161015484.2,Phases=1,LineCode=tieSwitch1,Length=0.001,Units=km,switch=T !numEQ 26643
new line.CTR3127 bus1=BMT125117472.1,bus2=BMT173155916.1,Phases=1,LineCode=tieSwitch1,Length=0.001,Units=km,switch=T !numEQ 27413
new line.CTR3134 bus1=BMT125140614.1.2.3,bus2=BMT125140635.1.2.3,Phases=3,LineCode=tieSwitch,Length=0.001,Units=km,switch=T !numEQ 144276
new line.CTR366351 bus1=BMT125140390.3,bus2=BMT125140404.3,Phases=1,LineCode=tieSwitch1,Length=0.001,Units=km,switch=T !numEQ 232234
new line.CTR392930 bus1=BMT127275936.2,bus2=BMT136898493.2,Phases=1,LineCode=tieSwitch1,Length=0.001,Units=km,switch=T !numEQ 295091
new line.CTR394015 bus1=BMT127668902.1.2.3,bus2=BMT152564471.1.2.3,Phases=3,LineCode=tieSwitch,Length=0.001,Units=km,switch=T !numEQ 295026
new line.CTR111501 bus1=BMT125124941.1.2.3,bus2=BMT160818299.1.2.3,Phases=3,LineCode=tieSwitch,Length=0.001,Units=km,switch=T !numEQ 155361
new line.CTR125165 bus1=BMT125118830.1.2.3,bus2=BMT169830286.1.2.3,Phases=3,LineCode=tieSwitch,Length=0.001,Units=km,switch=T !numEQ 101434
new line.CTR125529 bus1=BMT125132270.2,bus2=BMT147717238.2,Phases=1,LineCode=tieSwitch1,Length=0.001,Units=km,switch=T !numEQ 97387
new line.CTR138892 bus1=BMT125120755.3,bus2=BMT154998871.3,Phases=1,LineCode=tieSwitch1,Length=0.001,Units=km,switch=T !numEQ 199894
new line.CTR1391 bus1=BMT125127699.2,bus2=BMT125127713.2,Phases=1,LineCode=tieSwitch1,Length=0.001,Units=km,switch=T !numEQ 101426
new line.CTR13956 bus1=BMT125125991.2,bus2=BMT125126516.2,Phases=1,LineCode=tieSwitch1,Length=0.001,Units=km,switch=T !numEQ 146386
new line.CTR13977 bus1=BMT125128994.3,bus2=BMT155675489.3,Phases=1,LineCode=tieSwitch1,Length=0.001,Units=km,switch=T !numEQ 151931
new line.CTR13984 bus1=BMT125125354.1,bus2=BMT169225892.1,Phases=1,LineCode=tieSwitch1,Length=0.001,Units=km,switch=T !numEQ 151916
new line.CTR154404 bus1=BMT125128063.3,bus2=BMT125140733.3,Phases=1,LineCode=tieSwitch1,Length=0.001,Units=km,switch=T !numEQ 152814
new line.CTR154460 bus1=BMT125117381.1,bus2=BMT125124668.1,Phases=1,LineCode=tieSwitch1,Length=0.001,Units=km,switch=T !numEQ 135842
new line.CTR154642 bus1=BMT125130282.3,bus2=BMT125130359.3,Phases=1,LineCode=tieSwitch1,Length=0.001,Units=km,switch=T !numEQ 97702
new line.CTR154656 bus1=BMT125130303.2,bus2=BMT125130345.2,Phases=1,LineCode=tieSwitch1,Length=0.001,Units=km,switch=T !numEQ 26642
new line.CTR154663 bus1=BMT125129092.3,bus2=BMT125135791.3,Phases=1,LineCode=tieSwitch1,Length=0.001,Units=km,switch=T !numEQ 97386
new line.CTR155006 bus1=BMT125120300.3,bus2=BMT154998708.3,Phases=1,LineCode=tieSwitch1,Length=0.001,Units=km,switch=T !numEQ 27457
new line.CTR155419 bus1=BMT125117801.1.2.3,bus2=BMT125117808.1.2.3,Phases=3,LineCode=tieSwitch,Length=0.001,Units=km,switch=T !numEQ 154490
new line.CTR168726 bus1=BMT125118795.2,bus2=BMT160750092.2,Phases=1,LineCode=tieSwitch1,Length=0.001,Units=km,switch=T !numEQ 101437
new line.CTR169251 bus1=BMT125130058.2,bus2=BMT139355164.2,Phases=1,LineCode=tieSwitch1,Length=0.001,Units=km,switch=T !numEQ 143359
new line.CTR169405 bus1=BMT125118025.1.2.3,bus2=BMT125118312.1.2.3,Phases=3,LineCode=tieSwitch,Length=0.001,Units=km,switch=T !numEQ 143371
new line.CTR169412 bus1=BMT125118137.1.2.3,bus2=BMT125118277.1.2.3,Phases=3,LineCode=tieSwitch,Length=0.001,Units=km,switch=T !numEQ 143372
new line.CTR169419 bus1=BMT125119929.1,bus2=BMT165948285.1,Phases=1,LineCode=tieSwitch1,Length=0.001,Units=km,switch=T !numEQ 97788
new line.CTR170105 bus1=BMT125127951.1.2.3,bus2=BMT152605072.1.2.3,Phases=3,LineCode=tieSwitch,Length=0.001,Units=km,switch=T !numEQ 151979
new line.CTR183643 bus1=BMT125139004.2,bus2=BMT173108148.2,Phases=1,LineCode=tieSwitch1,Length=0.001,Units=km,switch=T !numEQ 196536
new line.CTR183671 bus1=BMT125118865.1.2.3,bus2=BMT125119432.1.2.3,Phases=3,LineCode=tieSwitch,Length=0.001,Units=km,switch=T !numEQ 155154
new line.CTR183678 bus1=BMT125118879.1.2.3,bus2=BMT168490705.1.2.3,Phases=3,LineCode=tieSwitch,Length=0.001,Units=km,switch=T !numEQ 155153
new line.CTR183685 bus1=BMT168489019.1.2.3,bus2=BMT169923760.1.2.3,Phases=3,LineCode=tieSwitch,Length=0.001,Units=km,switch=T !numEQ 155151
open line.CTR183685 term=1