new line.10031818 bus1=BBT145919659.1.2.3.0,bus2=BBT145919666.1.2.3.0,Phases=3,Linecode=BT514_BT514_7_3_1,Length=0.000501000,Units=km
new line.1344390 bus1=BBT1436342.1.2.0,bus2=BBT1436349.1.2.0,Phases=2,Linecode=BT307_BT307_7_2_1,Length=0.000501000,Units=km
new line.1373895 bus1=BBT1464587.1.2.0,bus2=BBT1464594.1.2.0,Phases=2,Linecode=BT507_BT507_7_2_1,Length=0.000501000,Units=km
new line.1374168 bus1=BBT1464860.1.2.0,bus2=BBT1464867.1.2.0,Phases=2,Linecode=BT507_BT507_7_2_1,Length=0.000501000,Units=km
new line.1394902 bus1=BBT1484628.1.2.0,bus2=BBT1484635.1.2.0,Phases=2,Linecode=BT307_BT307_7_2_1,Length=0.000501000,Units=km
new line.1394909 bus1=BBT1484642.1.2.0,bus2=BBT1484649.1.2.0,Phases=2,Linecode=BT507_BT507_7_2_1,Length=0.000501000,Units=km
new line.1394923 bus1=BBT1484670.1.2.0,bus2=BBT1484677.1.2.0,Phases=2,Linecode=BT507_BT507_7_2_1,Length=0.000501000,Units=km
new line.1394930 bus1=BBT1484684.1.2.0,bus2=BBT1484691.1.2.0,Phases=2,Linecode=BT521_BT521_7_2_1,Length=0.000501000,Units=km
new line.1394937 bus1=BBT1484698.1.2.0,bus2=BBT1484705.1.2.0,Phases=2,Linecode=BT507_BT507_7_2_1,Length=0.000501000,Units=km
new line.1395119 bus1=BBT1484873.1.2.0,bus2=BBT1484880.1.2.0,Phases=2,Linecode=BT521_BT521_7_2_1,Length=0.000501000,Units=km
new line.1395350 bus1=BBT1485076.1.2.0,bus2=BBT1485083.1.2.0,Phases=2,Linecode=BT307_BT307_7_2_1,Length=0.000501000,Units=km
new line.1395357 bus1=BBT1485090.1.2.3.0,bus2=BBT1485097.1.2.3.0,Phases=3,Linecode=BT521_BT521_7_3_1,Length=0.000501000,Units=km
new line.1395434 bus1=BBT1485188.1.2.0,bus2=BBT1485195.1.2.0,Phases=2,Linecode=BT307_BT307_7_2_1,Length=0.000501000,Units=km
new line.1395441 bus1=BBT1485202.1.2.0,bus2=BBT1485209.1.2.0,Phases=2,Linecode=BT307_BT307_7_2_1,Length=0.000501000,Units=km
new line.1395462 bus1=BBT1485244.1.2.0,bus2=BBT1485251.1.2.0,Phases=2,Linecode=BT507_BT507_7_2_1,Length=0.000501000,Units=km
new line.1395476 bus1=BBT1485272.1.2.0,bus2=BBT1485279.1.2.0,Phases=2,Linecode=BT507_BT507_7_2_1,Length=0.000501000,Units=km
new line.1395602 bus1=BBT1485482.1.2.0,bus2=BBT1485489.1.2.0,Phases=2,Linecode=BT307_BT307_7_2_1,Length=0.000501000,Units=km
new line.1395609 bus1=BBT1485496.1.2.0,bus2=BBT1485503.1.2.0,Phases=2,Linecode=BT507_BT507_7_2_1,Length=0.000501000,Units=km
new line.1395623 bus1=BBT1485524.1.2.0,bus2=BBT1485531.1.2.0,Phases=2,Linecode=BT307_BT307_7_2_1,Length=0.000501000,Units=km
new line.1395630 bus1=BBT1485538.1.2.0,bus2=BBT1485545.1.2.0,Phases=2,Linecode=BT507_BT507_7_2_1,Length=0.000501000,Units=km
new line.1395693 bus1=BBT1485636.1.2.0,bus2=BBT1485643.1.2.0,Phases=2,Linecode=BT307_BT307_7_2_1,Length=0.000501000,Units=km
new line.1395756 bus1=BBT1485720.1.2.0,bus2=BBT1485727.1.2.0,Phases=2,Linecode=BT307_BT307_7_2_1,Length=0.000501000,Units=km
new line.1395770 bus1=BBT1485748.1.2.0,bus2=BBT1485755.1.2.0,Phases=2,Linecode=BT307_BT307_7_2_1,Length=0.000501000,Units=km
new line.1395805 bus1=BBT1485818.1.2.0,bus2=BBT1485825.1.2.0,Phases=2,Linecode=BT505_BT505_7_2_1,Length=0.000501000,Units=km
new line.1395826 bus1=BBT1485860.1.2.0,bus2=BBT1485867.1.2.0,Phases=2,Linecode=BT307_BT307_7_2_1,Length=0.000501000,Units=km
new line.1395854 bus1=BBT1485916.1.2.3.0,bus2=BBT1485923.1.2.3.0,Phases=3,Linecode=BT309_BT309_7_3_1,Length=0.000501000,Units=km
new line.1395861 bus1=BBT1485930.1.2.0,bus2=BBT1485937.1.2.0,Phases=2,Linecode=BT307_BT307_7_2_1,Length=0.000501000,Units=km
new line.1395910 bus1=BBT1486014.1.2.0,bus2=BBT1486021.1.2.0,Phases=2,Linecode=BT513_BT513_7_2_1,Length=0.000501000,Units=km
new line.1395966 bus1=BBT1486126.1.2.0,bus2=BBT1486133.1.2.0,Phases=2,Linecode=BT307_BT307_7_2_1,Length=0.000501000,Units=km
new line.1395973 bus1=BBT1486140.1.2.0,bus2=BBT1486147.1.2.0,Phases=2,Linecode=BT307_BT307_7_2_1,Length=0.000501000,Units=km
new line.1396092 bus1=BBT1486308.1.2.3.0,bus2=BBT1486315.1.2.3.0,Phases=3,Linecode=BT509_BT509_7_3_1,Length=0.000501000,Units=km
new line.1396099 bus1=BBT1486315.1.2.3.0,bus2=BBT2565106.1.2.3.0,Phases=3,Linecode=BT108_BT107_7_3_1,Length=0.034449000,Units=km
new line.1396106 bus1=BBT1486315.1.2.3.0,bus2=BBT2565099.1.2.3.0,Phases=3,Linecode=BT108_BT107_7_3_1,Length=0.032706000,Units=km
new line.1396155 bus1=BBT1486378.1.2.0,bus2=BBT1486385.1.2.0,Phases=2,Linecode=BT508_BT508_7_2_1,Length=0.000501000,Units=km
new line.1396169 bus1=BBT2030467.1.2.3.0,bus2=BBT2565344.1.2.3.0,Phases=3,Linecode=BT513_BT513_7_3_1,Length=0.000501000,Units=km
new line.1396176 bus1=BBT2030474.1.2.3.0,bus2=BBT2565162.1.2.3.0,Phases=3,Linecode=BT803_BT803_4_3_4,Length=0.033252000,Units=km
new line.1396183 bus1=BBT2565316.1.2.3.0,bus2=BBT2030474.1.2.3.0,Phases=3,Linecode=BT803_BT803_4_3_4,Length=0.028169000,Units=km
new line.1396190 bus1=BBT1486406.1.2.0,bus2=BBT1486413.1.2.0,Phases=2,Linecode=BT307_BT307_7_2_1,Length=0.000501000,Units=km
new line.1396239 bus1=BBT1486490.1.2.0,bus2=BBT1486497.1.2.0,Phases=2,Linecode=BT307_BT307_7_2_1,Length=0.000501000,Units=km
new line.1396253 bus1=BBT1486518.1.2.0,bus2=BBT1486525.1.2.0,Phases=2,Linecode=BT307_BT307_7_2_1,Length=0.000501000,Units=km
new line.1396281 bus1=BBT1486581.1.2.0,bus2=BBT1486588.1.2.0,Phases=2,Linecode=BT309_BT309_7_2_1,Length=0.000501000,Units=km
new line.1396365 bus1=BBT1486714.1.2.0,bus2=BBT1486721.1.2.0,Phases=2,Linecode=BT307_BT307_7_2_1,Length=0.000501000,Units=km
new line.1396393 bus1=BBT1486770.1.2.0,bus2=BBT1486777.1.2.0,Phases=2,Linecode=BT307_BT307_7_2_1,Length=0.000501000,Units=km
new line.1396400 bus1=BBT1486784.1.2.0,bus2=BBT1486791.1.2.0,Phases=2,Linecode=BT307_BT307_7_2_1,Length=0.000501000,Units=km
new line.1453268 bus1=BBT1540936.1.2.3.0,bus2=BBT1540943.1.2.3.0,Phases=3,Linecode=BT108_BT107_7_3_1,Length=0.031587000,Units=km
new line.1453275 bus1=BBT1540929.1.2.3.0,bus2=BBT1540936.1.2.3.0,Phases=3,Linecode=BT307_BT307_7_3_1,Length=0.000501000,Units=km
new line.1453282 bus1=BBT1540936.1.2.3.0,bus2=BBT1540957.1.2.3.0,Phases=3,Linecode=BT108_BT107_7_3_1,Length=0.030425000,Units=km
new line.1453289 bus1=BBT1540950.1.2.3.0,bus2=BBT2376190.1.2.3.0,Phases=3,Linecode=BT810_BT810_4_3_4,Length=0.041788000,Units=km
new line.1453296 bus1=BBT1540957.1.2.3.0,bus2=BBT1540964.1.2.3.0,Phases=3,Linecode=BT108_BT107_7_3_1,Length=0.025719000,Units=km
new line.1453303 bus1=BBT1540964.1.2.3.0,bus2=BBT1540971.1.2.3.0,Phases=3,Linecode=BT107_BT106_7_3_1,Length=0.042594000,Units=km
new line.1453310 bus1=BBT1540964.1.2.3.0,bus2=BBT1540978.1.2.3.0,Phases=3,Linecode=BT107_BT106_7_3_1,Length=0.028294000,Units=km
new line.1453324 bus1=BBT1540978.1.2.3.0,bus2=BBT1540985.1.2.3.0,Phases=3,Linecode=BT107_BT106_7_3_1,Length=0.027304000,Units=km
new line.1453331 bus1=BBT1540985.1.2.3.0,bus2=BBT1540992.1.2.3.0,Phases=3,Linecode=BT107_BT106_7_3_1,Length=0.032400000,Units=km
new line.1453338 bus1=BBT1540992.1.2.3.0,bus2=BBT1540999.1.2.3.0,Phases=3,Linecode=BT107_BT106_7_3_1,Length=0.036509000,Units=km
new line.1453345 bus1=BBT1541013.1.2.3.0,bus2=BBT1541055.1.2.3.0,Phases=3,Linecode=BT108_BT107_7_3_1,Length=0.030375000,Units=km
new line.1453352 bus1=BBT1541006.1.2.3.0,bus2=BBT1541013.1.2.3.0,Phases=3,Linecode=BT309_BT309_7_3_1,Length=0.000501000,Units=km
new line.1453359 bus1=BBT1541013.1.2.3.0,bus2=BBT1541020.1.2.3.0,Phases=3,Linecode=BT108_BT107_7_3_1,Length=0.025307000,Units=km
new line.1453366 bus1=BBT1541020.1.2.3.0,bus2=BBT1541027.1.2.3.0,Phases=3,Linecode=BT108_BT107_7_3_1,Length=0.026580000,Units=km
new line.1453373 bus1=BBT1541027.1.2.3.0,bus2=BBT1541034.1.2.3.0,Phases=3,Linecode=BT108_BT107_7_3_1,Length=0.032905000,Units=km
new line.1453380 bus1=BBT1541027.1.2.3.0,bus2=BBT1541104.1.2.3.0,Phases=3,Linecode=BT106_BT106_7_3_1,Length=0.023095000,Units=km
new line.1453387 bus1=BBT1541034.1.2.3.0,bus2=BBT1541041.1.2.3.0,Phases=3,Linecode=BT108_BT107_7_3_1,Length=0.029743000,Units=km
new line.1453394 bus1=BBT1541041.1.2.3.0,bus2=BBT1541048.1.2.3.0,Phases=3,Linecode=BT108_BT107_7_3_1,Length=0.032027000,Units=km
new line.1453401 bus1=BBT1541062.1.2.3.0,bus2=BBT1541069.1.2.3.0,Phases=3,Linecode=BT108_BT107_7_3_1,Length=0.024524000,Units=km
new line.1453408 bus1=BBT1541069.1.2.3.0,bus2=BBT1541076.1.2.3.0,Phases=3,Linecode=BT107_BT106_7_3_1,Length=0.031156000,Units=km
new line.1453415 bus1=BBT1541076.1.2.3.0,bus2=BBT1541083.1.2.3.0,Phases=3,Linecode=BT107_BT106_7_3_1,Length=0.016285000,Units=km
new line.1453422 bus1=BBT1541083.1.2.3.0,bus2=BBT1541090.1.2.3.0,Phases=3,Linecode=BT107_BT106_7_3_1,Length=0.033746000,Units=km
new line.1453429 bus1=BBT1541090.1.2.3.0,bus2=BBT1541097.1.2.3.0,Phases=3,Linecode=BT107_BT106_7_3_1,Length=0.024524000,Units=km
new line.1453443 bus1=BBT1541111.1.2.3.0,bus2=BBT1541118.1.2.3.0,Phases=3,Linecode=BT307_BT307_7_3_1,Length=0.000501000,Units=km
new line.1453450 bus1=BBT1541118.1.2.3.0,bus2=BBT1541125.1.2.3.0,Phases=3,Linecode=BT803_BT803_4_3_4,Length=0.024340000,Units=km
new line.1453457 bus1=BBT1541118.1.2.3.0,bus2=BBT1541139.1.2.3.0,Phases=3,Linecode=BT803_BT803_4_3_4,Length=0.031412000,Units=km
new line.1453464 bus1=BBT1541125.1.2.3.0,bus2=BBT1541132.1.2.3.0,Phases=3,Linecode=BT803_BT803_4_3_4,Length=0.025504000,Units=km
new line.1453471 bus1=BBT1541251.1.2.3.0,bus2=BBT1541258.1.2.3.0,Phases=3,Linecode=BT107_BT107_7_3_1,Length=0.023354000,Units=km
new line.1453478 bus1=BBT1541139.1.2.3.0,bus2=BBT1541146.1.2.3.0,Phases=3,Linecode=BT803_BT803_4_3_4,Length=0.033389000,Units=km
new line.1453485 bus1=BBT1541146.1.2.3.0,bus2=BBT1541153.1.2.3.0,Phases=3,Linecode=BT107_BT106_7_3_1,Length=0.005659000,Units=km
new line.1453492 bus1=BBT1541146.1.2.3.0,bus2=BBT1541167.1.2.3.0,Phases=3,Linecode=BT803_BT803_4_3_4,Length=0.025327000,Units=km
new line.1453499 bus1=BBT1541153.1.2.3.0,bus2=BBT1541160.1.2.3.0,Phases=3,Linecode=BT107_BT106_7_3_1,Length=0.018981000,Units=km
new line.1453506 bus1=BBT1541167.1.2.3.0,bus2=BBT1541174.1.2.3.0,Phases=3,Linecode=BT803_BT803_4_3_4,Length=0.024196000,Units=km
new line.1453513 bus1=BBT1541195.1.2.3.0,bus2=BBT173218375.1.2.3.0,Phases=3,Linecode=BT805_BT805_4_3_4,Length=0.028294000,Units=km
new line.1453520 bus1=BBT1541174.1.2.3.0,bus2=BBT1541181.1.2.3.0,Phases=3,Linecode=BT108_BT107_7_3_1,Length=0.047535000,Units=km
new line.1453527 bus1=BBT1541174.1.2.3.0,bus2=BBT1541202.1.2.3.0,Phases=3,Linecode=BT107_BT106_7_3_1,Length=0.027469000,Units=km
new line.1453534 bus1=BBT1541181.1.2.3.0,bus2=BBT1541188.1.2.3.0,Phases=3,Linecode=BT108_BT107_7_3_1,Length=0.030425000,Units=km
new line.1453541 bus1=BBT1541195.1.2.3.0,bus2=BBT1541223.1.2.3.0,Phases=3,Linecode=BT805_BT805_4_3_4,Length=0.047693000,Units=km
new line.1453548 bus1=BBT1541202.1.2.3.0,bus2=BBT1541209.1.2.3.0,Phases=3,Linecode=BT107_BT106_7_3_1,Length=0.037215000,Units=km
new line.1453555 bus1=BBT1541209.1.2.3.0,bus2=BBT1541216.1.2.3.0,Phases=3,Linecode=BT107_BT106_7_3_1,Length=0.032661000,Units=km
new line.1453562 bus1=BBT1541223.1.2.3.0,bus2=BBT2845463.1.2.3.0,Phases=3,Linecode=BT810_BT810_4_3_4,Length=0.045557000,Units=km
new line.1453569 bus1=BBT1541230.1.2.3.0,bus2=BBT1541237.1.2.3.0,Phases=3,Linecode=BT307_BT307_7_3_1,Length=0.000501000,Units=km
new line.1453576 bus1=BBT1541237.1.2.3.0,bus2=BBT1541244.1.2.3.0,Phases=3,Linecode=BT108_BT107_7_3_1,Length=0.034682000,Units=km
new line.1453583 bus1=BBT1541237.1.2.3.0,bus2=BBT1541279.1.2.3.0,Phases=3,Linecode=BT108_BT107_7_3_1,Length=0.030817000,Units=km
new line.1453590 bus1=BBT1541244.1.2.3.0,bus2=BBT1541251.1.2.3.0,Phases=3,Linecode=BT108_BT107_7_3_1,Length=0.034725000,Units=km
new line.1453597 bus1=BBT1541258.1.2.3.0,bus2=BBT1541265.1.2.3.0,Phases=3,Linecode=BT107_BT107_7_3_1,Length=0.024768000,Units=km
new line.1453604 bus1=BBT1541265.1.2.3.0,bus2=BBT1541272.1.2.3.0,Phases=3,Linecode=BT107_BT107_7_3_1,Length=0.033313000,Units=km
new line.1453611 bus1=BBT1541279.1.2.0,bus2=BBT1541286.1.2.0,Phases=2,Linecode=BT107_BT106_7_2_1,Length=0.015530000,Units=km
new line.1453618 bus1=BBT1541279.1.2.3.0,bus2=BBT1541293.1.2.3.0,Phases=3,Linecode=BT108_BT107_7_3_1,Length=0.030540000,Units=km
new line.1453625 bus1=BBT1649947.1.2.3.0,bus2=BBT1649926.1.2.3.0,Phases=3,Linecode=BT803_BT803_4_3_4,Length=0.019112000,Units=km
new line.1453632 bus1=BBT1541300.1.2.3.0,bus2=BBT1541307.1.2.3.0,Phases=3,Linecode=BT521_BT521_7_3_1,Length=0.000501000,Units=km
new line.1453639 bus1=BBT1541307.1.2.3.0,bus2=BBT1541314.1.2.3.0,Phases=3,Linecode=BT108_BT107_7_3_1,Length=0.035453000,Units=km
new line.1453646 bus1=BBT1541307.1.2.3.0,bus2=BBT1541335.1.2.3.0,Phases=3,Linecode=BT108_BT107_7_3_1,Length=0.031316000,Units=km
new line.1453653 bus1=BBT1541314.1.2.3.0,bus2=BBT1541321.1.2.3.0,Phases=3,Linecode=BT107_BT106_7_3_1,Length=0.033627000,Units=km
new line.1453660 bus1=BBT1541321.1.2.3.0,bus2=BBT1541328.1.2.3.0,Phases=3,Linecode=BT107_BT106_7_3_1,Length=0.023546000,Units=km
new line.1453667 bus1=BBT1541321.1.2.3.0,bus2=BBT1541377.1.2.3.0,Phases=3,Linecode=BT107_BT106_7_3_1,Length=0.039826000,Units=km
new line.1453674 bus1=BBT1541335.1.2.3.0,bus2=BBT1541342.1.2.3.0,Phases=3,Linecode=BT107_BT106_7_3_1,Length=0.031917000,Units=km
new line.1453688 bus1=BBT1541349.1.2.3.0,bus2=BBT1541356.1.2.3.0,Phases=3,Linecode=BT803_BT803_4_3_4,Length=0.026086000,Units=km
new line.1453695 bus1=BBT1541370.1.2.3.0,bus2=BBT1541349.1.2.3.0,Phases=3,Linecode=BT803_BT803_4_3_4,Length=0.028312000,Units=km
new line.1453702 bus1=BBT1541356.1.2.3.0,bus2=BBT1541363.1.2.3.0,Phases=3,Linecode=BT803_BT803_4_3_4,Length=0.023332000,Units=km
new line.1453709 bus1=BBT1541384.1.2.3.0,bus2=BBT1541370.1.2.3.0,Phases=3,Linecode=BT803_BT803_4_3_4,Length=0.025816000,Units=km
new line.1453716 bus1=BBT1541391.1.2.3.0,bus2=BBT1541398.1.2.3.0,Phases=3,Linecode=BT509_BT509_7_3_1,Length=0.000501000,Units=km
new line.1453723 bus1=BBT1541398.1.2.3.0,bus2=BBT1541405.1.2.3.0,Phases=3,Linecode=BT108_BT107_7_3_1,Length=0.035354000,Units=km
new line.1453730 bus1=BBT1541398.1.2.3.0,bus2=BBT1541433.1.2.3.0,Phases=3,Linecode=BT108_BT107_7_3_1,Length=0.034682000,Units=km
new line.1453737 bus1=BBT1541405.1.2.3.0,bus2=BBT1541412.1.2.3.0,Phases=3,Linecode=BT108_BT107_7_3_1,Length=0.036138000,Units=km
new line.1453744 bus1=BBT1541405.1.2.3.0,bus2=BBT1541482.1.2.3.0,Phases=3,Linecode=BT106_BT106_7_3_1,Length=0.027304000,Units=km
new line.1453751 bus1=BBT1541412.1.2.3.0,bus2=BBT1541419.1.2.3.0,Phases=3,Linecode=BT108_BT107_7_3_1,Length=0.033313000,Units=km
new line.1453758 bus1=BBT1541419.1.2.3.0,bus2=BBT1541426.1.2.3.0,Phases=3,Linecode=BT108_BT107_7_3_1,Length=0.038092000,Units=km
new line.1453765 bus1=BBT1541440.1.2.3.0,bus2=BBT158091551.1.2.3.0,Phases=3,Linecode=BT803_BT803_4_3_4,Length=0.030077000,Units=km
new line.1453772 bus1=BBT1541447.1.2.3.0,bus2=BBT1541440.1.2.3.0,Phases=3,Linecode=BT803_BT803_4_3_4,Length=0.023439000,Units=km
new line.1453779 bus1=BBT1541440.1.2.3.0,bus2=BBT1541468.1.2.3.0,Phases=3,Linecode=BT803_BT803_4_3_4,Length=0.023439000,Units=km
new line.1453786 bus1=BBT1541447.1.2.3.0,bus2=BBT1541454.1.2.3.0,Phases=3,Linecode=BT803_BT803_4_3_4,Length=0.029438000,Units=km
new line.1453793 bus1=BBT1541454.1.2.3.0,bus2=BBT1541461.1.2.3.0,Phases=3,Linecode=BT803_BT803_4_3_4,Length=0.034998000,Units=km
new line.1453800 bus1=BBT1541461.1.2.3.0,bus2=BBT2576817.1.2.3.0,Phases=3,Linecode=BT810_BT810_4_3_4,Length=0.032569000,Units=km
new line.1453807 bus1=BBT1541468.1.2.3.0,bus2=BBT1541475.1.2.3.0,Phases=3,Linecode=BT803_BT803_4_3_4,Length=0.027669000,Units=km
new line.1453814 bus1=BBT1542392.1.2.3.0,bus2=BBT1542399.1.2.3.0,Phases=3,Linecode=BT107_BT106_7_3_1,Length=0.038962000,Units=km
new line.1453821 bus1=BBT1541489.1.2.3.0,bus2=BBT1541496.1.2.3.0,Phases=3,Linecode=BT518_BT518_7_3_1,Length=0.000501000,Units=km
new line.1453828 bus1=BBT1541496.1.2.3.0,bus2=BBT1541503.1.2.3.0,Phases=3,Linecode=BT108_BT107_7_3_1,Length=0.035027000,Units=km
new line.1453835 bus1=BBT1541496.1.2.3.0,bus2=BBT1541545.1.2.3.0,Phases=3,Linecode=BT108_BT107_7_3_1,Length=0.034071000,Units=km
new line.1453842 bus1=BBT1541503.1.2.3.0,bus2=BBT1541510.1.2.3.0,Phases=3,Linecode=BT803_BT803_4_3_4,Length=0.029079000,Units=km
new line.1453849 bus1=BBT1541503.1.2.3.0,bus2=BBT1541594.1.2.3.0,Phases=3,Linecode=BT810_BT810_4_3_4,Length=0.039218000,Units=km
new line.1453856 bus1=BBT1541510.1.2.3.0,bus2=BBT1541517.1.2.3.0,Phases=3,Linecode=BT803_BT803_4_3_4,Length=0.027213000,Units=km
new line.1453863 bus1=BBT1541517.1.2.3.0,bus2=BBT1541524.1.2.3.0,Phases=3,Linecode=BT803_BT803_4_3_4,Length=0.026258000,Units=km
new line.1453870 bus1=BBT1541524.1.2.3.0,bus2=BBT1541531.1.2.3.0,Phases=3,Linecode=BT107_BT106_7_3_1,Length=0.029079000,Units=km
new line.1453877 bus1=BBT1541531.1.2.3.0,bus2=BBT1541538.1.2.3.0,Phases=3,Linecode=BT107_BT106_7_3_1,Length=0.029844000,Units=km
new line.1453884 bus1=BBT1541545.1.2.3.0,bus2=BBT1541552.1.2.3.0,Phases=3,Linecode=BT108_BT107_7_3_1,Length=0.030027000,Units=km
new line.1453891 bus1=BBT1541545.1.2.3.0,bus2=BBT1541580.1.2.3.0,Phases=3,Linecode=BT107_BT106_7_3_1,Length=0.027176000,Units=km
new line.1453898 bus1=BBT1541552.1.2.3.0,bus2=BBT1541559.1.2.3.0,Phases=3,Linecode=BT108_BT107_7_3_1,Length=0.037135000,Units=km
new line.1453905 bus1=BBT1541559.1.2.3.0,bus2=BBT1541566.1.2.3.0,Phases=3,Linecode=BT108_BT107_7_3_1,Length=0.040276000,Units=km
new line.1453912 bus1=BBT1541566.1.2.3.0,bus2=BBT1541573.1.2.3.0,Phases=3,Linecode=BT108_BT107_7_3_1,Length=0.036151000,Units=km
new line.1453919 bus1=BBT1541657.1.2.3.0,bus2=BBT1541664.1.2.3.0,Phases=3,Linecode=BT107_BT106_7_3_1,Length=0.011185000,Units=km
new line.1453926 bus1=BBT1541580.1.2.3.0,bus2=BBT1541587.1.2.3.0,Phases=3,Linecode=BT107_BT106_7_3_1,Length=0.032569000,Units=km
new line.1453933 bus1=BBT1541594.1.2.3.0,bus2=BBT2577671.1.2.3.0,Phases=3,Linecode=BT810_BT810_4_3_4,Length=0.045623000,Units=km
new line.1453940 bus1=BBT1541601.1.2.3.0,bus2=BBT1541608.1.2.3.0,Phases=3,Linecode=BT307_BT307_7_3_1,Length=0.000501000,Units=km
new line.1453947 bus1=BBT1541608.1.2.3.0,bus2=BBT1541615.1.2.3.0,Phases=3,Linecode=BT108_BT107_7_3_1,Length=0.033538000,Units=km
new line.1453954 bus1=BBT1541608.1.2.3.0,bus2=BBT1541713.1.2.3.0,Phases=3,Linecode=BT108_BT107_7_3_1,Length=0.030094000,Units=km
new line.1453961 bus1=BBT1541615.1.2.3.0,bus2=BBT1541622.1.2.3.0,Phases=3,Linecode=BT108_BT107_7_3_1,Length=0.036068000,Units=km
new line.1453968 bus1=BBT1541622.1.2.3.0,bus2=BBT1541629.1.2.3.0,Phases=3,Linecode=BT108_BT107_7_3_1,Length=0.013607000,Units=km
new line.1453975 bus1=BBT1541629.1.2.3.0,bus2=BBT1541636.1.2.3.0,Phases=3,Linecode=BT108_BT107_7_3_1,Length=0.017124000,Units=km
new line.1453982 bus1=BBT1541629.1.2.3.0,bus2=BBT1541643.1.2.3.0,Phases=3,Linecode=BT107_BT106_7_3_1,Length=0.017036000,Units=km
new line.1453989 bus1=BBT1541629.1.2.3.0,bus2=BBT1541671.1.2.3.0,Phases=3,Linecode=BT107_BT106_7_3_1,Length=0.007074000,Units=km
new line.1453996 bus1=BBT1541643.1.2.3.0,bus2=BBT1541650.1.2.3.0,Phases=3,Linecode=BT107_BT106_7_3_1,Length=0.018688000,Units=km
new line.1454003 bus1=BBT1541650.1.2.3.0,bus2=BBT1541657.1.2.3.0,Phases=3,Linecode=BT107_BT106_7_3_1,Length=0.027903000,Units=km
new line.1454010 bus1=BBT1541671.1.2.3.0,bus2=BBT1541678.1.2.3.0,Phases=3,Linecode=BT107_BT106_7_3_1,Length=0.025009000,Units=km
new line.1454017 bus1=BBT1541678.1.2.3.0,bus2=BBT1541685.1.2.3.0,Phases=3,Linecode=BT107_BT106_7_3_1,Length=0.025009000,Units=km
new line.1454024 bus1=BBT1541685.1.2.3.0,bus2=BBT1541692.1.2.3.0,Phases=3,Linecode=BT107_BT106_7_3_1,Length=0.034027000,Units=km
new line.1454031 bus1=BBT1541685.1.2.3.0,bus2=BBT1541706.1.2.3.0,Phases=3,Linecode=BT107_BT106_7_3_1,Length=0.033027000,Units=km
new line.1454038 bus1=BBT1541692.1.2.3.0,bus2=BBT1541699.1.2.3.0,Phases=3,Linecode=BT107_BT106_7_3_1,Length=0.037229000,Units=km
new line.1454045 bus1=BBT1541706.1.2.3.0,bus2=BBT2376239.1.2.3.0,Phases=3,Linecode=BT107_BT106_7_3_1,Length=0.035027000,Units=km
new line.1454052 bus1=BBT1541713.1.2.3.0,bus2=BBT1541720.1.2.3.0,Phases=3,Linecode=BT107_BT106_7_3_1,Length=0.036151000,Units=km
new line.1454059 bus1=BBT1541713.1.2.3.0,bus2=BBT1541734.1.2.3.0,Phases=3,Linecode=BT107_BT106_7_3_1,Length=0.030375000,Units=km
new line.1454066 bus1=BBT1541720.1.2.3.0,bus2=BBT1541727.1.2.3.0,Phases=3,Linecode=BT107_BT106_7_3_1,Length=0.025327000,Units=km
new line.1454073 bus1=BBT1541734.1.2.3.0,bus2=BBT1541741.1.2.3.0,Phases=3,Linecode=BT107_BT106_7_3_1,Length=0.037497000,Units=km
new line.1454080 bus1=BBT1541734.1.2.3.0,bus2=BBT1541748.1.2.3.0,Phases=3,Linecode=BT107_BT106_7_3_1,Length=0.025622000,Units=km
new line.1454087 bus1=BBT1541741.1.2.3.0,bus2=BBT1541776.1.2.3.0,Phases=3,Linecode=BT107_BT106_7_3_1,Length=0.040014000,Units=km
new line.1454094 bus1=BBT154657429.1.2.3.0,bus2=BBT154657520.1.2.3.0,Phases=3,Linecode=BT803_BT803_4_3_4,Length=0.005833000,Units=km
new line.1454101 bus1=BBT1541748.1.2.3.0,bus2=BBT1541762.1.2.3.0,Phases=3,Linecode=BT107_BT106_7_3_1,Length=0.027176000,Units=km
new line.1454108 bus1=BBT1541762.1.2.3.0,bus2=BBT1541769.1.2.3.0,Phases=3,Linecode=BT107_BT106_7_3_1,Length=0.021031000,Units=km
new line.1454115 bus1=BBT1541790.1.2.3.0,bus2=BBT1541797.1.2.3.0,Phases=3,Linecode=BT803_BT803_4_3_4,Length=0.032569000,Units=km
new line.1454122 bus1=BBT1541797.1.2.3.0,bus2=BBT1541804.1.2.3.0,Phases=3,Linecode=BT803_BT803_4_3_4,Length=0.026182000,Units=km
new line.1454129 bus1=BBT1541804.1.2.3.0,bus2=BBT1541811.1.2.3.0,Phases=3,Linecode=BT803_BT803_4_3_4,Length=0.024092000,Units=km
new line.1454136 bus1=BBT1541818.1.2.3.0,bus2=BBT1541790.1.2.3.0,Phases=3,Linecode=BT803_BT803_4_3_4,Length=0.026936000,Units=km
new line.1454143 bus1=BBT1541825.1.2.3.0,bus2=BBT1541818.1.2.3.0,Phases=3,Linecode=BT803_BT803_4_3_4,Length=0.032292000,Units=km
new line.1454150 bus1=BBT1541783.1.2.3.0,bus2=BBT1541825.1.2.3.0,Phases=3,Linecode=BT509_BT509_7_3_1,Length=0.000501000,Units=km
new line.1454157 bus1=BBT1541825.1.2.3.0,bus2=BBT1541832.1.2.3.0,Phases=3,Linecode=BT803_BT803_4_3_4,Length=0.037749000,Units=km
new line.1454164 bus1=BBT1541832.1.2.3.0,bus2=BBT1541839.1.2.3.0,Phases=3,Linecode=BT803_BT803_4_3_4,Length=0.034422000,Units=km
new line.1454171 bus1=BBT1541832.1.2.3.0,bus2=BBT1927938.1.2.3.0,Phases=3,Linecode=BT803_BT803_4_3_4,Length=0.036687000,Units=km
new line.1454178 bus1=BBT1541839.1.2.3.0,bus2=BBT1541846.1.2.3.0,Phases=3,Linecode=BT803_BT803_4_3_4,Length=0.036068000,Units=km
new line.1454185 bus1=BBT1541846.1.2.3.0,bus2=BBT1541853.1.2.3.0,Phases=3,Linecode=BT803_BT803_4_3_4,Length=0.036068000,Units=km
new line.1454192 bus1=BBT1541853.1.2.3.0,bus2=BBT1541860.1.2.3.0,Phases=3,Linecode=BT803_BT803_4_3_4,Length=0.025622000,Units=km
new line.1454199 bus1=BBT1541860.1.2.3.0,bus2=BBT1541867.1.2.3.0,Phases=3,Linecode=BT809_BT809_4_3_4,Length=0.031634000,Units=km
new line.1454206 bus1=BBT1541888.1.2.3.0,bus2=BBT1541881.1.2.3.0,Phases=3,Linecode=BT803_BT803_4_3_4,Length=0.041124000,Units=km
new line.1454213 bus1=BBT1541895.1.2.3.0,bus2=BBT1541888.1.2.3.0,Phases=3,Linecode=BT803_BT803_4_3_4,Length=0.027669000,Units=km
new line.1454220 bus1=BBT1541874.1.2.3.0,bus2=BBT1541902.1.2.3.0,Phases=3,Linecode=BT521_BT521_7_3_1,Length=0.000501000,Units=km
new line.1454227 bus1=BBT1541902.1.2.3.0,bus2=BBT1541909.1.2.3.0,Phases=3,Linecode=BT803_BT803_4_3_4,Length=0.022812000,Units=km
new line.1454234 bus1=BBT1541902.1.2.3.0,bus2=BBT1541958.1.2.3.0,Phases=3,Linecode=BT803_BT803_4_3_4,Length=0.031059000,Units=km
new line.1454241 bus1=BBT1541909.1.2.3.0,bus2=BBT1541916.1.2.3.0,Phases=3,Linecode=BT803_BT803_4_3_4,Length=0.029557000,Units=km
new line.1454248 bus1=BBT1541916.1.2.3.0,bus2=BBT1541923.1.2.3.0,Phases=3,Linecode=BT803_BT803_4_3_4,Length=0.037121000,Units=km
new line.1454255 bus1=BBT1541923.1.2.3.0,bus2=BBT1541944.1.2.3.0,Phases=3,Linecode=BT803_BT803_4_3_4,Length=0.041246000,Units=km
new line.1454262 bus1=BBT1541923.1.2.3.0,bus2=BBT1541972.1.2.3.0,Phases=3,Linecode=BT803_BT803_4_3_4,Length=0.021848000,Units=km
new line.1454269 bus1=BBT1541930.1.2.3.0,bus2=BBT1541937.1.2.3.0,Phases=3,Linecode=BT803_BT803_4_3_4,Length=0.022212000,Units=km
new line.1454276 bus1=BBT1541944.1.2.3.0,bus2=BBT1541951.1.2.3.0,Phases=3,Linecode=BT803_BT803_4_3_4,Length=0.045809000,Units=km
new line.1454283 bus1=BBT1541993.1.2.3.0,bus2=BBT1542000.1.2.3.0,Phases=3,Linecode=BT108_BT107_7_3_1,Length=0.022812000,Units=km
new line.1454290 bus1=BBT1541993.1.2.3.0,bus2=BBT1542014.1.2.3.0,Phases=3,Linecode=BT107_BT106_7_3_1,Length=0.031634000,Units=km
new line.1454297 bus1=BBT1541958.1.2.3.0,bus2=BBT1541965.1.2.3.0,Phases=3,Linecode=BT803_BT803_4_3_4,Length=0.033953000,Units=km
new line.1454304 bus1=BBT1541965.1.2.3.0,bus2=BBT1541895.1.2.3.0,Phases=3,Linecode=BT803_BT803_4_3_4,Length=0.032027000,Units=km
new line.1454311 bus1=BBT1541972.1.2.3.0,bus2=BBT1541930.1.2.3.0,Phases=3,Linecode=BT803_BT803_4_3_4,Length=0.025971000,Units=km
new line.1454318 bus1=BBT1541986.1.2.3.0,bus2=BBT1541993.1.2.3.0,Phases=3,Linecode=BT108_BT107_7_3_1,Length=0.034217000,Units=km
new line.1454325 bus1=BBT1541979.1.2.3.0,bus2=BBT1541986.1.2.3.0,Phases=3,Linecode=BT509_BT509_7_3_1,Length=0.000501000,Units=km
new line.1454332 bus1=BBT1541986.1.2.3.0,bus2=BBT1542021.1.2.3.0,Phases=3,Linecode=BT108_BT107_7_3_1,Length=0.026880000,Units=km
new line.1454339 bus1=BBT1542000.1.2.3.0,bus2=BBT1542007.1.2.3.0,Phases=3,Linecode=BT107_BT106_7_3_1,Length=0.031252000,Units=km
new line.1454346 bus1=BBT1542021.1.2.3.0,bus2=BBT1542028.1.2.3.0,Phases=3,Linecode=BT809_BT809_4_3_4,Length=0.034217000,Units=km
new line.1454353 bus1=BBT1542021.1.2.3.0,bus2=BBT1542098.1.2.3.0,Phases=3,Linecode=BT108_BT107_7_3_1,Length=0.021221000,Units=km
new line.1454360 bus1=BBT1542035.1.2.3.0,bus2=BBT1542042.1.2.3.0,Phases=3,Linecode=BT107_BT106_7_3_1,Length=0.025504000,Units=km
new line.1454367 bus1=BBT1542035.1.2.3.0,bus2=BBT1542049.1.2.3.0,Phases=3,Linecode=BT107_BT106_7_3_1,Length=0.022369000,Units=km
new line.1454374 bus1=BBT1542049.1.2.3.0,bus2=BBT1542056.1.2.3.0,Phases=3,Linecode=BT107_BT106_7_3_1,Length=0.032569000,Units=km
new line.1454381 bus1=BBT1542322.1.2.3.0,bus2=BBT1542329.1.2.3.0,Phases=3,Linecode=BT107_BT106_7_3_1,Length=0.017006000,Units=km
new line.1454388 bus1=BBT1542056.1.2.3.0,bus2=BBT1542063.1.2.3.0,Phases=3,Linecode=BT107_BT106_7_3_1,Length=0.032214000,Units=km
new line.1454395 bus1=BBT1542063.1.2.3.0,bus2=BBT1542070.1.2.3.0,Phases=3,Linecode=BT107_BT106_7_3_1,Length=0.030817000,Units=km
new line.1454402 bus1=BBT1542070.1.2.3.0,bus2=BBT1542077.1.2.3.0,Phases=3,Linecode=BT107_BT106_7_3_1,Length=0.034682000,Units=km
new line.1454409 bus1=BBT1542077.1.2.3.0,bus2=BBT1542084.1.2.3.0,Phases=3,Linecode=BT107_BT106_7_3_1,Length=0.033983000,Units=km
new line.1454416 bus1=BBT1542084.1.2.3.0,bus2=BBT1542091.1.2.3.0,Phases=3,Linecode=BT107_BT106_7_3_1,Length=0.034668000,Units=km
new line.1454423 bus1=BBT1542098.1.2.3.0,bus2=BBT1542035.1.2.3.0,Phases=3,Linecode=BT108_BT107_7_3_1,Length=0.021385000,Units=km
new line.1454430 bus1=BBT1542105.1.2.3.0,bus2=BBT1542112.1.2.3.0,Phases=3,Linecode=BT307_BT307_7_3_1,Length=0.000501000,Units=km
new line.1454437 bus1=BBT1542112.1.2.3.0,bus2=BBT1542119.1.2.3.0,Phases=3,Linecode=BT108_BT107_7_3_1,Length=0.024216000,Units=km
new line.1454444 bus1=BBT1542112.1.2.3.0,bus2=BBT1542133.1.2.3.0,Phases=3,Linecode=BT108_BT107_7_3_1,Length=0.023609000,Units=km
new line.1454451 bus1=BBT1542119.1.2.3.0,bus2=BBT1542126.1.2.3.0,Phases=3,Linecode=BT108_BT107_7_3_1,Length=0.034144000,Units=km
new line.1454458 bus1=BBT1542119.1.2.3.0,bus2=BBT1542140.1.2.3.0,Phases=3,Linecode=BT107_BT106_7_3_1,Length=0.036248000,Units=km
new line.1454465 bus1=BBT1542119.1.2.3.0,bus2=BBT1542168.1.2.3.0,Phases=3,Linecode=BT107_BT106_7_3_1,Length=0.033850000,Units=km
new line.1454472 bus1=BBT1542133.1.2.3.0,bus2=BBT1542196.1.2.3.0,Phases=3,Linecode=BT107_BT106_7_3_1,Length=0.025248000,Units=km
new line.1454479 bus1=BBT1542140.1.2.3.0,bus2=BBT1542147.1.2.3.0,Phases=3,Linecode=BT107_BT106_7_3_1,Length=0.035012000,Units=km
new line.1454486 bus1=BBT1542147.1.2.3.0,bus2=BBT1542154.1.2.3.0,Phases=3,Linecode=BT107_BT106_7_3_1,Length=0.035481000,Units=km
new line.1454493 bus1=BBT1542154.1.2.3.0,bus2=BBT1542161.1.2.3.0,Phases=3,Linecode=BT107_BT106_7_3_1,Length=0.032661000,Units=km
new line.1454500 bus1=BBT1542168.1.2.3.0,bus2=BBT1542175.1.2.3.0,Phases=3,Linecode=BT107_BT106_7_3_1,Length=0.032462000,Units=km
new line.1454507 bus1=BBT1542175.1.2.3.0,bus2=BBT2375644.1.2.3.0,Phases=3,Linecode=BT107_BT106_7_3_1,Length=0.033850000,Units=km
new line.1454514 bus1=BBT1542182.1.2.3.0,bus2=BBT1542189.1.2.3.0,Phases=3,Linecode=BT107_BT106_7_3_1,Length=0.035860000,Units=km
new line.1454521 bus1=BBT1542196.1.2.3.0,bus2=BBT1542203.1.2.3.0,Phases=3,Linecode=BT107_BT106_7_3_1,Length=0.021641000,Units=km
new line.1454528 bus1=BBT1542203.1.2.3.0,bus2=BBT1542210.1.2.3.0,Phases=3,Linecode=BT107_BT106_7_3_1,Length=0.028855000,Units=km
new line.1454535 bus1=BBT1542210.1.2.3.0,bus2=BBT1542217.1.2.3.0,Phases=3,Linecode=BT107_BT106_7_3_1,Length=0.026936000,Units=km
new line.1454542 bus1=BBT1542217.1.2.3.0,bus2=BBT1542224.1.2.3.0,Phases=3,Linecode=BT107_BT106_7_3_1,Length=0.026917000,Units=km
new line.1454549 bus1=BBT1542224.1.2.3.0,bus2=BBT1542182.1.2.3.0,Phases=3,Linecode=BT107_BT106_7_3_1,Length=0.022812000,Units=km
new line.1454556 bus1=BBT1542231.1.2.3.0,bus2=BBT1542238.1.2.3.0,Phases=3,Linecode=BT307_BT307_7_3_1,Length=0.000501000,Units=km
new line.1454563 bus1=BBT1542238.1.2.3.0,bus2=BBT1542245.1.2.3.0,Phases=3,Linecode=BT108_BT107_7_3_1,Length=0.031076000,Units=km
new line.1454570 bus1=BBT1542238.1.2.3.0,bus2=BBT1542259.1.2.3.0,Phases=3,Linecode=BT108_BT107_7_3_1,Length=0.029165000,Units=km
new line.1454577 bus1=BBT1542245.1.2.3.0,bus2=BBT1542252.1.2.3.0,Phases=3,Linecode=BT108_BT107_7_3_1,Length=0.026637000,Units=km
new line.1454584 bus1=BBT1542259.1.2.3.0,bus2=BBT1542266.1.2.3.0,Phases=3,Linecode=BT107_BT106_7_3_1,Length=0.025009000,Units=km
new line.1454591 bus1=BBT1542259.1.2.3.0,bus2=BBT1542273.1.2.3.0,Phases=3,Linecode=BT107_BT106_7_3_1,Length=0.024196000,Units=km
new line.1454598 bus1=BBT1542259.1.2.3.0,bus2=BBT1542287.1.2.3.0,Phases=3,Linecode=BT803_BT803_4_3_4,Length=0.024848000,Units=km
new line.1454612 bus1=BBT1647630.1.2.3.0,bus2=BBT1647637.1.2.3.0,Phases=3,Linecode=BT803_BT803_4_3_4,Length=0.036248000,Units=km