! manter este comentario para compatibilidade do C#
new circuit.alimSDEU15 bus1=BMT125127769.1.2.3,basekv=13.800000000,pu=1.040000000