new load.3000947066M1 bus1=RML1053066419.1.0,Phases=1,kv=0.127,kW=0.10164,pf=0.92,Vminpu=0.92,Vmaxpu=1.5,model=8,zipv=[0.5,0,0.5,1,0,0,0],daily=RES1_19,status=variable
new load.3000947067M1 bus1=RML1053066412.2.0,Phases=1,kv=0.127,kW=0.26902,pf=0.92,Vminpu=0.92,Vmaxpu=1.5,model=8,zipv=[0.5,0,0.5,1,0,0,0],daily=RES1_19,status=variable
new load.3000947068M1 bus1=RML1053066433.3.0,Phases=1,kv=0.127,kW=0.17338,pf=0.92,Vminpu=0.92,Vmaxpu=1.5,model=8,zipv=[0.5,0,0.5,1,0,0,0],daily=RES1_19,status=variable
new load.3000947069M1 bus1=RML1053066426.2.0,Phases=1,kv=0.127,kW=0.8095,pf=0.92,Vminpu=0.92,Vmaxpu=1.5,model=8,zipv=[0.5,0,0.5,1,0,0,0],daily=RES3_18,status=variable
new load.3000946364M1 bus1=RML1053052139.3.0,Phases=1,kv=0.127,kW=0.51196,pf=0.92,Vminpu=0.92,Vmaxpu=1.5,model=8,zipv=[0.5,0,0.5,1,0,0,0],daily=RES2_23,status=variable
new load.3000946365M1 bus1=RML1053052153.1.2.0,Phases=2,kv=0.22,kW=0.36624,pf=0.92,Vminpu=0.92,Vmaxpu=1.5,model=8,zipv=[0.5,0,0.5,1,0,0,0],daily=RES2_23,status=variable
new load.3000946381M1 bus1=RML1053052160.1.3.0,Phases=2,kv=0.22,kW=0.4962,pf=0.92,Vminpu=0.92,Vmaxpu=1.5,model=8,zipv=[0.5,0,0.5,1,0,0,0],daily=RES2_23,status=variable
new load.3000946382M1 bus1=RML1053052153.1.2.0,Phases=2,kv=0.22,kW=0.37806,pf=0.92,Vminpu=0.92,Vmaxpu=1.5,model=8,zipv=[0.5,0,0.5,1,0,0,0],daily=RES2_23,status=variable
new load.3000946435M1 bus1=RML1053063528.1.2.3.0,Phases=3,kv=0.22,kW=1.43832,pf=0.92,Vminpu=0.92,Vmaxpu=1.5,model=8,zipv=[0.5,0,0.5,1,0,0,0],daily=RES4_19,status=variable
new load.3000946436M1 bus1=RML1053063528.1.2.3.0,Phases=3,kv=0.22,kW=0.35506,pf=0.92,Vminpu=0.92,Vmaxpu=1.5,model=8,zipv=[0.5,0,0.5,1,0,0,0],daily=COM1_22,status=variable
new load.3000946438M1 bus1=RML1053063521.2.0,Phases=1,kv=0.127,kW=0.27378,pf=0.92,Vminpu=0.92,Vmaxpu=1.5,model=8,zipv=[0.5,0,0.5,1,0,0,0],daily=COM1_22,status=variable
new load.3000946758M1 bus1=RML1053063535.1.2.0,Phases=2,kv=0.22,kW=0.03422,pf=0.92,Vminpu=0.92,Vmaxpu=1.5,model=8,zipv=[0.5,0,0.5,1,0,0,0],daily=COM1_22,status=variable
new load.3000946112M1 bus1=RML1053063493.3.0,Phases=1,kv=0.127,kW=0.52344,pf=0.92,Vminpu=0.92,Vmaxpu=1.5,model=8,zipv=[0.5,0,0.5,1,0,0,0],daily=RES3_18,status=variable
new load.3000946114M1 bus1=RML1053063458.1.2.3.0,Phases=3,kv=0.22,kW=0.25408,pf=0.92,Vminpu=0.92,Vmaxpu=1.5,model=8,zipv=[0.5,0,0.5,1,0,0,0],daily=RES1_19,status=variable
new load.3000946126M1 bus1=RML1053063472.2.0,Phases=1,kv=0.127,kW=0.01494,pf=0.92,Vminpu=0.92,Vmaxpu=1.5,model=8,zipv=[0.5,0,0.5,1,0,0,0],daily=RES1_19,status=variable
new load.3000946127M1 bus1=RML1053063465.3.0,Phases=1,kv=0.127,kW=0.10462,pf=0.92,Vminpu=0.92,Vmaxpu=1.5,model=8,zipv=[0.5,0,0.5,1,0,0,0],daily=RES1_19,status=variable
new load.3000946128M1 bus1=RML1053063437.1.2.0,Phases=2,kv=0.22,kW=0.46628,pf=0.92,Vminpu=0.92,Vmaxpu=1.5,model=8,zipv=[0.5,0,0.5,1,0,0,0],daily=COM1_22,status=variable
new load.3000946129M1 bus1=RML1053063444.3.0,Phases=1,kv=0.127,kW=0.31112,pf=0.92,Vminpu=0.92,Vmaxpu=1.5,model=8,zipv=[0.5,0,0.5,1,0,0,0],daily=RES2_23,status=variable
new load.3000946130M1 bus1=RML1053063500.2.0,Phases=1,kv=0.127,kW=0.06278,pf=0.92,Vminpu=0.92,Vmaxpu=1.5,model=8,zipv=[0.5,0,0.5,1,0,0,0],daily=RES1_19,status=variable
new load.3000946147M1 bus1=RML1053063430.2.0,Phases=1,kv=0.127,kW=0.65766,pf=0.92,Vminpu=0.92,Vmaxpu=1.5,model=8,zipv=[0.5,0,0.5,1,0,0,0],daily=RES2_23,status=variable
new load.3000946160M1 bus1=RML1053045496.1.2.0,Phases=2,kv=0.22,kW=1.14646,pf=0.92,Vminpu=0.92,Vmaxpu=1.5,model=8,zipv=[0.5,0,0.5,1,0,0,0],daily=COM1_22,status=variable
new load.3000946131M1 bus1=RML1053045454.2.3.0,Phases=2,kv=0.22,kW=0.97078,pf=0.92,Vminpu=0.92,Vmaxpu=1.5,model=8,zipv=[0.5,0,0.5,1,0,0,0],daily=RES3_18,status=variable
new load.3000946134M1 bus1=RML1053045510.2.0,Phases=1,kv=0.127,kW=0.89438,pf=0.92,Vminpu=0.92,Vmaxpu=1.5,model=8,zipv=[0.5,0,0.5,1,0,0,0],daily=RES4_19,status=variable
new load.3000946137M1 bus1=RML1053045468.1.2.0,Phases=2,kv=0.22,kW=1.15502,pf=0.92,Vminpu=0.92,Vmaxpu=1.5,model=8,zipv=[0.5,0,0.5,1,0,0,0],daily=COM1_22,status=variable
new load.3000946138M1 bus1=RML1053586659.1.0,Phases=1,kv=0.127,kW=0.38988,pf=0.92,Vminpu=0.92,Vmaxpu=1.5,model=8,zipv=[0.5,0,0.5,1,0,0,0],daily=RES2_23,status=variable
new load.3000946139M1 bus1=RML1053045461.2.3.0,Phases=2,kv=0.22,kW=0.13452,pf=0.92,Vminpu=0.92,Vmaxpu=1.5,model=8,zipv=[0.5,0,0.5,1,0,0,0],daily=RES1_19,status=variable
new load.3000946140M1 bus1=RML1053045475.1.2.3.0,Phases=3,kv=0.22,kW=0.46076,pf=0.92,Vminpu=0.92,Vmaxpu=1.5,model=8,zipv=[0.5,0,0.5,1,0,0,0],daily=RES2_23,status=variable
new load.3000946024M1 bus1=RML1053045405.2.3.0,Phases=2,kv=0.22,kW=0.38594,pf=0.92,Vminpu=0.92,Vmaxpu=1.5,model=8,zipv=[0.5,0,0.5,1,0,0,0],daily=RES2_23,status=variable
new load.3000946025M1 bus1=RML1053045328.2.0,Phases=1,kv=0.127,kW=0.32562,pf=0.92,Vminpu=0.92,Vmaxpu=1.5,model=8,zipv=[0.5,0,0.5,1,0,0,0],daily=RES3_18,status=variable
new load.3000946026M1 bus1=RML1053045335.2.0,Phases=1,kv=0.127,kW=0.33474,pf=0.92,Vminpu=0.92,Vmaxpu=1.5,model=8,zipv=[0.5,0,0.5,1,0,0,0],daily=RES2_23,status=variable
new load.3000946027M1 bus1=RML1053045363.1.0,Phases=1,kv=0.127,kW=0.55528,pf=0.92,Vminpu=0.92,Vmaxpu=1.5,model=8,zipv=[0.5,0,0.5,1,0,0,0],daily=RES2_23,status=variable
new load.3000946029M1 bus1=RML1053045377.3.0,Phases=1,kv=0.127,kW=0.15842,pf=0.92,Vminpu=0.92,Vmaxpu=1.5,model=8,zipv=[0.5,0,0.5,1,0,0,0],daily=RES1_19,status=variable
new load.3000946070M1 bus1=RML1053046070.1.0,Phases=1,kv=0.127,kW=0.17936,pf=0.92,Vminpu=0.92,Vmaxpu=1.5,model=8,zipv=[0.5,0,0.5,1,0,0,0],daily=RES1_19,status=variable
new load.3000946071M1 bus1=RML1053045972.1.2.0,Phases=2,kv=0.22,kW=0.50802,pf=0.92,Vminpu=0.92,Vmaxpu=1.5,model=8,zipv=[0.5,0,0.5,1,0,0,0],daily=RES2_23,status=variable
new load.3000946072M1 bus1=RML1053046056.3.0,Phases=1,kv=0.127,kW=0.764,pf=0.92,Vminpu=0.92,Vmaxpu=1.5,model=8,zipv=[0.5,0,0.5,1,0,0,0],daily=RES2_23,status=variable
new load.3000946073M1 bus1=RML1053046084.1.0,Phases=1,kv=0.127,kW=0.1375,pf=0.92,Vminpu=0.92,Vmaxpu=1.5,model=8,zipv=[0.5,0,0.5,1,0,0,0],daily=RES1_19,status=variable
new load.3000946053M1 bus1=RML1053045986.2.0,Phases=1,kv=0.127,kW=0.30324,pf=0.92,Vminpu=0.92,Vmaxpu=1.5,model=8,zipv=[0.5,0,0.5,1,0,0,0],daily=RES2_23,status=variable
new load.3000946054M1 bus1=RML1053045993.1.0,Phases=1,kv=0.127,kW=0.14648,pf=0.92,Vminpu=0.92,Vmaxpu=1.5,model=8,zipv=[0.5,0,0.5,1,0,0,0],daily=RES1_19,status=variable
new load.3000946056M1 bus1=RML1053046014.1.3.0,Phases=2,kv=0.22,kW=0.07772,pf=0.92,Vminpu=0.92,Vmaxpu=1.5,model=8,zipv=[0.5,0,0.5,1,0,0,0],daily=RES1_19,status=variable
new load.3000946059M1 bus1=RML1053046021.2.3.0,Phases=2,kv=0.22,kW=0.40562,pf=0.92,Vminpu=0.92,Vmaxpu=1.5,model=8,zipv=[0.5,0,0.5,1,0,0,0],daily=RES2_23,status=variable
new load.3000946060M1 bus1=RML1053046028.1.0,Phases=1,kv=0.127,kW=0.33474,pf=0.92,Vminpu=0.92,Vmaxpu=1.5,model=8,zipv=[0.5,0,0.5,1,0,0,0],daily=RES2_23,status=variable
new load.3000946077M1 bus1=RML1053047708.3.0,Phases=1,kv=0.127,kW=0.3623,pf=0.92,Vminpu=0.92,Vmaxpu=1.5,model=8,zipv=[0.5,0,0.5,1,0,0,0],daily=RES2_23,status=variable
new load.3000946078M1 bus1=RML1053047680.1.0,Phases=1,kv=0.127,kW=0.6104,pf=0.92,Vminpu=0.92,Vmaxpu=1.5,model=8,zipv=[0.5,0,0.5,1,0,0,0],daily=RES2_23,status=variable
new load.3000946079M1 bus1=RML1053047673.2.0,Phases=1,kv=0.127,kW=0.1375,pf=0.92,Vminpu=0.92,Vmaxpu=1.5,model=8,zipv=[0.5,0,0.5,1,0,0,0],daily=RES1_19,status=variable
new load.3000946081M1 bus1=RML1053047575.2.0,Phases=1,kv=0.127,kW=0.09566,pf=0.92,Vminpu=0.92,Vmaxpu=1.5,model=8,zipv=[0.5,0,0.5,1,0,0,0],daily=RES1_19,status=variable
new load.3000946186M1 bus1=RML1053048548.1.2.3.0,Phases=3,kv=0.22,kW=0.63908,pf=0.92,Vminpu=0.92,Vmaxpu=1.5,model=8,zipv=[0.5,0,0.5,1,0,0,0],daily=RES3_18,status=variable
new load.3000946187M1 bus1=RML1053048534.2.0,Phases=1,kv=0.127,kW=2.96084,pf=0.92,Vminpu=0.92,Vmaxpu=1.5,model=8,zipv=[0.5,0,0.5,1,0,0,0],daily=COM2_24,status=variable
new load.3000946188M1 bus1=RML1053048541.3.0,Phases=1,kv=0.127,kW=0.0807,pf=0.92,Vminpu=0.92,Vmaxpu=1.5,model=8,zipv=[0.5,0,0.5,1,0,0,0],daily=RES1_19,status=variable
new load.3000946191M1 bus1=RML1053048520.2.3.0,Phases=2,kv=0.22,kW=0.68874,pf=0.92,Vminpu=0.92,Vmaxpu=1.5,model=8,zipv=[0.5,0,0.5,1,0,0,0],daily=COM1_22,status=variable
new load.3000946214M1 bus1=RML1053048366.1.2.3.0,Phases=3,kv=0.22,kW=0.24384,pf=0.92,Vminpu=0.92,Vmaxpu=1.5,model=8,zipv=[0.5,0,0.5,1,0,0,0],daily=COM1_22,status=variable
new load.3000946217M1 bus1=RML1053048275.1.2.3.0,Phases=3,kv=0.22,kW=0.3465,pf=0.92,Vminpu=0.92,Vmaxpu=1.5,model=8,zipv=[0.5,0,0.5,1,0,0,0],daily=COM1_22,status=variable
new load.3000946218M1 bus1=RML1053048268.1.2.3.0,Phases=3,kv=0.22,kW=1.97096,pf=0.92,Vminpu=0.92,Vmaxpu=1.5,model=8,zipv=[0.5,0,0.5,1,0,0,0],daily=COM2_24,status=variable
new load.3000946219M1 bus1=RML1053048261.1.2.0,Phases=2,kv=0.22,kW=0.79732,pf=0.92,Vminpu=0.92,Vmaxpu=1.5,model=8,zipv=[0.5,0,0.5,1,0,0,0],daily=RES3_18,status=variable
new load.3000946220M1 bus1=RML1053048457.3.0,Phases=1,kv=0.127,kW=0.12554,pf=0.92,Vminpu=0.92,Vmaxpu=1.5,model=8,zipv=[0.5,0,0.5,1,0,0,0],daily=RES1_19,status=variable
new load.3000946221M1 bus1=RML1053048436.1.2.0,Phases=2,kv=0.22,kW=0.50408,pf=0.92,Vminpu=0.92,Vmaxpu=1.5,model=8,zipv=[0.5,0,0.5,1,0,0,0],daily=RES2_23,status=variable
new load.3000946391M1 bus1=RML1053048450.3.0,Phases=1,kv=0.127,kW=0.60318,pf=0.92,Vminpu=0.92,Vmaxpu=1.5,model=8,zipv=[0.5,0,0.5,1,0,0,0],daily=COM1_22,status=variable
new load.3000946392M1 bus1=RML1053048443.1.3.0,Phases=2,kv=0.22,kW=0.09266,pf=0.92,Vminpu=0.92,Vmaxpu=1.5,model=8,zipv=[0.5,0,0.5,1,0,0,0],daily=RES1_19,status=variable
new load.3000946397M1 bus1=RML1053048429.1.2.0,Phases=2,kv=0.22,kW=3.15792,pf=0.92,Vminpu=0.92,Vmaxpu=1.5,model=8,zipv=[0.5,0,0.5,1,0,0,0],daily=COM3_22,status=variable
new load.3000946398M1 bus1=RML1053048422.3.0,Phases=1,kv=0.127,kW=0.30718,pf=0.92,Vminpu=0.92,Vmaxpu=1.5,model=8,zipv=[0.5,0,0.5,1,0,0,0],daily=RES2_23,status=variable
new load.3000946400M1 bus1=RML1053048415.1.3.0,Phases=2,kv=0.22,kW=0.41068,pf=0.92,Vminpu=0.92,Vmaxpu=1.5,model=8,zipv=[0.5,0,0.5,1,0,0,0],daily=COM1_22,status=variable
new load.3000946401M1 bus1=RML1053048478.2.0,Phases=1,kv=0.127,kW=0.65372,pf=0.92,Vminpu=0.92,Vmaxpu=1.5,model=8,zipv=[0.5,0,0.5,1,0,0,0],daily=RES2_23,status=variable
new load.3000946402M1 bus1=RML1053155620.2.0,Phases=1,kv=0.127,kW=0.2166,pf=0.92,Vminpu=0.92,Vmaxpu=1.5,model=8,zipv=[0.5,0,0.5,1,0,0,0],daily=RES2_23,status=variable
new load.3000946403M1 bus1=RML1053048499.2.0,Phases=1,kv=0.127,kW=0.82562,pf=0.92,Vminpu=0.92,Vmaxpu=1.5,model=8,zipv=[0.5,0,0.5,1,0,0,0],daily=COM1_22,status=variable
new load.3000946404M1 bus1=RML1053048492.3.0,Phases=1,kv=0.127,kW=0.50408,pf=0.92,Vminpu=0.92,Vmaxpu=1.5,model=8,zipv=[0.5,0,0.5,1,0,0,0],daily=RES2_23,status=variable
new load.3000946407M1 bus1=RML1053048289.3.0,Phases=1,kv=0.127,kW=0.06278,pf=0.92,Vminpu=0.92,Vmaxpu=1.5,model=8,zipv=[0.5,0,0.5,1,0,0,0],daily=RES1_19,status=variable
new load.3000946408M1 bus1=RML1053048289.3.0,Phases=1,kv=0.127,kW=0.08968,pf=0.92,Vminpu=0.92,Vmaxpu=1.5,model=8,zipv=[0.5,0,0.5,1,0,0,0],daily=RES1_19,status=variable
new load.3000946409M1 bus1=RML1053048296.2.3.0,Phases=2,kv=0.22,kW=0.40212,pf=0.92,Vminpu=0.92,Vmaxpu=1.5,model=8,zipv=[0.5,0,0.5,1,0,0,0],daily=COM1_22,status=variable
new load.3000946410M1 bus1=RML1053048282.1.0,Phases=1,kv=0.127,kW=0.45346,pf=0.92,Vminpu=0.92,Vmaxpu=1.5,model=8,zipv=[0.5,0,0.5,1,0,0,0],daily=COM1_22,status=variable
new load.3000946413M1 bus1=RML1053048324.2.3.0,Phases=2,kv=0.22,kW=0.44106,pf=0.92,Vminpu=0.92,Vmaxpu=1.5,model=8,zipv=[0.5,0,0.5,1,0,0,0],daily=RES2_23,status=variable
new load.3000946414M1 bus1=RML1053048317.1.0,Phases=1,kv=0.127,kW=0.10694,pf=0.92,Vminpu=0.92,Vmaxpu=1.5,model=8,zipv=[0.5,0,0.5,1,0,0,0],daily=COM1_22,status=variable
new load.3000946415M1 bus1=RML1053048317.1.0,Phases=1,kv=0.127,kW=0.23614,pf=0.92,Vminpu=0.92,Vmaxpu=1.5,model=8,zipv=[0.5,0,0.5,1,0,0,0],daily=RES1_19,status=variable
new load.3000946416M1 bus1=RML1053048352.3.0,Phases=1,kv=0.127,kW=0.23914,pf=0.92,Vminpu=0.92,Vmaxpu=1.5,model=8,zipv=[0.5,0,0.5,1,0,0,0],daily=RES1_19,status=variable
new load.3000946417M1 bus1=RML1053048352.3.0,Phases=1,kv=0.127,kW=0.18832,pf=0.92,Vminpu=0.92,Vmaxpu=1.5,model=8,zipv=[0.5,0,0.5,1,0,0,0],daily=RES1_19,status=variable
new load.3000946419M1 bus1=RML1053048345.1.2.3.0,Phases=3,kv=0.22,kW=0.59034,pf=0.92,Vminpu=0.92,Vmaxpu=1.5,model=8,zipv=[0.5,0,0.5,1,0,0,0],daily=COM1_22,status=variable
new load.3000946420M1 bus1=RML1053048345.1.2.3.0,Phases=3,kv=0.22,kW=0.10694,pf=0.92,Vminpu=0.92,Vmaxpu=1.5,model=8,zipv=[0.5,0,0.5,1,0,0,0],daily=COM1_22,status=variable
new load.3000946421M1 bus1=RML1053048345.1.2.3.0,Phases=3,kv=0.22,kW=1.42024,pf=0.92,Vminpu=0.92,Vmaxpu=1.5,model=8,zipv=[0.5,0,0.5,1,0,0,0],daily=COM1_22,status=variable
new load.3000946422M1 bus1=RML1053048373.2.0,Phases=1,kv=0.127,kW=0.39774,pf=0.92,Vminpu=0.92,Vmaxpu=1.5,model=8,zipv=[0.5,0,0.5,1,0,0,0],daily=RES2_23,status=variable
new load.3000946423M1 bus1=RML1053048394.1.2.3.0,Phases=3,kv=0.22,kW=0.29944,pf=0.92,Vminpu=0.92,Vmaxpu=1.5,model=8,zipv=[0.5,0,0.5,1,0,0,0],daily=COM1_22,status=variable
new load.3000946427M1 bus1=RML1054167687.1.2.3.0,Phases=3,kv=0.22,kW=0.26006,pf=0.92,Vminpu=0.92,Vmaxpu=1.5,model=8,zipv=[0.5,0,0.5,1,0,0,0],daily=RES1_19,status=variable
new load.3000946942M1 bus1=RML1053049710.3.0,Phases=1,kv=0.127,kW=0.23914,pf=0.92,Vminpu=0.92,Vmaxpu=1.5,model=8,zipv=[0.5,0,0.5,1,0,0,0],daily=RES1_19,status=variable
new load.3000946943M1 bus1=RML1053049689.3.0,Phases=1,kv=0.127,kW=0.18234,pf=0.92,Vminpu=0.92,Vmaxpu=1.5,model=8,zipv=[0.5,0,0.5,1,0,0,0],daily=RES1_19,status=variable
new load.3000946944M1 bus1=RML1053049318.2.0,Phases=1,kv=0.127,kW=0.25408,pf=0.92,Vminpu=0.92,Vmaxpu=1.5,model=8,zipv=[0.5,0,0.5,1,0,0,0],daily=RES1_19,status=variable
new load.3000946945M1 bus1=RML1053049325.2.0,Phases=1,kv=0.127,kW=0.56708,pf=0.92,Vminpu=0.92,Vmaxpu=1.5,model=8,zipv=[0.5,0,0.5,1,0,0,0],daily=RES2_23,status=variable
new load.3000946911M1 bus1=RML1053049724.2.0,Phases=1,kv=0.127,kW=0.00298,pf=0.92,Vminpu=0.92,Vmaxpu=1.5,model=8,zipv=[0.5,0,0.5,1,0,0,0],daily=RES1_19,status=variable
new load.3000946913M1 bus1=RML1053049717.3.0,Phases=1,kv=0.127,kW=0.26604,pf=0.92,Vminpu=0.92,Vmaxpu=1.5,model=8,zipv=[0.5,0,0.5,1,0,0,0],daily=RES1_19,status=variable
new load.3000946915M1 bus1=RML1053049528.3.0,Phases=1,kv=0.127,kW=0.18234,pf=0.92,Vminpu=0.92,Vmaxpu=1.5,model=8,zipv=[0.5,0,0.5,1,0,0,0],daily=RES1_19,status=variable
new load.3000946916M1 bus1=RML1053049297.2.0,Phases=1,kv=0.127,kW=0.25992,pf=0.92,Vminpu=0.92,Vmaxpu=1.5,model=8,zipv=[0.5,0,0.5,1,0,0,0],daily=RES2_23,status=variable
new load.3000946917M1 bus1=RML1053049388.2.0,Phases=1,kv=0.127,kW=0.31112,pf=0.92,Vminpu=0.92,Vmaxpu=1.5,model=8,zipv=[0.5,0,0.5,1,0,0,0],daily=RES2_23,status=variable
new load.3000946919M1 bus1=RML1053049374.2.0,Phases=1,kv=0.127,kW=0.1674,pf=0.92,Vminpu=0.92,Vmaxpu=1.5,model=8,zipv=[0.5,0,0.5,1,0,0,0],daily=RES1_19,status=variable
new load.3000946920M1 bus1=RML1053049402.1.0,Phases=1,kv=0.127,kW=0.10762,pf=0.92,Vminpu=0.92,Vmaxpu=1.5,model=8,zipv=[0.5,0,0.5,1,0,0,0],daily=RES1_19,status=variable
new load.3000946921M1 bus1=RML1053049773.2.0,Phases=1,kv=0.127,kW=0.63604,pf=0.92,Vminpu=0.92,Vmaxpu=1.5,model=8,zipv=[0.5,0,0.5,1,0,0,0],daily=RES3_18,status=variable
new load.3000946923M1 bus1=RML1053049780.2.0,Phases=1,kv=0.127,kW=0.4135,pf=0.92,Vminpu=0.92,Vmaxpu=1.5,model=8,zipv=[0.5,0,0.5,1,0,0,0],daily=RES2_23,status=variable
new load.3000946925M1 bus1=RML1053049612.1.0,Phases=1,kv=0.127,kW=0.20924,pf=0.92,Vminpu=0.92,Vmaxpu=1.5,model=8,zipv=[0.5,0,0.5,1,0,0,0],daily=RES1_19,status=variable
new load.3000946928M1 bus1=RML1053049626.2.0,Phases=1,kv=0.127,kW=0.18534,pf=0.92,Vminpu=0.92,Vmaxpu=1.5,model=8,zipv=[0.5,0,0.5,1,0,0,0],daily=RES1_19,status=variable
new load.3000946930M1 bus1=RML1053049423.3.0,Phases=1,kv=0.127,kW=0.5277,pf=0.92,Vminpu=0.92,Vmaxpu=1.5,model=8,zipv=[0.5,0,0.5,1,0,0,0],daily=RES2_23,status=variable
new load.3000946902M1 bus1=RML1053049472.1.0,Phases=1,kv=0.127,kW=0.32686,pf=0.92,Vminpu=0.92,Vmaxpu=1.5,model=8,zipv=[0.5,0,0.5,1,0,0,0],daily=RES2_23,status=variable
new load.3000946906M1 bus1=RML1053049486.1.0,Phases=1,kv=0.127,kW=0.18234,pf=0.92,Vminpu=0.92,Vmaxpu=1.5,model=8,zipv=[0.5,0,0.5,1,0,0,0],daily=RES1_19,status=variable
new load.3000946907M1 bus1=RML1053049850.3.0,Phases=1,kv=0.127,kW=0.26902,pf=0.92,Vminpu=0.92,Vmaxpu=1.5,model=8,zipv=[0.5,0,0.5,1,0,0,0],daily=RES1_19,status=variable
new load.3000946909M1 bus1=RML1053049444.2.0,Phases=1,kv=0.127,kW=0.81912,pf=0.92,Vminpu=0.92,Vmaxpu=1.5,model=8,zipv=[0.5,0,0.5,1,0,0,0],daily=RES2_23,status=variable
new load.3000946828M1 bus1=RML1053051306.2.0,Phases=1,kv=0.127,kW=0.382,pf=0.92,Vminpu=0.92,Vmaxpu=1.5,model=8,zipv=[0.5,0,0.5,1,0,0,0],daily=RES2_23,status=variable
new load.3000946829M1 bus1=RML1053051299.2.0,Phases=1,kv=0.127,kW=0.0568,pf=0.92,Vminpu=0.92,Vmaxpu=1.5,model=8,zipv=[0.5,0,0.5,1,0,0,0],daily=RES1_19,status=variable
new load.3000946830M1 bus1=RML1053049934.1.0,Phases=1,kv=0.127,kW=0.61828,pf=0.92,Vminpu=0.92,Vmaxpu=1.5,model=8,zipv=[0.5,0,0.5,1,0,0,0],daily=RES2_23,status=variable
new load.3000946831M1 bus1=RML1053049941.2.0,Phases=1,kv=0.127,kW=0.17338,pf=0.92,Vminpu=0.92,Vmaxpu=1.5,model=8,zipv=[0.5,0,0.5,1,0,0,0],daily=RES1_19,status=variable
new load.3000946856M1 bus1=RML1053050053.2.0,Phases=1,kv=0.127,kW=0.51982,pf=0.92,Vminpu=0.92,Vmaxpu=1.5,model=8,zipv=[0.5,0,0.5,1,0,0,0],daily=RES2_23,status=variable
new load.3000946857M1 bus1=RML1053049976.1.0,Phases=1,kv=0.127,kW=0.38594,pf=0.92,Vminpu=0.92,Vmaxpu=1.5,model=8,zipv=[0.5,0,0.5,1,0,0,0],daily=RES2_23,status=variable
new load.3000946858M1 bus1=RML1053049983.1.0,Phases=1,kv=0.127,kW=0.34262,pf=0.92,Vminpu=0.92,Vmaxpu=1.5,model=8,zipv=[0.5,0,0.5,1,0,0,0],daily=RES2_23,status=variable
new load.3000946859M1 bus1=RML1053049969.3.0,Phases=1,kv=0.127,kW=0.0807,pf=0.92,Vminpu=0.92,Vmaxpu=1.5,model=8,zipv=[0.5,0,0.5,1,0,0,0],daily=RES1_19,status=variable
new load.3000946860M1 bus1=RML1053049955.2.0,Phases=1,kv=0.127,kW=0.14946,pf=0.92,Vminpu=0.92,Vmaxpu=1.5,model=8,zipv=[0.5,0,0.5,1,0,0,0],daily=RES1_19,status=variable
new load.3000946861M1 bus1=RML1053050144.2.0,Phases=1,kv=0.127,kW=0.43712,pf=0.92,Vminpu=0.92,Vmaxpu=1.5,model=8,zipv=[0.5,0,0.5,1,0,0,0],daily=RES2_23,status=variable
new load.3000946862M1 bus1=RML1053050151.2.0,Phases=1,kv=0.127,kW=0.11658,pf=0.92,Vminpu=0.92,Vmaxpu=1.5,model=8,zipv=[0.5,0,0.5,1,0,0,0],daily=RES1_19,status=variable
new load.3000946863M1 bus1=RML1053050046.3.0,Phases=1,kv=0.127,kW=0.35442,pf=0.92,Vminpu=0.92,Vmaxpu=1.5,model=8,zipv=[0.5,0,0.5,1,0,0,0],daily=RES2_23,status=variable
new load.3000946864M1 bus1=RML1053050025.2.0,Phases=1,kv=0.127,kW=0.26386,pf=0.92,Vminpu=0.92,Vmaxpu=1.5,model=8,zipv=[0.5,0,0.5,1,0,0,0],daily=RES2_23,status=variable
new load.3000947076M1 bus1=RML1060249709.3.0,Phases=1,kv=0.127,kW=0.1339,pf=0.92,Vminpu=0.92,Vmaxpu=1.5,model=8,zipv=[0.5,0,0.5,1,0,0,0],daily=RES2_23,status=variable
new load.3000946837M1 bus1=RML1053049913.2.0,Phases=1,kv=0.127,kW=0.31898,pf=0.92,Vminpu=0.92,Vmaxpu=1.5,model=8,zipv=[0.5,0,0.5,1,0,0,0],daily=RES2_23,status=variable
new load.3000946838M1 bus1=RML1053049906.3.0,Phases=1,kv=0.127,kW=0.20626,pf=0.92,Vminpu=0.92,Vmaxpu=1.5,model=8,zipv=[0.5,0,0.5,1,0,0,0],daily=RES1_19,status=variable
new load.3000946839M1 bus1=RML1053049899.2.0,Phases=1,kv=0.127,kW=0.13452,pf=0.92,Vminpu=0.92,Vmaxpu=1.5,model=8,zipv=[0.5,0,0.5,1,0,0,0],daily=RES1_19,status=variable
new load.3000946840M1 bus1=RML1053049920.1.0,Phases=1,kv=0.127,kW=0.17038,pf=0.92,Vminpu=0.92,Vmaxpu=1.5,model=8,zipv=[0.5,0,0.5,1,0,0,0],daily=RES1_19,status=variable
new load.3000946841M1 bus1=RML1053050004.2.0,Phases=1,kv=0.127,kW=0.33868,pf=0.92,Vminpu=0.92,Vmaxpu=1.5,model=8,zipv=[0.5,0,0.5,1,0,0,0],daily=RES2_23,status=variable
new load.3000946842M1 bus1=RML1053049997.1.0,Phases=1,kv=0.127,kW=0.5277,pf=0.92,Vminpu=0.92,Vmaxpu=1.5,model=8,zipv=[0.5,0,0.5,1,0,0,0],daily=RES2_23,status=variable
new load.3000946843M1 bus1=RML1053049927.3.0,Phases=1,kv=0.127,kW=0.20326,pf=0.92,Vminpu=0.92,Vmaxpu=1.5,model=8,zipv=[0.5,0,0.5,1,0,0,0],daily=RES1_19,status=variable
new load.3000946886M1 bus1=RML1053050403.3.0,Phases=1,kv=0.127,kW=0.07772,pf=0.92,Vminpu=0.92,Vmaxpu=1.5,model=8,zipv=[0.5,0,0.5,1,0,0,0],daily=RES1_19,status=variable
new load.3000946888M1 bus1=RML1053050438.1.0,Phases=1,kv=0.127,kW=0.1943,pf=0.92,Vminpu=0.92,Vmaxpu=1.5,model=8,zipv=[0.5,0,0.5,1,0,0,0],daily=RES1_19,status=variable
new load.3000946889M1 bus1=RML1053050417.1.0,Phases=1,kv=0.127,kW=0.33474,pf=0.92,Vminpu=0.92,Vmaxpu=1.5,model=8,zipv=[0.5,0,0.5,1,0,0,0],daily=RES2_23,status=variable
new load.3000946890M1 bus1=RML1053050361.1.0,Phases=1,kv=0.127,kW=0.0299,pf=0.92,Vminpu=0.92,Vmaxpu=1.5,model=8,zipv=[0.5,0,0.5,1,0,0,0],daily=RES1_19,status=variable
new load.3000946892M1 bus1=RML1053050305.1.0,Phases=1,kv=0.127,kW=0.2993,pf=0.92,Vminpu=0.92,Vmaxpu=1.5,model=8,zipv=[0.5,0,0.5,1,0,0,0],daily=RES2_23,status=variable
new load.3000946893M1 bus1=RML1053050312.3.0,Phases=1,kv=0.127,kW=0.18832,pf=0.92,Vminpu=0.92,Vmaxpu=1.5,model=8,zipv=[0.5,0,0.5,1,0,0,0],daily=RES1_19,status=variable
new load.3000946894M1 bus1=RML1053050522.2.0,Phases=1,kv=0.127,kW=0.39382,pf=0.92,Vminpu=0.92,Vmaxpu=1.5,model=8,zipv=[0.5,0,0.5,1,0,0,0],daily=RES2_23,status=variable
new load.3000946895M1 bus1=RML1053050263.2.0,Phases=1,kv=0.127,kW=0.45682,pf=0.92,Vminpu=0.92,Vmaxpu=1.5,model=8,zipv=[0.5,0,0.5,1,0,0,0],daily=RES2_23,status=variable
new load.3000946896M1 bus1=RML1053050326.2.0,Phases=1,kv=0.127,kW=0.11956,pf=0.92,Vminpu=0.92,Vmaxpu=1.5,model=8,zipv=[0.5,0,0.5,1,0,0,0],daily=RES1_19,status=variable
new load.3000946897M1 bus1=RML1053050501.3.0,Phases=1,kv=0.127,kW=0.01284,pf=0.92,Vminpu=0.92,Vmaxpu=1.5,model=8,zipv=[0.5,0,0.5,1,0,0,0],daily=COM1_22,status=variable
new load.3000946898M1 bus1=RML1053050473.2.0,Phases=1,kv=0.127,kW=0.10164,pf=0.92,Vminpu=0.92,Vmaxpu=1.5,model=8,zipv=[0.5,0,0.5,1,0,0,0],daily=RES1_19,status=variable
new load.3000946899M1 bus1=RML1053050466.3.0,Phases=1,kv=0.127,kW=0.2993,pf=0.92,Vminpu=0.92,Vmaxpu=1.5,model=8,zipv=[0.5,0,0.5,1,0,0,0],daily=RES2_23,status=variable
new load.3000946946M1 bus1=RML1053050235.2.0,Phases=1,kv=0.127,kW=0.12554,pf=0.92,Vminpu=0.92,Vmaxpu=1.5,model=8,zipv=[0.5,0,0.5,1,0,0,0],daily=RES1_19,status=variable
new load.3000946947M1 bus1=RML1053050242.3.0,Phases=1,kv=0.127,kW=0.32292,pf=0.92,Vminpu=0.92,Vmaxpu=1.5,model=8,zipv=[0.5,0,0.5,1,0,0,0],daily=RES2_23,status=variable
new load.3000946948M1 bus1=RML1053050256.3.0,Phases=1,kv=0.127,kW=0.17338,pf=0.92,Vminpu=0.92,Vmaxpu=1.5,model=8,zipv=[0.5,0,0.5,1,0,0,0],daily=RES1_19,status=variable
new load.3000946949M1 bus1=RML1053050284.1.0,Phases=1,kv=0.127,kW=0.2796,pf=0.92,Vminpu=0.92,Vmaxpu=1.5,model=8,zipv=[0.5,0,0.5,1,0,0,0],daily=RES2_23,status=variable
new load.3000946950M1 bus1=RML1053050277.2.0,Phases=1,kv=0.127,kW=0.382,pf=0.92,Vminpu=0.92,Vmaxpu=1.5,model=8,zipv=[0.5,0,0.5,1,0,0,0],daily=RES2_23,status=variable
new load.3000946952M1 bus1=RML1053050270.1.0,Phases=1,kv=0.127,kW=0.382,pf=0.92,Vminpu=0.92,Vmaxpu=1.5,model=8,zipv=[0.5,0,0.5,1,0,0,0],daily=RES2_23,status=variable
new load.3000946903M1 bus1=RML1053050480.3.0,Phases=1,kv=0.127,kW=0.1913,pf=0.92,Vminpu=0.92,Vmaxpu=1.5,model=8,zipv=[0.5,0,0.5,1,0,0,0],daily=RES1_19,status=variable
new load.3000946869M1 bus1=RML1053051397.3.0,Phases=1,kv=0.127,kW=0.00298,pf=0.92,Vminpu=0.92,Vmaxpu=1.5,model=8,zipv=[0.5,0,0.5,1,0,0,0],daily=RES1_19,status=variable
new load.3000946870M1 bus1=RML1053051390.3.0,Phases=1,kv=0.127,kW=0.12256,pf=0.92,Vminpu=0.92,Vmaxpu=1.5,model=8,zipv=[0.5,0,0.5,1,0,0,0],daily=RES1_19,status=variable
new load.3000946875M1 bus1=RML1053050977.1.3.0,Phases=2,kv=0.22,kW=0.38988,pf=0.92,Vminpu=0.92,Vmaxpu=1.5,model=8,zipv=[0.5,0,0.5,1,0,0,0],daily=RES2_23,status=variable
new load.3000946877M1 bus1=RML1053050844.1.0,Phases=1,kv=0.127,kW=0.20028,pf=0.92,Vminpu=0.92,Vmaxpu=1.5,model=8,zipv=[0.5,0,0.5,1,0,0,0],daily=RES1_19,status=variable
new load.3000946761M1 bus1=RML1053050956.2.0,Phases=1,kv=0.127,kW=0.75168,pf=0.92,Vminpu=0.92,Vmaxpu=1.5,model=8,zipv=[0.5,0,0.5,1,0,0,0],daily=RES3_18,status=variable
new load.3000946762M1 bus1=RML1053050963.1.0,Phases=1,kv=0.127,kW=0.11658,pf=0.92,Vminpu=0.92,Vmaxpu=1.5,model=8,zipv=[0.5,0,0.5,1,0,0,0],daily=RES1_19,status=variable
new load.3000946763M1 bus1=RML1053051026.3.0,Phases=1,kv=0.127,kW=0.19728,pf=0.92,Vminpu=0.92,Vmaxpu=1.5,model=8,zipv=[0.5,0,0.5,1,0,0,0],daily=RES1_19,status=variable
new load.3000946765M1 bus1=RML1053051019.1.0,Phases=1,kv=0.127,kW=0.27172,pf=0.92,Vminpu=0.92,Vmaxpu=1.5,model=8,zipv=[0.5,0,0.5,1,0,0,0],daily=RES2_23,status=variable
new load.3000946766M1 bus1=RML1053051012.1.0,Phases=1,kv=0.127,kW=0.15244,pf=0.92,Vminpu=0.92,Vmaxpu=1.5,model=8,zipv=[0.5,0,0.5,1,0,0,0],daily=RES1_19,status=variable
new load.3000946767M1 bus1=RML1053051061.1.0,Phases=1,kv=0.127,kW=0.10762,pf=0.92,Vminpu=0.92,Vmaxpu=1.5,model=8,zipv=[0.5,0,0.5,1,0,0,0],daily=RES1_19,status=variable
new load.3000946286M1 bus1=RML1053052286.1.2.0,Phases=2,kv=0.22,kW=0.54346,pf=0.92,Vminpu=0.92,Vmaxpu=1.5,model=8,zipv=[0.5,0,0.5,1,0,0,0],daily=RES2_23,status=variable
new load.3000946343M1 bus1=RML1053050900.1.2.3.0,Phases=3,kv=0.22,kW=0.3505,pf=0.92,Vminpu=0.92,Vmaxpu=1.5,model=8,zipv=[0.5,0,0.5,1,0,0,0],daily=RES2_23,status=variable
new load.3000946346M1 bus1=RML1053050914.2.3.0,Phases=2,kv=0.22,kW=0.08668,pf=0.92,Vminpu=0.92,Vmaxpu=1.5,model=8,zipv=[0.5,0,0.5,1,0,0,0],daily=RES1_19,status=variable
new load.3000946349M1 bus1=RML1053050928.1.0,Phases=1,kv=0.127,kW=0.48438,pf=0.92,Vminpu=0.92,Vmaxpu=1.5,model=8,zipv=[0.5,0,0.5,1,0,0,0],daily=RES2_23,status=variable
new load.3000946350M1 bus1=RML1053050935.3.0,Phases=1,kv=0.127,kW=0.18534,pf=0.92,Vminpu=0.92,Vmaxpu=1.5,model=8,zipv=[0.5,0,0.5,1,0,0,0],daily=RES1_19,status=variable
new load.3000946352M1 bus1=RML1053050991.2.0,Phases=1,kv=0.127,kW=0.64516,pf=0.92,Vminpu=0.92,Vmaxpu=1.5,model=8,zipv=[0.5,0,0.5,1,0,0,0],daily=RES3_18,status=variable
new load.3000946353M1 bus1=RML1053050998.3.0,Phases=1,kv=0.127,kW=0.27172,pf=0.92,Vminpu=0.92,Vmaxpu=1.5,model=8,zipv=[0.5,0,0.5,1,0,0,0],daily=RES2_23,status=variable
new load.3000946354M1 bus1=RML1053051096.1.3.0,Phases=2,kv=0.22,kW=0.78368,pf=0.92,Vminpu=0.92,Vmaxpu=1.5,model=8,zipv=[0.5,0,0.5,1,0,0,0],daily=RES2_23,status=variable
new load.3000946355M1 bus1=RML1053051103.1.0,Phases=1,kv=0.127,kW=0.46864,pf=0.92,Vminpu=0.92,Vmaxpu=1.5,model=8,zipv=[0.5,0,0.5,1,0,0,0],daily=RES2_23,status=variable
new load.3000946356M1 bus1=RML1053051117.1.2.3.0,Phases=3,kv=0.22,kW=0.59466,pf=0.92,Vminpu=0.92,Vmaxpu=1.5,model=8,zipv=[0.5,0,0.5,1,0,0,0],daily=RES2_23,status=variable
new load.3000946357M1 bus1=RML1053051110.1.0,Phases=1,kv=0.127,kW=0.32084,pf=0.92,Vminpu=0.92,Vmaxpu=1.5,model=8,zipv=[0.5,0,0.5,1,0,0,0],daily=COM1_22,status=variable
new load.3000946358M1 bus1=RML1053051089.1.2.3.0,Phases=3,kv=0.22,kW=4.82196,pf=0.92,Vminpu=0.92,Vmaxpu=1.5,model=8,zipv=[0.5,0,0.5,1,0,0,0],daily=COM3_22,status=variable
new load.3000946360M1 bus1=RML1053050830.1.2.3.0,Phases=3,kv=0.22,kW=0.85556,pf=0.92,Vminpu=0.92,Vmaxpu=1.5,model=8,zipv=[0.5,0,0.5,1,0,0,0],daily=COM1_22,status=variable
new load.3000946880M1 bus1=RML1053051222.2.0,Phases=1,kv=0.127,kW=0.18832,pf=0.92,Vminpu=0.92,Vmaxpu=1.5,model=8,zipv=[0.5,0,0.5,1,0,0,0],daily=RES1_19,status=variable
new load.3000946881M1 bus1=RML1053051131.1.2.3.0,Phases=3,kv=0.22,kW=0.50378,pf=0.92,Vminpu=0.92,Vmaxpu=1.5,model=8,zipv=[0.5,0,0.5,1,0,0,0],daily=COM2_24,status=variable
new load.3000946953M1 bus1=RML1053051166.1.0,Phases=1,kv=0.127,kW=0.06876,pf=0.92,Vminpu=0.92,Vmaxpu=1.5,model=8,zipv=[0.5,0,0.5,1,0,0,0],daily=RES1_19,status=variable
new load.3000946955M1 bus1=RML1053155508.3.0,Phases=1,kv=0.127,kW=0.4332,pf=0.92,Vminpu=0.92,Vmaxpu=1.5,model=8,zipv=[0.5,0,0.5,1,0,0,0],daily=RES2_23,status=variable
new load.3000946956M1 bus1=RML1053051138.3.0,Phases=1,kv=0.127,kW=0.25598,pf=0.92,Vminpu=0.92,Vmaxpu=1.5,model=8,zipv=[0.5,0,0.5,1,0,0,0],daily=RES2_23,status=variable
new load.3000946957M1 bus1=RML1053051187.2.0,Phases=1,kv=0.127,kW=0.35836,pf=0.92,Vminpu=0.92,Vmaxpu=1.5,model=8,zipv=[0.5,0,0.5,1,0,0,0],daily=RES2_23,status=variable
new load.3000946958M1 bus1=RML1053051194.1.0,Phases=1,kv=0.127,kW=0.72462,pf=0.92,Vminpu=0.92,Vmaxpu=1.5,model=8,zipv=[0.5,0,0.5,1,0,0,0],daily=RES2_23,status=variable
new load.3000946960M1 bus1=RML1053051208.2.0,Phases=1,kv=0.127,kW=0.1674,pf=0.92,Vminpu=0.92,Vmaxpu=1.5,model=8,zipv=[0.5,0,0.5,1,0,0,0],daily=RES1_19,status=variable
new load.3000946866M1 bus1=RML1053051425.2.0,Phases=1,kv=0.127,kW=0.50014,pf=0.92,Vminpu=0.92,Vmaxpu=1.5,model=8,zipv=[0.5,0,0.5,1,0,0,0],daily=RES2_23,status=variable
new load.3000946867M1 bus1=RML1053051404.3.0,Phases=1,kv=0.127,kW=0.20326,pf=0.92,Vminpu=0.92,Vmaxpu=1.5,model=8,zipv=[0.5,0,0.5,1,0,0,0],daily=RES1_19,status=variable
new load.3000946824M1 bus1=RML1053051488.2.0,Phases=1,kv=0.127,kW=0.57102,pf=0.92,Vminpu=0.92,Vmaxpu=1.5,model=8,zipv=[0.5,0,0.5,1,0,0,0],daily=RES2_23,status=variable
new load.3000946768M1 bus1=RML1053051068.1.2.3.0,Phases=3,kv=0.22,kW=0.39356,pf=0.92,Vminpu=0.92,Vmaxpu=1.5,model=8,zipv=[0.5,0,0.5,1,0,0,0],daily=COM1_22,status=variable
new load.3000946769M1 bus1=RML1053051313.3.0,Phases=1,kv=0.127,kW=0.20028,pf=0.92,Vminpu=0.92,Vmaxpu=1.5,model=8,zipv=[0.5,0,0.5,1,0,0,0],daily=RES1_19,status=variable
new load.3000946770M1 bus1=RML1053051320.1.0,Phases=1,kv=0.127,kW=0.50408,pf=0.92,Vminpu=0.92,Vmaxpu=1.5,model=8,zipv=[0.5,0,0.5,1,0,0,0],daily=RES2_23,status=variable
new load.3000946771M1 bus1=RML1053051327.2.0,Phases=1,kv=0.127,kW=0.10164,pf=0.92,Vminpu=0.92,Vmaxpu=1.5,model=8,zipv=[0.5,0,0.5,1,0,0,0],daily=RES1_19,status=variable
new load.3000946772M1 bus1=RML1053051257.2.3.0,Phases=2,kv=0.22,kW=0.33474,pf=0.92,Vminpu=0.92,Vmaxpu=1.5,model=8,zipv=[0.5,0,0.5,1,0,0,0],daily=RES2_23,status=variable