new line.RML10053601 bus1=BBT2023503.3.0,bus2=RML1060053601.3.0,Phases=1,Linecode=CABBTG02_4_1,Length=0.017000000,Units=km
new line.RML10053605 bus1=BBT2026310.3.0,bus2=RML1060053605.3.0,Phases=1,Linecode=CABBTG02_4_1,Length=0.017000000,Units=km
new line.RML10053613 bus1=BBT2023748.3.0,bus2=RML1060053613.3.0,Phases=1,Linecode=CABBTG02_4_1,Length=0.017000000,Units=km
new line.RML10053616 bus1=BBT137361704.2.0,bus2=RML1060053616.2.0,Phases=1,Linecode=CABBTG02_4_1,Length=0.017000000,Units=km
new line.RML10053621 bus1=BBT2024280.1.0,bus2=RML1060053621.1.0,Phases=1,Linecode=CABBTG01_4_1,Length=0.017000000,Units=km
new line.RML10053623 bus1=BBT2030762.3.0,bus2=RML1060053623.3.0,Phases=1,Linecode=CABBTG01_4_1,Length=0.017000000,Units=km
new line.RML10053626 bus1=BBT2035298.1.0,bus2=RML1060053626.1.0,Phases=1,Linecode=CABBTG01_4_1,Length=0.017000000,Units=km
new line.RML10053628 bus1=BBT2028039.1.2.3.0,bus2=RML1060053628.1.2.3.0,Phases=3,Linecode=CABBTG11_4_3,Length=0.017000000,Units=km
new line.RML10053631 bus1=BBT3221364.1.0,bus2=RML1060053631.1.0,Phases=1,Linecode=CABBTG01_4_1,Length=0.017000000,Units=km
new line.RML10053634 bus1=BBT2031693.2.0,bus2=RML1060053634.2.0,Phases=1,Linecode=CABBTG01_4_1,Length=0.017000000,Units=km
new line.RML10053635 bus1=BBT2031574.3.0,bus2=RML1060053635.3.0,Phases=1,Linecode=CABBTG01_4_1,Length=0.017000000,Units=km
new line.RML10053697 bus1=BBT2033807.1.3.0,bus2=RML1060053697.1.3.0,Phases=2,Linecode=CABBTG05_4_2,Length=0.017000000,Units=km
new line.RML10053698 bus1=BBT3221483.1.0,bus2=RML1060053698.1.0,Phases=1,Linecode=CABBTG02_4_1,Length=0.017000000,Units=km
new line.RML10115652 bus1=BBT2711722.2.0,bus2=RML1060115652.2.0,Phases=1,Linecode=CABBTG02_4_1,Length=0.026000000,Units=km
new line.RML10179368 bus1=BBT2035165.2.0,bus2=RML1060179368.2.0,Phases=1,Linecode=CABBTG02_4_1,Length=0.017000000,Units=km
new line.RML10179775 bus1=BBT2024903.2.3.0,bus2=RML1060179775.2.3.0,Phases=2,Linecode=CABBTG05_4_2,Length=0.017000000,Units=km
new line.RML10179788 bus1=BBT2027150.1.0,bus2=RML1060179788.1.0,Phases=1,Linecode=CABBTG02_4_1,Length=0.017000000,Units=km
new line.RML10179796 bus1=BBT2025162.1.0,bus2=RML1060179796.1.0,Phases=1,Linecode=CABBTG02_4_1,Length=0.017000000,Units=km
new line.RML10181059 bus1=BBT2035123.2.0,bus2=RML1060181059.2.0,Phases=1,Linecode=CABBTG02_4_1,Length=0.017000000,Units=km
new line.RML10268807 bus1=BBT48129190.2.0,bus2=RML1060268807.2.0,Phases=1,Linecode=CABBTG02_4_1,Length=0.017000000,Units=km
new line.RML10268826 bus1=BBT94373773.1.0,bus2=RML1060268826.1.0,Phases=1,Linecode=CABBTG02_4_1,Length=0.017000000,Units=km
new line.RML10271166 bus1=BBT2034255.1.2.0,bus2=RML1060271166.1.2.0,Phases=2,Linecode=CABBTG05_4_2,Length=0.017000000,Units=km
new line.RML10271814 bus1=BBT2034976.1.2.0,bus2=RML1060271814.1.2.0,Phases=2,Linecode=CABBTG05_4_2,Length=0.017000000,Units=km
new line.RML10325769 bus1=BBT2034248.3.0,bus2=RML1060325769.3.0,Phases=1,Linecode=CABBTG02_4_1,Length=0.017000000,Units=km
new line.RML10325772 bus1=BBT2029327.3.0,bus2=RML1060325772.3.0,Phases=1,Linecode=CABBTG02_4_1,Length=0.017000000,Units=km
new line.RML10325812 bus1=BBT149568055.1.0,bus2=RML1060325812.1.0,Phases=1,Linecode=CABBTG01_4_1,Length=0.017000000,Units=km
new line.RML10327891 bus1=BBT2027381.1.2.3.0,bus2=RML1060327891.1.2.3.0,Phases=3,Linecode=CABBTG06_4_3,Length=0.017000000,Units=km
new line.RML10328071 bus1=BBT2409595.2.3.0,bus2=RML1060328071.2.3.0,Phases=2,Linecode=CABBTG05_4_2,Length=0.017000000,Units=km
new line.RML10328077 bus1=BBT12658778.1.0,bus2=RML1060328077.1.0,Phases=1,Linecode=CABBTG02_4_1,Length=0.017000000,Units=km
new line.RML10330073 bus1=BBT2031385.3.0,bus2=RML1060330073.3.0,Phases=1,Linecode=CABBTG02_4_1,Length=0.017000000,Units=km
new line.RML10330075 bus1=BBT2023356.1.0,bus2=RML1060330075.1.0,Phases=1,Linecode=CABBTG02_4_1,Length=0.017000000,Units=km
new line.RML10330076 bus1=BBT148641413.1.0,bus2=RML1060330076.1.0,Phases=1,Linecode=CABBTG02_4_1,Length=0.017000000,Units=km
new line.RML10330077 bus1=BBT2409476.2.0,bus2=RML1060330077.2.0,Phases=1,Linecode=CABBTG02_4_1,Length=0.017000000,Units=km
new line.RML10330078 bus1=BBT2028130.1.2.3.0,bus2=RML1060330078.1.2.3.0,Phases=3,Linecode=CABBTG06_4_3,Length=0.017000000,Units=km
new line.RML10330079 bus1=BBT143630428.2.0,bus2=RML1060330079.2.0,Phases=1,Linecode=CABBTG02_4_1,Length=0.017000000,Units=km
new line.RML10330080 bus1=BBT2026072.2.0,bus2=RML1060330080.2.0,Phases=1,Linecode=CABBTG02_4_1,Length=0.017000000,Units=km
new line.RML10330081 bus1=BBT2035641.1.0,bus2=RML1060330081.1.0,Phases=1,Linecode=CABBTG02_4_1,Length=0.017000000,Units=km
new line.RML10330084 bus1=BBT6360129.2.0,bus2=RML1060330084.2.0,Phases=1,Linecode=CABBTG02_4_1,Length=0.017000000,Units=km
new line.RML10330085 bus1=BBT6360129.1.0,bus2=RML1060330085.1.0,Phases=1,Linecode=CABBTG02_4_1,Length=0.017000000,Units=km
new line.RML10330086 bus1=BBT2023447.1.0,bus2=RML1060330086.1.0,Phases=1,Linecode=CABBTG02_4_1,Length=0.017000000,Units=km
new line.RML10331205 bus1=BBT2711827.2.0,bus2=RML1060331205.2.0,Phases=1,Linecode=CABBTG02_4_1,Length=0.017000000,Units=km
new line.RML10383933 bus1=BBT2024462.1.2.0,bus2=RML1060383933.1.2.0,Phases=2,Linecode=CABBTG05_4_2,Length=0.017000000,Units=km
new line.RML10384065 bus1=BBT3709264.1.2.3.0,bus2=RML1060384065.1.2.3.0,Phases=3,Linecode=CABBTG06_4_3,Length=0.017000000,Units=km
new line.RML10384212 bus1=BBT5859944.1.0,bus2=RML1060384212.1.0,Phases=1,Linecode=CABBTG02_4_1,Length=0.017000000,Units=km
new line.RML10384525 bus1=BBT2028144.1.2.0,bus2=RML1060384525.1.2.0,Phases=2,Linecode=CABBTG05_4_2,Length=0.017000000,Units=km
new line.RML10385108 bus1=BBT2024917.1.2.0,bus2=RML1060385108.1.2.0,Phases=2,Linecode=CABBTG05_4_2,Length=0.017000000,Units=km
new line.RML10385582 bus1=BBT2025190.2.0,bus2=RML1060385582.2.0,Phases=1,Linecode=CABBTG02_4_1,Length=0.017000000,Units=km
new line.RML10386135 bus1=BBT2030195.3.0,bus2=RML1060386135.3.0,Phases=1,Linecode=CABBTG02_4_1,Length=0.017000000,Units=km
new line.RML10388043 bus1=BBT5559371.1.2.0,bus2=RML1060388043.1.2.0,Phases=2,Linecode=CABBTG05_4_2,Length=0.017000000,Units=km
new line.RML10388076 bus1=BBT2409476.2.0,bus2=RML1060388076.2.0,Phases=1,Linecode=CABBTG02_4_1,Length=0.017000000,Units=km
new line.RML10456606 bus1=BBT2030111.1.0,bus2=RML1060456606.1.0,Phases=1,Linecode=CABBTG02_4_1,Length=0.017000000,Units=km
new line.RML10487884 bus1=BBT2839213.2.0,bus2=RML1060487884.2.0,Phases=1,Linecode=CABBTG02_4_1,Length=0.009000000,Units=km
new line.RML10487909 bus1=BBT2024161.2.0,bus2=RML1060487909.2.0,Phases=1,Linecode=CABBTG02_4_1,Length=0.025000000,Units=km
new line.RML10491760 bus1=BBT5682501.1.0,bus2=RML1060491760.1.0,Phases=1,Linecode=CABBTG02_4_1,Length=0.017000000,Units=km
new line.RML10491861 bus1=BBT2025624.1.0,bus2=RML1060491861.1.0,Phases=1,Linecode=CABBTG02_4_1,Length=0.015000000,Units=km
new line.RML10492103 bus1=BBT3221371.2.0,bus2=RML1060492103.2.0,Phases=1,Linecode=CABBT802_4_1,Length=0.028000000,Units=km
new line.RML10548139 bus1=BBT6474635.2.0,bus2=RML1060548139.2.0,Phases=1,Linecode=CABBTG02_4_1,Length=0.017000000,Units=km
new line.RML10550192 bus1=BBT149568093.1.0,bus2=RML1060550192.1.0,Phases=1,Linecode=CABBTG02_4_1,Length=0.017000000,Units=km
new line.RML10063353 bus1=BBT13277851.2.0,bus2=RML1060063353.2.0,Phases=1,Linecode=CABBTG01_4_1,Length=0.017000000,Units=km
new line.RML10212938 bus1=BBT3221455.1.0,bus2=RML1060212938.1.0,Phases=1,Linecode=CABBTG02_4_1,Length=0.017000000,Units=km
new line.RML10212942 bus1=BBT133258199.1.2.0,bus2=RML1060212942.1.2.0,Phases=2,Linecode=CABBTG05_4_2,Length=0.017000000,Units=km
new line.RML10212948 bus1=BBT2035151.2.0,bus2=RML1060212948.2.0,Phases=1,Linecode=CABBTG02_4_1,Length=0.017000000,Units=km
new line.RML10213033 bus1=BBT2024966.3.0,bus2=RML1060213033.3.0,Phases=1,Linecode=CABBTG02_4_1,Length=0.017000000,Units=km
new line.RML10213036 bus1=BBT143630400.1.0,bus2=RML1060213036.1.0,Phases=1,Linecode=CABBTG02_4_1,Length=0.017000000,Units=km
new line.RML10213061 bus1=BBT2026114.2.0,bus2=RML1060213061.2.0,Phases=1,Linecode=CABBTG02_4_1,Length=0.017000000,Units=km
new line.RML10213101 bus1=BBT2027066.1.0,bus2=RML1060213101.1.0,Phases=1,Linecode=CABBTG02_4_1,Length=0.017000000,Units=km
new line.RML10213114 bus1=BBT2033464.3.0,bus2=RML1060213114.3.0,Phases=1,Linecode=CABBTG02_4_1,Length=0.017000000,Units=km
new line.RML10213914 bus1=BBT5222307.1.0,bus2=RML1060213914.1.0,Phases=1,Linecode=CABBTG02_4_1,Length=0.017000000,Units=km
new line.RML10214377 bus1=BBT2030335.1.2.0,bus2=RML1060214377.1.2.0,Phases=2,Linecode=CABBTG05_4_2,Length=0.017000000,Units=km
new line.RML10217220 bus1=BBT5860574.2.0,bus2=RML1060217220.2.0,Phases=1,Linecode=CABBTG02_4_1,Length=0.017000000,Units=km
new line.RML10219442 bus1=BBT2035662.2.0,bus2=RML1060219442.2.0,Phases=1,Linecode=CABBTG01_4_1,Length=0.017000000,Units=km
new line.RML10219487 bus1=BBT2030804.2.0,bus2=RML1060219487.2.0,Phases=1,Linecode=CABBTG02_4_1,Length=0.017000000,Units=km
new line.RML10219489 bus1=BBT2023818.2.3.0,bus2=RML1060219489.2.3.0,Phases=2,Linecode=CABBTG05_4_2,Length=0.017000000,Units=km
new line.RML10219499 bus1=BBT2029320.2.3.0,bus2=RML1060219499.2.3.0,Phases=2,Linecode=CABBTG05_4_2,Length=0.017000000,Units=km
new line.RML10219505 bus1=BBT2027878.3.0,bus2=RML1060219505.3.0,Phases=1,Linecode=CABBTG01_4_1,Length=0.017000000,Units=km
new line.RML10219508 bus1=BBT2034794.1.0,bus2=RML1060219508.1.0,Phases=1,Linecode=CABBTG02_4_1,Length=0.017000000,Units=km
new line.RML10277357 bus1=BBT2025498.1.0,bus2=RML1060277357.1.0,Phases=1,Linecode=CABBTG02_4_1,Length=0.017000000,Units=km
new line.RML10277360 bus1=BBT3569306.1.0,bus2=RML1060277360.1.0,Phases=1,Linecode=CABBTG02_4_1,Length=0.017000000,Units=km
new line.RML10280352 bus1=BBT145942997.1.0,bus2=RML1060280352.1.0,Phases=1,Linecode=CABBTG02_4_1,Length=0.017000000,Units=km
new line.RML10280463 bus1=BBT2026191.1.2.0,bus2=RML1060280463.1.2.0,Phases=2,Linecode=CABBTG05_4_2,Length=0.017000000,Units=km
new line.RML10280606 bus1=BBT2026520.1.0,bus2=RML1060280606.1.0,Phases=1,Linecode=CABBTG02_4_1,Length=0.017000000,Units=km
new line.RML10280700 bus1=BBT2024889.2.0,bus2=RML1060280700.2.0,Phases=1,Linecode=CABBTG02_4_1,Length=0.017000000,Units=km
new line.RML10281325 bus1=BBT6360136.1.0,bus2=RML1060281325.1.0,Phases=1,Linecode=CABBTG02_4_1,Length=0.017000000,Units=km
new line.RML10281378 bus1=BBT150436947.1.0,bus2=RML1060281378.1.0,Phases=1,Linecode=CABBTG02_4_1,Length=0.017000000,Units=km
new line.RML10282348 bus1=BBT13277865.2.0,bus2=RML1060282348.2.0,Phases=1,Linecode=CABBTG02_4_1,Length=0.017000000,Units=km
new line.RML10341503 bus1=BBT2035305.1.0,bus2=RML1060341503.1.0,Phases=1,Linecode=CABBTG02_4_1,Length=0.017000000,Units=km
new line.RML10341907 bus1=BBT150378657.1.0,bus2=RML1060341907.1.0,Phases=1,Linecode=CABBTG02_4_1,Length=0.017000000,Units=km
new line.RML10346065 bus1=BBT1895025.2.0,bus2=RML1060346065.2.0,Phases=1,Linecode=CABBTG02_4_1,Length=0.017000000,Units=km
new line.RML10348184 bus1=BBT2023559.1.2.3.0,bus2=RML1060348184.1.2.3.0,Phases=3,Linecode=CABBTG06_4_3,Length=0.017000000,Units=km
new line.RML10348370 bus1=BBT13277851.1.0,bus2=RML1060348370.1.0,Phases=1,Linecode=CABBTG02_4_1,Length=0.017000000,Units=km
new line.RML10348510 bus1=BBT2030713.3.0,bus2=RML1060348510.3.0,Phases=1,Linecode=CABBTG02_4_1,Length=0.017000000,Units=km
new line.RML10349008 bus1=BBT2034409.1.2.0,bus2=RML1060349008.1.2.0,Phases=2,Linecode=CABBTG05_4_2,Length=0.017000000,Units=km
new line.RML10406720 bus1=BBT2024924.3.0,bus2=RML1060406720.3.0,Phases=1,Linecode=CABBTG02_4_1,Length=0.017000000,Units=km
new line.RML10406935 bus1=BBT2023258.2.3.0,bus2=RML1060406935.2.3.0,Phases=2,Linecode=CABBTG05_4_2,Length=0.017000000,Units=km
new line.RML10406987 bus1=BBT2408559.2.0,bus2=RML1060406987.2.0,Phases=1,Linecode=CABBTG02_4_1,Length=0.017000000,Units=km
new line.RML10471015 bus1=BBT2029369.1.2.0,bus2=RML1060471015.1.2.0,Phases=2,Linecode=CABBTG05_4_2,Length=0.017000000,Units=km
new line.RML10471983 bus1=BBT12514473.1.0,bus2=RML1060471983.1.0,Phases=1,Linecode=CABBTG02_4_1,Length=0.017000000,Units=km
new line.RML10471984 bus1=BBT96118138.1.0,bus2=RML1060471984.1.0,Phases=1,Linecode=CABBTG02_4_1,Length=0.017000000,Units=km
new line.RML10471995 bus1=BBT3569341.1.2.0,bus2=RML1060471995.1.2.0,Phases=2,Linecode=CABBTG05_4_2,Length=0.017000000,Units=km
new line.RML10473694 bus1=BBT155185220.1.2.0,bus2=RML1060473694.1.2.0,Phases=2,Linecode=CABBTG05_4_2,Length=0.025000000,Units=km
new line.RML10473809 bus1=BBT5436080.2.0,bus2=RML1060473809.2.0,Phases=1,Linecode=CABBTG02_4_1,Length=0.017000000,Units=km
new line.RML10473866 bus1=BBT2024462.1.2.0,bus2=RML1060473866.1.2.0,Phases=2,Linecode=CABBTG05_4_2,Length=0.017000000,Units=km
new line.RML10473868 bus1=BBT6360143.1.2.0,bus2=RML1060473868.1.2.0,Phases=2,Linecode=CABBTG05_4_2,Length=0.017000000,Units=km
new line.RML10473964 bus1=BBT2032064.1.0,bus2=RML1060473964.1.0,Phases=1,Linecode=CABBTG02_4_1,Length=0.017000000,Units=km
new line.RML10473991 bus1=BBT12515810.1.0,bus2=RML1060473991.1.0,Phases=1,Linecode=CABBTG02_4_1,Length=0.017000000,Units=km
new line.RML10474363 bus1=BBT3569306.2.0,bus2=RML1060474363.2.0,Phases=1,Linecode=CABBTG02_4_1,Length=0.017000000,Units=km
new line.RML10475420 bus1=BBT2024273.1.0,bus2=RML1060475420.1.0,Phases=1,Linecode=CABBTG02_4_1,Length=0.017000000,Units=km
new line.RML10475421 bus1=BBT2030783.3.0,bus2=RML1060475421.3.0,Phases=1,Linecode=CABBTG02_4_1,Length=0.017000000,Units=km
new line.RML10478578 bus1=BBT2033310.1.2.3.0,bus2=RML1060478578.1.2.3.0,Phases=3,Linecode=CABBTG06_4_3,Length=0.017000000,Units=km
new line.RML10539417 bus1=BBT2034192.3.0,bus2=RML1060539417.3.0,Phases=1,Linecode=CABBT802_4_1,Length=0.017000000,Units=km
new line.RML10539428 bus1=BBT108056792.1.0,bus2=RML1060539428.1.0,Phases=1,Linecode=CABBT802_4_1,Length=0.014000000,Units=km
new line.RML10539451 bus1=BBT2035634.1.0,bus2=RML1060539451.1.0,Phases=1,Linecode=CABBT802_4_1,Length=0.006000000,Units=km
new line.RML10540255 bus1=BBT156372628.2.3.0,bus2=RML1060540255.2.3.0,Phases=2,Linecode=CABBTG05_4_2,Length=0.007000000,Units=km
new line.RML10541539 bus1=BBT2031175.2.0,bus2=RML1060541539.2.0,Phases=1,Linecode=CABBTG02_4_1,Length=0.030000000,Units=km
new line.RML10547083 bus1=BBT108056911.2.0,bus2=RML1060547083.2.0,Phases=1,Linecode=CABBTG02_4_1,Length=0.017000000,Units=km
new line.RML10088189 bus1=BBT146965389.2.0,bus2=RML1060088189.2.0,Phases=1,Linecode=CABBTG02_4_1,Length=0.008000000,Units=km
new line.RML10152644 bus1=BBT24917731.1.2.0,bus2=RML1060152644.1.2.0,Phases=2,Linecode=CABBTG04_4_2,Length=0.017000000,Units=km
new line.RML10153727 bus1=BBT2024861.1.2.3.0,bus2=RML1060153727.1.2.3.0,Phases=3,Linecode=CABBTG06_4_3,Length=0.017000000,Units=km
new line.RML10153912 bus1=BBT2034815.1.2.0,bus2=RML1060153912.1.2.0,Phases=2,Linecode=CABBTG05_4_2,Length=0.017000000,Units=km
new line.RML10203878 bus1=BBT5782419.1.0,bus2=RML1060203878.1.0,Phases=1,Linecode=CABBTG02_4_1,Length=0.017000000,Units=km
new line.RML10203937 bus1=BBT2035151.2.0,bus2=RML1060203937.2.0,Phases=1,Linecode=CABBTG02_4_1,Length=0.017000000,Units=km
new line.RML10263222 bus1=BBT2711904.1.0,bus2=RML1060263222.1.0,Phases=1,Linecode=CABBTG01_4_1,Length=0.017000000,Units=km
new line.RML10263274 bus1=BBT5559371.2.0,bus2=RML1060263274.2.0,Phases=1,Linecode=CABBTG01_4_1,Length=0.017000000,Units=km
new line.RML10265555 bus1=BBT2034794.2.0,bus2=RML1060265555.2.0,Phases=1,Linecode=CABBTG02_4_1,Length=0.017000000,Units=km
new line.RML10265645 bus1=BBT2035613.1.2.0,bus2=RML1060265645.1.2.0,Phases=2,Linecode=CABBTG13_4_2,Length=0.017000000,Units=km
new line.RML10265671 bus1=BBT2028480.1.2.0,bus2=RML1060265671.1.2.0,Phases=2,Linecode=CABBTG05_4_2,Length=0.017000000,Units=km
new line.RML10265688 bus1=BBT3221623.1.2.0,bus2=RML1060265688.1.2.0,Phases=2,Linecode=CABBTG05_4_2,Length=0.017000000,Units=km
new line.RML10265904 bus1=BBT150360622.1.0,bus2=RML1060265904.1.0,Phases=1,Linecode=CABBTG02_4_1,Length=0.017000000,Units=km
new line.RML10266465 bus1=BBT150488701.1.2.0,bus2=RML1060266465.1.2.0,Phases=2,Linecode=CABBTG05_4_2,Length=0.017000000,Units=km
new line.RML10266495 bus1=BBT150378654.1.2.0,bus2=RML1060266495.1.2.0,Phases=2,Linecode=CABBTG05_4_2,Length=0.017000000,Units=km
new line.RML10338068 bus1=BBT2024588.1.2.0,bus2=RML1060338068.1.2.0,Phases=2,Linecode=CABBTG05_4_2,Length=0.017000000,Units=km
new line.RML10405734 bus1=BBT2409476.2.3.0,bus2=RML1060405734.2.3.0,Phases=2,Linecode=CABBTG05_4_2,Length=0.017000000,Units=km
new line.RML10462758 bus1=BBT2035144.1.2.0,bus2=RML1060462758.1.2.0,Phases=2,Linecode=CABBTG05_4_2,Length=0.017000000,Units=km
new line.RML10462806 bus1=BBT4344752.1.2.0,bus2=RML1060462806.1.2.0,Phases=2,Linecode=CABBTG05_4_2,Length=0.017000000,Units=km
new line.RML10462829 bus1=BBT153852899.1.2.0,bus2=RML1060462829.1.2.0,Phases=2,Linecode=CABBTG05_4_2,Length=0.025000000,Units=km
new line.RML10463356 bus1=BBT111880899.2.0,bus2=RML1060463356.2.0,Phases=1,Linecode=CABBTG02_4_1,Length=0.017000000,Units=km
new line.RML10463362 bus1=BBT146965396.2.0,bus2=RML1060463362.2.0,Phases=1,Linecode=CABBTG02_4_1,Length=0.017000000,Units=km
new line.RML10463441 bus1=BBT2029929.2.0,bus2=RML1060463441.2.0,Phases=1,Linecode=CABBTG02_4_1,Length=0.017000000,Units=km
new line.RML10463847 bus1=BBT2409553.3.0,bus2=RML1060463847.3.0,Phases=1,Linecode=CABBTG02_4_1,Length=0.017000000,Units=km
new line.RML10463856 bus1=BBT2027297.2.3.0,bus2=RML1060463856.2.3.0,Phases=2,Linecode=CABBTG05_4_2,Length=0.017000000,Units=km
new line.RML10463863 bus1=BBT2033912.2.0,bus2=RML1060463863.2.0,Phases=1,Linecode=CABBTG02_4_1,Length=0.017000000,Units=km
new line.RML10463866 bus1=BBT2026107.1.2.0,bus2=RML1060463866.1.2.0,Phases=2,Linecode=CABBTG05_4_2,Length=0.017000000,Units=km
new line.RML10466241 bus1=BBT2025351.2.0,bus2=RML1060466241.2.0,Phases=1,Linecode=CABBTG02_4_1,Length=0.017000000,Units=km
new line.RML10466427 bus1=BBT3221259.2.0,bus2=RML1060466427.2.0,Phases=1,Linecode=CABBTG02_4_1,Length=0.017000000,Units=km
new line.RML10466700 bus1=BBT108056911.2.0,bus2=RML1060466700.2.0,Phases=1,Linecode=CABBTG02_4_1,Length=0.017000000,Units=km
new line.RML10469431 bus1=BBT2025456.2.3.0,bus2=RML1060469431.2.3.0,Phases=2,Linecode=CABBTG05_4_2,Length=0.017000000,Units=km
new line.RML10470002 bus1=BBT2027801.1.0,bus2=RML1060470002.1.0,Phases=1,Linecode=CABBTG02_4_1,Length=0.017000000,Units=km
new line.RML10470013 bus1=BBT2711533.1.2.0,bus2=RML1060470013.1.2.0,Phases=2,Linecode=CABBTG05_4_2,Length=0.017000000,Units=km
new line.RML10498939 bus1=BBT2035137.1.0,bus2=RML1060498939.1.0,Phases=1,Linecode=CABBTG02_4_1,Length=0.018000000,Units=km
new line.RML10499236 bus1=BBT13277872.2.0,bus2=RML1060499236.2.0,Phases=1,Linecode=CABBTG02_4_1,Length=0.015000000,Units=km
new line.RML10499238 bus1=BBT2025386.3.0,bus2=RML1060499238.3.0,Phases=1,Linecode=CABBTG02_4_1,Length=0.014000000,Units=km
new line.RML10499280 bus1=BBT2024567.1.0,bus2=RML1060499280.1.0,Phases=1,Linecode=CABBTG02_4_1,Length=0.017000000,Units=km
new line.RML10499289 bus1=BBT2025883.1.3.0,bus2=RML1060499289.1.3.0,Phases=2,Linecode=CABBTG05_4_2,Length=0.014000000,Units=km
new line.RML10502956 bus1=BBT2024931.2.0,bus2=RML1060502956.2.0,Phases=1,Linecode=CABBTG02_4_1,Length=0.015000000,Units=km
new line.RML10566655 bus1=BBT2025687.1.0,bus2=RML1060566655.1.0,Phases=1,Linecode=CABBTG02_4_1,Length=0.017000000,Units=km
new line.RML10566972 bus1=BBT2029446.1.0,bus2=RML1060566972.1.0,Phases=1,Linecode=CABBTG02_4_1,Length=0.017000000,Units=km
new line.RML10566975 bus1=BBT2029446.1.0,bus2=RML1060566975.1.0,Phases=1,Linecode=CABBTG02_4_1,Length=0.017000000,Units=km
new line.RML10567034 bus1=BBT2033870.1.2.3.0,bus2=RML1060567034.1.2.3.0,Phases=3,Linecode=CABBTG06_4_3,Length=0.017000000,Units=km
new line.RML10568270 bus1=BBT3568970.1.2.0,bus2=RML1060568270.1.2.0,Phases=2,Linecode=CABBTG05_4_2,Length=0.010000000,Units=km
new line.RML10568353 bus1=BBT2028487.3.0,bus2=RML1060568353.3.0,Phases=1,Linecode=CABBTG02_4_1,Length=0.015000000,Units=km
new line.RML10569031 bus1=BBT2024784.1.0,bus2=RML1060569031.1.0,Phases=1,Linecode=CABBTG02_4_1,Length=0.013000000,Units=km
new line.RML10569314 bus1=BBT2408552.1.0,bus2=RML1060569314.1.0,Phases=1,Linecode=CABBTG02_4_1,Length=0.008000000,Units=km
new line.RML10569348 bus1=BBT5682515.1.0,bus2=RML1060569348.1.0,Phases=1,Linecode=CABBTG02_4_1,Length=0.006000000,Units=km
new line.RML10573488 bus1=BBT2025799.3.0,bus2=RML1060573488.3.0,Phases=1,Linecode=CABBT802_4_1,Length=0.010000000,Units=km
new line.RML10626586 bus1=BBT3572659.2.0,bus2=RML1060626586.2.0,Phases=1,Linecode=CABBT802_4_1,Length=0.013000000,Units=km
new line.RML10627188 bus1=BBT2027052.1.0,bus2=RML1060627188.1.0,Phases=1,Linecode=CABBTG02_4_1,Length=0.012000000,Units=km
new line.RML10630244 bus1=BBT2023748.1.0,bus2=RML1060630244.1.0,Phases=1,Linecode=CABBTG02_4_1,Length=0.020000000,Units=km
new line.RML10630412 bus1=BBT2711505.1.2.0,bus2=RML1060630412.1.2.0,Phases=2,Linecode=CABBTG05_4_2,Length=0.028000000,Units=km
new line.RML10632279 bus1=BBT3569187.1.2.0,bus2=RML1060632279.1.2.0,Phases=2,Linecode=CABBTG05_4_2,Length=0.014000000,Units=km
new line.RML10676375 bus1=BBT5559371.1.0,bus2=RML1060676375.1.0,Phases=1,Linecode=CABBT802_4_1,Length=0.014000000,Units=km
new line.RML10676796 bus1=BBT149568058.1.0,bus2=RML1060676796.1.0,Phases=1,Linecode=CABBT802_4_1,Length=0.010000000,Units=km
new line.RML10676886 bus1=BBT160536034.2.0,bus2=RML1060676886.2.0,Phases=1,Linecode=CABBTG02_4_1,Length=0.020000000,Units=km
new line.RML10155785 bus1=BBT2024560.1.0,bus2=RML1060155785.1.0,Phases=1,Linecode=CABBTG02_4_1,Length=0.017000000,Units=km
new line.RML10156974 bus1=BBT2034794.2.0,bus2=RML1060156974.2.0,Phases=1,Linecode=CABBTG02_4_1,Length=0.017000000,Units=km
new line.RML10158267 bus1=BBT12660108.1.0,bus2=RML1060158267.1.0,Phases=1,Linecode=CABBTG02_4_1,Length=0.017000000,Units=km
new line.RML10235000 bus1=BBT111880899.1.0,bus2=RML1060235000.1.0,Phases=1,Linecode=CABBTG02_4_1,Length=0.017000000,Units=km
new line.RML10293403 bus1=BBT3569313.1.2.0,bus2=RML1060293403.1.2.0,Phases=2,Linecode=CABBTG05_4_2,Length=0.017000000,Units=km
new line.RML10293415 bus1=BBT3569243.1.0,bus2=RML1060293415.1.0,Phases=1,Linecode=CABBTG02_4_1,Length=0.017000000,Units=km
new line.RML10293429 bus1=BBT2711624.1.0,bus2=RML1060293429.1.0,Phases=1,Linecode=CABBTG02_4_1,Length=0.017000000,Units=km
new line.RML10293437 bus1=BBT13277865.1.2.0,bus2=RML1060293437.1.2.0,Phases=2,Linecode=CABBTG05_4_2,Length=0.017000000,Units=km
new line.RML10293449 bus1=BBT2032043.1.0,bus2=RML1060293449.1.0,Phases=1,Linecode=CABBTG02_4_1,Length=0.017000000,Units=km
new line.RML10293451 bus1=BBT2032029.1.0,bus2=RML1060293451.1.0,Phases=1,Linecode=CABBTG02_4_1,Length=0.017000000,Units=km
new line.RML10293453 bus1=BBT2408545.1.0,bus2=RML1060293453.1.0,Phases=1,Linecode=CABBTG02_4_1,Length=0.017000000,Units=km
new line.RML10293454 bus1=BBT149568055.1.0,bus2=RML1060293454.1.0,Phases=1,Linecode=CABBTG02_4_1,Length=0.017000000,Units=km
new line.RML10294569 bus1=BBT2026268.3.0,bus2=RML1060294569.3.0,Phases=1,Linecode=CABBTG02_4_1,Length=0.017000000,Units=km
new line.RML10294572 bus1=BBT2025092.1.2.3.0,bus2=RML1060294572.1.2.3.0,Phases=3,Linecode=CABBTG06_4_3,Length=0.017000000,Units=km
new line.RML10294579 bus1=BBT6474656.2.0,bus2=RML1060294579.2.0,Phases=1,Linecode=CABBTG02_4_1,Length=0.017000000,Units=km
new line.RML10294582 bus1=BBT2409518.3.0,bus2=RML1060294582.3.0,Phases=1,Linecode=CABBTG02_4_1,Length=0.017000000,Units=km
new line.RML10297083 bus1=BBT2024210.1.0,bus2=RML1060297083.1.0,Phases=1,Linecode=CABBTG02_4_1,Length=0.017000000,Units=km
new line.RML10297150 bus1=BBT2025365.1.0,bus2=RML1060297150.1.0,Phases=1,Linecode=CABBTG02_4_1,Length=0.017000000,Units=km
new line.RML10297154 bus1=BBT3568984.1.0,bus2=RML1060297154.1.0,Phases=1,Linecode=CABBTG02_4_1,Length=0.017000000,Units=km
new line.RML10297221 bus1=BBT5654914.1.0,bus2=RML1060297221.1.0,Phases=1,Linecode=CABBTG02_4_1,Length=0.017000000,Units=km
new line.RML10297226 bus1=BBT2034073.1.2.0,bus2=RML1060297226.1.2.0,Phases=2,Linecode=CABBTG05_4_2,Length=0.017000000,Units=km
new line.RML10297289 bus1=BBT108060831.1.0,bus2=RML1060297289.1.0,Phases=1,Linecode=CABBTG02_4_1,Length=0.017000000,Units=km
new line.RML10297391 bus1=BBT147181619.1.0,bus2=RML1060297391.1.0,Phases=1,Linecode=CABBTG02_4_1,Length=0.017000000,Units=km
new line.RML10297394 bus1=BBT2025743.2.0,bus2=RML1060297394.2.0,Phases=1,Linecode=CABBTG02_4_1,Length=0.017000000,Units=km
new line.RML10297410 bus1=BBT2034857.1.2.0,bus2=RML1060297410.1.2.0,Phases=2,Linecode=CABBTG05_4_2,Length=0.017000000,Units=km
new line.RML10300046 bus1=BBT2023713.3.0,bus2=RML1060300046.3.0,Phases=1,Linecode=CABBTG02_4_1,Length=0.017000000,Units=km
new line.RML10300052 bus1=BBT99486650.2.0,bus2=RML1060300052.2.0,Phases=1,Linecode=CABBTG02_4_1,Length=0.017000000,Units=km
new line.RML10300053 bus1=BBT2711904.1.0,bus2=RML1060300053.1.0,Phases=1,Linecode=CABBTG02_4_1,Length=0.017000000,Units=km
new line.RML10300054 bus1=BBT5682515.1.0,bus2=RML1060300054.1.0,Phases=1,Linecode=CABBTG02_4_1,Length=0.017000000,Units=km
new line.RML10300055 bus1=BBT5682508.1.2.0,bus2=RML1060300055.1.2.0,Phases=2,Linecode=CABBTG05_4_2,Length=0.017000000,Units=km
new line.RML10357709 bus1=BBT2026359.3.0,bus2=RML1060357709.3.0,Phases=1,Linecode=CABBTG02_4_1,Length=0.017000000,Units=km
new line.RML10359807 bus1=BBT2035172.1.0,bus2=RML1060359807.1.0,Phases=1,Linecode=CABBTG02_4_1,Length=0.017000000,Units=km
new line.RML10361630 bus1=BBT5325963.2.3.0,bus2=RML1060361630.2.3.0,Phases=2,Linecode=CABBTG05_4_2,Length=0.017000000,Units=km
new line.RML10361631 bus1=BBT3569068.1.0,bus2=RML1060361631.1.0,Phases=1,Linecode=CABBTG02_4_1,Length=0.017000000,Units=km
new line.RML10422764 bus1=BBT5559371.1.2.0,bus2=RML1060422764.1.2.0,Phases=2,Linecode=CABBTG05_4_2,Length=0.017000000,Units=km
new line.RML10424310 bus1=BBT2031175.2.0,bus2=RML1060424310.2.0,Phases=1,Linecode=CABBTG02_4_1,Length=0.017000000,Units=km
new line.RML10425150 bus1=BBT63053246.2.0,bus2=RML1060425150.2.0,Phases=1,Linecode=CABBTG02_4_1,Length=0.017000000,Units=km
new line.RML10426036 bus1=BBT2024980.2.0,bus2=RML1060426036.2.0,Phases=1,Linecode=CABBTG02_4_1,Length=0.017000000,Units=km
new line.RML10518594 bus1=BBT2028116.1.2.0,bus2=RML1060518594.1.2.0,Phases=2,Linecode=CABBT801_4_2,Length=0.018000000,Units=km
new line.RML10518735 bus1=BBT5027679.1.0,bus2=RML1060518735.1.0,Phases=1,Linecode=CABBTG02_4_1,Length=0.006000000,Units=km
new line.RML10520253 bus1=BBT57027989.1.0,bus2=RML1060520253.1.0,Phases=1,Linecode=CABBTG02_4_1,Length=0.015000000,Units=km
new line.RML10591123 bus1=BBT2030055.1.0,bus2=RML1060591123.1.0,Phases=1,Linecode=CABBTG02_4_1,Length=0.017000000,Units=km
new line.RML10592005 bus1=BBT2711729.1.0,bus2=RML1060592005.1.0,Phases=1,Linecode=CABBTG02_4_1,Length=0.028000000,Units=km
new line.RML10593355 bus1=BBT2025421.1.0,bus2=RML1060593355.1.0,Phases=1,Linecode=CABBTG02_4_1,Length=0.017000000,Units=km
new line.RML10593416 bus1=BBT2023454.1.0,bus2=RML1060593416.1.0,Phases=1,Linecode=CABBTG02_4_1,Length=0.017000000,Units=km
new line.RML10658013 bus1=BBT5682501.1.0,bus2=RML1060658013.1.0,Phases=1,Linecode=CABBTG02_4_1,Length=0.009000000,Units=km
new line.RML10658074 bus1=BBT57028339.1.0,bus2=RML1060658074.1.0,Phases=1,Linecode=CABBTG02_4_1,Length=0.013000000,Units=km
new line.RML10658563 bus1=BBT12661921.1.0,bus2=RML1060658563.1.0,Phases=1,Linecode=CABBTG02_4_1,Length=0.017000000,Units=km
new line.RML10658565 bus1=BBT5682515.1.0,bus2=RML1060658565.1.0,Phases=1,Linecode=CABBTG02_4_1,Length=0.017000000,Units=km
new line.RML10658572 bus1=BBT2035669.1.0,bus2=RML1060658572.1.0,Phases=1,Linecode=CABBTG02_4_1,Length=0.017000000,Units=km
new line.RML10658638 bus1=BBT153707364.1.2.0,bus2=RML1060658638.1.2.0,Phases=2,Linecode=CABBTG05_4_2,Length=0.017000000,Units=km
new line.RML10658678 bus1=BBT150378632.1.2.0,bus2=RML1060658678.1.2.0,Phases=2,Linecode=CABBTG05_4_2,Length=0.017000000,Units=km
new line.RML10658687 bus1=BBT6360143.1.2.0,bus2=RML1060658687.1.2.0,Phases=2,Linecode=CABBTG05_4_2,Length=0.017000000,Units=km
new line.RML10661866 bus1=BBT2028032.1.0,bus2=RML1060661866.1.0,Phases=1,Linecode=CABBTG02_4_1,Length=0.017000000,Units=km
new line.RML10662113 bus1=BBT2711645.1.2.0,bus2=RML1060662113.1.2.0,Phases=2,Linecode=CABBTG05_4_2,Length=0.017000000,Units=km
new line.RML10662417 bus1=BBT145941961.1.0,bus2=RML1060662417.1.0,Phases=1,Linecode=CABBTG02_4_1,Length=0.017000000,Units=km
new line.RML10736166 bus1=BBT2026429.3.0,bus2=RML1060736166.3.0,Phases=1,Linecode=CABBTG01_4_1,Length=0.015000000,Units=km
new line.RML10068701 bus1=BBT2031973.3.0,bus2=RML1060068701.3.0,Phases=1,Linecode=CABBTG02_4_1,Length=0.017000000,Units=km
new line.RML10068709 bus1=BBT2407887.1.2.3.0,bus2=RML1060068709.1.2.3.0,Phases=3,Linecode=CABBTG07_4_3,Length=0.017000000,Units=km
new line.RML10068734 bus1=BBT2029047.1.0,bus2=RML1060068734.1.0,Phases=1,Linecode=CABBTG02_4_1,Length=0.017000000,Units=km
new line.RML10068737 bus1=BBT2028375.3.0,bus2=RML1060068737.3.0,Phases=1,Linecode=CABBTG02_4_1,Length=0.017000000,Units=km
new line.RML10068740 bus1=BBT2025855.1.2.3.0,bus2=RML1060068740.1.2.3.0,Phases=3,Linecode=CABBTG06_4_3,Length=0.017000000,Units=km
new line.RML10068759 bus1=BBT108056792.1.0,bus2=RML1060068759.1.0,Phases=1,Linecode=CABBTG01_4_1,Length=0.017000000,Units=km
new line.RML10068761 bus1=BBT2028256.1.2.0,bus2=RML1060068761.1.2.0,Phases=2,Linecode=CABBTG05_4_2,Length=0.017000000,Units=km
new line.RML10252324 bus1=BBT2035123.2.0,bus2=RML1060252324.2.0,Phases=1,Linecode=CABBTG02_4_1,Length=0.017000000,Units=km
new line.RML10253499 bus1=BBT2030118.3.0,bus2=RML1060253499.3.0,Phases=1,Linecode=CABBTG02_4_1,Length=0.017000000,Units=km
new line.RML10254390 bus1=BBT2711911.2.0,bus2=RML1060254390.2.0,Phases=1,Linecode=CABBTG02_4_1,Length=0.017000000,Units=km
new line.RML10254588 bus1=BBT6360150.1.0,bus2=RML1060254588.1.0,Phases=1,Linecode=CABBTG02_4_1,Length=0.017000000,Units=km