new line.10025182 bus1=BBT148693788.1.2.0,bus2=BBT148693789.1.2.0,Phases=2,Linecode=BT518_BT518_7_2_1,Length=0.000501000,Units=km
new line.10035689 bus1=BBT149083478.1.2.0,bus2=BBT149083479.1.2.0,Phases=2,Linecode=BT513_BT513_7_2_1,Length=0.000501000,Units=km
new line.10046245 bus1=BBT149967740.1.2.3.0,bus2=BBT149967741.1.2.3.0,Phases=3,Linecode=BT518_BT518_7_3_1,Length=0.000501000,Units=km
new line.10046252 bus1=BBT149967741.1.2.3.0,bus2=BBT149967748.1.2.3.0,Phases=3,Linecode=BT803_BT803_4_3_4,Length=0.038605000,Units=km
new line.10046259 bus1=BBT149967748.1.2.3.0,bus2=BBT149967749.1.2.3.0,Phases=3,Linecode=BT803_BT803_4_3_4,Length=0.041405000,Units=km
new line.10046266 bus1=BBT149967741.1.2.3.0,bus2=BBT149967750.1.2.3.0,Phases=3,Linecode=BT803_BT803_4_3_4,Length=0.038837000,Units=km
new line.10046273 bus1=BBT149967750.1.2.3.0,bus2=BBT149967751.1.2.3.0,Phases=3,Linecode=BT803_BT803_4_3_4,Length=0.030809000,Units=km
new line.10046280 bus1=BBT149967751.1.2.3.0,bus2=BBT149967776.1.2.3.0,Phases=3,Linecode=BT803_BT803_4_3_4,Length=0.039665000,Units=km
new line.10046287 bus1=BBT149967776.1.2.3.0,bus2=BBT149967777.1.2.3.0,Phases=3,Linecode=BT803_BT803_4_3_4,Length=0.036896000,Units=km
new line.10046350 bus1=BBT149967861.1.2.3.0,bus2=BBT149967864.1.2.3.0,Phases=3,Linecode=BT803_BT803_4_3_4,Length=0.042206000,Units=km
new line.10046357 bus1=BBT149967864.1.2.3.0,bus2=BBT149967865.1.2.3.0,Phases=3,Linecode=BT803_BT803_4_3_4,Length=0.005100000,Units=km
new line.10046364 bus1=BBT149967865.1.2.3.0,bus2=BBT149967866.1.2.3.0,Phases=3,Linecode=BT803_BT803_4_3_4,Length=0.041150000,Units=km
new line.10046371 bus1=BBT149967866.1.2.3.0,bus2=BBT149967867.1.2.3.0,Phases=3,Linecode=BT803_BT803_4_3_4,Length=0.040253000,Units=km
new line.10046378 bus1=BBT149967867.1.2.3.0,bus2=BBT149967868.1.2.3.0,Phases=3,Linecode=BT803_BT803_4_3_4,Length=0.041150000,Units=km
new line.10046392 bus1=BBT149967869.1.2.3.0,bus2=BBT149967861.1.2.3.0,Phases=3,Linecode=BT803_BT803_4_3_4,Length=0.039412000,Units=km
new line.10046399 bus1=BBT149967870.1.2.3.0,bus2=BBT149967869.1.2.3.0,Phases=3,Linecode=BT803_BT803_4_3_4,Length=0.039412000,Units=km
new line.10046406 bus1=BBT149967871.1.2.3.0,bus2=BBT149967870.1.2.3.0,Phases=3,Linecode=BT803_BT803_4_3_4,Length=0.040004000,Units=km
new line.10046504 bus1=BBT149967945.1.2.3.0,bus2=BBT149967871.1.2.3.0,Phases=3,Linecode=BT803_BT803_4_3_4,Length=0.039412000,Units=km
new line.10046532 bus1=BBT149967940.1.2.3.0,bus2=BBT149967941.1.2.3.0,Phases=3,Linecode=BT518_BT518_7_3_1,Length=0.000501000,Units=km
new line.10046581 bus1=BBT149967941.1.2.3.0,bus2=BBT149967942.1.2.3.0,Phases=3,Linecode=BT803_BT803_4_3_4,Length=0.037206000,Units=km
new line.10046588 bus1=BBT149967942.1.2.3.0,bus2=BBT149967943.1.2.3.0,Phases=3,Linecode=BT803_BT803_4_3_4,Length=0.039412000,Units=km
new line.10046595 bus1=BBT149967943.1.2.3.0,bus2=BBT149967944.1.2.3.0,Phases=3,Linecode=BT803_BT803_4_3_4,Length=0.039412000,Units=km
new line.10046602 bus1=BBT149967944.1.2.3.0,bus2=BBT149967945.1.2.3.0,Phases=3,Linecode=BT803_BT803_4_3_4,Length=0.039412000,Units=km
new line.10046623 bus1=BBT149967941.1.2.3.0,bus2=BBT149967962.1.2.3.0,Phases=3,Linecode=BT803_BT803_4_3_4,Length=0.035004000,Units=km
new line.10046637 bus1=BBT149967962.1.2.3.0,bus2=BBT149967963.1.2.3.0,Phases=3,Linecode=BT803_BT803_4_3_4,Length=0.012371000,Units=km
new line.10046700 bus1=BBT149967963.1.2.3.0,bus2=BBT149967964.1.2.3.0,Phases=3,Linecode=BT803_BT803_4_3_4,Length=0.035232000,Units=km
new line.10046714 bus1=BBT149967963.1.2.3.0,bus2=BBT149967965.1.2.3.0,Phases=3,Linecode=BT803_BT803_4_3_4,Length=0.034659000,Units=km
new line.10046721 bus1=BBT149967965.1.2.3.0,bus2=BBT149967966.1.2.3.0,Phases=3,Linecode=BT803_BT803_4_3_4,Length=0.035809000,Units=km
new line.10047169 bus1=BBT149968072.1.2.3.0,bus2=BBT149968073.1.2.3.0,Phases=3,Linecode=BT518_BT518_7_3_1,Length=0.000501000,Units=km
new line.10047176 bus1=BBT149968073.1.2.3.0,bus2=BBT149968076.1.2.3.0,Phases=3,Linecode=BT803_BT803_4_3_4,Length=0.039967000,Units=km
new line.10047183 bus1=BBT149968076.1.2.3.0,bus2=BBT149968077.1.2.3.0,Phases=3,Linecode=BT803_BT803_4_3_4,Length=0.039967000,Units=km
new line.10047197 bus1=BBT149968077.1.2.3.0,bus2=BBT149968078.1.2.3.0,Phases=3,Linecode=BT803_BT803_4_3_4,Length=0.029685000,Units=km
new line.10047204 bus1=BBT149968078.1.2.3.0,bus2=BBT149968079.1.2.3.0,Phases=3,Linecode=BT803_BT803_4_3_4,Length=0.029685000,Units=km
new line.10047225 bus1=BBT149968073.1.2.3.0,bus2=BBT149968080.1.2.3.0,Phases=3,Linecode=BT803_BT803_4_3_4,Length=0.037220000,Units=km
new line.10047232 bus1=BBT149968080.1.2.3.0,bus2=BBT149968081.1.2.3.0,Phases=3,Linecode=BT803_BT803_4_3_4,Length=0.006001000,Units=km
new line.10047246 bus1=BBT149968081.1.2.3.0,bus2=BBT149968091.1.2.3.0,Phases=3,Linecode=BT803_BT803_4_3_4,Length=0.026836000,Units=km
new line.10047253 bus1=BBT149968091.1.2.3.0,bus2=BBT149968092.1.2.3.0,Phases=3,Linecode=BT803_BT803_4_3_4,Length=0.032206000,Units=km
new line.10047267 bus1=BBT149968092.1.2.3.0,bus2=BBT149968093.1.2.3.0,Phases=3,Linecode=BT803_BT803_4_3_4,Length=0.032653000,Units=km
new line.10047330 bus1=BBT149968170.1.2.3.0,bus2=BBT149968171.1.2.3.0,Phases=3,Linecode=BT518_BT518_7_3_1,Length=0.000501000,Units=km
new line.10047344 bus1=BBT149968171.1.2.3.0,bus2=BBT149968172.1.2.3.0,Phases=3,Linecode=BT803_BT803_4_3_4,Length=0.035906000,Units=km
new line.10047351 bus1=BBT149968172.1.2.3.0,bus2=BBT149968175.1.2.3.0,Phases=3,Linecode=BT803_BT803_4_3_4,Length=0.042159000,Units=km
new line.10047365 bus1=BBT149968175.1.2.3.0,bus2=BBT149968176.1.2.3.0,Phases=3,Linecode=BT803_BT803_4_3_4,Length=0.042159000,Units=km
new line.10047372 bus1=BBT149968171.1.2.3.0,bus2=BBT149968180.1.2.3.0,Phases=3,Linecode=BT803_BT803_4_3_4,Length=0.042194000,Units=km
new line.10047379 bus1=BBT149968180.1.2.3.0,bus2=BBT149968181.1.2.3.0,Phases=3,Linecode=BT803_BT803_4_3_4,Length=0.041114000,Units=km
new line.10047400 bus1=BBT149968181.1.2.3.0,bus2=BBT149968182.1.2.3.0,Phases=3,Linecode=BT803_BT803_4_3_4,Length=0.041114000,Units=km
new line.10047428 bus1=BBT149968182.1.2.3.0,bus2=BBT149968183.1.2.3.0,Phases=3,Linecode=BT803_BT803_4_3_4,Length=0.041114000,Units=km
new line.10047449 bus1=BBT149967749.1.2.3.0,bus2=BBT149968226.1.2.3.0,Phases=3,Linecode=BT803_BT803_4_3_4,Length=0.040004000,Units=km
new line.10047456 bus1=BBT149968226.1.2.3.0,bus2=BBT149968228.1.2.3.0,Phases=3,Linecode=BT803_BT803_4_3_4,Length=0.040004000,Units=km
new line.10047561 bus1=BBT149968313.1.2.3.0,bus2=BBT149968314.1.2.3.0,Phases=3,Linecode=BT518_BT518_7_3_1,Length=0.000501000,Units=km
new line.10047568 bus1=BBT149968314.1.2.3.0,bus2=BBT149968315.1.2.3.0,Phases=3,Linecode=BT803_BT803_4_3_4,Length=0.039412000,Units=km
new line.10047575 bus1=BBT149968315.1.2.3.0,bus2=BBT149968316.1.2.3.0,Phases=3,Linecode=BT803_BT803_4_3_4,Length=0.039412000,Units=km
new line.10047582 bus1=BBT149968316.1.2.3.0,bus2=BBT149968317.1.2.3.0,Phases=3,Linecode=BT803_BT803_4_3_4,Length=0.040004000,Units=km
new line.10047589 bus1=BBT149968317.1.2.3.0,bus2=BBT149968318.1.2.3.0,Phases=3,Linecode=BT803_BT803_4_3_4,Length=0.040004000,Units=km
new line.10047596 bus1=BBT149968314.1.2.3.0,bus2=BBT149968319.1.2.3.0,Phases=3,Linecode=BT803_BT803_4_3_4,Length=0.036624000,Units=km
new line.1291689 bus1=BBT1470525.1.2.0,bus2=BBT1470532.1.2.0,Phases=2,Linecode=BT304_BT304_7_2_1,Length=0.000501000,Units=km
new line.1291696 bus1=BBT1470539.1.2.0,bus2=BBT1470546.1.2.0,Phases=2,Linecode=BT308_BT308_7_2_1,Length=0.000501000,Units=km
new line.1291703 bus1=BBT1470553.1.2.0,bus2=BBT1470560.1.2.0,Phases=2,Linecode=BT307_BT307_7_2_1,Length=0.000501000,Units=km
new line.1291710 bus1=BBT1470567.1.2.0,bus2=BBT1470574.1.2.0,Phases=2,Linecode=BT307_BT307_7_2_1,Length=0.000501000,Units=km
new line.1291717 bus1=BBT1470581.1.2.0,bus2=BBT1470588.1.2.0,Phases=2,Linecode=BT316_BT316_7_2_1,Length=0.000501000,Units=km
new line.1291724 bus1=BBT1470595.1.2.0,bus2=BBT1470602.1.2.0,Phases=2,Linecode=BT518_BT518_7_2_1,Length=0.000501000,Units=km
new line.1291738 bus1=BBT1470602.1.2.0,bus2=BBT3598826.1.2.0,Phases=2,Linecode=BT808_BT808_4_2_3,Length=0.038005000,Units=km
new line.1291745 bus1=BBT1470609.1.2.0,bus2=BBT1470616.1.2.0,Phases=2,Linecode=BT518_BT518_7_2_1,Length=0.000501000,Units=km
new line.1291752 bus1=BBT1470623.1.2.0,bus2=BBT1470630.1.2.0,Phases=2,Linecode=BT307_BT307_7_2_1,Length=0.000501000,Units=km
new line.1291759 bus1=BBT1470637.1.2.0,bus2=BBT1470644.1.2.0,Phases=2,Linecode=BT306_BT306_7_2_1,Length=0.000501000,Units=km
new line.1291766 bus1=BBT1470651.1.2.0,bus2=BBT1470658.1.2.0,Phases=2,Linecode=BT304_BT304_7_2_1,Length=0.000501000,Units=km
new line.1291773 bus1=BBT1470665.1.2.0,bus2=BBT1470672.1.2.0,Phases=2,Linecode=BT304_BT304_7_2_1,Length=0.000501000,Units=km
new line.1291780 bus1=BBT1470679.1.2.0,bus2=BBT1470686.1.2.0,Phases=2,Linecode=BT518_BT518_7_2_1,Length=0.000501000,Units=km
new line.1291787 bus1=BBT1470693.1.2.0,bus2=BBT1470700.1.2.0,Phases=2,Linecode=BT518_BT518_7_2_1,Length=0.000501000,Units=km
new line.1291794 bus1=BBT1470700.1.2.0,bus2=BBT1470707.1.2.0,Phases=2,Linecode=BT108_BT107_7_2_1,Length=0.023857000,Units=km
new line.1291801 bus1=BBT1470700.1.2.0,bus2=BBT1470714.1.2.0,Phases=2,Linecode=BT108_BT107_7_2_1,Length=0.029004000,Units=km
new line.1291808 bus1=BBT1470707.1.2.0,bus2=BBT1470770.1.2.0,Phases=2,Linecode=BT807_BT807_4_2_3,Length=0.034544000,Units=km
new line.1291815 bus1=BBT1470714.1.2.0,bus2=BBT1470721.1.2.0,Phases=2,Linecode=BT108_BT107_7_2_1,Length=0.029736000,Units=km
new line.1291822 bus1=BBT1470721.1.2.0,bus2=BBT1470728.1.2.0,Phases=2,Linecode=BT808_BT808_4_2_3,Length=0.034544000,Units=km
new line.1291829 bus1=BBT1470728.1.2.0,bus2=BBT1470735.1.2.0,Phases=2,Linecode=BT808_BT808_4_2_3,Length=0.035346000,Units=km
new line.1291836 bus1=BBT4288606.1.2.0,bus2=BBT1470742.1.2.0,Phases=2,Linecode=BT808_BT808_4_2_3,Length=0.007617000,Units=km
new line.1291843 bus1=BBT1470742.1.2.0,bus2=BBT1470756.1.2.0,Phases=2,Linecode=BT808_BT808_4_2_3,Length=0.024169000,Units=km
new line.1291850 bus1=BBT1470749.1.2.0,bus2=BBT4288606.1.2.0,Phases=2,Linecode=BT808_BT808_4_2_3,Length=0.030087000,Units=km
new line.1291857 bus1=BBT1790299.1.2.0,bus2=BBT2635906.1.2.0,Phases=2,Linecode=BT808_BT808_4_2_3,Length=0.034890000,Units=km
new line.1291864 bus1=BBT4288599.1.2.0,bus2=BBT1790306.1.2.0,Phases=2,Linecode=BT808_BT808_4_2_3,Length=0.023263000,Units=km
new line.1291871 bus1=BBT1470756.1.2.0,bus2=BBT1470763.1.2.0,Phases=2,Linecode=BT808_BT808_4_2_3,Length=0.024045000,Units=km
new line.1291878 bus1=BBT1470770.1.2.0,bus2=BBT1470833.1.2.0,Phases=2,Linecode=BT808_BT808_4_2_3,Length=0.018871000,Units=km
new line.1291885 bus1=BBT1470777.1.2.0,bus2=BBT2897405.1.2.0,Phases=2,Linecode=BT807_BT807_4_2_3,Length=0.019316000,Units=km
new line.1291892 bus1=BBT1470777.1.2.0,bus2=BBT1470805.1.2.0,Phases=2,Linecode=BT808_BT808_4_2_3,Length=0.027896000,Units=km
new line.1291899 bus1=BBT1470784.1.2.0,bus2=BBT1470777.1.2.0,Phases=2,Linecode=BT807_BT807_4_2_3,Length=0.021027000,Units=km
new line.1291906 bus1=BBT2635885.1.2.0,bus2=BBT1470784.1.2.0,Phases=2,Linecode=BT518_BT518_7_2_1,Length=0.000501000,Units=km
new line.1291913 bus1=BBT1470784.1.2.0,bus2=BBT1470791.1.2.0,Phases=2,Linecode=BT807_BT807_4_2_3,Length=0.032393000,Units=km
new line.1291920 bus1=BBT1470791.1.2.0,bus2=BBT1470798.1.2.0,Phases=2,Linecode=BT807_BT807_4_2_3,Length=0.046396000,Units=km
new line.1291927 bus1=BBT1470798.1.2.0,bus2=BBT82944621.1.2.0,Phases=2,Linecode=BT808_BT808_4_2_3,Length=0.021098000,Units=km
new line.1291934 bus1=BBT1470805.1.2.0,bus2=BBT1470812.1.2.0,Phases=2,Linecode=BT808_BT808_4_2_3,Length=0.030368000,Units=km
new line.1291941 bus1=BBT1470805.1.2.0,bus2=BBT3021466.1.2.0,Phases=2,Linecode=BT808_BT808_4_2_3,Length=0.031309000,Units=km
new line.1291948 bus1=BBT1470812.1.2.0,bus2=BBT1470819.1.2.0,Phases=2,Linecode=BT808_BT808_4_2_3,Length=0.033975000,Units=km
new line.1291955 bus1=BBT1470819.1.2.0,bus2=BBT1470826.1.2.0,Phases=2,Linecode=BT808_BT808_4_2_3,Length=0.026423000,Units=km
new line.1291962 bus1=BBT1470833.1.2.0,bus2=BBT1470840.1.2.0,Phases=2,Linecode=BT808_BT808_4_2_3,Length=0.031309000,Units=km
new line.1291969 bus1=BBT1470840.1.2.0,bus2=BBT1470847.1.2.0,Phases=2,Linecode=BT808_BT808_4_2_3,Length=0.030418000,Units=km
new line.1291976 bus1=BBT1470854.1.2.0,bus2=BBT1470861.1.2.0,Phases=2,Linecode=BT317_BT317_7_2_1,Length=0.000501000,Units=km
new line.1291983 bus1=BBT1470868.1.2.0,bus2=BBT1470875.1.2.0,Phases=2,Linecode=BT304_BT304_7_2_1,Length=0.000501000,Units=km
new line.1291990 bus1=BBT1470882.1.2.0,bus2=BBT1470889.1.2.0,Phases=2,Linecode=BT306_BT306_7_2_1,Length=0.000501000,Units=km
new line.1291997 bus1=BBT1470896.1.2.0,bus2=BBT1470903.1.2.0,Phases=2,Linecode=BT513_BT513_7_2_1,Length=0.000501000,Units=km
new line.1292004 bus1=BBT1470910.1.2.0,bus2=BBT1470917.1.2.0,Phases=2,Linecode=BT317_BT317_7_2_1,Length=0.000501000,Units=km
new line.1292011 bus1=BBT1470924.1.2.0,bus2=BBT1470931.1.2.0,Phases=2,Linecode=BT304_BT304_7_2_1,Length=0.000501000,Units=km
new line.1292018 bus1=BBT1470938.1.2.0,bus2=BBT1470945.1.2.0,Phases=2,Linecode=BT307_BT307_7_2_1,Length=0.000501000,Units=km
new line.1292025 bus1=BBT1470952.1.2.0,bus2=BBT1470959.1.2.0,Phases=2,Linecode=BT304_BT304_7_2_1,Length=0.000501000,Units=km
new line.1292032 bus1=BBT1470966.1.2.0,bus2=BBT1470973.1.2.0,Phases=2,Linecode=BT306_BT306_7_2_1,Length=0.000501000,Units=km
new line.1292039 bus1=BBT1470980.1.2.3.0,bus2=BBT1470987.1.2.3.0,Phases=3,Linecode=BT313_BT313_7_3_1,Length=0.000501000,Units=km
new line.1292046 bus1=BBT1470994.1.2.0,bus2=BBT1471001.1.2.0,Phases=2,Linecode=BT518_BT518_7_2_1,Length=0.000501000,Units=km
new line.1292053 bus1=BBT1471001.1.2.0,bus2=BBT3290336.1.2.0,Phases=2,Linecode=BT808_BT808_4_2_3,Length=0.029534000,Units=km
new line.1292060 bus1=BBT1471008.1.2.0,bus2=BBT1471015.1.2.0,Phases=2,Linecode=BT304_BT304_7_2_1,Length=0.000501000,Units=km
new line.1292067 bus1=BBT1471022.1.2.0,bus2=BBT1471029.1.2.0,Phases=2,Linecode=BT304_BT304_7_2_1,Length=0.000501000,Units=km
new line.1292074 bus1=BBT1471036.1.2.0,bus2=BBT1471043.1.2.0,Phases=2,Linecode=BT518_BT518_7_2_1,Length=0.000501000,Units=km
new line.1292081 bus1=BBT1471043.1.2.0,bus2=BBT2723826.1.2.0,Phases=2,Linecode=BT108_BT107_7_2_1,Length=0.029159000,Units=km
new line.1292088 bus1=BBT1471043.1.2.0,bus2=BBT2723798.1.2.0,Phases=2,Linecode=BT108_BT107_7_2_1,Length=0.030087000,Units=km
new line.1292095 bus1=BBT1471050.1.2.0,bus2=BBT1471057.1.2.0,Phases=2,Linecode=BT304_BT304_7_2_1,Length=0.000501000,Units=km
new line.1292102 bus1=BBT1471064.1.2.0,bus2=BBT1471071.1.2.0,Phases=2,Linecode=BT306_BT306_7_2_1,Length=0.000501000,Units=km
new line.1292109 bus1=BBT1471078.1.2.0,bus2=BBT1471085.1.2.0,Phases=2,Linecode=BT306_BT306_7_2_1,Length=0.000501000,Units=km
new line.1292116 bus1=BBT1471092.1.2.0,bus2=BBT1471099.1.2.0,Phases=2,Linecode=BT518_BT518_7_2_1,Length=0.000501000,Units=km
new line.1292123 bus1=BBT1471106.1.2.0,bus2=BBT1471113.1.2.0,Phases=2,Linecode=BT306_BT306_7_2_1,Length=0.000501000,Units=km
new line.1292130 bus1=BBT1471120.1.2.0,bus2=BBT1471127.1.2.0,Phases=2,Linecode=BT518_BT518_7_2_1,Length=0.000501000,Units=km
new line.1292137 bus1=BBT1471127.1.2.0,bus2=BBT4328779.1.2.0,Phases=2,Linecode=BT108_BT107_7_2_1,Length=0.028605000,Units=km
new line.1292144 bus1=BBT1471127.1.2.0,bus2=BBT4328793.1.2.0,Phases=2,Linecode=BT108_BT107_7_2_1,Length=0.039056000,Units=km
new line.1292151 bus1=BBT1471134.1.2.0,bus2=BBT1471141.1.2.0,Phases=2,Linecode=BT316_BT316_7_2_1,Length=0.000501000,Units=km
new line.1292158 bus1=BBT1471148.1.2.0,bus2=BBT1471155.1.2.0,Phases=2,Linecode=BT306_BT306_7_2_1,Length=0.000501000,Units=km
new line.1292165 bus1=BBT1471162.1.2.0,bus2=BBT1471169.1.2.0,Phases=2,Linecode=BT308_BT308_7_2_1,Length=0.000501000,Units=km
new line.1292172 bus1=BBT1471176.1.2.0,bus2=BBT1471183.1.2.0,Phases=2,Linecode=BT304_BT304_7_2_1,Length=0.000501000,Units=km
new line.1292179 bus1=BBT1471190.1.2.0,bus2=BBT1471197.1.2.0,Phases=2,Linecode=BT518_BT518_7_2_1,Length=0.000501000,Units=km
new line.1292186 bus1=BBT1471197.1.2.0,bus2=BBT3540915.1.2.0,Phases=2,Linecode=BT808_BT808_4_2_3,Length=0.024211000,Units=km
new line.1292207 bus1=BBT1471204.1.2.0,bus2=BBT1471211.1.2.0,Phases=2,Linecode=BT206_BT206_7_2_1,Length=0.000501000,Units=km
new line.1292214 bus1=BBT1471211.1.2.0,bus2=BBT1471218.1.2.0,Phases=2,Linecode=BT801_BT801_4_2_3,Length=0.078272000,Units=km
new line.1292221 bus1=BBT1471225.1.2.0,bus2=BBT1471232.1.2.0,Phases=2,Linecode=BT307_BT307_7_2_1,Length=0.000501000,Units=km
new line.1292228 bus1=BBT1471239.1.2.3.0,bus2=BBT1471246.1.2.3.0,Phases=3,Linecode=BT306_BT306_7_3_1,Length=0.000501000,Units=km
new line.1292235 bus1=BBT1471253.1.2.0,bus2=BBT1471260.1.2.0,Phases=2,Linecode=BT518_BT518_7_2_1,Length=0.000501000,Units=km
new line.1292242 bus1=BBT1471267.1.2.0,bus2=BBT1471274.1.2.0,Phases=2,Linecode=BT308_BT308_7_2_1,Length=0.000501000,Units=km
new line.1292249 bus1=BBT1471281.1.2.0,bus2=BBT1471288.1.2.0,Phases=2,Linecode=BT304_BT304_7_2_1,Length=0.000501000,Units=km
new line.1292256 bus1=BBT1471295.1.2.0,bus2=BBT1471302.1.2.0,Phases=2,Linecode=BT304_BT304_7_2_1,Length=0.000501000,Units=km
new line.1292263 bus1=BBT1471309.1.2.0,bus2=BBT1471316.1.2.0,Phases=2,Linecode=BT518_BT518_7_2_1,Length=0.000501000,Units=km
new line.1292270 bus1=BBT1471316.1.2.0,bus2=BBT4328688.1.2.0,Phases=2,Linecode=BT108_BT107_7_2_1,Length=0.037807000,Units=km
new line.1292277 bus1=BBT1471316.1.2.0,bus2=BBT4328716.1.2.0,Phases=2,Linecode=BT108_BT107_7_2_1,Length=0.037661000,Units=km
new line.1292284 bus1=BBT1471323.1.2.0,bus2=BBT1471330.1.2.0,Phases=2,Linecode=BT518_BT518_7_2_1,Length=0.000501000,Units=km
new line.1292291 bus1=BBT1471330.1.2.0,bus2=BBT4328751.1.2.0,Phases=2,Linecode=BT108_BT107_7_2_1,Length=0.047017000,Units=km
new line.1292298 bus1=BBT1471330.1.2.0,bus2=BBT4328765.1.2.0,Phases=2,Linecode=BT108_BT107_7_2_1,Length=0.039056000,Units=km
new line.1292305 bus1=BBT1471337.1.2.0,bus2=BBT1471344.1.2.0,Phases=2,Linecode=BT518_BT518_7_2_1,Length=0.000501000,Units=km
new line.1292312 bus1=BBT1471351.1.2.0,bus2=BBT1471358.1.2.0,Phases=2,Linecode=BT307_BT307_7_2_1,Length=0.000501000,Units=km
new line.1292319 bus1=BBT1471365.1.2.0,bus2=BBT1471372.1.2.0,Phases=2,Linecode=BT518_BT518_7_2_1,Length=0.000501000,Units=km
new line.1292326 bus1=BBT1471372.1.2.0,bus2=BBT3764775.1.2.0,Phases=2,Linecode=BT808_BT808_4_2_3,Length=0.092207000,Units=km
new line.1292333 bus1=BBT1471372.1.2.0,bus2=BBT3568726.1.2.0,Phases=2,Linecode=BT808_BT808_4_2_3,Length=0.068016000,Units=km
new line.1292340 bus1=BBT1471379.1.2.0,bus2=BBT1471386.1.2.0,Phases=2,Linecode=BT306_BT306_7_2_1,Length=0.000501000,Units=km
new line.1292347 bus1=BBT1471393.1.2.0,bus2=BBT1471400.1.2.0,Phases=2,Linecode=BT518_BT518_7_2_1,Length=0.000501000,Units=km
new line.1292354 bus1=BBT1471407.1.2.0,bus2=BBT1471414.1.2.0,Phases=2,Linecode=BT304_BT304_7_2_1,Length=0.000501000,Units=km
new line.1292361 bus1=BBT1471421.1.2.0,bus2=BBT1471428.1.2.0,Phases=2,Linecode=BT306_BT306_7_2_1,Length=0.000501000,Units=km
new line.1292368 bus1=BBT1471435.1.2.3.0,bus2=BBT1471442.1.2.3.0,Phases=3,Linecode=BT518_BT518_7_3_1,Length=0.000501000,Units=km
new line.1292375 bus1=BBT1471449.1.2.0,bus2=BBT1471456.1.2.0,Phases=2,Linecode=BT306_BT306_7_2_1,Length=0.000501000,Units=km
new line.1292382 bus1=BBT1471456.1.0,bus2=BBT3764789.1.0,Phases=1,Linecode=BT107_BT107_7_1_1,Length=0.035360000,Units=km
new line.1292389 bus1=BBT1471456.2.0,bus2=BBT3764782.2.0,Phases=1,Linecode=BT107_BT107_7_1_1,Length=0.077631000,Units=km
new line.1292396 bus1=BBT1471463.1.2.0,bus2=BBT1471470.1.2.0,Phases=2,Linecode=BT304_BT304_7_2_1,Length=0.000501000,Units=km
new line.1292403 bus1=BBT1471477.1.2.0,bus2=BBT1471484.1.2.0,Phases=2,Linecode=BT304_BT304_7_2_1,Length=0.000501000,Units=km
new line.1292410 bus1=BBT1471491.1.2.0,bus2=BBT1471498.1.2.0,Phases=2,Linecode=BT518_BT518_7_2_1,Length=0.000501000,Units=km
new line.1292417 bus1=BBT1471505.1.2.0,bus2=BBT1471512.1.2.0,Phases=2,Linecode=BT306_BT306_7_2_1,Length=0.000501000,Units=km
new line.1292424 bus1=BBT1471519.1.2.0,bus2=BBT1471526.1.2.0,Phases=2,Linecode=BT304_BT304_7_2_1,Length=0.000501000,Units=km
new line.1292431 bus1=BBT1471533.1.2.0,bus2=BBT1471540.1.2.0,Phases=2,Linecode=BT304_BT304_7_2_1,Length=0.000501000,Units=km
new line.1292438 bus1=BBT1471547.1.2.0,bus2=BBT1471554.1.2.0,Phases=2,Linecode=BT518_BT518_7_2_1,Length=0.000501000,Units=km
new line.1292445 bus1=BBT1471561.1.2.0,bus2=BBT1471568.1.2.0,Phases=2,Linecode=BT307_BT307_7_2_1,Length=0.000501000,Units=km
new line.1292452 bus1=BBT1471575.1.2.0,bus2=BBT1471582.1.2.0,Phases=2,Linecode=BT306_BT306_7_2_1,Length=0.000501000,Units=km
new line.1292459 bus1=BBT1471589.1.2.0,bus2=BBT1471596.1.2.0,Phases=2,Linecode=BT306_BT306_7_2_1,Length=0.000501000,Units=km
new line.1292466 bus1=BBT1471603.1.2.0,bus2=BBT1471610.1.2.0,Phases=2,Linecode=BT306_BT306_7_2_1,Length=0.000501000,Units=km
new line.1292473 bus1=BBT1471617.1.2.0,bus2=BBT1471624.1.2.0,Phases=2,Linecode=BT304_BT304_7_2_1,Length=0.000501000,Units=km
new line.1292480 bus1=BBT1471631.1.2.0,bus2=BBT1471638.1.2.0,Phases=2,Linecode=BT306_BT306_7_2_1,Length=0.000501000,Units=km
new line.1292487 bus1=BBT1471645.1.2.0,bus2=BBT1471652.1.2.0,Phases=2,Linecode=BT513_BT513_7_2_1,Length=0.000501000,Units=km
new line.1292494 bus1=BBT1471659.1.2.0,bus2=BBT1471666.1.2.0,Phases=2,Linecode=BT518_BT518_7_2_1,Length=0.000501000,Units=km
new line.1292501 bus1=BBT1471666.1.2.0,bus2=BBT3361974.1.2.0,Phases=2,Linecode=BT808_BT808_4_2_3,Length=0.039855000,Units=km
new line.1292508 bus1=BBT1471673.1.2.0,bus2=BBT1471680.1.2.0,Phases=2,Linecode=BT304_BT304_7_2_1,Length=0.000501000,Units=km
new line.1292515 bus1=BBT1471687.1.2.0,bus2=BBT1471694.1.2.0,Phases=2,Linecode=BT304_BT304_7_2_1,Length=0.000501000,Units=km
new line.1292522 bus1=BBT1471701.1.2.0,bus2=BBT1471708.1.2.0,Phases=2,Linecode=BT304_BT304_7_2_1,Length=0.000501000,Units=km
new line.1292529 bus1=BBT1471715.1.2.3.0,bus2=BBT1471722.1.2.3.0,Phases=3,Linecode=BT307_BT307_7_3_1,Length=0.000501000,Units=km
new line.1292536 bus1=BBT1471729.1.2.0,bus2=BBT1471736.1.2.0,Phases=2,Linecode=BT304_BT304_7_2_1,Length=0.000501000,Units=km
new line.1292543 bus1=BBT1471743.1.2.0,bus2=BBT1471750.1.2.0,Phases=2,Linecode=BT518_BT518_7_2_1,Length=0.000501000,Units=km
new line.1292550 bus1=BBT1471750.1.2.0,bus2=BBT3455585.1.2.0,Phases=2,Linecode=BT808_BT808_4_2_3,Length=0.039452000,Units=km
new line.1292557 bus1=BBT1471757.1.2.0,bus2=BBT1471764.1.2.0,Phases=2,Linecode=BT518_BT518_7_2_1,Length=0.000501000,Units=km
new line.1292564 bus1=BBT1471764.1.2.0,bus2=BBT3847739.1.2.0,Phases=2,Linecode=BT108_BT107_7_2_1,Length=0.044727000,Units=km
new line.1292571 bus1=BBT1471764.1.2.0,bus2=BBT3847746.1.2.0,Phases=2,Linecode=BT108_BT107_7_2_1,Length=0.041152000,Units=km
new line.1292578 bus1=BBT4289320.1.2.0,bus2=BBT4289327.1.2.0,Phases=2,Linecode=BT106_BT106_7_2_1,Length=0.041237000,Units=km
new line.1292585 bus1=BBT1471771.1.2.0,bus2=BBT1471778.1.2.0,Phases=2,Linecode=BT518_BT518_7_2_1,Length=0.000501000,Units=km
new line.1292592 bus1=BBT1471785.1.2.0,bus2=BBT1471792.1.2.0,Phases=2,Linecode=BT304_BT304_7_2_1,Length=0.000501000,Units=km
new line.1292599 bus1=BBT1471799.1.2.0,bus2=BBT1471806.1.2.0,Phases=2,Linecode=BT307_BT307_7_2_1,Length=0.000501000,Units=km
new line.1292606 bus1=BBT1471813.1.2.0,bus2=BBT1471820.1.2.0,Phases=2,Linecode=BT518_BT518_7_2_1,Length=0.000501000,Units=km
new line.1292613 bus1=BBT1471820.1.2.0,bus2=BBT4289243.1.2.0,Phases=2,Linecode=BT108_BT107_7_2_1,Length=0.022364000,Units=km
new line.1292620 bus1=BBT1471820.1.2.0,bus2=BBT4289250.1.2.0,Phases=2,Linecode=BT108_BT107_7_2_1,Length=0.031627000,Units=km
new line.1292627 bus1=BBT1471827.1.2.0,bus2=BBT1471834.1.2.0,Phases=2,Linecode=BT307_BT307_7_2_1,Length=0.000501000,Units=km
new line.1292634 bus1=BBT1471841.1.2.0,bus2=BBT1471848.1.2.0,Phases=2,Linecode=BT307_BT307_7_2_1,Length=0.000501000,Units=km
new line.1292641 bus1=BBT1471855.1.2.0,bus2=BBT1471862.1.2.0,Phases=2,Linecode=BT307_BT307_7_2_1,Length=0.000501000,Units=km
new line.1292648 bus1=BBT1471869.1.2.0,bus2=BBT1471876.1.2.0,Phases=2,Linecode=BT316_BT316_7_2_1,Length=0.000501000,Units=km
new line.1292655 bus1=BBT1471883.1.2.0,bus2=BBT1471890.1.2.0,Phases=2,Linecode=BT306_BT306_7_2_1,Length=0.000501000,Units=km
new line.1292662 bus1=BBT1471897.1.2.0,bus2=BBT1471904.1.2.0,Phases=2,Linecode=BT518_BT518_7_2_1,Length=0.000501000,Units=km
new line.1292669 bus1=BBT1471911.1.2.0,bus2=BBT1471918.1.2.0,Phases=2,Linecode=BT518_BT518_7_2_1,Length=0.000501000,Units=km
new line.1292683 bus1=BBT1471925.1.2.0,bus2=BBT1471932.1.2.0,Phases=2,Linecode=BT306_BT306_7_2_1,Length=0.000501000,Units=km
new line.1292690 bus1=BBT1471939.1.2.0,bus2=BBT1471946.1.2.0,Phases=2,Linecode=BT308_BT308_7_2_1,Length=0.000501000,Units=km
new line.1292697 bus1=BBT1471953.1.2.0,bus2=BBT1471960.1.2.0,Phases=2,Linecode=BT307_BT307_7_2_1,Length=0.000501000,Units=km
new line.1292704 bus1=BBT1471967.1.2.0,bus2=BBT1471974.1.2.0,Phases=2,Linecode=BT518_BT518_7_2_1,Length=0.000501000,Units=km
new line.1292711 bus1=BBT1471981.1.2.0,bus2=BBT1471988.1.2.0,Phases=2,Linecode=BT316_BT316_7_2_1,Length=0.000501000,Units=km
new line.1292718 bus1=BBT1471995.1.2.0,bus2=BBT1472002.1.2.0,Phases=2,Linecode=BT518_BT518_7_2_1,Length=0.000501000,Units=km
new line.1292725 bus1=BBT1472002.1.0,bus2=BBT2705598.1.0,Phases=1,Linecode=BT106_BT106_7_1_1,Length=0.050997000,Units=km
new line.1292732 bus1=BBT1472002.1.0,bus2=BBT2705577.1.0,Phases=1,Linecode=BT107_BT107_7_1_1,Length=0.063254000,Units=km
new line.1292739 bus1=BBT1472009.1.2.0,bus2=BBT1472016.1.2.0,Phases=2,Linecode=BT513_BT513_7_2_1,Length=0.000501000,Units=km
new line.1292746 bus1=BBT1472023.1.2.0,bus2=BBT1472030.1.2.0,Phases=2,Linecode=BT304_BT304_7_2_1,Length=0.000501000,Units=km
new line.1292753 bus1=BBT1472037.1.2.0,bus2=BBT1472044.1.2.0,Phases=2,Linecode=BT306_BT306_7_2_1,Length=0.000501000,Units=km
new line.1292760 bus1=BBT1472051.1.2.0,bus2=BBT1472058.1.2.0,Phases=2,Linecode=BT316_BT316_7_2_1,Length=0.000501000,Units=km
new line.1292767 bus1=BBT1472065.1.2.0,bus2=BBT1472072.1.2.0,Phases=2,Linecode=BT306_BT306_7_2_1,Length=0.000501000,Units=km
new line.1292774 bus1=BBT1472079.1.2.0,bus2=BBT1472086.1.2.0,Phases=2,Linecode=BT518_BT518_7_2_1,Length=0.000501000,Units=km
new line.1292781 bus1=BBT1472086.1.2.0,bus2=BBT3455921.1.2.0,Phases=2,Linecode=BT808_BT808_4_2_3,Length=0.044604000,Units=km
new line.1292788 bus1=BBT1472086.1.2.0,bus2=BBT3678829.1.2.0,Phases=2,Linecode=BT808_BT808_4_2_3,Length=0.039414000,Units=km
new line.1292795 bus1=BBT1472093.1.2.0,bus2=BBT1472100.1.2.0,Phases=2,Linecode=BT307_BT307_7_2_1,Length=0.000501000,Units=km
new line.1292802 bus1=BBT1472107.1.2.0,bus2=BBT1472114.1.2.0,Phases=2,Linecode=BT518_BT518_7_2_1,Length=0.000501000,Units=km
new line.1292809 bus1=BBT1472114.1.2.0,bus2=BBT3456096.1.2.0,Phases=2,Linecode=BT808_BT808_4_2_3,Length=0.040230000,Units=km
new line.1292816 bus1=BBT1472121.1.2.0,bus2=BBT1472128.1.2.0,Phases=2,Linecode=BT307_BT307_7_2_1,Length=0.000501000,Units=km
new line.1292823 bus1=BBT1472135.1.2.0,bus2=BBT1472142.1.2.0,Phases=2,Linecode=BT518_BT518_7_2_1,Length=0.000501000,Units=km
new line.1292830 bus1=BBT1472142.1.2.0,bus2=BBT3372635.1.2.0,Phases=2,Linecode=BT808_BT808_4_2_3,Length=0.040056000,Units=km
new line.1292837 bus1=BBT1472149.1.2.0,bus2=BBT1472156.1.2.0,Phases=2,Linecode=BT518_BT518_7_2_1,Length=0.000501000,Units=km
new line.1292844 bus1=BBT1472156.1.2.0,bus2=BBT2845542.1.2.0,Phases=2,Linecode=BT808_BT808_4_2_3,Length=0.042726000,Units=km
new line.1292851 bus1=BBT1472163.1.2.0,bus2=BBT1472170.1.2.0,Phases=2,Linecode=BT518_BT518_7_2_1,Length=0.000501000,Units=km
new line.1292858 bus1=BBT1472170.1.2.0,bus2=BBT2706025.1.2.0,Phases=2,Linecode=BT801_BT801_4_2_3,Length=0.050997000,Units=km
new line.1292865 bus1=BBT1472177.1.2.0,bus2=BBT1472184.1.2.0,Phases=2,Linecode=BT304_BT304_7_2_1,Length=0.000501000,Units=km
new line.1292872 bus1=BBT1472191.1.2.0,bus2=BBT1472198.1.2.0,Phases=2,Linecode=BT304_BT304_7_2_1,Length=0.000501000,Units=km
new line.1292879 bus1=BBT1472205.1.2.0,bus2=BBT1472212.1.2.0,Phases=2,Linecode=BT304_BT304_7_2_1,Length=0.000501000,Units=km
new line.1292886 bus1=BBT1472219.1.2.0,bus2=BBT1472226.1.2.0,Phases=2,Linecode=BT306_BT306_7_2_1,Length=0.000501000,Units=km
new line.1292893 bus1=BBT1472233.1.2.0,bus2=BBT1472240.1.2.0,Phases=2,Linecode=BT306_BT306_7_2_1,Length=0.000501000,Units=km
new line.1292914 bus1=BBT1472254.1.2.0,bus2=BBT1472261.1.2.0,Phases=2,Linecode=BT307_BT307_7_2_1,Length=0.000501000,Units=km
new line.1292921 bus1=BBT1472268.1.2.0,bus2=BBT1472275.1.2.0,Phases=2,Linecode=BT518_BT518_7_2_1,Length=0.000501000,Units=km
new line.1292928 bus1=BBT1472275.1.2.0,bus2=BBT1472282.1.2.0,Phases=2,Linecode=BT808_BT808_4_2_3,Length=0.050007000,Units=km
new line.1292935 bus1=BBT1472289.1.2.0,bus2=BBT1472296.1.2.0,Phases=2,Linecode=BT518_BT518_7_2_1,Length=0.000501000,Units=km
new line.1292942 bus1=BBT1472296.1.2.0,bus2=BBT2706312.1.2.0,Phases=2,Linecode=BT801_BT801_4_2_3,Length=0.094352000,Units=km
new line.1292949 bus1=BBT1472303.1.2.0,bus2=BBT1472310.1.2.0,Phases=2,Linecode=BT306_BT306_7_2_1,Length=0.000501000,Units=km
new line.1292956 bus1=BBT1472317.1.2.0,bus2=BBT1472324.1.2.0,Phases=2,Linecode=BT306_BT306_7_2_1,Length=0.000501000,Units=km
new line.1292963 bus1=BBT1472331.1.2.0,bus2=BBT1472338.1.2.0,Phases=2,Linecode=BT518_BT518_7_2_1,Length=0.000501000,Units=km
new line.1292977 bus1=BBT1472338.1.2.0,bus2=BBT3372607.1.2.0,Phases=2,Linecode=BT808_BT808_4_2_3,Length=0.039830000,Units=km
new line.1292984 bus1=BBT1472338.1.2.0,bus2=BBT3372614.1.2.0,Phases=2,Linecode=BT808_BT808_4_2_3,Length=0.039830000,Units=km
new line.1292991 bus1=BBT1472345.1.2.3.0,bus2=BBT1472352.1.2.3.0,Phases=3,Linecode=BT513_BT513_7_3_1,Length=0.000501000,Units=km
new line.1292998 bus1=BBT1472359.1.2.0,bus2=BBT1472366.1.2.0,Phases=2,Linecode=BT517_BT517_7_2_1,Length=0.000501000,Units=km
new line.1293005 bus1=BBT1472366.1.2.0,bus2=BBT3364109.1.2.0,Phases=2,Linecode=BT808_BT808_4_2_3,Length=0.039401000,Units=km