new line.RML10033703 bus1=BBT56119830.1.2.0,bus2=RML1060033703.1.2.0,Phases=2,Linecode=CABBTG05_4_2,Length=0.017000000,Units=km
new line.RML10033708 bus1=BBT4148858.1.2.0,bus2=RML1060033708.1.2.0,Phases=2,Linecode=CABBTG05_4_2,Length=0.017000000,Units=km
new line.RML10033710 bus1=BBT1710436.1.2.0,bus2=RML1060033710.1.2.0,Phases=2,Linecode=CABBTG05_4_2,Length=0.017000000,Units=km
new line.RML10033714 bus1=BBT3848621.1.2.0,bus2=RML1060033714.1.2.0,Phases=2,Linecode=CABBTG05_4_2,Length=0.017000000,Units=km
new line.RML10033725 bus1=BBT2628143.1.2.0,bus2=RML1060033725.1.2.0,Phases=2,Linecode=CABBTG05_4_2,Length=0.017000000,Units=km
new line.RML10033737 bus1=BBT3082625.1.2.0,bus2=RML1060033737.1.2.0,Phases=2,Linecode=CABBTG05_4_2,Length=0.017000000,Units=km
new line.RML10033738 bus1=BBT6329148.1.2.0,bus2=RML1060033738.1.2.0,Phases=2,Linecode=CABBTG05_4_2,Length=0.017000000,Units=km
new line.RML10033740 bus1=BBT3569202.1.2.0,bus2=RML1060033740.1.2.0,Phases=2,Linecode=CABBTG05_4_2,Length=0.017000000,Units=km
new line.RML10033742 bus1=BBT3569202.1.2.0,bus2=RML1060033742.1.2.0,Phases=2,Linecode=CABBTG05_4_2,Length=0.017000000,Units=km
new line.RML10033743 bus1=BBT3992793.1.2.0,bus2=RML1060033743.1.2.0,Phases=2,Linecode=CABBTG05_4_2,Length=0.017000000,Units=km
new line.RML10033745 bus1=BBT1472310.1.2.0,bus2=RML1060033745.1.2.0,Phases=2,Linecode=CABBTG05_4_2,Length=0.017000000,Units=km
new line.RML10033747 bus1=BBT1470126.1.2.0,bus2=RML1060033747.1.2.0,Phases=2,Linecode=CABBTG05_4_2,Length=0.017000000,Units=km
new line.RML10033749 bus1=BBT4179126.1.2.0,bus2=RML1060033749.1.2.0,Phases=2,Linecode=CABBTG04_4_2,Length=0.017000000,Units=km
new line.RML10033750 bus1=BBT1477182.1.2.0,bus2=RML1060033750.1.2.0,Phases=2,Linecode=CABBTG05_4_2,Length=0.017000000,Units=km
new line.RML10033752 bus1=BBT1709554.1.2.0,bus2=RML1060033752.1.2.0,Phases=2,Linecode=CABBTG05_4_2,Length=0.017000000,Units=km
new line.RML10033754 bus1=BBT3860311.1.2.0,bus2=RML1060033754.1.2.0,Phases=2,Linecode=CABBTG05_4_2,Length=0.017000000,Units=km
new line.RML10033757 bus1=BBT1469482.1.2.0,bus2=RML1060033757.1.2.0,Phases=2,Linecode=CABBTG05_4_2,Length=0.017000000,Units=km
new line.RML10033758 bus1=BBT1469538.1.2.0,bus2=RML1060033758.1.2.0,Phases=2,Linecode=CABBTG05_4_2,Length=0.017000000,Units=km
new line.RML10033761 bus1=BBT4237534.1.2.0,bus2=RML1060033761.1.2.0,Phases=2,Linecode=CABBTG05_4_2,Length=0.017000000,Units=km
new line.RML10033762 bus1=BBT4237534.1.2.0,bus2=RML1060033762.1.2.0,Phases=2,Linecode=CABBTG05_4_2,Length=0.017000000,Units=km
new line.RML10033765 bus1=BBT3407558.1.2.0,bus2=RML1060033765.1.2.0,Phases=2,Linecode=CABBTG05_4_2,Length=0.017000000,Units=km
new line.RML10033767 bus1=BBT1470168.1.2.0,bus2=RML1060033767.1.2.0,Phases=2,Linecode=CABBTG05_4_2,Length=0.017000000,Units=km
new line.RML10033769 bus1=BBT3515974.1.2.0,bus2=RML1060033769.1.2.0,Phases=2,Linecode=CABBTG05_4_2,Length=0.017000000,Units=km
new line.RML10033771 bus1=BBT75953735.1.2.0,bus2=RML1060033771.1.2.0,Phases=2,Linecode=CABBTG05_4_2,Length=0.017000000,Units=km
new line.RML10033773 bus1=BBT1731198.1.2.0,bus2=RML1060033773.1.2.0,Phases=2,Linecode=CABBTG05_4_2,Length=0.017000000,Units=km
new line.RML10033775 bus1=BBT2774772.1.2.0,bus2=RML1060033775.1.2.0,Phases=2,Linecode=CABBTG05_4_2,Length=0.017000000,Units=km
new line.RML10033781 bus1=BBT5234628.1.2.0,bus2=RML1060033781.1.2.0,Phases=2,Linecode=CABBTG05_4_2,Length=0.017000000,Units=km
new line.RML10033782 bus1=BBT1697423.1.2.0,bus2=RML1060033782.1.2.0,Phases=2,Linecode=CABBTG05_4_2,Length=0.017000000,Units=km
new line.RML10033789 bus1=BBT61030659.1.2.0,bus2=RML1060033789.1.2.0,Phases=2,Linecode=CABBTG05_4_2,Length=0.017000000,Units=km
new line.RML10033792 bus1=BBT61028314.1.2.0,bus2=RML1060033792.1.2.0,Phases=2,Linecode=CABBTG05_4_2,Length=0.017000000,Units=km
new line.RML10033794 bus1=BBT61028314.1.2.0,bus2=RML1060033794.1.2.0,Phases=2,Linecode=CABBTG05_4_2,Length=0.017000000,Units=km
new line.RML10033796 bus1=BBT61028314.1.2.0,bus2=RML1060033796.1.2.0,Phases=2,Linecode=CABBTG05_4_2,Length=0.017000000,Units=km
new line.RML10033797 bus1=BBT61028314.1.2.0,bus2=RML1060033797.1.2.0,Phases=2,Linecode=CABBTG05_4_2,Length=0.017000000,Units=km
new line.RML10033799 bus1=BBT61028314.1.2.0,bus2=RML1060033799.1.2.0,Phases=2,Linecode=CABBTG05_4_2,Length=0.017000000,Units=km
new line.RML10033802 bus1=BBT61028314.1.2.0,bus2=RML1060033802.1.2.0,Phases=2,Linecode=CABBTG05_4_2,Length=0.017000000,Units=km
new line.RML10033803 bus1=BBT61029777.1.2.0,bus2=RML1060033803.1.2.0,Phases=2,Linecode=CABBTG05_4_2,Length=0.017000000,Units=km
new line.RML10033831 bus1=BBT1698326.1.2.0,bus2=RML1060033831.1.2.0,Phases=2,Linecode=CABBTG05_4_2,Length=0.017000000,Units=km
new line.RML10033833 bus1=BBT1779526.1.2.0,bus2=RML1060033833.1.2.0,Phases=2,Linecode=CABBTG05_4_2,Length=0.017000000,Units=km
new line.RML10033834 bus1=BBT1793722.1.2.0,bus2=RML1060033834.1.2.0,Phases=2,Linecode=CABBTG05_4_2,Length=0.017000000,Units=km
new line.RML10033835 bus1=BBT1471372.1.2.0,bus2=RML1060033835.1.2.0,Phases=2,Linecode=CABBTG05_4_2,Length=0.017000000,Units=km
new line.RML10033836 bus1=BBT1471372.1.2.0,bus2=RML1060033836.1.2.0,Phases=2,Linecode=CABBTG05_4_2,Length=0.017000000,Units=km
new line.RML10033852 bus1=BBT3364144.1.2.0,bus2=RML1060033852.1.2.0,Phases=2,Linecode=CABBTG05_4_2,Length=0.017000000,Units=km
new line.RML10033856 bus1=BBT3008831.1.2.3.0,bus2=RML1060033856.1.2.3.0,Phases=3,Linecode=CABBTG06_4_3,Length=0.017000000,Units=km
new line.RML10033860 bus1=BBT3008831.1.2.3.0,bus2=RML1060033860.1.2.3.0,Phases=3,Linecode=CABBTG06_4_3,Length=0.017000000,Units=km
new line.RML10033862 bus1=BBT6454812.1.2.0,bus2=RML1060033862.1.2.0,Phases=2,Linecode=CABBTG05_4_2,Length=0.017000000,Units=km
new line.RML10033864 bus1=BBT6454812.1.2.0,bus2=RML1060033864.1.2.0,Phases=2,Linecode=CABBTG05_4_2,Length=0.017000000,Units=km
new line.RML10033866 bus1=BBT76586430.1.2.0,bus2=RML1060033866.1.2.0,Phases=2,Linecode=CABBTG05_4_2,Length=0.017000000,Units=km
new line.RML10033870 bus1=BBT1496642.1.2.0,bus2=RML1060033870.1.2.0,Phases=2,Linecode=CABBTG05_4_2,Length=0.017000000,Units=km
new line.RML10033872 bus1=BBT1469230.1.2.0,bus2=RML1060033872.1.2.0,Phases=2,Linecode=CABBTG05_4_2,Length=0.017000000,Units=km
new line.RML10033875 bus1=BBT1496432.1.2.0,bus2=RML1060033875.1.2.0,Phases=2,Linecode=CABBTG05_4_2,Length=0.017000000,Units=km
new line.RML10033878 bus1=BBT3297938.1.2.0,bus2=RML1060033878.1.2.0,Phases=2,Linecode=CABBTG05_4_2,Length=0.017000000,Units=km
new line.RML10033882 bus1=BBT3015208.1.2.0,bus2=RML1060033882.1.2.0,Phases=2,Linecode=CABBTG05_4_2,Length=0.017000000,Units=km
new line.RML10033887 bus1=BBT6586818.1.2.3.0,bus2=RML1060033887.1.2.3.0,Phases=3,Linecode=CABBTG06_4_3,Length=0.017000000,Units=km
new line.RML10034001 bus1=BBT3015201.1.2.0,bus2=RML1060034001.1.2.0,Phases=2,Linecode=CABBTG05_4_2,Length=0.017000000,Units=km
new line.RML10034003 bus1=BBT3015215.1.2.0,bus2=RML1060034003.1.2.0,Phases=2,Linecode=CABBTG05_4_2,Length=0.017000000,Units=km
new line.RML10034005 bus1=BBT3015194.1.2.0,bus2=RML1060034005.1.2.0,Phases=2,Linecode=CABBTG05_4_2,Length=0.017000000,Units=km
new line.RML10034006 bus1=BBT3015145.1.2.0,bus2=RML1060034006.1.2.0,Phases=2,Linecode=CABBTG05_4_2,Length=0.017000000,Units=km
new line.RML10034007 bus1=BBT3015145.1.2.0,bus2=RML1060034007.1.2.0,Phases=2,Linecode=CABBTG05_4_2,Length=0.017000000,Units=km
new line.RML10034008 bus1=BBT3015145.1.2.0,bus2=RML1060034008.1.2.0,Phases=2,Linecode=CABBTG05_4_2,Length=0.017000000,Units=km
new line.RML10034010 bus1=BBT3015159.1.2.0,bus2=RML1060034010.1.2.0,Phases=2,Linecode=CABBTG05_4_2,Length=0.017000000,Units=km
new line.RML10034012 bus1=BBT3015166.1.2.0,bus2=RML1060034012.1.2.0,Phases=2,Linecode=CABBTG05_4_2,Length=0.017000000,Units=km
new line.RML10034015 bus1=BBT3015166.1.2.0,bus2=RML1060034015.1.2.0,Phases=2,Linecode=CABBTG05_4_2,Length=0.017000000,Units=km
new line.RML10034016 bus1=BBT1497839.1.2.0,bus2=RML1060034016.1.2.0,Phases=2,Linecode=CABBTG05_4_2,Length=0.017000000,Units=km
new line.RML10034018 bus1=BBT1745709.1.2.0,bus2=RML1060034018.1.2.0,Phases=2,Linecode=CABBTG05_4_2,Length=0.015000000,Units=km
new line.RML10034019 bus1=BBT2627737.1.2.0,bus2=RML1060034019.1.2.0,Phases=2,Linecode=CABBTG05_4_2,Length=0.017000000,Units=km
new line.RML10034020 bus1=BBT3015243.1.2.0,bus2=RML1060034020.1.2.0,Phases=2,Linecode=CABBTG05_4_2,Length=0.017000000,Units=km
new line.RML10034022 bus1=BBT2627737.1.2.0,bus2=RML1060034022.1.2.0,Phases=2,Linecode=CABBTG05_4_2,Length=0.017000000,Units=km
new line.RML10034023 bus1=BBT5265533.1.2.3.0,bus2=RML1060034023.1.2.3.0,Phases=3,Linecode=CABBTG06_4_3,Length=0.017000000,Units=km
new line.RML10034025 bus1=BBT79254935.1.2.0,bus2=RML1060034025.1.2.0,Phases=2,Linecode=CABBTG05_4_2,Length=0.017000000,Units=km
new line.RML10034026 bus1=BBT3364018.1.2.0,bus2=RML1060034026.1.2.0,Phases=2,Linecode=CABBTG05_4_2,Length=0.017000000,Units=km
new line.RML10034028 bus1=BBT2864043.1.2.0,bus2=RML1060034028.1.2.0,Phases=2,Linecode=CABBTG05_4_2,Length=0.017000000,Units=km
new line.RML10034030 bus1=BBT2690296.1.2.0,bus2=RML1060034030.1.2.0,Phases=2,Linecode=CABBTG05_4_2,Length=0.017000000,Units=km
new line.RML10034032 bus1=BBT2729188.1.2.0,bus2=RML1060034032.1.2.0,Phases=2,Linecode=CABBTG05_4_2,Length=0.017000000,Units=km
new line.RML10034033 bus1=BBT2729237.1.2.0,bus2=RML1060034033.1.2.0,Phases=2,Linecode=CABBTG05_4_2,Length=0.017000000,Units=km
new line.RML10034037 bus1=BBT4222988.1.2.3.0,bus2=RML1060034037.1.2.3.0,Phases=3,Linecode=CABBTG06_4_3,Length=0.017000000,Units=km
new line.RML10034038 bus1=BBT3593877.1.2.3.0,bus2=RML1060034038.1.2.3.0,Phases=3,Linecode=CABBTG06_4_3,Length=0.017000000,Units=km
new line.RML10034043 bus1=BBT2633253.1.2.0,bus2=RML1060034043.1.2.0,Phases=2,Linecode=CABBTG05_4_2,Length=0.017000000,Units=km
new line.RML10034044 bus1=BBT2633253.1.2.0,bus2=RML1060034044.1.2.0,Phases=2,Linecode=CABBTG05_4_2,Length=0.017000000,Units=km
new line.RML10034045 bus1=BBT2633253.1.2.0,bus2=RML1060034045.1.2.0,Phases=2,Linecode=CABBTG05_4_2,Length=0.017000000,Units=km
new line.RML10034047 bus1=BBT2633204.1.2.0,bus2=RML1060034047.1.2.0,Phases=2,Linecode=CABBTG05_4_2,Length=0.017000000,Units=km
new line.RML10034049 bus1=BBT157778544.1.2.0,bus2=RML1060034049.1.2.0,Phases=2,Linecode=CABBTG05_4_2,Length=0.017000000,Units=km
new line.RML10034051 bus1=BBT2633344.1.2.0,bus2=RML1060034051.1.2.0,Phases=2,Linecode=CABBTG05_4_2,Length=0.017000000,Units=km
new line.RML10034052 bus1=BBT2633232.1.2.0,bus2=RML1060034052.1.2.0,Phases=2,Linecode=CABBTG05_4_2,Length=0.017000000,Units=km
new line.RML10034053 bus1=BBT2633337.1.2.0,bus2=RML1060034053.1.2.0,Phases=2,Linecode=CABBTG05_4_2,Length=0.017000000,Units=km
new line.RML10034055 bus1=BBT2633358.1.2.0,bus2=RML1060034055.1.2.0,Phases=2,Linecode=CABBTG05_4_2,Length=0.017000000,Units=km
new line.RML10034061 bus1=BBT4476843.1.2.0,bus2=RML1060034061.1.2.0,Phases=2,Linecode=CABBTG05_4_2,Length=0.017000000,Units=km
new line.RML10034064 bus1=BBT4570811.1.2.0,bus2=RML1060034064.1.2.0,Phases=2,Linecode=CABBTG05_4_2,Length=0.017000000,Units=km
new line.RML10034065 bus1=BBT2633498.1.2.0,bus2=RML1060034065.1.2.0,Phases=2,Linecode=CABBTG05_4_2,Length=0.017000000,Units=km
new line.RML10034067 bus1=BBT2633519.1.2.0,bus2=RML1060034067.1.2.0,Phases=2,Linecode=CABBTG05_4_2,Length=0.017000000,Units=km
new line.RML10034069 bus1=BBT2633526.1.2.0,bus2=RML1060034069.1.2.0,Phases=2,Linecode=CABBTG05_4_2,Length=0.017000000,Units=km
new line.RML10034073 bus1=BBT9731498.1.2.0,bus2=RML1060034073.1.2.0,Phases=2,Linecode=CABBTG05_4_2,Length=0.017000000,Units=km
new line.RML10034075 bus1=BBT3452435.1.2.0,bus2=RML1060034075.1.2.0,Phases=2,Linecode=CABBTG05_4_2,Length=0.017000000,Units=km
new line.RML10034079 bus1=BBT3452435.1.2.0,bus2=RML1060034079.1.2.0,Phases=2,Linecode=CABBTG05_4_2,Length=0.017000000,Units=km
new line.RML10034080 bus1=BBT3452435.1.2.0,bus2=RML1060034080.1.2.0,Phases=2,Linecode=CABBTG05_4_2,Length=0.017000000,Units=km
new line.RML10034083 bus1=BBT3447997.1.2.0,bus2=RML1060034083.1.2.0,Phases=2,Linecode=CABBTG05_4_2,Length=0.017000000,Units=km
new line.RML10034086 bus1=BBT1477322.1.2.0,bus2=RML1060034086.1.2.0,Phases=2,Linecode=CABBTG05_4_2,Length=0.017000000,Units=km
new line.RML10034103 bus1=BBT3364011.1.2.0,bus2=RML1060034103.1.2.0,Phases=2,Linecode=CABBTG05_4_2,Length=0.017000000,Units=km
new line.RML10034104 bus1=BBT1477350.1.2.0,bus2=RML1060034104.1.2.0,Phases=2,Linecode=CABBTG05_4_2,Length=0.017000000,Units=km
new line.RML10034106 bus1=BBT1469734.1.2.0,bus2=RML1060034106.1.2.0,Phases=2,Linecode=CABBTG05_4_2,Length=0.017000000,Units=km
new line.RML10034107 bus1=BBT2689568.1.2.0,bus2=RML1060034107.1.2.0,Phases=2,Linecode=CABBTG05_4_2,Length=0.017000000,Units=km
new line.RML10034114 bus1=BBT1475726.1.2.0,bus2=RML1060034114.1.2.0,Phases=2,Linecode=CABBTG05_4_2,Length=0.017000000,Units=km
new line.RML10034116 bus1=BBT2689575.1.2.0,bus2=RML1060034116.1.2.0,Phases=2,Linecode=CABBTG05_4_2,Length=0.017000000,Units=km
new line.RML10034118 bus1=BBT4931717.1.2.3.0,bus2=RML1060034118.1.2.3.0,Phases=3,Linecode=CABBTG06_4_3,Length=0.017000000,Units=km
new line.RML10034195 bus1=BBT4335044.1.2.0,bus2=RML1060034195.1.2.0,Phases=2,Linecode=CABBTG05_4_2,Length=0.017000000,Units=km
new line.RML10034196 bus1=BBT1737498.1.2.0,bus2=RML1060034196.1.2.0,Phases=2,Linecode=CABBTG05_4_2,Length=0.017000000,Units=km
new line.RML10034198 bus1=BBT4335401.1.2.0,bus2=RML1060034198.1.2.0,Phases=2,Linecode=CABBTG05_4_2,Length=0.017000000,Units=km
new line.RML10034200 bus1=BBT2715328.1.2.0,bus2=RML1060034200.1.2.0,Phases=2,Linecode=CABBTG05_4_2,Length=0.017000000,Units=km
new line.RML10034203 bus1=BBT2692550.1.2.0,bus2=RML1060034203.1.2.0,Phases=2,Linecode=CABBTG05_4_2,Length=0.017000000,Units=km
new line.RML10034206 bus1=BBT1476209.1.2.0,bus2=RML1060034206.1.2.0,Phases=2,Linecode=CABBTG05_4_2,Length=0.017000000,Units=km
new line.RML10034207 bus1=BBT1475334.1.2.0,bus2=RML1060034207.1.2.0,Phases=2,Linecode=CABBTG05_4_2,Length=0.017000000,Units=km
new line.RML10034209 bus1=BBT1474144.1.2.0,bus2=RML1060034209.1.2.0,Phases=2,Linecode=CABBTG05_4_2,Length=0.017000000,Units=km
new line.RML10034212 bus1=BBT2856665.1.2.0,bus2=RML1060034212.1.2.0,Phases=2,Linecode=CABBTG05_4_2,Length=0.017000000,Units=km
new line.RML10031604 bus1=BBT1723225.1.2.0,bus2=RML1060031604.1.2.0,Phases=2,Linecode=CABBTG05_4_2,Length=0.017000000,Units=km
new line.RML10031605 bus1=BBT1723225.1.2.0,bus2=RML1060031605.1.2.0,Phases=2,Linecode=CABBTG05_4_2,Length=0.017000000,Units=km
new line.RML10031606 bus1=BBT4179217.1.2.0,bus2=RML1060031606.1.2.0,Phases=2,Linecode=CABBTG05_4_2,Length=0.017000000,Units=km
new line.RML10031607 bus1=BBT1723197.1.2.0,bus2=RML1060031607.1.2.0,Phases=2,Linecode=CABBTG05_4_2,Length=0.017000000,Units=km
new line.RML10031608 bus1=BBT4179217.1.2.0,bus2=RML1060031608.1.2.0,Phases=2,Linecode=CABBTG05_4_2,Length=0.017000000,Units=km
new line.RML10031609 bus1=BBT1723204.1.2.0,bus2=RML1060031609.1.2.0,Phases=2,Linecode=CABBTG05_4_2,Length=0.017000000,Units=km
new line.RML10031616 bus1=BBT1505245.1.2.0,bus2=RML1060031616.1.2.0,Phases=2,Linecode=CABBTG05_4_2,Length=0.017000000,Units=km
new line.RML10031618 bus1=BBT1503992.1.2.0,bus2=RML1060031618.1.2.0,Phases=2,Linecode=CABBTG05_4_2,Length=0.017000000,Units=km
new line.RML10031619 bus1=BBT4179224.1.2.0,bus2=RML1060031619.1.2.0,Phases=2,Linecode=CABBTG05_4_2,Length=0.017000000,Units=km
new line.RML10031620 bus1=BBT1503992.1.2.0,bus2=RML1060031620.1.2.0,Phases=2,Linecode=CABBTG05_4_2,Length=0.017000000,Units=km
new line.RML10031621 bus1=BBT1749041.1.2.0,bus2=RML1060031621.1.2.0,Phases=2,Linecode=CABBTG05_4_2,Length=0.017000000,Units=km
new line.RML10031624 bus1=BBT1749041.1.2.0,bus2=RML1060031624.1.2.0,Phases=2,Linecode=CABBTG05_4_2,Length=0.017000000,Units=km
new line.RML10031627 bus1=BBT1749041.1.2.0,bus2=RML1060031627.1.2.0,Phases=2,Linecode=CABBTG05_4_2,Length=0.017000000,Units=km
new line.RML10031628 bus1=BBT1749041.1.2.0,bus2=RML1060031628.1.2.0,Phases=2,Linecode=CABBTG05_4_2,Length=0.017000000,Units=km
new line.RML10031631 bus1=BBT1504034.1.2.0,bus2=RML1060031631.1.2.0,Phases=2,Linecode=CABBTG05_4_2,Length=0.017000000,Units=km
new line.RML10031633 bus1=BBT1504034.1.2.0,bus2=RML1060031633.1.2.0,Phases=2,Linecode=CABBTG05_4_2,Length=0.017000000,Units=km
new line.RML10031635 bus1=BBT4178447.1.2.0,bus2=RML1060031635.1.2.0,Phases=2,Linecode=CABBTG05_4_2,Length=0.017000000,Units=km
new line.RML10031637 bus1=BBT148029285.1.2.0,bus2=RML1060031637.1.2.0,Phases=2,Linecode=CABBTG05_4_2,Length=0.017000000,Units=km
new line.RML10031646 bus1=BBT1765099.1.2.0,bus2=RML1060031646.1.2.0,Phases=2,Linecode=CABBTG05_4_2,Length=0.017000000,Units=km
new line.RML10031649 bus1=BBT3345468.1.2.0,bus2=RML1060031649.1.2.0,Phases=2,Linecode=CABBTG05_4_2,Length=0.017000000,Units=km
new line.RML10031650 bus1=BBT3648134.1.2.0,bus2=RML1060031650.1.2.0,Phases=2,Linecode=CABBTG05_4_2,Length=0.017000000,Units=km
new line.RML10031653 bus1=BBT1505847.1.2.0,bus2=RML1060031653.1.2.0,Phases=2,Linecode=CABBTG05_4_2,Length=0.017000000,Units=km
new line.RML10031655 bus1=BBT4313638.1.2.0,bus2=RML1060031655.1.2.0,Phases=2,Linecode=CABBTG05_4_2,Length=0.017000000,Units=km
new line.RML10031657 bus1=BBT3855054.1.0,bus2=RML1060031657.1.0,Phases=1,Linecode=CABBTG02_4_1,Length=0.017000000,Units=km
new line.RML10031658 bus1=BBT1499974.1.0,bus2=RML1060031658.1.0,Phases=1,Linecode=CABBTG02_4_1,Length=0.017000000,Units=km
new line.RML10031660 bus1=BBT1704703.1.0,bus2=RML1060031660.1.0,Phases=1,Linecode=CABBTG02_4_1,Length=0.017000000,Units=km
new line.RML10031662 bus1=BBT87785261.1.0,bus2=RML1060031662.1.0,Phases=1,Linecode=CABBTG02_4_1,Length=0.017000000,Units=km
new line.RML10031663 bus1=BBT1695302.1.0,bus2=RML1060031663.1.0,Phases=1,Linecode=CABBTG02_4_1,Length=0.017000000,Units=km
new line.RML10031664 bus1=BBT1504846.1.0,bus2=RML1060031664.1.0,Phases=1,Linecode=CABBTG02_4_1,Length=0.017000000,Units=km
new line.RML10031666 bus1=BBT1632470.1.0,bus2=RML1060031666.1.0,Phases=1,Linecode=CABBTG02_4_1,Length=0.017000000,Units=km
new line.RML10031670 bus1=BBT1504244.1.0,bus2=RML1060031670.1.0,Phases=1,Linecode=CABBTG02_4_1,Length=0.017000000,Units=km
new line.RML10031671 bus1=BBT3827285.1.0,bus2=RML1060031671.1.0,Phases=1,Linecode=CABBTG02_4_1,Length=0.017000000,Units=km
new line.RML10031672 bus1=BBT3864917.1.2.0,bus2=RML1060031672.1.2.0,Phases=2,Linecode=CABBTG05_4_2,Length=0.017000000,Units=km
new line.RML10031673 bus1=BBT3362072.1.2.0,bus2=RML1060031673.1.2.0,Phases=2,Linecode=CABBTG05_4_2,Length=0.017000000,Units=km
new line.RML10031675 bus1=BBT1713026.1.2.0,bus2=RML1060031675.1.2.0,Phases=2,Linecode=CABBTG05_4_2,Length=0.017000000,Units=km
new line.RML10031677 bus1=BBT1504748.1.2.0,bus2=RML1060031677.1.2.0,Phases=2,Linecode=CABBTG05_4_2,Length=0.017000000,Units=km
new line.RML10031680 bus1=BBT3208576.1.2.0,bus2=RML1060031680.1.2.0,Phases=2,Linecode=CABBTG05_4_2,Length=0.017000000,Units=km
new line.RML10031682 bus1=BBT1504986.1.2.0,bus2=RML1060031682.1.2.0,Phases=2,Linecode=CABBTG05_4_2,Length=0.017000000,Units=km
new line.RML10031689 bus1=BBT4169991.1.2.0,bus2=RML1060031689.1.2.0,Phases=2,Linecode=CABBTG05_4_2,Length=0.017000000,Units=km
new line.RML10031695 bus1=BBT4169977.1.2.0,bus2=RML1060031695.1.2.0,Phases=2,Linecode=CABBTG05_4_2,Length=0.017000000,Units=km
new line.RML10031698 bus1=BBT4169760.1.2.0,bus2=RML1060031698.1.2.0,Phases=2,Linecode=CABBTG05_4_2,Length=0.017000000,Units=km
new line.RML10031704 bus1=BBT4169802.1.2.0,bus2=RML1060031704.1.2.0,Phases=2,Linecode=CABBTG05_4_2,Length=0.017000000,Units=km
new line.RML10031705 bus1=BBT3674160.1.2.0,bus2=RML1060031705.1.2.0,Phases=2,Linecode=CABBTG05_4_2,Length=0.017000000,Units=km
new line.RML10031706 bus1=BBT1505287.1.2.0,bus2=RML1060031706.1.2.0,Phases=2,Linecode=CABBTG05_4_2,Length=0.017000000,Units=km
new line.RML10031707 bus1=BBT1504692.1.2.0,bus2=RML1060031707.1.2.0,Phases=2,Linecode=CABBTG05_4_2,Length=0.017000000,Units=km
new line.RML10031711 bus1=BBT1746773.1.2.0,bus2=RML1060031711.1.2.0,Phases=2,Linecode=CABBTG05_4_2,Length=0.017000000,Units=km
new line.RML10031715 bus1=BBT1505273.1.2.0,bus2=RML1060031715.1.2.0,Phases=2,Linecode=CABBTG05_4_2,Length=0.017000000,Units=km
new line.RML10031719 bus1=BBT1698116.1.2.0,bus2=RML1060031719.1.2.0,Phases=2,Linecode=CABBTG05_4_2,Length=0.017000000,Units=km
new line.RML10032288 bus1=BBT3394265.1.2.0,bus2=RML1060032288.1.2.0,Phases=2,Linecode=CABBTG05_4_2,Length=0.017000000,Units=km
new line.RML10032335 bus1=BBT4179126.1.2.0,bus2=RML1060032335.1.2.0,Phases=2,Linecode=CABBTG04_4_2,Length=0.017000000,Units=km
new line.RML10032684 bus1=BBT1525846.1.2.0,bus2=RML1060032684.1.2.0,Phases=2,Linecode=CABBTG05_4_2,Length=0.017000000,Units=km
new line.RML10032687 bus1=BBT101071149.1.2.0,bus2=RML1060032687.1.2.0,Phases=2,Linecode=CABBTG05_4_2,Length=0.017000000,Units=km
new line.RML10032690 bus1=BBT2725296.1.2.0,bus2=RML1060032690.1.2.0,Phases=2,Linecode=CABBTG05_4_2,Length=0.017000000,Units=km
new line.RML10032691 bus1=BBT2725401.1.2.0,bus2=RML1060032691.1.2.0,Phases=2,Linecode=CABBTG05_4_2,Length=0.017000000,Units=km
new line.RML10032692 bus1=BBT2725401.1.2.0,bus2=RML1060032692.1.2.0,Phases=2,Linecode=CABBTG05_4_2,Length=0.017000000,Units=km
new line.RML10032693 bus1=BBT2586052.1.2.0,bus2=RML1060032693.1.2.0,Phases=2,Linecode=CABBTG05_4_2,Length=0.017000000,Units=km
new line.RML10032694 bus1=BBT1588272.1.2.0,bus2=RML1060032694.1.2.0,Phases=2,Linecode=CABBTG05_4_2,Length=0.017000000,Units=km
new line.RML10046430 bus1=BBT148377287.1.2.0,bus2=RML1060046430.1.2.0,Phases=2,Linecode=CABBTG05_4_2,Length=0.017000000,Units=km
new line.RML10046935 bus1=BBT1469146.1.2.0,bus2=RML1060046935.1.2.0,Phases=2,Linecode=CABBTG05_4_2,Length=0.017000000,Units=km
new line.RML10048353 bus1=BBT76235324.1.2.0,bus2=RML1060048353.1.2.0,Phases=2,Linecode=CABBTG05_4_2,Length=0.017000000,Units=km
new line.RML10048472 bus1=BBT1731380.1.0,bus2=RML1060048472.1.0,Phases=1,Linecode=CABBTG01_4_1,Length=0.017000000,Units=km
new line.RML10049456 bus1=BBT148439203.1.2.0,bus2=RML1060049456.1.2.0,Phases=2,Linecode=CABBTG05_4_2,Length=0.017000000,Units=km
new line.RML10098334 bus1=BBT2715090.1.0,bus2=RML1060098334.1.0,Phases=1,Linecode=CABBTG02_4_1,Length=0.017000000,Units=km
new line.RML10098639 bus1=BBT1475418.1.2.0,bus2=RML1060098639.1.2.0,Phases=2,Linecode=CABBTG05_4_2,Length=0.017000000,Units=km
new line.RML10098645 bus1=BBT3345174.1.0,bus2=RML1060098645.1.0,Phases=1,Linecode=CABBTG02_4_1,Length=0.017000000,Units=km
new line.RML10098777 bus1=BBT1485435.2.3.0,bus2=RML1060098777.2.3.0,Phases=2,Linecode=CABBTG05_4_2,Length=0.017000000,Units=km
new line.RML10099479 bus1=BBT1792161.2.0,bus2=RML1060099479.2.0,Phases=1,Linecode=CABBTG01_4_1,Length=0.017000000,Units=km
new line.RML10099926 bus1=BBT1749776.2.0,bus2=RML1060099926.2.0,Phases=1,Linecode=CABBTG02_4_1,Length=0.017000000,Units=km
new line.RML10100408 bus1=BBT1486422.1.2.0,bus2=RML1060100408.1.2.0,Phases=2,Linecode=CABBTG05_4_2,Length=0.017000000,Units=km
new line.RML10100432 bus1=BBT5134024.1.2.0,bus2=RML1060100432.1.2.0,Phases=2,Linecode=CABBTG05_4_2,Length=0.017000000,Units=km
new line.RML10100589 bus1=BBT1474802.1.2.0,bus2=RML1060100589.1.2.0,Phases=2,Linecode=CABBTG05_4_2,Length=0.017000000,Units=km
new line.RML10100644 bus1=BBT1714188.1.2.3.0,bus2=RML1060100644.1.2.3.0,Phases=3,Linecode=CABBTG06_4_3,Length=0.017000000,Units=km
new line.RML10100661 bus1=BBT1714181.1.0,bus2=RML1060100661.1.0,Phases=1,Linecode=CABBTG02_4_1,Length=0.017000000,Units=km
new line.RML10100664 bus1=BBT1714139.1.0,bus2=RML1060100664.1.0,Phases=1,Linecode=CABBTG02_4_1,Length=0.017000000,Units=km
new line.RML10100668 bus1=BBT1479632.2.3.0,bus2=RML1060100668.2.3.0,Phases=2,Linecode=CABBTG05_4_2,Length=0.017000000,Units=km
new line.RML10100671 bus1=BBT1713817.1.3.0,bus2=RML1060100671.1.3.0,Phases=2,Linecode=CABBTG05_4_2,Length=0.017000000,Units=km
new line.RML10100672 bus1=BBT1714251.1.2.0,bus2=RML1060100672.1.2.0,Phases=2,Linecode=CABBTG05_4_2,Length=0.017000000,Units=km
new line.RML10100674 bus1=BBT2672376.1.2.0,bus2=RML1060100674.1.2.0,Phases=2,Linecode=CABBTG05_4_2,Length=0.017000000,Units=km
new line.RML10100675 bus1=BBT4227174.1.0,bus2=RML1060100675.1.0,Phases=1,Linecode=CABBTG02_4_1,Length=0.017000000,Units=km
new line.RML10100676 bus1=BBT4227174.2.3.0,bus2=RML1060100676.2.3.0,Phases=2,Linecode=CABBTG05_4_2,Length=0.017000000,Units=km
new line.RML10100677 bus1=BBT4227174.1.0,bus2=RML1060100677.1.0,Phases=1,Linecode=CABBTG02_4_1,Length=0.017000000,Units=km
new line.RML10100679 bus1=BBT4227433.1.2.0,bus2=RML1060100679.1.2.0,Phases=2,Linecode=CABBTG05_4_2,Length=0.017000000,Units=km
new line.RML10100682 bus1=BBT4227433.1.0,bus2=RML1060100682.1.0,Phases=1,Linecode=CABBTG02_4_1,Length=0.017000000,Units=km
new line.RML10100687 bus1=BBT2999542.1.2.0,bus2=RML1060100687.1.2.0,Phases=2,Linecode=CABBTG05_4_2,Length=0.017000000,Units=km
new line.RML10100694 bus1=BBT2999500.1.0,bus2=RML1060100694.1.0,Phases=1,Linecode=CABBTG01_4_1,Length=0.017000000,Units=km
new line.RML10100695 bus1=BBT2999500.1.0,bus2=RML1060100695.1.0,Phases=1,Linecode=CABBTG02_4_1,Length=0.017000000,Units=km
new line.RML10100697 bus1=BBT4226831.1.2.0,bus2=RML1060100697.1.2.0,Phases=2,Linecode=CABBTG05_4_2,Length=0.017000000,Units=km
new line.RML10100717 bus1=BBT2999332.1.0,bus2=RML1060100717.1.0,Phases=1,Linecode=CABBTG01_4_1,Length=0.017000000,Units=km
new line.RML10100720 bus1=BBT2999388.1.2.3.0,bus2=RML1060100720.1.2.3.0,Phases=3,Linecode=CABBTG06_4_3,Length=0.017000000,Units=km
new line.RML10100722 bus1=BBT2999514.1.2.0,bus2=RML1060100722.1.2.0,Phases=2,Linecode=CABBTG05_4_2,Length=0.017000000,Units=km
new line.RML10100726 bus1=BBT1757413.1.2.0,bus2=RML1060100726.1.2.0,Phases=2,Linecode=CABBTG05_4_2,Length=0.017000000,Units=km
new line.RML10100742 bus1=BBT1757413.1.2.0,bus2=RML1060100742.1.2.0,Phases=2,Linecode=CABBTG05_4_2,Length=0.017000000,Units=km
new line.RML10100748 bus1=BBT4739728.1.2.0,bus2=RML1060100748.1.2.0,Phases=2,Linecode=CABBTG05_4_2,Length=0.017000000,Units=km
new line.RML10100752 bus1=BBT1501507.1.0,bus2=RML1060100752.1.0,Phases=1,Linecode=CABBTG02_4_1,Length=0.017000000,Units=km
new line.RML10100755 bus1=BBT2604203.1.2.0,bus2=RML1060100755.1.2.0,Phases=2,Linecode=CABBTG05_4_2,Length=0.017000000,Units=km
new line.RML10101557 bus1=BBT4148781.2.0,bus2=RML1060101557.2.0,Phases=1,Linecode=CABBTG01_4_1,Length=0.017000000,Units=km
new line.RML10101725 bus1=BBT1779288.1.2.0,bus2=RML1060101725.1.2.0,Phases=2,Linecode=CABBTG05_4_2,Length=0.017000000,Units=km
new line.RML10101728 bus1=BBT1779701.1.0,bus2=RML1060101728.1.0,Phases=1,Linecode=CABBTG02_4_1,Length=0.017000000,Units=km
new line.RML10101749 bus1=BBT1478582.1.0,bus2=RML1060101749.1.0,Phases=1,Linecode=CABBTG02_4_1,Length=0.017000000,Units=km
new line.RML10101888 bus1=BBT1500009.1.0,bus2=RML1060101888.1.0,Phases=1,Linecode=CABBTG02_4_1,Length=0.017000000,Units=km
new line.RML10101890 bus1=BBT2633302.1.0,bus2=RML1060101890.1.0,Phases=1,Linecode=CABBTG02_4_1,Length=0.017000000,Units=km
new line.RML10101907 bus1=BBT1493555.1.2.0,bus2=RML1060101907.1.2.0,Phases=2,Linecode=CABBTG05_4_2,Length=0.017000000,Units=km
new line.RML10101908 bus1=BBT2999227.1.0,bus2=RML1060101908.1.0,Phases=1,Linecode=CABBTG02_4_1,Length=0.017000000,Units=km
new line.RML10101909 bus1=BBT2999388.1.2.0,bus2=RML1060101909.1.2.0,Phases=2,Linecode=CABBTG05_4_2,Length=0.017000000,Units=km
new line.RML10102761 bus1=BBT135861212.1.2.0,bus2=RML1060102761.1.2.0,Phases=2,Linecode=CABBTG05_4_2,Length=0.017000000,Units=km
new line.RML10103025 bus1=BBT1486730.1.2.0,bus2=RML1060103025.1.2.0,Phases=2,Linecode=CABBTG05_4_2,Length=0.017000000,Units=km
new line.RML10103160 bus1=BBT132871281.1.0,bus2=RML1060103160.1.0,Phases=1,Linecode=CABBTG01_4_1,Length=0.017000000,Units=km
new line.RML10103617 bus1=BBT1779176.1.3.0,bus2=RML1060103617.1.3.0,Phases=2,Linecode=CABBTG05_4_2,Length=0.017000000,Units=km
new line.RML10103619 bus1=BBT1490482.1.0,bus2=RML1060103619.1.0,Phases=1,Linecode=CABBTG02_4_1,Length=0.017000000,Units=km
new line.RML10103620 bus1=BBT1758582.1.2.0,bus2=RML1060103620.1.2.0,Phases=2,Linecode=CABBTG04_4_2,Length=0.017000000,Units=km
new line.RML10103621 bus1=BBT1503691.1.2.0,bus2=RML1060103621.1.2.0,Phases=2,Linecode=CABBTG05_4_2,Length=0.017000000,Units=km
new line.RML10104388 bus1=BBT1768634.1.2.0,bus2=RML1060104388.1.2.0,Phases=2,Linecode=CABBTG05_4_2,Length=0.017000000,Units=km
new line.RML10104448 bus1=BBT96941597.1.2.0,bus2=RML1060104448.1.2.0,Phases=2,Linecode=CABBTG05_4_2,Length=0.017000000,Units=km
new line.RML10105254 bus1=BBT4885300.1.2.0,bus2=RML1060105254.1.2.0,Phases=2,Linecode=CABBTG05_4_2,Length=0.017000000,Units=km
new line.RML10034214 bus1=BBT6642237.1.2.0,bus2=RML1060034214.1.2.0,Phases=2,Linecode=CABBTG05_4_2,Length=0.017000000,Units=km
new line.RML10034217 bus1=BBT1477672.1.2.0,bus2=RML1060034217.1.2.0,Phases=2,Linecode=CABBTG05_4_2,Length=0.017000000,Units=km
new line.RML10034221 bus1=BBT2722314.1.2.0,bus2=RML1060034221.1.2.0,Phases=2,Linecode=CABBTG05_4_2,Length=0.017000000,Units=km
new line.RML10034223 bus1=BBT2691927.1.2.0,bus2=RML1060034223.1.2.0,Phases=2,Linecode=CABBTG05_4_2,Length=0.017000000,Units=km
new line.RML10034225 bus1=BBT1475684.1.2.0,bus2=RML1060034225.1.2.0,Phases=2,Linecode=CABBTG05_4_2,Length=0.017000000,Units=km
new line.RML10034227 bus1=BBT1468929.1.2.0,bus2=RML1060034227.1.2.0,Phases=2,Linecode=CABBTG05_4_2,Length=0.017000000,Units=km
new line.RML10034228 bus1=BBT1476146.1.2.0,bus2=RML1060034228.1.2.0,Phases=2,Linecode=CABBTG05_4_2,Length=0.017000000,Units=km
new line.RML10034229 bus1=BBT1476097.1.2.0,bus2=RML1060034229.1.2.0,Phases=2,Linecode=CABBTG05_4_2,Length=0.017000000,Units=km
new line.RML10034528 bus1=BBT1473570.1.2.0,bus2=RML1060034528.1.2.0,Phases=2,Linecode=CABBTG05_4_2,Length=0.017000000,Units=km
new line.RML10034530 bus1=BBT1481375.1.2.0,bus2=RML1060034530.1.2.0,Phases=2,Linecode=CABBTG05_4_2,Length=0.017000000,Units=km