new load.3002112026M1 bus1=RML1052112467.3.0,Phases=1,kv=0.127,kW=0.33428,pf=0.92,Vminpu=0.92,Vmaxpu=1.5,model=1,daily=RES1_23,status=variable
new load.3002112027M1 bus1=RML1052112439.2.0,Phases=1,kv=0.127,kW=0.5464,pf=0.92,Vminpu=0.92,Vmaxpu=1.5,model=1,daily=RES1_23,status=variable
new load.3002112028M1 bus1=RML1052112397.1.0,Phases=1,kv=0.127,kW=0.5914,pf=0.92,Vminpu=0.92,Vmaxpu=1.5,model=1,daily=RES1_23,status=variable
new load.3002112029M1 bus1=RML1052112390.2.0,Phases=1,kv=0.127,kW=0.4099,pf=0.92,Vminpu=0.92,Vmaxpu=1.5,model=1,daily=RES2_26,status=variable
new load.3002112031M1 bus1=RML1053764880.2.0,Phases=1,kv=0.127,kW=0.61912,pf=0.92,Vminpu=0.92,Vmaxpu=1.5,model=1,daily=RES2_26,status=variable
new load.3002112032M1 bus1=RML1052112271.2.0,Phases=1,kv=0.127,kW=0.6795,pf=0.92,Vminpu=0.92,Vmaxpu=1.5,model=1,daily=RES3_19,status=variable
new load.IP416549M1 bus1=BBT167786779.2.3.0,Phases=2,kv=0.22,kW=0.1317,pf=0.92,Vminpu=0.92,Vmaxpu=1.5,model=1,daily=IP,status=variable
new load.IP416605M1 bus1=BBT1501493.1.2.0,Phases=2,kv=0.22,kW=0.1317,pf=0.92,Vminpu=0.92,Vmaxpu=1.5,model=1,daily=IP,status=variable
new load.IP416458M1 bus1=BBT1501325.1.2.0,Phases=2,kv=0.22,kW=0.08064,pf=0.92,Vminpu=0.92,Vmaxpu=1.5,model=1,daily=IP,status=variable
new load.IP416465M1 bus1=BBT1501332.1.2.0,Phases=2,kv=0.22,kW=0.1317,pf=0.92,Vminpu=0.92,Vmaxpu=1.5,model=1,daily=IP,status=variable
new load.IP416472M1 bus1=BBT1501339.1.2.0,Phases=2,kv=0.22,kW=0.1317,pf=0.92,Vminpu=0.92,Vmaxpu=1.5,model=1,daily=IP,status=variable
new load.IP416486M1 bus1=BBT167786766.1.2.0,Phases=2,kv=0.22,kW=0.1317,pf=0.92,Vminpu=0.92,Vmaxpu=1.5,model=1,daily=IP,status=variable
new load.IP416521M1 bus1=BBT167786748.2.3.0,Phases=2,kv=0.22,kW=0.1317,pf=0.92,Vminpu=0.92,Vmaxpu=1.5,model=1,daily=IP,status=variable
new load.IP416535M1 bus1=BBT1501416.2.3.0,Phases=2,kv=0.22,kW=0.1317,pf=0.92,Vminpu=0.92,Vmaxpu=1.5,model=1,daily=IP,status=variable
new load.IP1498357M1 bus1=BBT1501360.1.2.0,Phases=2,kv=0.22,kW=0.1317,pf=0.92,Vminpu=0.92,Vmaxpu=1.5,model=1,daily=IP,status=variable
new load.IP2609282M1 bus1=BBT1501367.2.3.0,Phases=2,kv=0.22,kW=0.1317,pf=0.92,Vminpu=0.92,Vmaxpu=1.5,model=1,daily=IP,status=variable
new load.IP2609289M1 bus1=BBT1501346.1.2.0,Phases=2,kv=0.22,kW=0.1317,pf=0.92,Vminpu=0.92,Vmaxpu=1.5,model=1,daily=IP,status=variable
new load.IP2609912M1 bus1=BBT1501444.2.3.0,Phases=2,kv=0.22,kW=0.1317,pf=0.92,Vminpu=0.92,Vmaxpu=1.5,model=1,daily=IP,status=variable
new load.IP416269M1 bus1=BBT1500961.1.2.0,Phases=2,kv=0.22,kW=0.1317,pf=0.92,Vminpu=0.92,Vmaxpu=1.5,model=1,daily=IP,status=variable
new load.IP416290M1 bus1=BBT1500982.1.2.0,Phases=2,kv=0.22,kW=0.1317,pf=0.92,Vminpu=0.92,Vmaxpu=1.5,model=1,daily=IP,status=variable
new load.3013257920M1 bus1=RML1060678322.1.2.0,Phases=2,kv=0.22,kW=0.10412,pf=0.92,Vminpu=0.92,Vmaxpu=1.5,model=1,daily=RES1_7,status=variable
new load.3013325313M1 bus1=RML1052112285.2.3.0,Phases=2,kv=0.22,kW=0.57856,pf=0.92,Vminpu=0.92,Vmaxpu=1.5,model=1,daily=RES1_9,status=variable
new load.IP1677816M1 bus1=BBT4737859.1.2.0,Phases=2,kv=0.22,kW=0.1129,pf=0.92,Vminpu=0.92,Vmaxpu=1.5,model=1,daily=IP,status=variable
new load.3013325314M1 bus1=RML1052112285.2.3.0,Phases=2,kv=0.22,kW=0.01016,pf=0.92,Vminpu=0.92,Vmaxpu=1.5,model=1,daily=RES1_9,status=variable
new load.3013325315M1 bus1=RML1052112285.2.3.0,Phases=2,kv=0.22,kW=0.37556,pf=0.92,Vminpu=0.92,Vmaxpu=1.5,model=1,daily=RES1_9,status=variable
new load.3012142301M1 bus1=RML1052112327.1.0,Phases=1,kv=0.127,kW=1.24732,pf=0.92,Vminpu=0.92,Vmaxpu=1.5,model=1,daily=RES2_15,status=variable
new load.3012219992M1 bus1=RML1060196836.1.2.0,Phases=2,kv=0.22,kW=0.84246,pf=0.92,Vminpu=0.92,Vmaxpu=1.5,model=1,daily=RES2_17,status=variable
new load.3011072219M1 bus1=RML1056025191.1.2.0,Phases=2,kv=0.22,kW=0.1045,pf=0.92,Vminpu=0.92,Vmaxpu=1.5,model=1,daily=COM1_23,status=variable
new load.3012083316M1 bus1=RML1060300713.1.0,Phases=1,kv=0.12,kW=0.86862,pf=0.92,Vminpu=0.92,Vmaxpu=1.5,model=1,daily=RES2_13,status=variable
new load.3013550501M1 bus1=RML1060956527.1.2.0,Phases=2,kv=0.24,kW=0.14032,pf=0.92,Vminpu=0.92,Vmaxpu=1.5,model=1,daily=RES1_14,status=variable
new load.3003845913M1 bus1=RML1052063985.1.2.0,Phases=2,kv=0.24,kW=1.2317,pf=0.92,Vminpu=0.92,Vmaxpu=1.5,model=1,daily=RUR2_10,status=variable
new load.3010796501M1 bus1=RML1060891970.1.2.0,Phases=2,kv=0.24,kW=2.08058,pf=0.92,Vminpu=0.92,Vmaxpu=1.5,model=1,daily=RUR3_10,status=variable
new load.3002670442M1 bus1=RML1053792796.1.2.0,Phases=2,kv=0.24,kW=2.32448,pf=0.92,Vminpu=0.92,Vmaxpu=1.5,model=1,daily=RUR3_10,status=variable
new load.3002670418M1 bus1=RML1052063999.1.2.0,Phases=2,kv=0.24,kW=0.3854,pf=0.92,Vminpu=0.92,Vmaxpu=1.5,model=1,daily=RUR2_13,status=variable
new load.3006067415M1 bus1=RML1054034394.1.2.0,Phases=2,kv=0.24,kW=0.1142,pf=0.92,Vminpu=0.92,Vmaxpu=1.5,model=1,daily=RUR2_13,status=variable
new load.3006067416M1 bus1=RML1054034415.1.2.0,Phases=2,kv=0.24,kW=1.0563,pf=0.92,Vminpu=0.92,Vmaxpu=1.5,model=1,daily=RUR2_13,status=variable
new load.3006067417M1 bus1=RML1054034429.1.2.0,Phases=2,kv=0.24,kW=0.6949,pf=0.92,Vminpu=0.92,Vmaxpu=1.5,model=1,daily=RUR1_12,status=variable
new load.3010594476M1 bus1=RML1060034560.1.2.0,Phases=2,kv=0.24,kW=0.93518,pf=0.92,Vminpu=0.92,Vmaxpu=1.5,model=1,daily=RUR2_6,status=variable
new load.3011184972M1 bus1=RML1055948380.1.2.0,Phases=2,kv=0.24,kW=0.62892,pf=0.92,Vminpu=0.92,Vmaxpu=1.5,model=1,daily=RUR1_27,status=variable
new load.3003025291M1 bus1=RML1056683408.1.2.0,Phases=2,kv=0.24,kW=0.29274,pf=0.92,Vminpu=0.92,Vmaxpu=1.5,model=1,daily=RUR1_19,status=variable
new load.3003025292M1 bus1=RML1056683436.1.2.0,Phases=2,kv=0.24,kW=1.2919,pf=0.92,Vminpu=0.92,Vmaxpu=1.5,model=1,daily=RES3_15,status=variable
new load.3003025300M1 bus1=RML1056683387.1.2.0,Phases=2,kv=0.24,kW=0.08204,pf=0.92,Vminpu=0.92,Vmaxpu=1.5,model=1,daily=COM1_19,status=variable
new load.3003025302M1 bus1=RML1056675232.1.2.0,Phases=2,kv=0.24,kW=1.6036,pf=0.92,Vminpu=0.92,Vmaxpu=1.5,model=1,daily=RUR3_18,status=variable
new load.IP2786130M1 bus1=BBT2731316.1.2.0,Phases=2,kv=0.24,kW=0.1317,pf=0.92,Vminpu=0.92,Vmaxpu=1.5,model=1,daily=IP,status=variable
new load.IP2856452M1 bus1=BBT2731414.1.2.0,Phases=2,kv=0.24,kW=0.1317,pf=0.92,Vminpu=0.92,Vmaxpu=1.5,model=1,daily=IP,status=variable
new load.IP2856459M1 bus1=BBT2731407.1.2.0,Phases=2,kv=0.24,kW=0.1317,pf=0.92,Vminpu=0.92,Vmaxpu=1.5,model=1,daily=IP,status=variable
new load.IP2856480M1 bus1=BBT1473234.1.2.0,Phases=2,kv=0.24,kW=0.1317,pf=0.92,Vminpu=0.92,Vmaxpu=1.5,model=1,daily=IP,status=variable
new load.IP2856494M1 bus1=BBT2731295.1.2.0,Phases=2,kv=0.24,kW=0.1317,pf=0.92,Vminpu=0.92,Vmaxpu=1.5,model=1,daily=IP,status=variable
new load.IP2856501M1 bus1=BBT2731302.1.2.0,Phases=2,kv=0.24,kW=0.1317,pf=0.92,Vminpu=0.92,Vmaxpu=1.5,model=1,daily=IP,status=variable
new load.IP2856536M1 bus1=BBT2731309.1.2.0,Phases=2,kv=0.24,kW=0.1317,pf=0.92,Vminpu=0.92,Vmaxpu=1.5,model=1,daily=IP,status=variable
new load.3002670634M1 bus1=RML1052064118.1.2.0,Phases=2,kv=0.24,kW=0.96134,pf=0.92,Vminpu=0.92,Vmaxpu=1.5,model=1,daily=COM2_7,status=variable
new load.3005570778M1 bus1=RML1052064314.1.2.0,Phases=2,kv=0.24,kW=0.74454,pf=0.92,Vminpu=0.92,Vmaxpu=1.5,model=1,daily=RUR2_3,status=variable
new load.3005081419M1 bus1=RML1056683415.1.2.0,Phases=2,kv=0.24,kW=0.88154,pf=0.92,Vminpu=0.92,Vmaxpu=1.5,model=1,daily=RUR2_18,status=variable
new load.IP2504933M1 bus1=BBT132871477.1.2.0,Phases=2,kv=0.22,kW=0.1129,pf=0.92,Vminpu=0.92,Vmaxpu=1.5,model=1,daily=IP,status=variable
new load.IP2504940M1 bus1=BBT132871484.1.2.0,Phases=2,kv=0.22,kW=0.1129,pf=0.92,Vminpu=0.92,Vmaxpu=1.5,model=1,daily=IP,status=variable
new load.3012732732M1 bus1=RML1060621481.1.2.0,Phases=2,kv=0.22,kW=0.74436,pf=0.92,Vminpu=0.92,Vmaxpu=1.5,model=1,daily=RES2_2,status=variable
new load.IP2504877M1 bus1=BBT132871288.1.2.0,Phases=2,kv=0.22,kW=0.1129,pf=0.92,Vminpu=0.92,Vmaxpu=1.5,model=1,daily=IP,status=variable
new load.IP2504884M1 bus1=BBT132871323.1.2.0,Phases=2,kv=0.22,kW=0.1129,pf=0.92,Vminpu=0.92,Vmaxpu=1.5,model=1,daily=IP,status=variable
new load.IP2504891M1 bus1=BBT132871330.1.2.0,Phases=2,kv=0.22,kW=0.1129,pf=0.92,Vminpu=0.92,Vmaxpu=1.5,model=1,daily=IP,status=variable
new load.IP2504898M1 bus1=BBT132871344.1.2.0,Phases=2,kv=0.22,kW=0.1129,pf=0.92,Vminpu=0.92,Vmaxpu=1.5,model=1,daily=IP,status=variable
new load.IP2504905M1 bus1=BBT132871351.1.2.0,Phases=2,kv=0.22,kW=0.1129,pf=0.92,Vminpu=0.92,Vmaxpu=1.5,model=1,daily=IP,status=variable
new load.IP2504926M1 bus1=BBT132871470.1.2.0,Phases=2,kv=0.22,kW=0.1129,pf=0.92,Vminpu=0.92,Vmaxpu=1.5,model=1,daily=IP,status=variable
new load.3013542247M1 bus1=RML1060806842.1.0,Phases=1,kv=0.127,kW=0.73174,pf=0.92,Vminpu=0.92,Vmaxpu=1.5,model=1,daily=RES2_17,status=variable
new load.IP2504849M1 bus1=BBT132871302.1.2.0,Phases=2,kv=0.22,kW=0.1129,pf=0.92,Vminpu=0.92,Vmaxpu=1.5,model=1,daily=IP,status=variable
new load.IP2504856M1 bus1=BBT132871309.1.2.0,Phases=2,kv=0.22,kW=0.1129,pf=0.92,Vminpu=0.92,Vmaxpu=1.5,model=1,daily=IP,status=variable
new load.IP2504863M1 bus1=BBT132871316.1.2.0,Phases=2,kv=0.22,kW=0.1129,pf=0.92,Vminpu=0.92,Vmaxpu=1.5,model=1,daily=IP,status=variable
new load.IP2504870M1 bus1=BBT132871281.1.2.0,Phases=2,kv=0.22,kW=0.1129,pf=0.92,Vminpu=0.92,Vmaxpu=1.5,model=1,daily=IP,status=variable
new load.3013894941M1 bus1=RML1060994137.2.3.0,Phases=2,kv=0.22,kW=0.1405,pf=0.92,Vminpu=0.92,Vmaxpu=1.5,model=1,daily=RES1_19,status=variable
new load.3013980589M1 bus1=RML1061003092.1.2.0,Phases=2,kv=0.22,kW=0.41142,pf=0.92,Vminpu=0.92,Vmaxpu=1.5,model=1,daily=RES1_23,status=variable
new load.3012865252M1 bus1=RML1060496480.1.2.3.0,Phases=3,kv=0.22,kW=0.28476,pf=0.92,Vminpu=0.92,Vmaxpu=1.5,model=1,daily=RES1_2,status=variable
new load.3012888462M1 bus1=RML1060510442.1.2.0,Phases=2,kv=0.22,kW=0.12494,pf=0.92,Vminpu=0.92,Vmaxpu=1.5,model=1,daily=RES2_4,status=variable
new load.3012990205M1 bus1=RML1060558625.1.0,Phases=1,kv=0.127,kW=0.75878,pf=0.92,Vminpu=0.92,Vmaxpu=1.5,model=1,daily=RES1_3,status=variable
new load.3013336993M1 bus1=RML1060729497.1.0,Phases=1,kv=0.127,kW=0.63946,pf=0.92,Vminpu=0.92,Vmaxpu=1.5,model=1,daily=RES1_9,status=variable
new load.3012024023M1 bus1=RML1060259180.1.0,Phases=1,kv=0.127,kW=0.91096,pf=0.92,Vminpu=0.92,Vmaxpu=1.5,model=1,daily=RES2_11,status=variable
new load.3012041852M1 bus1=RML1060108013.1.2.0,Phases=2,kv=0.22,kW=1.48572,pf=0.92,Vminpu=0.92,Vmaxpu=1.5,model=1,daily=RES2_11,status=variable
new load.3012066468M1 bus1=RML1060103160.1.0,Phases=1,kv=0.127,kW=1.06466,pf=0.92,Vminpu=0.92,Vmaxpu=1.5,model=1,daily=RES3_13,status=variable
new load.3012194326M1 bus1=RML1060324824.1.2.0,Phases=2,kv=0.22,kW=0.92162,pf=0.92,Vminpu=0.92,Vmaxpu=1.5,model=1,daily=RES3_14,status=variable
new load.3012626188M1 bus1=RML1060385553.1.2.3.0,Phases=3,kv=0.22,kW=0.1787,pf=0.92,Vminpu=0.92,Vmaxpu=1.5,model=1,daily=RES1_1,status=variable
new load.3013677023M1 bus1=RML1060876268.1.3.0,Phases=2,kv=0.22,kW=0.69546,pf=0.92,Vminpu=0.92,Vmaxpu=1.5,model=1,daily=RES2_21,status=variable
new load.3011175623M1 bus1=RML1060232332.1.2.0,Phases=2,kv=0.22,kW=0.22204,pf=0.92,Vminpu=0.92,Vmaxpu=1.5,model=1,daily=RES2_27,status=variable
new load.3011635972M1 bus1=RML1056870168.1.2.0,Phases=2,kv=0.22,kW=1.87266,pf=0.92,Vminpu=0.92,Vmaxpu=1.5,model=1,daily=RES3_6,status=variable
new load.3011836921M1 bus1=RML1060325241.1.3.0,Phases=2,kv=0.22,kW=0.91616,pf=0.92,Vminpu=0.92,Vmaxpu=1.5,model=1,daily=RES2_7,status=variable
new load.3012682569M1 bus1=RML1060409923.1.2.0,Phases=2,kv=0.22,kW=0.84456,pf=0.92,Vminpu=0.92,Vmaxpu=1.5,model=1,daily=RES2_2,status=variable
new load.3012973210M1 bus1=RML1060553400.1.3.0,Phases=2,kv=0.22,kW=1.6833,pf=0.92,Vminpu=0.92,Vmaxpu=1.5,model=1,daily=RES3_6,status=variable
new load.3013250690M1 bus1=RML1060678318.1.2.0,Phases=2,kv=0.22,kW=0.269,pf=0.92,Vminpu=0.92,Vmaxpu=1.5,model=1,daily=RES1_7,status=variable
new load.3013353321M1 bus1=RML1060712656.1.0,Phases=1,kv=0.127,kW=0.00558,pf=0.92,Vminpu=0.92,Vmaxpu=1.5,model=1,daily=RES1_10,status=variable
new load.3013406603M1 bus1=RML1060752570.1.3.0,Phases=2,kv=0.22,kW=0.90626,pf=0.92,Vminpu=0.92,Vmaxpu=1.5,model=1,daily=RES2_14,status=variable
new load.IP2505248M1 bus1=BBT132871813.1.2.0,Phases=2,kv=0.22,kW=0.1129,pf=0.92,Vminpu=0.92,Vmaxpu=1.5,model=1,daily=IP,status=variable
new load.3013596343M1 bus1=RML1060826395.1.0,Phases=1,kv=0.127,kW=0.61128,pf=0.92,Vminpu=0.92,Vmaxpu=1.5,model=1,daily=RES2_18,status=variable
new load.3013611523M1 bus1=RML1060846687.3.0,Phases=1,kv=0.127,kW=0.70178,pf=0.92,Vminpu=0.92,Vmaxpu=1.5,model=1,daily=RES2_19,status=variable
new load.IP2505122M1 bus1=BBT132871736.1.2.0,Phases=2,kv=0.22,kW=0.1129,pf=0.92,Vminpu=0.92,Vmaxpu=1.5,model=1,daily=IP,status=variable
new load.IP2505129M1 bus1=BBT132871729.1.2.0,Phases=2,kv=0.22,kW=0.1129,pf=0.92,Vminpu=0.92,Vmaxpu=1.5,model=1,daily=IP,status=variable
new load.IP2505143M1 bus1=BBT132871778.1.2.0,Phases=2,kv=0.22,kW=0.1129,pf=0.92,Vminpu=0.92,Vmaxpu=1.5,model=1,daily=IP,status=variable
new load.IP2505150M1 bus1=BBT132871799.1.2.0,Phases=2,kv=0.22,kW=0.1129,pf=0.92,Vminpu=0.92,Vmaxpu=1.5,model=1,daily=IP,status=variable
new load.IP2505157M1 bus1=BBT132871806.1.2.0,Phases=2,kv=0.22,kW=0.1129,pf=0.92,Vminpu=0.92,Vmaxpu=1.5,model=1,daily=IP,status=variable
new load.IP2505171M1 bus1=BBT132871792.1.2.0,Phases=2,kv=0.22,kW=0.1129,pf=0.92,Vminpu=0.92,Vmaxpu=1.5,model=1,daily=IP,status=variable
new load.3013061641M1 bus1=RML1060596059.1.3.0,Phases=2,kv=0.22,kW=1.40216,pf=0.92,Vminpu=0.92,Vmaxpu=1.5,model=1,daily=RES3_7,status=variable
new load.3013445474M1 bus1=RML1060761510.2.3.0,Phases=2,kv=0.22,kW=1.1677,pf=0.92,Vminpu=0.92,Vmaxpu=1.5,model=1,daily=RES2_15,status=variable
new load.IP2505101M1 bus1=BBT132871764.1.2.0,Phases=2,kv=0.22,kW=0.1129,pf=0.92,Vminpu=0.92,Vmaxpu=1.5,model=1,daily=IP,status=variable
new load.IP2505108M1 bus1=BBT132871771.1.2.0,Phases=2,kv=0.22,kW=0.1129,pf=0.92,Vminpu=0.92,Vmaxpu=1.5,model=1,daily=IP,status=variable
new load.IP2505115M1 bus1=BBT132871743.1.2.0,Phases=2,kv=0.22,kW=0.1129,pf=0.92,Vminpu=0.92,Vmaxpu=1.5,model=1,daily=IP,status=variable
new load.IP2858748M1 bus1=BBT149968079.2.3.0,Phases=2,kv=0.22,kW=0.1129,pf=0.92,Vminpu=0.92,Vmaxpu=1.5,model=1,daily=IP,status=variable
new load.IP2858755M1 bus1=BBT149968078.1.2.0,Phases=2,kv=0.22,kW=0.1129,pf=0.92,Vminpu=0.92,Vmaxpu=1.5,model=1,daily=IP,status=variable
new load.IP2858762M1 bus1=BBT149968077.1.3.0,Phases=2,kv=0.22,kW=0.1129,pf=0.92,Vminpu=0.92,Vmaxpu=1.5,model=1,daily=IP,status=variable
new load.IP2858769M1 bus1=BBT149968076.2.3.0,Phases=2,kv=0.22,kW=0.1129,pf=0.92,Vminpu=0.92,Vmaxpu=1.5,model=1,daily=IP,status=variable
new load.IP2858776M1 bus1=BBT149968073.1.2.0,Phases=2,kv=0.22,kW=0.1129,pf=0.92,Vminpu=0.92,Vmaxpu=1.5,model=1,daily=IP,status=variable
new load.IP2858783M1 bus1=BBT149968093.1.3.0,Phases=2,kv=0.22,kW=0.1129,pf=0.92,Vminpu=0.92,Vmaxpu=1.5,model=1,daily=IP,status=variable
new load.IP2858790M1 bus1=BBT149968092.2.3.0,Phases=2,kv=0.22,kW=0.1129,pf=0.92,Vminpu=0.92,Vmaxpu=1.5,model=1,daily=IP,status=variable
new load.3010121490M1 bus1=RML1053711715.1.2.3.0,Phases=3,kv=0.22,kW=1.6217,pf=0.92,Vminpu=0.92,Vmaxpu=1.5,model=1,daily=COM3_3,status=variable
new load.3013257877M1 bus1=RML1060678322.1.2.0,Phases=2,kv=0.22,kW=0.92088,pf=0.92,Vminpu=0.92,Vmaxpu=1.5,model=1,daily=RES3_11,status=variable
new load.3013257898M1 bus1=RML1060678322.1.2.0,Phases=2,kv=0.22,kW=0.1909,pf=0.92,Vminpu=0.92,Vmaxpu=1.5,model=1,daily=RES1_7,status=variable
new load.3010576277M1 bus1=RML1055016067.1.2.0,Phases=2,kv=0.22,kW=0.5996,pf=0.92,Vminpu=0.92,Vmaxpu=1.5,model=1,daily=RES2_10,status=variable
new load.3007729477M1 bus1=RML1052111382.1.2.3.0,Phases=3,kv=0.22,kW=0.75688,pf=0.92,Vminpu=0.92,Vmaxpu=1.5,model=1,daily=RES1_1,status=variable
new load.3010934918M1 bus1=RML1055174519.1.2.0,Phases=2,kv=0.22,kW=0.60974,pf=0.92,Vminpu=0.92,Vmaxpu=1.5,model=1,daily=RES2_19,status=variable
new load.3010298129M1 bus1=RML1052112285.2.3.0,Phases=2,kv=0.22,kW=0.12264,pf=0.92,Vminpu=0.92,Vmaxpu=1.5,model=1,daily=RES1_4,status=variable
new load.3012802420M1 bus1=RML1060469361.1.2.0,Phases=2,kv=0.22,kW=0.46136,pf=0.92,Vminpu=0.92,Vmaxpu=1.5,model=1,daily=RES2_4,status=variable
new load.3007260227M1 bus1=RML1052111284.2.3.0,Phases=2,kv=0.22,kW=0.89434,pf=0.92,Vminpu=0.92,Vmaxpu=1.5,model=1,daily=RES2_12,status=variable
new load.3007520984M1 bus1=RML1054805122.1.0,Phases=1,kv=0.127,kW=0.2099,pf=0.92,Vminpu=0.92,Vmaxpu=1.5,model=1,daily=RES1_18,status=variable
new load.3007551027M1 bus1=RML1054805745.1.0,Phases=1,kv=0.127,kW=0.34164,pf=0.92,Vminpu=0.92,Vmaxpu=1.5,model=1,daily=RES2_22,status=variable
new load.3010163697M1 bus1=RML1055648885.1.2.0,Phases=2,kv=0.22,kW=0.80736,pf=0.92,Vminpu=0.92,Vmaxpu=1.5,model=1,daily=RES2_4,status=variable
new load.3007670752M1 bus1=RML1054798535.1.3.0,Phases=2,kv=0.22,kW=0.18384,pf=0.92,Vminpu=0.92,Vmaxpu=1.5,model=1,daily=RES2_27,status=variable
new load.3010572359M1 bus1=RML1052112285.2.3.0,Phases=2,kv=0.22,kW=0.2953,pf=0.92,Vminpu=0.92,Vmaxpu=1.5,model=1,daily=RES1_10,status=variable
new load.3006495061M1 bus1=RML1052111368.3.0,Phases=1,kv=0.127,kW=0.4814,pf=0.92,Vminpu=0.92,Vmaxpu=1.5,model=1,daily=RES2_1,status=variable
new load.3006509886M1 bus1=RML1052111389.1.3.0,Phases=2,kv=0.22,kW=0.05256,pf=0.92,Vminpu=0.92,Vmaxpu=1.5,model=1,daily=RES1_1,status=variable
new load.3007475620M1 bus1=RML1054801664.1.0,Phases=1,kv=0.127,kW=0.4467,pf=0.92,Vminpu=0.92,Vmaxpu=1.5,model=1,daily=RES2_18,status=variable
new load.3004955842M1 bus1=RML1052112474.1.2.3.0,Phases=3,kv=0.22,kW=0.38642,pf=0.92,Vminpu=0.92,Vmaxpu=1.5,model=1,daily=RES2_10,status=variable
new load.3006609121M1 bus1=RML1054205096.2.3.0,Phases=2,kv=0.22,kW=0.38296,pf=0.92,Vminpu=0.92,Vmaxpu=1.5,model=1,daily=RES1_2,status=variable
new load.3006609122M1 bus1=RML1054205096.2.3.0,Phases=2,kv=0.22,kW=0.2004,pf=0.92,Vminpu=0.92,Vmaxpu=1.5,model=1,daily=RES2_2,status=variable
new load.3005792953M1 bus1=RML1052111382.1.2.3.0,Phases=3,kv=0.22,kW=0.67964,pf=0.92,Vminpu=0.92,Vmaxpu=1.5,model=1,daily=RES1_5,status=variable
new load.3005792954M1 bus1=RML1052111382.1.2.3.0,Phases=3,kv=0.22,kW=0.88168,pf=0.92,Vminpu=0.92,Vmaxpu=1.5,model=1,daily=RES1_5,status=variable
new load.3011623757M1 bus1=RML1056411626.1.2.0,Phases=2,kv=0.24,kW=1.74692,pf=0.92,Vminpu=0.92,Vmaxpu=1.5,model=1,daily=RES3_5,status=variable
new load.3012205991M1 bus1=RML1060225351.1.2.0,Phases=2,kv=0.22,kW=0.50382,pf=0.92,Vminpu=0.92,Vmaxpu=1.5,model=1,daily=RES1_16,status=variable
new load.IP2857789M1 bus1=BBT149967867.2.3.0,Phases=2,kv=0.22,kW=0.1129,pf=0.92,Vminpu=0.92,Vmaxpu=1.5,model=1,daily=IP,status=variable
new load.IP2857796M1 bus1=BBT149967866.1.2.0,Phases=2,kv=0.22,kW=0.1129,pf=0.92,Vminpu=0.92,Vmaxpu=1.5,model=1,daily=IP,status=variable
new load.IP2858006M1 bus1=BBT149967966.2.3.0,Phases=2,kv=0.22,kW=0.1129,pf=0.92,Vminpu=0.92,Vmaxpu=1.5,model=1,daily=IP,status=variable
new load.IP2858013M1 bus1=BBT149967965.1.2.0,Phases=2,kv=0.22,kW=0.1129,pf=0.92,Vminpu=0.92,Vmaxpu=1.5,model=1,daily=IP,status=variable
new load.IP2858020M1 bus1=BBT149967963.1.3.0,Phases=2,kv=0.22,kW=0.1129,pf=0.92,Vminpu=0.92,Vmaxpu=1.5,model=1,daily=IP,status=variable
new load.IP2858034M1 bus1=BBT149967964.1.2.0,Phases=2,kv=0.22,kW=0.1129,pf=0.92,Vminpu=0.92,Vmaxpu=1.5,model=1,daily=IP,status=variable
new load.IP2857866M1 bus1=BBT149967945.2.3.0,Phases=2,kv=0.22,kW=0.1129,pf=0.92,Vminpu=0.92,Vmaxpu=1.5,model=1,daily=IP,status=variable
new load.IP2857873M1 bus1=BBT149967944.1.2.0,Phases=2,kv=0.22,kW=0.1129,pf=0.92,Vminpu=0.92,Vmaxpu=1.5,model=1,daily=IP,status=variable
new load.IP2857880M1 bus1=BBT149967943.1.3.0,Phases=2,kv=0.22,kW=0.1129,pf=0.92,Vminpu=0.92,Vmaxpu=1.5,model=1,daily=IP,status=variable
new load.IP2857887M1 bus1=BBT149967942.2.3.0,Phases=2,kv=0.22,kW=0.1129,pf=0.92,Vminpu=0.92,Vmaxpu=1.5,model=1,daily=IP,status=variable
new load.IP2857894M1 bus1=BBT149967941.1.2.0,Phases=2,kv=0.22,kW=0.1129,pf=0.92,Vminpu=0.92,Vmaxpu=1.5,model=1,daily=IP,status=variable
new load.IP2857915M1 bus1=BBT149967962.2.3.0,Phases=2,kv=0.22,kW=0.1129,pf=0.92,Vminpu=0.92,Vmaxpu=1.5,model=1,daily=IP,status=variable
new load.IP2857803M1 bus1=BBT149967865.1.3.0,Phases=2,kv=0.22,kW=0.1129,pf=0.92,Vminpu=0.92,Vmaxpu=1.5,model=1,daily=IP,status=variable
new load.IP2857810M1 bus1=BBT149967864.1.2.0,Phases=2,kv=0.22,kW=0.1129,pf=0.92,Vminpu=0.92,Vmaxpu=1.5,model=1,daily=IP,status=variable
new load.IP2857817M1 bus1=BBT149967861.1.2.0,Phases=2,kv=0.22,kW=0.1129,pf=0.92,Vminpu=0.92,Vmaxpu=1.5,model=1,daily=IP,status=variable
new load.IP2857824M1 bus1=BBT149967869.2.3.0,Phases=2,kv=0.22,kW=0.1129,pf=0.92,Vminpu=0.92,Vmaxpu=1.5,model=1,daily=IP,status=variable
new load.IP2857831M1 bus1=BBT149967870.1.3.0,Phases=2,kv=0.22,kW=0.1129,pf=0.92,Vminpu=0.92,Vmaxpu=1.5,model=1,daily=IP,status=variable
new load.IP2857838M1 bus1=BBT149967871.1.2.0,Phases=2,kv=0.22,kW=0.1129,pf=0.92,Vminpu=0.92,Vmaxpu=1.5,model=1,daily=IP,status=variable
new load.3013376950M1 bus1=RML1060822303.1.2.3.0,Phases=3,kv=0.22,kW=1.48064,pf=0.92,Vminpu=0.92,Vmaxpu=1.5,model=1,daily=RUR4_14,status=variable
new load.IP8476349M1 bus1=BBT167317507.1.2.0,Phases=2,kv=0.22,kW=0.1129,pf=0.92,Vminpu=0.92,Vmaxpu=1.5,model=1,daily=IP,status=variable
new load.IP8476350M1 bus1=BBT167317506.2.3.0,Phases=2,kv=0.22,kW=0.1129,pf=0.92,Vminpu=0.92,Vmaxpu=1.5,model=1,daily=IP,status=variable
new load.IP8476387M1 bus1=BBT167317480.1.3.0,Phases=2,kv=0.22,kW=0.1129,pf=0.92,Vminpu=0.92,Vmaxpu=1.5,model=1,daily=IP,status=variable
new load.IP8476389M1 bus1=BBT167317498.1.2.0,Phases=2,kv=0.22,kW=0.1129,pf=0.92,Vminpu=0.92,Vmaxpu=1.5,model=1,daily=IP,status=variable
new load.IP8476391M1 bus1=BBT167317409.2.3.0,Phases=2,kv=0.22,kW=0.1129,pf=0.92,Vminpu=0.92,Vmaxpu=1.5,model=1,daily=IP,status=variable
new load.IP8476394M1 bus1=BBT167317434.1.2.0,Phases=2,kv=0.22,kW=0.1129,pf=0.92,Vminpu=0.92,Vmaxpu=1.5,model=1,daily=IP,status=variable
new load.IP8476396M1 bus1=BBT167317435.1.3.0,Phases=2,kv=0.22,kW=0.1129,pf=0.92,Vminpu=0.92,Vmaxpu=1.5,model=1,daily=IP,status=variable
new load.3000674186M1 bus1=RML1052113300.2.3.0,Phases=2,kv=0.22,kW=0.54624,pf=0.92,Vminpu=0.92,Vmaxpu=1.5,model=1,daily=RES1_12,status=variable
new load.3000674187M1 bus1=RML1052113307.3.0,Phases=1,kv=0.127,kW=0.42138,pf=0.92,Vminpu=0.92,Vmaxpu=1.5,model=1,daily=RES1_12,status=variable
new load.3000674188M1 bus1=RML1052113321.2.3.0,Phases=2,kv=0.22,kW=1.43226,pf=0.92,Vminpu=0.92,Vmaxpu=1.5,model=1,daily=RES3_12,status=variable
new load.3000674189M1 bus1=RML1052113321.2.3.0,Phases=2,kv=0.22,kW=0.96888,pf=0.92,Vminpu=0.92,Vmaxpu=1.5,model=1,daily=RES2_12,status=variable
new load.3000674190M1 bus1=RML1052113328.2.3.0,Phases=2,kv=0.22,kW=0.70528,pf=0.92,Vminpu=0.92,Vmaxpu=1.5,model=1,daily=RES3_12,status=variable
new load.3000674191M1 bus1=RML1052113412.3.0,Phases=1,kv=0.127,kW=1.33088,pf=0.92,Vminpu=0.92,Vmaxpu=1.5,model=1,daily=RES2_12,status=variable
new load.IP1609174M1 bus1=BBT4329374.1.2.0,Phases=2,kv=0.22,kW=0.16666,pf=0.92,Vminpu=0.92,Vmaxpu=1.5,model=1,daily=IP,status=variable
new load.IP1609181M1 bus1=BBT4329381.1.2.0,Phases=2,kv=0.22,kW=0.16666,pf=0.92,Vminpu=0.92,Vmaxpu=1.5,model=1,daily=IP,status=variable
new load.IP416878M1 bus1=BBT1501913.1.3.0,Phases=2,kv=0.22,kW=0.08064,pf=0.92,Vminpu=0.92,Vmaxpu=1.5,model=1,daily=IP,status=variable
new load.IP416885M1 bus1=BBT1501927.2.3.0,Phases=2,kv=0.22,kW=0.08064,pf=0.92,Vminpu=0.92,Vmaxpu=1.5,model=1,daily=IP,status=variable
new load.IP416892M1 bus1=BBT1501934.2.3.0,Phases=2,kv=0.22,kW=0.08064,pf=0.92,Vminpu=0.92,Vmaxpu=1.5,model=1,daily=IP,status=variable
new load.IP416899M1 bus1=BBT1501941.1.2.0,Phases=2,kv=0.22,kW=0.08064,pf=0.92,Vminpu=0.92,Vmaxpu=1.5,model=1,daily=IP,status=variable
new load.IP416906M1 bus1=BBT1501948.1.2.0,Phases=2,kv=0.22,kW=0.08064,pf=0.92,Vminpu=0.92,Vmaxpu=1.5,model=1,daily=IP,status=variable
new load.IP1609167M1 bus1=BBT4329367.2.3.0,Phases=2,kv=0.22,kW=0.16666,pf=0.92,Vminpu=0.92,Vmaxpu=1.5,model=1,daily=IP,status=variable
new load.3013977657M1 bus1=RML1052112656.3.0,Phases=1,kv=0.127,kW=0.09642,pf=0.92,Vminpu=0.92,Vmaxpu=1.5,model=1,daily=RES1_23,status=variable
new load.IP2540535M1 bus1=BBT4329388.2.3.0,Phases=2,kv=0.22,kW=0.16666,pf=0.92,Vminpu=0.92,Vmaxpu=1.5,model=1,daily=IP,status=variable
new load.IP416633M1 bus1=BBT1501556.2.3.0,Phases=2,kv=0.22,kW=0.16666,pf=0.92,Vminpu=0.92,Vmaxpu=1.5,model=1,daily=IP,status=variable
new load.IP416640M1 bus1=BBT1501563.1.3.0,Phases=2,kv=0.22,kW=0.08064,pf=0.92,Vminpu=0.92,Vmaxpu=1.5,model=1,daily=IP,status=variable
new load.IP416871M1 bus1=BBT1501906.1.2.0,Phases=2,kv=0.22,kW=0.08064,pf=0.92,Vminpu=0.92,Vmaxpu=1.5,model=1,daily=IP,status=variable
new load.3006616163M1 bus1=RML1054373446.1.2.3.0,Phases=3,kv=0.22,kW=2.777,pf=0.92,Vminpu=0.92,Vmaxpu=1.5,model=1,daily=RES4_5,status=variable
new load.3007295790M1 bus1=RML1054373446.1.2.3.0,Phases=3,kv=0.22,kW=0.41084,pf=0.92,Vminpu=0.92,Vmaxpu=1.5,model=1,daily=RES2_13,status=variable
new load.3010896868M1 bus1=RML1055110364.1.3.0,Phases=2,kv=0.22,kW=0.0822,pf=0.92,Vminpu=0.92,Vmaxpu=1.5,model=1,daily=RES1_17,status=variable
new load.3010974674M1 bus1=RML1056004968.1.2.3.0,Phases=3,kv=0.22,kW=34.72762,pf=0.92,Vminpu=0.92,Vmaxpu=1.5,model=1,daily=COM4_19,status=variable
new load.3012969780M1 bus1=RML1052113377.2.3.0,Phases=2,kv=0.22,kW=0.0112,pf=0.92,Vminpu=0.92,Vmaxpu=1.5,model=1,daily=RES2_5,status=variable
new load.3004640990M1 bus1=RML1052112663.1.3.0,Phases=2,kv=0.22,kW=2.27596,pf=0.92,Vminpu=0.92,Vmaxpu=1.5,model=1,daily=COM3_3,status=variable
new load.3004463411M1 bus1=RML1052113349.1.3.0,Phases=2,kv=0.22,kW=0.64124,pf=0.92,Vminpu=0.92,Vmaxpu=1.5,model=1,daily=RES1_1,status=variable
new load.3005106083M1 bus1=RML1054033316.1.2.0,Phases=2,kv=0.24,kW=1.46458,pf=0.92,Vminpu=0.92,Vmaxpu=1.5,model=1,daily=RES4_17,status=variable
new load.3011039785M1 bus1=RML1056683359.1.2.0,Phases=2,kv=0.24,kW=0.92072,pf=0.92,Vminpu=0.92,Vmaxpu=1.5,model=1,daily=RUR2_21,status=variable
new load.IP2856445M1 bus1=BBT2731421.1.2.0,Phases=2,kv=0.24,kW=0.1317,pf=0.92,Vminpu=0.92,Vmaxpu=1.5,model=1,daily=IP,status=variable
new load.3003799800M1 bus1=RML1052064216.1.2.0,Phases=2,kv=0.24,kW=0.84144,pf=0.92,Vminpu=0.92,Vmaxpu=1.5,model=1,daily=RUR2_9,status=variable
new load.3002670405M1 bus1=RML1054034107.1.2.0,Phases=2,kv=0.24,kW=1.0325,pf=0.92,Vminpu=0.92,Vmaxpu=1.5,model=1,daily=RUR2_13,status=variable
new load.3002670406M1 bus1=RML1052064223.1.2.0,Phases=2,kv=0.24,kW=1.42742,pf=0.92,Vminpu=0.92,Vmaxpu=1.5,model=1,daily=RUR2_13,status=variable
new load.3007396261M1 bus1=RML1054583061.1.2.0,Phases=2,kv=0.24,kW=1.60704,pf=0.92,Vminpu=0.92,Vmaxpu=1.5,model=1,daily=RUR3_19,status=variable
new load.3007396262M1 bus1=RML1054583068.1.2.0,Phases=2,kv=0.24,kW=0.44774,pf=0.92,Vminpu=0.92,Vmaxpu=1.5,model=1,daily=RUR1_22,status=variable
new load.3002293970M1 bus1=RML1054035283.1.0,Phases=1,kv=0.12,kW=0.78218,pf=0.92,Vminpu=0.92,Vmaxpu=1.5,model=1,daily=RUR2_2,status=variable
new load.3002293971M1 bus1=RML1054035290.1.2.0,Phases=2,kv=0.24,kW=0.5676,pf=0.92,Vminpu=0.92,Vmaxpu=1.5,model=1,daily=RUR2_2,status=variable
new load.3002293972M1 bus1=RML1054035276.1.2.0,Phases=2,kv=0.24,kW=1.83012,pf=0.92,Vminpu=0.92,Vmaxpu=1.5,model=1,daily=RUR1_4,status=variable
new load.3010117968M1 bus1=RML1060034103.1.2.0,Phases=2,kv=0.24,kW=2.0247,pf=0.92,Vminpu=0.92,Vmaxpu=1.5,model=1,daily=RES2_3,status=variable
new load.3002482276M1 bus1=RML1052108435.1.2.0,Phases=2,kv=0.24,kW=0.70148,pf=0.92,Vminpu=0.92,Vmaxpu=1.5,model=1,daily=RUR1_11,status=variable
new load.3002482255M1 bus1=RML1052108442.1.2.0,Phases=2,kv=0.24,kW=1.52814,pf=0.92,Vminpu=0.92,Vmaxpu=1.5,model=1,daily=RUR2_8,status=variable
new load.3002482275M1 bus1=RML1052108540.1.2.0,Phases=2,kv=0.24,kW=0.647,pf=0.92,Vminpu=0.92,Vmaxpu=1.5,model=1,daily=RUR1_11,status=variable
new load.3013207650M1 bus1=RML1060675919.1.2.0,Phases=2,kv=0.24,kW=1.15044,pf=0.92,Vminpu=0.92,Vmaxpu=1.5,model=1,daily=RUR1_12,status=variable
new load.3002482272M1 bus1=RML1052108596.1.2.0,Phases=2,kv=0.24,kW=1.45794,pf=0.92,Vminpu=0.92,Vmaxpu=1.5,model=1,daily=RUR2_8,status=variable
new load.3002482274M1 bus1=RML1052108617.1.2.0,Phases=2,kv=0.24,kW=1.16096,pf=0.92,Vminpu=0.92,Vmaxpu=1.5,model=1,daily=RUR2_8,status=variable
new load.3004207403M1 bus1=RML1052108638.1.2.0,Phases=2,kv=0.24,kW=0.68742,pf=0.92,Vminpu=0.92,Vmaxpu=1.5,model=1,daily=RUR2_21,status=variable
new load.3002482312M1 bus1=RML1052108827.1.2.0,Phases=2,kv=0.24,kW=1.29054,pf=0.92,Vminpu=0.92,Vmaxpu=1.5,model=1,daily=RUR2_8,status=variable
new load.3000316227M1 bus1=RML1052383066.3.0,Phases=1,kv=0.127,kW=0.49832,pf=0.92,Vminpu=0.92,Vmaxpu=1.5,model=1,daily=RES2_5,status=variable
new load.3000316228M1 bus1=RML1052383143.2.0,Phases=1,kv=0.127,kW=0.58632,pf=0.92,Vminpu=0.92,Vmaxpu=1.5,model=1,daily=RES1_3,status=variable
new load.3000316229M1 bus1=RML1052383129.1.2.0,Phases=2,kv=0.22,kW=0.63232,pf=0.92,Vminpu=0.92,Vmaxpu=1.5,model=1,daily=RES1_3,status=variable
new load.3004754173M1 bus1=RML1052111991.1.0,Phases=1,kv=0.127,kW=0.94454,pf=0.92,Vminpu=0.92,Vmaxpu=1.5,model=1,daily=RES2_6,status=variable
new load.3005964294M1 bus1=RML1052112439.2.0,Phases=1,kv=0.127,kW=0.75284,pf=0.92,Vminpu=0.92,Vmaxpu=1.5,model=1,daily=RES2_10,status=variable
new load.3006011243M1 bus1=RML1052112292.3.0,Phases=1,kv=0.127,kW=0.75614,pf=0.92,Vminpu=0.92,Vmaxpu=1.5,model=1,daily=RES3_11,status=variable
new load.3006047530M1 bus1=RML1052112488.2.0,Phases=1,kv=0.127,kW=1.58332,pf=0.92,Vminpu=0.92,Vmaxpu=1.5,model=1,daily=RES2_11,status=variable
new load.3005164432M1 bus1=RML1052112131.2.3.0,Phases=2,kv=0.22,kW=0.57768,pf=0.92,Vminpu=0.92,Vmaxpu=1.5,model=1,daily=RES2_17,status=variable
new load.3005321909M1 bus1=RML1053881731.1.0,Phases=1,kv=0.127,kW=1.07692,pf=0.92,Vminpu=0.92,Vmaxpu=1.5,model=1,daily=RES4_19,status=variable
new load.3005792949M1 bus1=RML1052111403.1.2.3.0,Phases=3,kv=0.22,kW=0.5442,pf=0.92,Vminpu=0.92,Vmaxpu=1.5,model=1,daily=RES2_6,status=variable