new load.3006069342M1 bus1=BMT167460459.1.2.3.0,Phases=3,kv=13.8,kW=12.57764,pf=0.92,Vminpu=0.93,Vmaxpu=1.5,model=8,zipv=[0.5,0,0.5,1,0,0,0],daily=A4-1,status=variable
new load.3009002670M1 bus1=BMT167454589.1.2.3.0,Phases=3,kv=13.8,kW=79.1063,pf=0.92,Vminpu=0.93,Vmaxpu=1.5,model=8,zipv=[0.5,0,0.5,1,0,0,0],daily=A4-6,status=variable
new load.3009011299M1 bus1=BMT168139936.1.2.3.0,Phases=3,kv=13.8,kW=26.92364,pf=0.92,Vminpu=0.93,Vmaxpu=1.5,model=8,zipv=[0.5,0,0.5,1,0,0,0],daily=A4-2,status=variable
new load.3009012848M1 bus1=BMT167461469.1.2.3.0,Phases=3,kv=13.8,kW=6.38458,pf=0.92,Vminpu=0.93,Vmaxpu=1.5,model=8,zipv=[0.5,0,0.5,1,0,0,0],daily=A4-1,status=variable
new load.3009013028M1 bus1=BMT167461421.1.2.3.0,Phases=3,kv=13.8,kW=205.65006,pf=0.92,Vminpu=0.93,Vmaxpu=1.5,model=8,zipv=[0.5,0,0.5,1,0,0,0],daily=A4-5,status=variable
new load.3009014097M1 bus1=BMT167454593.1.2.3.0,Phases=3,kv=13.8,kW=203.57278,pf=0.92,Vminpu=0.93,Vmaxpu=1.5,model=8,zipv=[0.5,0,0.5,1,0,0,0],daily=A4-5,status=variable
new load.3009014099M1 bus1=BMT167454490.1.2.3.0,Phases=3,kv=13.8,kW=35.89818,pf=0.92,Vminpu=0.93,Vmaxpu=1.5,model=8,zipv=[0.5,0,0.5,1,0,0,0],daily=A4-2,status=variable
new load.3009014100M1 bus1=BMT167454441.1.2.3.0,Phases=3,kv=13.8,kW=2.24364,pf=0.92,Vminpu=0.93,Vmaxpu=1.5,model=8,zipv=[0.5,0,0.5,1,0,0,0],daily=A4-2,status=variable
new load.3009014344M1 bus1=BMT167452862.1.2.3.0,Phases=3,kv=13.8,kW=43.62274,pf=0.92,Vminpu=0.93,Vmaxpu=1.5,model=8,zipv=[0.5,0,0.5,1,0,0,0],daily=A4-5,status=variable
new load.3009014548M1 bus1=BMT167460589.1.2.3.0,Phases=3,kv=13.8,kW=29.16728,pf=0.92,Vminpu=0.93,Vmaxpu=1.5,model=8,zipv=[0.5,0,0.5,1,0,0,0],daily=A4-2,status=variable
new load.3009014549M1 bus1=BMT167454583.1.2.3.0,Phases=3,kv=13.8,kW=91.76238,pf=0.92,Vminpu=0.93,Vmaxpu=1.5,model=8,zipv=[0.5,0,0.5,1,0,0,0],daily=A4-4,status=variable
new load.3009016068M1 bus1=BMT167454549.1.2.3.0,Phases=3,kv=13.8,kW=100.32996,pf=0.92,Vminpu=0.93,Vmaxpu=1.5,model=8,zipv=[0.5,0,0.5,1,0,0,0],daily=A4-6,status=variable
new load.3009017367M1 bus1=BMT167461467.1.2.3.0,Phases=3,kv=13.8,kW=3.1923,pf=0.92,Vminpu=0.93,Vmaxpu=1.5,model=8,zipv=[0.5,0,0.5,1,0,0,0],daily=A4-1,status=variable
new load.3009018427M1 bus1=BMT167454468.1.2.3.0,Phases=3,kv=13.8,kW=29.16728,pf=0.92,Vminpu=0.93,Vmaxpu=1.5,model=8,zipv=[0.5,0,0.5,1,0,0,0],daily=A4-2,status=variable
new load.3009020506M1 bus1=BMT167454721.1.2.3.0,Phases=3,kv=13.8,kW=25.16866,pf=0.92,Vminpu=0.93,Vmaxpu=1.5,model=8,zipv=[0.5,0,0.5,1,0,0,0],daily=A4-3,status=variable
new load.3009020559M1 bus1=BMT167459086.1.2.3.0,Phases=3,kv=13.8,kW=33.51908,pf=0.92,Vminpu=0.93,Vmaxpu=1.5,model=8,zipv=[0.5,0,0.5,1,0,0,0],daily=A4-1,status=variable
new load.3009020958M1 bus1=BMT167459895.1.2.3.0,Phases=3,kv=13.8,kW=106.70044,pf=0.92,Vminpu=0.93,Vmaxpu=1.5,model=8,zipv=[0.5,0,0.5,1,0,0,0],daily=A4-4,status=variable
new load.3009021387M1 bus1=BMT167461435.1.2.3.0,Phases=3,kv=13.8,kW=258.54256,pf=0.92,Vminpu=0.93,Vmaxpu=1.5,model=8,zipv=[0.5,0,0.5,1,0,0,0],daily=A4-6,status=variable
new load.3009022037M1 bus1=BMT167453054.1.2.3.0,Phases=3,kv=13.8,kW=79.70076,pf=0.92,Vminpu=0.93,Vmaxpu=1.5,model=8,zipv=[0.5,0,0.5,1,0,0,0],daily=A4-3,status=variable
new load.3009022104M1 bus1=BMT167459879.1.2.3.0,Phases=3,kv=13.8,kW=60.82426,pf=0.92,Vminpu=0.93,Vmaxpu=1.5,model=8,zipv=[0.5,0,0.5,1,0,0,0],daily=A4-3,status=variable
new load.3010371676M1 bus1=BMT167454591.1.2.3.0,Phases=3,kv=13.8,kW=13.46182,pf=0.92,Vminpu=0.93,Vmaxpu=1.5,model=8,zipv=[0.5,0,0.5,1,0,0,0],daily=A4-2,status=variable
new load.3010631701M1 bus1=BMT167768619.1.2.3.0,Phases=3,kv=13.8,kW=39.85038,pf=0.92,Vminpu=0.93,Vmaxpu=1.5,model=8,zipv=[0.5,0,0.5,1,0,0,0],daily=A4-3,status=variable
new load.3012506291M1 bus1=BMT170020509.1.2.3.0,Phases=3,kv=13.8,kW=127.9407,pf=0.92,Vminpu=0.93,Vmaxpu=1.5,model=8,zipv=[0.5,0,0.5,1,0,0,0],daily=A4-3,status=variable
new load.3013347194M1 bus1=BMT167454581.1.2.3.0,Phases=3,kv=13.8,kW=238.88644,pf=0.92,Vminpu=0.93,Vmaxpu=1.5,model=8,zipv=[0.5,0,0.5,1,0,0,0],daily=A4-5,status=variable
new load.3013378251M1 bus1=BMT167460779.1.2.3.0,Phases=3,kv=13.8,kW=6.38458,pf=0.92,Vminpu=0.93,Vmaxpu=1.5,model=8,zipv=[0.5,0,0.5,1,0,0,0],daily=A4-1,status=variable
