new line.SBT_10066965 bus1=BBT147005548.1.2.0,bus2=BBT147005555.1.2.0,Phases=2,Linecode=BT518_BT518_7_2_1_2,Length=0.000501000,Units=km
new line.SBT_1270252 bus1=BBT1474939.1.2.0,bus2=BBT1474946.1.2.0,Phases=2,Linecode=BT521_BT521_7_2_1_2,Length=0.000501000,Units=km
new line.SBT_1270343 bus1=BBT1475121.1.2.0,bus2=BBT1475128.1.2.0,Phases=2,Linecode=BT521_BT521_7_2_1_2,Length=0.000501000,Units=km
new line.SBT_1320260 bus1=BBT1537575.1.2.3.0,bus2=BBT1537554.1.2.3.0,Phases=3,Linecode=BT809_BT809_4_3_4_3,Length=0.024087000,Units=km
new line.SBT_1320267 bus1=BBT1537582.1.2.3.0,bus2=BBT1537575.1.2.3.0,Phases=3,Linecode=BT809_BT809_4_3_4_3,Length=0.023349000,Units=km
new line.SBT_1320274 bus1=BBT1537589.1.2.3.0,bus2=BBT1537561.1.2.3.0,Phases=3,Linecode=BT107_BT107_7_3_1_3,Length=0.034833000,Units=km
new line.SBT_1320281 bus1=BBT1537603.1.2.3.0,bus2=BBT1537582.1.2.3.0,Phases=3,Linecode=BT107_BT107_7_3_1_3,Length=0.029837000,Units=km
new line.SBT_1320288 bus1=BBT1537610.1.2.3.0,bus2=BBT1537589.1.2.3.0,Phases=3,Linecode=BT803_BT803_4_3_4_3,Length=0.034064000,Units=km
new line.SBT_1320295 bus1=BBT1537617.1.2.3.0,bus2=BBT1537610.1.2.3.0,Phases=3,Linecode=BT803_BT803_4_3_4_3,Length=0.029736000,Units=km
new line.SBT_1320302 bus1=BBT1537491.1.2.3.0,bus2=BBT1537617.1.2.3.0,Phases=3,Linecode=BT513_BT513_7_3_1_3,Length=0.000501000,Units=km
new line.SBT_1320309 bus1=BBT1537617.1.2.3.0,bus2=BBT1537631.1.2.3.0,Phases=3,Linecode=BT803_BT803_4_3_4_3,Length=0.035389000,Units=km
new line.SBT_1320316 bus1=BBT1537624.1.2.3.0,bus2=BBT1537603.1.2.3.0,Phases=3,Linecode=BT107_BT107_7_3_1_3,Length=0.034660000,Units=km
new line.SBT_1320323 bus1=BBT1537631.1.2.3.0,bus2=BBT1537624.1.2.3.0,Phases=3,Linecode=BT803_BT803_4_3_4_3,Length=0.033246000,Units=km
new line.SBT_1320330 bus1=BBT1537631.1.2.3.0,bus2=BBT1537638.1.2.3.0,Phases=3,Linecode=BT803_BT803_4_3_4_3,Length=0.030418000,Units=km
new line.SBT_1320337 bus1=BBT1537638.1.2.3.0,bus2=BBT1537645.1.2.3.0,Phases=3,Linecode=BT803_BT803_4_3_4_3,Length=0.022026000,Units=km
new line.SBT_1320344 bus1=BBT1537638.1.2.3.0,bus2=BBT6310077.1.2.3.0,Phases=3,Linecode=BT809_BT809_4_3_4_3,Length=0.026176000,Units=km
new line.SBT_1320351 bus1=BBT1537652.1.2.3.0,bus2=BBT1537659.1.2.3.0,Phases=3,Linecode=BT809_BT809_4_3_4_3,Length=0.029004000,Units=km
new line.SBT_1320358 bus1=BBT1537652.1.2.0,bus2=BBT4554708.1.2.0,Phases=2,Linecode=BT808_BT808_4_2_3_2,Length=0.036074000,Units=km
new line.SBT_1320365 bus1=BBT1537666.1.2.0,bus2=BBT1537673.1.2.0,Phases=2,Linecode=BT521_BT521_7_2_1_2,Length=0.000501000,Units=km
new line.SBT_1320372 bus1=BBT1537680.1.2.0,bus2=BBT1537687.1.2.0,Phases=2,Linecode=BT521_BT521_7_2_1_2,Length=0.000501000,Units=km
new line.SBT_1320379 bus1=BBT152411238.1.2.3.0,bus2=BBT1537708.1.2.3.0,Phases=3,Linecode=BT108_BT107_7_3_1_3,Length=0.040317000,Units=km
new line.SBT_1320386 bus1=BBT152411238.1.2.3.0,bus2=BBT1537701.1.2.3.0,Phases=3,Linecode=BT810_BT810_4_3_4_3,Length=0.033126000,Units=km
new line.SBT_1320393 bus1=BBT152411238.1.2.3.0,bus2=BBT1537421.1.2.3.0,Phases=3,Linecode=BT107_BT106_7_3_1_3,Length=0.036720000,Units=km
new line.SBT_1320400 bus1=BBT1537722.1.2.3.0,bus2=BBT152411238.1.2.3.0,Phases=3,Linecode=BT108_BT107_7_3_1_3,Length=0.034991000,Units=km
new line.SBT_1320407 bus1=BBT1537736.1.2.3.0,bus2=BBT1537722.1.2.3.0,Phases=3,Linecode=BT108_BT107_7_3_1_3,Length=0.034487000,Units=km
new line.SBT_1320414 bus1=BBT1537694.1.2.3.0,bus2=BBT1537736.1.2.3.0,Phases=3,Linecode=BT518_BT518_7_3_1_3,Length=0.000501000,Units=km
new line.SBT_1320421 bus1=BBT1537736.1.2.3.0,bus2=BBT1537750.1.2.3.0,Phases=3,Linecode=BT108_BT107_7_3_1_3,Length=0.034487000,Units=km
new line.SBT_1320428 bus1=BBT1537750.1.2.3.0,bus2=BBT1537757.1.2.3.0,Phases=3,Linecode=BT108_BT107_7_3_1_3,Length=0.028849000,Units=km
new line.SBT_1320435 bus1=BBT1537757.1.2.3.0,bus2=BBT1537743.1.2.3.0,Phases=3,Linecode=BT107_BT107_7_3_1_3,Length=0.034487000,Units=km
new line.SBT_1320442 bus1=BBT1537757.1.2.3.0,bus2=BBT1537764.1.2.3.0,Phases=3,Linecode=BT108_BT107_7_3_1_3,Length=0.028182000,Units=km
new line.SBT_1320449 bus1=BBT1537757.1.2.3.0,bus2=BBT1537771.1.2.3.0,Phases=3,Linecode=BT107_BT106_7_3_1_3,Length=0.038954000,Units=km
new line.SBT_1320456 bus1=BBT1537764.1.2.3.0,bus2=BBT1537778.1.2.3.0,Phases=3,Linecode=BT108_BT107_7_3_1_3,Length=0.031769000,Units=km
new line.SBT_1320463 bus1=BBT1537785.1.2.3.0,bus2=BBT175972734.1.2.3.0,Phases=3,Linecode=BT803_BT803_4_3_4_3,Length=0.034890000,Units=km
new line.SBT_1320477 bus1=BBT1537785.1.2.3.0,bus2=BBT1538135.1.2.3.0,Phases=3,Linecode=BT803_BT803_4_3_4_3,Length=0.031769000,Units=km
new line.SBT_1320484 bus1=BBT1537785.1.2.3.0,bus2=BBT1538149.1.2.3.0,Phases=3,Linecode=BT803_BT803_4_3_4_3,Length=0.039452000,Units=km
new line.SBT_1320491 bus1=BBT1538058.1.2.3.0,bus2=BBT1538065.1.2.3.0,Phases=3,Linecode=BT518_BT518_7_3_1_3,Length=0.000501000,Units=km
new line.SBT_1320505 bus1=BBT179925616.1.2.3.0,bus2=BBT179927490.1.2.3.0,Phases=3,Linecode=BT803_BT803_4_3_4_3,Length=0.038903000,Units=km
new line.SBT_1320526 bus1=BBT179927194.1.2.3.0,bus2=BBT1537841.1.2.3.0,Phases=3,Linecode=BT803_BT803_4_3_4_3,Length=0.037595000,Units=km
new line.SBT_1320533 bus1=BBT179927490.1.2.3.0,bus2=BBT1537834.1.2.3.0,Phases=3,Linecode=BT803_BT803_4_3_4_3,Length=0.037542000,Units=km
new line.SBT_1320540 bus1=BBT1537848.1.2.3.0,bus2=BBT1537834.1.2.3.0,Phases=3,Linecode=BT803_BT803_4_3_4_3,Length=0.036074000,Units=km
new line.SBT_1320547 bus1=BBT1537855.1.2.3.0,bus2=BBT179927194.1.2.3.0,Phases=3,Linecode=BT803_BT803_4_3_4_3,Length=0.040317000,Units=km
new line.SBT_1320554 bus1=BBT1537862.1.2.3.0,bus2=BBT1537848.1.2.3.0,Phases=3,Linecode=BT803_BT803_4_3_4_3,Length=0.033246000,Units=km
new line.SBT_1320561 bus1=BBT1537806.1.2.3.0,bus2=BBT1537890.1.2.3.0,Phases=3,Linecode=BT308_BT308_7_3_1_3,Length=0.000501000,Units=km
new line.SBT_1320568 bus1=BBT1537883.1.2.3.0,bus2=BBT1537862.1.2.3.0,Phases=3,Linecode=BT803_BT803_4_3_4_3,Length=0.038903000,Units=km
new line.SBT_1320575 bus1=BBT1537869.1.2.3.0,bus2=BBT1537855.1.2.3.0,Phases=3,Linecode=BT805_BT805_4_3_4_3,Length=0.039629000,Units=km
new line.SBT_1320582 bus1=BBT1537883.1.2.3.0,bus2=BBT1537876.1.2.3.0,Phases=3,Linecode=BT803_BT803_4_3_4_3,Length=0.023349000,Units=km
new line.SBT_1320589 bus1=BBT1537883.1.2.3.0,bus2=BBT1537897.1.2.3.0,Phases=3,Linecode=BT803_BT803_4_3_4_3,Length=0.033975000,Units=km
new line.SBT_1320596 bus1=BBT1537904.1.2.3.0,bus2=BBT1537883.1.2.3.0,Phases=3,Linecode=BT803_BT803_4_3_4_3,Length=0.046017000,Units=km
new line.SBT_1320603 bus1=BBT1537890.1.2.3.0,bus2=BBT1537869.1.2.3.0,Phases=3,Linecode=BT805_BT805_4_3_4_3,Length=0.038189000,Units=km
new line.SBT_1320610 bus1=BBT1537897.1.2.3.0,bus2=BBT1537911.1.2.3.0,Phases=3,Linecode=BT803_BT803_4_3_4_3,Length=0.029703000,Units=km
new line.SBT_1320617 bus1=BBT1537890.1.2.3.0,bus2=BBT1537904.1.2.3.0,Phases=3,Linecode=BT805_BT805_4_3_4_3,Length=0.033975000,Units=km
new line.SBT_1320624 bus1=BBT1537904.1.2.3.0,bus2=BBT1537918.1.2.3.0,Phases=3,Linecode=BT803_BT803_4_3_4_3,Length=0.039629000,Units=km
new line.SBT_1320638 bus1=BBT1537911.1.2.3.0,bus2=BBT1537925.1.2.3.0,Phases=3,Linecode=BT803_BT803_4_3_4_3,Length=0.032562000,Units=km
new line.SBT_1320645 bus1=BBT1537946.1.2.3.0,bus2=BBT1537939.1.2.3.0,Phases=3,Linecode=BT809_BT809_4_3_4_3,Length=0.030021000,Units=km
new line.SBT_1320652 bus1=BBT1537960.1.2.3.0,bus2=BBT1537946.1.2.3.0,Phases=3,Linecode=BT809_BT809_4_3_4_3,Length=0.027789000,Units=km
new line.SBT_1320659 bus1=BBT1537967.1.2.3.0,bus2=BBT1537953.1.2.3.0,Phases=3,Linecode=BT809_BT809_4_3_4_3,Length=0.024190000,Units=km
new line.SBT_1320666 bus1=BBT1537967.1.2.3.0,bus2=BBT1537960.1.2.3.0,Phases=3,Linecode=BT809_BT809_4_3_4_3,Length=0.020594000,Units=km
new line.SBT_1318356 bus1=BBT1535713.1.2.0,bus2=BBT1535720.1.2.0,Phases=2,Linecode=BT521_BT521_7_2_1_2,Length=0.000501000,Units=km
new line.SBT_1318363 bus1=BBT1535727.1.2.0,bus2=BBT1535734.1.2.0,Phases=2,Linecode=BT513_BT513_7_2_1_2,Length=0.000501000,Units=km
new line.SBT_1318426 bus1=BBT1535853.1.2.0,bus2=BBT1535860.1.2.0,Phases=2,Linecode=BT307_BT307_7_2_1_2,Length=0.000501000,Units=km
new line.SBT_1318447 bus1=BBT1535916.1.2.0,bus2=BBT1535902.1.2.0,Phases=2,Linecode=BT107_BT107_7_2_1_2,Length=0.033843000,Units=km
new line.SBT_1318454 bus1=BBT1535923.1.2.0,bus2=BBT1535909.1.2.0,Phases=2,Linecode=BT107_BT107_7_2_1_2,Length=0.031149000,Units=km
new line.SBT_1318461 bus1=BBT1535930.1.2.0,bus2=BBT1535916.1.2.0,Phases=2,Linecode=BT107_BT107_7_2_1_2,Length=0.033306000,Units=km
new line.SBT_1318468 bus1=BBT1535937.1.2.0,bus2=BBT1535923.1.2.0,Phases=2,Linecode=BT107_BT107_7_2_1_2,Length=0.034718000,Units=km
new line.SBT_1318475 bus1=BBT1535937.1.2.0,bus2=BBT1535951.1.2.0,Phases=2,Linecode=BT107_BT107_7_2_1_2,Length=0.036625000,Units=km
new line.SBT_1318482 bus1=BBT1535944.1.2.0,bus2=BBT1535930.1.2.0,Phases=2,Linecode=BT107_BT107_7_2_1_2,Length=0.037648000,Units=km
new line.SBT_1318489 bus1=BBT1535944.1.2.0,bus2=BBT1535937.1.2.0,Phases=2,Linecode=BT107_BT107_7_2_1_2,Length=0.015623000,Units=km
new line.SBT_1318496 bus1=BBT1535965.1.2.3.0,bus2=BBT178788212.1.2.3.0,Phases=3,Linecode=BT803_BT803_4_3_4_3,Length=0.036240000,Units=km
new line.SBT_1318503 bus1=BBT1535958.1.2.0,bus2=BBT1535944.1.2.0,Phases=2,Linecode=BT108_BT108_7_2_1_2,Length=0.032807000,Units=km
new line.SBT_1318510 bus1=BBT1535972.1.2.0,bus2=BBT1535958.1.2.0,Phases=2,Linecode=BT108_BT108_7_2_1_2,Length=0.036060000,Units=km
new line.SBT_1318517 bus1=BBT1535895.1.2.0,bus2=BBT1535972.1.2.0,Phases=2,Linecode=BT307_BT307_7_2_1_2,Length=0.000501000,Units=km
new line.SBT_1318524 bus1=BBT1535972.1.2.0,bus2=BBT1535986.1.2.0,Phases=2,Linecode=BT108_BT108_7_2_1_2,Length=0.034890000,Units=km
new line.SBT_1318531 bus1=BBT1535965.1.2.3.0,bus2=BBT1535979.1.2.3.0,Phases=3,Linecode=BT803_BT803_4_3_4_3,Length=0.034890000,Units=km
new line.SBT_1318538 bus1=BBT1535986.1.2.0,bus2=BBT1536000.1.2.0,Phases=2,Linecode=BT803_BT803_4_2_4_2,Length=0.034019000,Units=km
new line.SBT_1318545 bus1=BBT1535979.1.2.3.0,bus2=BBT1535993.1.2.3.0,Phases=3,Linecode=BT803_BT803_4_3_4_3,Length=0.034019000,Units=km
new line.SBT_1318552 bus1=BBT1536000.1.2.0,bus2=BBT1536014.1.2.0,Phases=2,Linecode=BT803_BT803_4_2_4_2,Length=0.034933000,Units=km
new line.SBT_1318559 bus1=BBT1535993.1.2.3.0,bus2=BBT178788325.1.2.3.0,Phases=3,Linecode=BT803_BT803_4_3_4_3,Length=0.036254000,Units=km
new line.SBT_1318566 bus1=BBT178788325.1.2.0,bus2=BBT1536021.1.2.0,Phases=2,Linecode=BT107_BT107_7_2_1_2,Length=0.036679000,Units=km
new line.SBT_1318573 bus1=BBT1536014.1.2.0,bus2=BBT1536007.1.2.0,Phases=2,Linecode=BT803_BT803_4_2_4_2,Length=0.011404000,Units=km
new line.SBT_1318580 bus1=BBT1536014.1.2.0,bus2=BBT1536028.1.2.0,Phases=2,Linecode=BT803_BT803_4_2_4_2,Length=0.038084000,Units=km
new line.SBT_1318587 bus1=BBT1536021.1.2.0,bus2=BBT1536035.1.2.0,Phases=2,Linecode=BT107_BT107_7_2_1_2,Length=0.041442000,Units=km
new line.SBT_1318594 bus1=BBT1536028.1.2.0,bus2=BBT1536042.1.2.0,Phases=2,Linecode=BT803_BT803_4_2_4_2,Length=0.033620000,Units=km
new line.SBT_1318615 bus1=BBT1536063.1.2.0,bus2=BBT1536070.1.2.0,Phases=2,Linecode=BT521_BT521_7_2_1_2,Length=0.000501000,Units=km
new line.SBT_1318636 bus1=BBT1536091.1.2.0,bus2=BBT1536098.1.2.0,Phases=2,Linecode=BT521_BT521_7_2_1_2,Length=0.000501000,Units=km
new line.SBT_1318650 bus1=BBT1536119.1.2.0,bus2=BBT1536126.1.2.0,Phases=2,Linecode=BT521_BT521_7_2_1_2,Length=0.000501000,Units=km
new line.SBT_1318657 bus1=BBT3066753.1.2.3.0,bus2=BBT3066746.1.2.3.0,Phases=3,Linecode=BT803_BT803_4_3_4_3,Length=0.031309000,Units=km
new line.SBT_1318664 bus1=BBT23146883.1.2.3.0,bus2=BBT1536154.1.2.3.0,Phases=3,Linecode=BT803_BT803_4_3_4_3,Length=0.019238000,Units=km
new line.SBT_1318671 bus1=BBT1536147.1.2.3.0,bus2=BBT1536140.1.2.3.0,Phases=3,Linecode=BT803_BT803_4_3_4_3,Length=0.029073000,Units=km
new line.SBT_1318678 bus1=BBT1536154.1.2.3.0,bus2=BBT1536168.1.2.3.0,Phases=3,Linecode=BT803_BT803_4_3_4_3,Length=0.035360000,Units=km
new line.SBT_1318685 bus1=BBT23146883.1.2.3.0,bus2=BBT3066753.1.2.3.0,Phases=3,Linecode=BT803_BT803_4_3_4_3,Length=0.018360000,Units=km
new line.SBT_1318692 bus1=BBT1536161.1.2.3.0,bus2=BBT1536147.1.2.3.0,Phases=3,Linecode=BT803_BT803_4_3_4_3,Length=0.029073000,Units=km
new line.SBT_1318699 bus1=BBT1536168.1.2.3.0,bus2=BBT1536182.1.2.3.0,Phases=3,Linecode=BT803_BT803_4_3_4_3,Length=0.035852000,Units=km
new line.SBT_1318706 bus1=BBT1536175.1.2.3.0,bus2=BBT3066718.1.2.3.0,Phases=3,Linecode=BT803_BT803_4_3_4_3,Length=0.035782000,Units=km
new line.SBT_1318720 bus1=BBT1536189.1.2.3.0,bus2=BBT1536175.1.2.3.0,Phases=3,Linecode=BT803_BT803_4_3_4_3,Length=0.038084000,Units=km
new line.SBT_1318727 bus1=BBT1536133.1.2.3.0,bus2=BBT1536189.1.2.3.0,Phases=3,Linecode=BT518_BT518_7_3_1_3,Length=0.000501000,Units=km
new line.SBT_1318734 bus1=BBT1536189.1.2.3.0,bus2=BBT1536196.1.2.3.0,Phases=3,Linecode=BT803_BT803_4_3_4_3,Length=0.039830000,Units=km
new line.SBT_1318741 bus1=BBT3066690.1.2.3.0,bus2=BBT3066697.1.2.3.0,Phases=3,Linecode=BT803_BT803_4_3_4_3,Length=0.045657000,Units=km
new line.SBT_1318748 bus1=BBT5611988.1.2.3.0,bus2=BBT5611995.1.2.3.0,Phases=3,Linecode=BT518_BT518_7_3_1_3,Length=0.000501000,Units=km
new line.SBT_1318762 bus1=BBT1536196.1.2.3.0,bus2=BBT1536203.1.2.3.0,Phases=3,Linecode=BT803_BT803_4_3_4_3,Length=0.030418000,Units=km
new line.SBT_1318769 bus1=BBT1536196.1.2.3.0,bus2=BBT4855540.1.2.3.0,Phases=3,Linecode=BT803_BT803_4_3_4_3,Length=0.039401000,Units=km
new line.SBT_1318776 bus1=BBT3065948.1.2.3.0,bus2=BBT3066690.1.2.3.0,Phases=3,Linecode=BT803_BT803_4_3_4_3,Length=0.025558000,Units=km
new line.SBT_1318783 bus1=BBT3065948.1.2.3.0,bus2=BBT3066704.1.2.3.0,Phases=3,Linecode=BT803_BT803_4_3_4_3,Length=0.034890000,Units=km
new line.SBT_1318790 bus1=BBT1536203.1.2.3.0,bus2=BBT3065948.1.2.3.0,Phases=3,Linecode=BT803_BT803_4_3_4_3,Length=0.023541000,Units=km
new line.SBT_1318797 bus1=BBT1536203.1.2.3.0,bus2=BBT1536210.1.2.3.0,Phases=3,Linecode=BT803_BT803_4_3_4_3,Length=0.037127000,Units=km
new line.SBT_1318804 bus1=BBT1536210.1.2.3.0,bus2=BBT3064674.1.2.3.0,Phases=3,Linecode=BT803_BT803_4_3_4_3,Length=0.018360000,Units=km
new line.SBT_1318811 bus1=BBT3066711.1.2.3.0,bus2=BBT3661389.1.2.3.0,Phases=3,Linecode=BT803_BT803_4_3_4_3,Length=0.032254000,Units=km
new line.SBT_1318825 bus1=BBT1536231.1.2.0,bus2=BBT1536238.1.2.0,Phases=2,Linecode=BT206_BT206_7_2_1_2,Length=0.000501000,Units=km
new line.SBT_1318853 bus1=BBT1536294.1.2.0,bus2=BBT5043987.1.2.0,Phases=2,Linecode=BT808_BT808_4_2_3_2,Length=0.032578000,Units=km
new line.SBT_1318860 bus1=BBT1536294.1.2.0,bus2=BBT3676817.1.2.0,Phases=2,Linecode=BT808_BT808_4_2_3_2,Length=0.042065000,Units=km
new line.SBT_1318867 bus1=BBT1536301.1.2.0,bus2=BBT1536294.1.2.0,Phases=2,Linecode=BT107_BT107_7_2_1_2,Length=0.028235000,Units=km
new line.SBT_1318874 bus1=BBT1536308.1.2.0,bus2=BBT1536301.1.2.0,Phases=2,Linecode=BT107_BT107_7_2_1_2,Length=0.034790000,Units=km
new line.SBT_1318881 bus1=BBT1536308.1.2.0,bus2=BBT1536392.1.2.0,Phases=2,Linecode=BT803_BT803_4_2_4_2,Length=0.024702000,Units=km
new line.SBT_1318888 bus1=BBT1536315.1.2.0,bus2=BBT1536308.1.2.0,Phases=2,Linecode=BT807_BT807_4_2_3_2,Length=0.038606000,Units=km
new line.SBT_1318895 bus1=BBT1536322.1.2.0,bus2=BBT1536315.1.2.0,Phases=2,Linecode=BT807_BT807_4_2_3_2,Length=0.037341000,Units=km
new line.SBT_1318902 bus1=BBT1536287.1.2.0,bus2=BBT1536322.1.2.0,Phases=2,Linecode=BT307_BT307_7_2_1_2,Length=0.000501000,Units=km
new line.SBT_1318909 bus1=BBT1536322.1.2.0,bus2=BBT5574034.1.2.0,Phases=2,Linecode=BT807_BT807_4_2_3_2,Length=0.036693000,Units=km
new line.SBT_1318916 bus1=BBT5574034.1.2.0,bus2=BBT1536329.1.2.0,Phases=2,Linecode=BT807_BT807_4_2_3_2,Length=0.038281000,Units=km
new line.SBT_1318923 bus1=BBT5574034.1.2.0,bus2=BBT1536371.1.2.0,Phases=2,Linecode=BT803_BT803_4_2_4_2,Length=0.025302000,Units=km
new line.SBT_1318930 bus1=BBT5574034.1.2.0,bus2=BBT5574027.1.2.0,Phases=2,Linecode=BT808_BT808_4_2_3_2,Length=0.031021000,Units=km
new line.SBT_1318937 bus1=BBT1536329.1.2.0,bus2=BBT1536336.1.2.0,Phases=2,Linecode=BT807_BT807_4_2_3_2,Length=0.034487000,Units=km
new line.SBT_1318944 bus1=BBT1536336.1.2.0,bus2=BBT1536343.1.2.0,Phases=2,Linecode=BT807_BT807_4_2_3_2,Length=0.024087000,Units=km
new line.SBT_1318951 bus1=BBT1536343.1.2.0,bus2=BBT1536350.1.2.0,Phases=2,Linecode=BT107_BT107_7_2_1_2,Length=0.031580000,Units=km
new line.SBT_1318958 bus1=BBT1536343.1.2.0,bus2=BBT1536364.1.2.0,Phases=2,Linecode=BT807_BT807_4_2_3_2,Length=0.034443000,Units=km
new line.SBT_1318965 bus1=BBT1536343.1.2.0,bus2=BBT3322022.1.2.0,Phases=2,Linecode=BT808_BT808_4_2_3_2,Length=0.038084000,Units=km
new line.SBT_1318972 bus1=BBT1536350.1.2.0,bus2=BBT1536357.1.2.0,Phases=2,Linecode=BT107_BT107_7_2_1_2,Length=0.025714000,Units=km
new line.SBT_1318979 bus1=BBT1536581.1.2.3.0,bus2=BBT1536588.1.2.3.0,Phases=3,Linecode=BT803_BT803_4_3_4_3,Length=0.026081000,Units=km
new line.SBT_1318986 bus1=BBT1536364.1.2.0,bus2=BBT3066676.1.2.0,Phases=2,Linecode=BT807_BT807_4_2_3_2,Length=0.025558000,Units=km
new line.SBT_1318993 bus1=BBT1536371.1.2.0,bus2=BBT1536378.1.2.0,Phases=2,Linecode=BT807_BT807_4_2_3_2,Length=0.026930000,Units=km
new line.SBT_1319000 bus1=BBT1536378.1.2.0,bus2=BBT1536385.1.2.0,Phases=2,Linecode=BT803_BT803_4_2_4_2,Length=0.035445000,Units=km
new line.SBT_1319007 bus1=BBT1536392.1.2.0,bus2=BBT1536399.1.2.0,Phases=2,Linecode=BT803_BT803_4_2_4_2,Length=0.026253000,Units=km
new line.SBT_1319014 bus1=BBT1536399.1.2.0,bus2=BBT1536406.1.2.0,Phases=2,Linecode=BT803_BT803_4_2_4_2,Length=0.040503000,Units=km
new line.SBT_1319021 bus1=BBT1536399.1.2.0,bus2=BBT5573992.1.2.0,Phases=2,Linecode=BT808_BT808_4_2_3_2,Length=0.035445000,Units=km
new line.SBT_1319028 bus1=BBT1536406.1.2.0,bus2=BBT3492227.1.2.0,Phases=2,Linecode=BT803_BT803_4_2_4_2,Length=0.036061000,Units=km
new line.SBT_1319049 bus1=BBT1536434.1.2.3.0,bus2=BBT4747138.1.2.3.0,Phases=3,Linecode=BT810_BT810_4_3_4_3,Length=0.044604000,Units=km
new line.SBT_1319063 bus1=BBT1536441.1.2.3.0,bus2=BBT1536434.1.2.3.0,Phases=3,Linecode=BT803_BT803_4_3_4_3,Length=0.043869000,Units=km
new line.SBT_1319070 bus1=BBT5006523.1.2.3.0,bus2=BBT1536441.1.2.3.0,Phases=3,Linecode=BT513_BT513_7_3_1_3,Length=0.000501000,Units=km
new line.SBT_1319077 bus1=BBT1536441.1.2.3.0,bus2=BBT1536455.1.2.3.0,Phases=3,Linecode=BT803_BT803_4_3_4_3,Length=0.036074000,Units=km
new line.SBT_1319091 bus1=BBT1536455.1.2.3.0,bus2=BBT1536462.1.2.3.0,Phases=3,Linecode=BT803_BT803_4_3_4_3,Length=0.005658000,Units=km
new line.SBT_1319098 bus1=BBT1536462.1.2.3.0,bus2=BBT1536448.1.2.3.0,Phases=3,Linecode=BT803_BT803_4_3_4_3,Length=0.012044000,Units=km
new line.SBT_1319105 bus1=BBT1536462.1.2.3.0,bus2=BBT1536476.1.2.3.0,Phases=3,Linecode=BT803_BT803_4_3_4_3,Length=0.016281000,Units=km
new line.SBT_1319112 bus1=BBT1536462.1.2.3.0,bus2=BBT1536490.1.2.3.0,Phases=3,Linecode=BT803_BT803_4_3_4_3,Length=0.029736000,Units=km
new line.SBT_1319119 bus1=BBT156976390.1.2.3.0,bus2=BBT3066711.1.2.3.0,Phases=3,Linecode=BT803_BT803_4_3_4_3,Length=0.022829000,Units=km
new line.SBT_1319126 bus1=BBT3065668.1.2.3.0,bus2=BBT3065675.1.2.3.0,Phases=3,Linecode=BT803_BT803_4_3_4_3,Length=0.025064000,Units=km
new line.SBT_1319133 bus1=BBT1536476.1.2.3.0,bus2=BBT1536504.1.2.3.0,Phases=3,Linecode=BT803_BT803_4_3_4_3,Length=0.028324000,Units=km
new line.SBT_1319140 bus1=BBT1536483.1.2.3.0,bus2=BBT1536532.1.2.3.0,Phases=3,Linecode=BT803_BT803_4_3_4_3,Length=0.034487000,Units=km
new line.SBT_1319147 bus1=BBT1536497.1.2.3.0,bus2=BBT1536469.1.2.3.0,Phases=3,Linecode=BT803_BT803_4_3_4_3,Length=0.024702000,Units=km
new line.SBT_1319161 bus1=BBT1536504.1.2.3.0,bus2=BBT1536546.1.2.3.0,Phases=3,Linecode=BT803_BT803_4_3_4_3,Length=0.029736000,Units=km
new line.SBT_1319168 bus1=BBT1536511.1.2.3.0,bus2=BBT1536497.1.2.3.0,Phases=3,Linecode=BT803_BT803_4_3_4_3,Length=0.019238000,Units=km
new line.SBT_1319175 bus1=BBT1536511.1.2.3.0,bus2=BBT1536518.1.2.3.0,Phases=3,Linecode=BT803_BT803_4_3_4_3,Length=0.007072000,Units=km
new line.SBT_1319182 bus1=BBT1536511.1.2.3.0,bus2=BBT3065521.1.2.3.0,Phases=3,Linecode=BT803_BT803_4_3_4_3,Length=0.018360000,Units=km
new line.SBT_1319189 bus1=BBT1536518.1.2.3.0,bus2=BBT1536539.1.2.3.0,Phases=3,Linecode=BT803_BT803_4_3_4_3,Length=0.032254000,Units=km
new line.SBT_1319196 bus1=BBT100838665.1.2.3.0,bus2=BBT3492073.1.2.3.0,Phases=3,Linecode=BT107_BT107_7_3_1_3,Length=0.009436000,Units=km
new line.SBT_1319203 bus1=BBT1536532.1.2.3.0,bus2=BBT1536553.1.2.3.0,Phases=3,Linecode=BT803_BT803_4_3_4_3,Length=0.037221000,Units=km
new line.SBT_1319210 bus1=BBT1536539.1.2.3.0,bus2=BBT1536567.1.2.3.0,Phases=3,Linecode=BT803_BT803_4_3_4_3,Length=0.032761000,Units=km
new line.SBT_1319217 bus1=BBT1536546.1.2.3.0,bus2=BBT5006530.1.2.3.0,Phases=3,Linecode=BT803_BT803_4_3_4_3,Length=0.031895000,Units=km
new line.SBT_1319224 bus1=BBT1536553.1.2.3.0,bus2=BBT1536581.1.2.3.0,Phases=3,Linecode=BT803_BT803_4_3_4_3,Length=0.036240000,Units=km
new line.SBT_1319231 bus1=BBT1536427.1.2.3.0,bus2=BBT1536560.1.2.3.0,Phases=3,Linecode=BT513_BT513_7_3_1_3,Length=0.000501000,Units=km
new line.SBT_1319238 bus1=BBT1536560.1.2.3.0,bus2=BBT1536595.1.2.3.0,Phases=3,Linecode=BT803_BT803_4_3_4_3,Length=0.022829000,Units=km
new line.SBT_1319245 bus1=BBT1536560.1.2.3.0,bus2=BBT1536651.1.2.3.0,Phases=3,Linecode=BT803_BT803_4_3_4_3,Length=0.019726000,Units=km
new line.SBT_1319252 bus1=BBT1536567.1.2.0,bus2=BBT5573936.1.2.0,Phases=2,Linecode=BT808_BT808_4_2_3_2,Length=0.041188000,Units=km
new line.SBT_1319259 bus1=BBT1536574.1.2.3.0,bus2=BBT100838665.1.2.3.0,Phases=3,Linecode=BT803_BT803_4_3_4_3,Length=0.037741000,Units=km
new line.SBT_1319266 bus1=BBT1536574.1.2.3.0,bus2=BBT1536616.1.2.3.0,Phases=3,Linecode=BT803_BT803_4_3_4_3,Length=0.031309000,Units=km
new line.SBT_1319273 bus1=BBT1536588.1.2.0,bus2=BBT5573943.1.2.0,Phases=2,Linecode=BT808_BT808_4_2_3_2,Length=0.034790000,Units=km
new line.SBT_1319280 bus1=BBT1536595.1.2.3.0,bus2=BBT1536602.1.2.3.0,Phases=3,Linecode=BT803_BT803_4_3_4_3,Length=0.004473000,Units=km
new line.SBT_1319287 bus1=BBT1536602.1.2.3.0,bus2=BBT1536574.1.2.3.0,Phases=3,Linecode=BT803_BT803_4_3_4_3,Length=0.023025000,Units=km
new line.SBT_1319294 bus1=BBT1536602.1.2.3.0,bus2=BBT1536609.1.2.3.0,Phases=3,Linecode=BT803_BT803_4_3_4_3,Length=0.010297000,Units=km
new line.SBT_1319301 bus1=BBT1536602.1.2.3.0,bus2=BBT1536630.1.2.3.0,Phases=3,Linecode=BT803_BT803_4_3_4_3,Length=0.026930000,Units=km
new line.SBT_1319308 bus1=BBT1536609.1.2.3.0,bus2=BBT1536623.1.2.3.0,Phases=3,Linecode=BT803_BT803_4_3_4_3,Length=0.032254000,Units=km
new line.SBT_1319315 bus1=BBT1536623.1.2.3.0,bus2=BBT1536637.1.2.3.0,Phases=3,Linecode=BT803_BT803_4_3_4_3,Length=0.036364000,Units=km
new line.SBT_1319322 bus1=BBT1536644.1.2.3.0,bus2=BBT171036067.1.2.3.0,Phases=3,Linecode=BT803_BT803_4_3_4_3,Length=0.032254000,Units=km
new line.SBT_1319329 bus1=BBT3065521.1.2.3.0,bus2=BBT3065661.1.2.3.0,Phases=3,Linecode=BT803_BT803_4_3_4_3,Length=0.017003000,Units=km
new line.SBT_1319336 bus1=BBT3065521.1.2.3.0,bus2=BBT3065668.1.2.3.0,Phases=3,Linecode=BT803_BT803_4_3_4_3,Length=0.005386000,Units=km
new line.SBT_1319343 bus1=BBT3065521.1.2.3.0,bus2=BBT1536483.1.2.3.0,Phases=3,Linecode=BT803_BT803_4_3_4_3,Length=0.004473000,Units=km
new line.SBT_1319350 bus1=BBT1536651.1.2.3.0,bus2=BBT1536511.1.2.3.0,Phases=3,Linecode=BT803_BT803_4_3_4_3,Length=0.009221000,Units=km
new line.SBT_1268439 bus1=BBT1472363.1.2.0,bus2=BBT1472370.1.2.0,Phases=2,Linecode=BT521_BT521_7_2_1_2,Length=0.000501000,Units=km
new line.SBT_1268460 bus1=BBT1472405.1.2.0,bus2=BBT1472412.1.2.0,Phases=2,Linecode=BT505_BT505_7_2_1_2,Length=0.000501000,Units=km
new line.SBT_1268467 bus1=BBT1472412.1.2.0,bus2=BBT4438991.1.2.0,Phases=2,Linecode=BT811_BT811_4_2_3_2,Length=0.056527000,Units=km
new line.SBT_1268474 bus1=BBT1472412.1.2.0,bus2=BBT4438312.1.2.0,Phases=2,Linecode=BT106_BT106_7_2_1_2,Length=0.080377000,Units=km
new line.SBT_1268481 bus1=BBT1472412.1.2.0,bus2=BBT4439019.1.2.0,Phases=2,Linecode=BT106_BT106_7_2_1_2,Length=0.071400000,Units=km
new line.SBT_1268586 bus1=BBT1472601.1.2.0,bus2=BBT1472608.1.2.0,Phases=2,Linecode=BT521_BT521_7_2_1_2,Length=0.000501000,Units=km
new line.SBT_1268642 bus1=BBT1472699.1.2.0,bus2=BBT1472706.1.2.0,Phases=2,Linecode=BT521_BT521_7_2_1_2,Length=0.000501000,Units=km
new line.SBT_1268649 bus1=BBT1472713.1.2.0,bus2=BBT1472720.1.2.0,Phases=2,Linecode=BT521_BT521_7_2_1_2,Length=0.000501000,Units=km
new line.SBT_1268775 bus1=BBT1472951.1.2.0,bus2=BBT1472958.1.2.0,Phases=2,Linecode=BT521_BT521_7_2_1_2,Length=0.000501000,Units=km
new line.SBT_1268817 bus1=BBT1473021.1.2.0,bus2=BBT1473028.1.2.0,Phases=2,Linecode=BT521_BT521_7_2_1_2,Length=0.000501000,Units=km
new line.SBT_1268824 bus1=BBT1473035.1.2.0,bus2=BBT1473042.1.2.0,Phases=2,Linecode=BT508_BT508_7_2_1_2,Length=0.000501000,Units=km
new line.SBT_1268866 bus1=BBT1473119.1.2.0,bus2=BBT1473126.1.2.0,Phases=2,Linecode=BT521_BT521_7_2_1_2,Length=0.000501000,Units=km
new line.SBT_1268880 bus1=BBT1473147.1.2.0,bus2=BBT1473154.1.2.0,Phases=2,Linecode=BT521_BT521_7_2_1_2,Length=0.000501000,Units=km
new line.SBT_1268936 bus1=BBT1473259.1.2.0,bus2=BBT1473266.1.2.0,Phases=2,Linecode=BT521_BT521_7_2_1_2,Length=0.000501000,Units=km
new line.SBT_1268971 bus1=BBT1473329.1.2.0,bus2=BBT1473336.1.2.0,Phases=2,Linecode=BT521_BT521_7_2_1_2,Length=0.000501000,Units=km
new line.SBT_1268978 bus1=BBT1473343.1.2.0,bus2=BBT1473350.1.2.0,Phases=2,Linecode=BT521_BT521_7_2_1_2,Length=0.000501000,Units=km
new line.SBT_1268999 bus1=BBT1473385.1.2.0,bus2=BBT1473392.1.2.0,Phases=2,Linecode=BT521_BT521_7_2_1_2,Length=0.000501000,Units=km
new line.SBT_1269020 bus1=BBT1473413.1.2.0,bus2=BBT1473420.1.2.0,Phases=2,Linecode=BT521_BT521_7_2_1_2,Length=0.000501000,Units=km
new line.SBT_1269104 bus1=BBT1473567.1.2.0,bus2=BBT1473574.1.2.0,Phases=2,Linecode=BT307_BT307_7_2_1_2,Length=0.000501000,Units=km
new line.SBT_1269118 bus1=BBT1473595.1.2.0,bus2=BBT1473602.1.2.0,Phases=2,Linecode=BT521_BT521_7_2_1_2,Length=0.000501000,Units=km
new line.SBT_1322290 bus1=BBT1539612.1.2.3.0,bus2=BBT1539619.1.2.3.0,Phases=3,Linecode=BT809_BT809_4_3_4_3,Length=0.028429000,Units=km
new line.SBT_1322297 bus1=BBT1678275.1.2.3.0,bus2=BBT1678289.1.2.3.0,Phases=3,Linecode=BT809_BT809_4_3_4_3,Length=0.026081000,Units=km
new line.SBT_1322304 bus1=BBT1539633.1.2.3.0,bus2=BBT1539612.1.2.3.0,Phases=3,Linecode=BT809_BT809_4_3_4_3,Length=0.032455000,Units=km
new line.SBT_1322311 bus1=BBT1539640.1.2.3.0,bus2=BBT1539626.1.2.3.0,Phases=3,Linecode=BT803_BT803_4_3_4_3,Length=0.034718000,Units=km
new line.SBT_1322318 bus1=BBT1539647.1.2.3.0,bus2=BBT1539640.1.2.3.0,Phases=3,Linecode=BT803_BT803_4_3_4_3,Length=0.027663000,Units=km
new line.SBT_1322325 bus1=BBT1539654.1.2.3.0,bus2=BBT1539633.1.2.3.0,Phases=3,Linecode=BT107_BT107_7_3_1_3,Length=0.029415000,Units=km
new line.SBT_1322332 bus1=BBT1539654.1.2.3.0,bus2=BBT1539647.1.2.3.0,Phases=3,Linecode=BT803_BT803_4_3_4_3,Length=0.006404000,Units=km
new line.SBT_1322339 bus1=BBT1539654.1.2.3.0,bus2=BBT1539661.1.2.3.0,Phases=3,Linecode=BT107_BT107_7_3_1_3,Length=0.005832000,Units=km
new line.SBT_1322346 bus1=BBT1539661.1.2.3.0,bus2=BBT1539675.1.2.3.0,Phases=3,Linecode=BT107_BT107_7_3_1_3,Length=0.031627000,Units=km
new line.SBT_1322353 bus1=BBT1539668.1.2.3.0,bus2=BBT1539654.1.2.3.0,Phases=3,Linecode=BT803_BT803_4_3_4_3,Length=0.036802000,Units=km
new line.SBT_1322360 bus1=BBT1539675.1.2.3.0,bus2=BBT1538541.1.2.3.0,Phases=3,Linecode=BT810_BT810_4_3_4_3,Length=0.028022000,Units=km
new line.SBT_1322367 bus1=BBT1539682.1.2.3.0,bus2=BBT1539668.1.2.3.0,Phases=3,Linecode=BT803_BT803_4_3_4_3,Length=0.034718000,Units=km
new line.SBT_1322374 bus1=BBT1539605.1.2.3.0,bus2=BBT1539682.1.2.3.0,Phases=3,Linecode=BT309_BT309_7_3_1_3,Length=0.000501000,Units=km
new line.SBT_1322381 bus1=BBT1539682.1.2.3.0,bus2=BBT1539689.1.2.3.0,Phases=3,Linecode=BT803_BT803_4_3_4_3,Length=0.034064000,Units=km
new line.SBT_1322388 bus1=BBT1754421.1.2.3.0,bus2=BBT1754428.1.2.3.0,Phases=3,Linecode=BT513_BT513_7_3_1_3,Length=0.000501000,Units=km
new line.SBT_1322395 bus1=BBT1539689.1.2.3.0,bus2=BBT1539696.1.2.3.0,Phases=3,Linecode=BT803_BT803_4_3_4_3,Length=0.034718000,Units=km
new line.SBT_1322402 bus1=BBT1539696.1.2.3.0,bus2=BBT1539703.1.2.3.0,Phases=3,Linecode=BT803_BT803_4_3_4_3,Length=0.036130000,Units=km
new line.SBT_1322409 bus1=BBT1539703.1.2.3.0,bus2=BBT1539710.1.2.3.0,Phases=3,Linecode=BT803_BT803_4_3_4_3,Length=0.035473000,Units=km
new line.SBT_1322773 bus1=BBT1540704.1.2.3.0,bus2=BBT1540697.1.2.3.0,Phases=3,Linecode=BT108_BT107_7_3_1_3,Length=0.011404000,Units=km
new line.SBT_1323326 bus1=BBT1540683.1.2.3.0,bus2=BBT1540676.1.2.3.0,Phases=3,Linecode=BT106_BT106_7_3_1_3,Length=0.045128000,Units=km
new line.SBT_1323333 bus1=BBT1540690.1.2.3.0,bus2=BBT1540683.1.2.3.0,Phases=3,Linecode=BT106_BT106_7_3_1_3,Length=0.023349000,Units=km
new line.SBT_1323340 bus1=BBT1540697.1.2.3.0,bus2=BBT1540690.1.2.3.0,Phases=3,Linecode=BT108_BT107_7_3_1_3,Length=0.038838000,Units=km
new line.SBT_1323347 bus1=BBT1540718.1.2.3.0,bus2=BBT1540704.1.2.3.0,Phases=3,Linecode=BT803_BT803_4_3_4_3,Length=0.031405000,Units=km
new line.SBT_1323354 bus1=BBT1540669.1.2.3.0,bus2=BBT1540718.1.2.3.0,Phases=3,Linecode=BT309_BT309_7_3_1_3,Length=0.000501000,Units=km
new line.SBT_1323361 bus1=BBT1540718.1.2.3.0,bus2=BBT1540767.1.2.3.0,Phases=3,Linecode=BT803_BT803_4_3_4_3,Length=0.014215000,Units=km
new line.SBT_1323368 bus1=BBT1540725.1.2.3.0,bus2=BBT1540711.1.2.3.0,Phases=3,Linecode=BT803_BT803_4_3_4_3,Length=0.040367000,Units=km
new line.SBT_1323375 bus1=BBT1540725.1.2.3.0,bus2=BBT1540732.1.2.3.0,Phases=3,Linecode=BT803_BT803_4_3_4_3,Length=0.009221000,Units=km
new line.SBT_1323382 bus1=BBT1540725.1.2.3.0,bus2=BBT1540739.1.2.3.0,Phases=3,Linecode=BT803_BT803_4_3_4_3,Length=0.032562000,Units=km
new line.SBT_1323389 bus1=BBT1540732.1.2.3.0,bus2=BBT1541299.1.2.3.0,Phases=3,Linecode=BT803_BT803_4_3_4_3,Length=0.041599000,Units=km
new line.SBT_1323396 bus1=BBT1540739.1.2.3.0,bus2=BBT1540746.1.2.3.0,Phases=3,Linecode=BT106_BT106_7_3_1_3,Length=0.033306000,Units=km