new load.BT_3000117897_M1 bus1=RML1002138301.1.2.0,Phases=2,kv=0.22,kW=1.42376,pf=0.92,Vminpu=0.92,Vmaxpu=1.5,model=8,zipv=[0.5,0,0.5,1,0,0,0],daily=RES1_2,status=variable
new load.BT_3000117898_M1 bus1=RML1002138980.1.0,Phases=1,kv=0.127,kW=2.37052,pf=0.92,Vminpu=0.92,Vmaxpu=1.5,model=8,zipv=[0.5,0,0.5,1,0,0,0],daily=RES1_2,status=variable
new load.BT_3000117899_M1 bus1=RML1002139001.3.0,Phases=1,kv=0.127,kW=1.04676,pf=0.92,Vminpu=0.92,Vmaxpu=1.5,model=8,zipv=[0.5,0,0.5,1,0,0,0],daily=RES1_2,status=variable
new load.BT_3000117900_M1 bus1=RML1002139015.3.0,Phases=1,kv=0.127,kW=0.0098,pf=0.92,Vminpu=0.92,Vmaxpu=1.5,model=8,zipv=[0.5,0,0.5,1,0,0,0],daily=RES1_2,status=variable
new load.BT_3000117901_M1 bus1=RML1002138987.1.2.3.0,Phases=3,kv=0.22,kW=1.80722,pf=0.92,Vminpu=0.92,Vmaxpu=1.5,model=8,zipv=[0.5,0,0.5,1,0,0,0],daily=COM1_5,status=variable
new load.BT_3000117902_M1 bus1=RML1002139057.1.2.0,Phases=2,kv=0.22,kW=1.84992,pf=0.92,Vminpu=0.92,Vmaxpu=1.5,model=8,zipv=[0.5,0,0.5,1,0,0,0],daily=RES1_2,status=variable
new load.BT_3000117903_M1 bus1=RML1002139085.1.0,Phases=1,kv=0.127,kW=0.44132,pf=0.92,Vminpu=0.92,Vmaxpu=1.5,model=8,zipv=[0.5,0,0.5,1,0,0,0],daily=RES1_2,status=variable
new load.BT_3000117904_M1 bus1=RML1002139064.1.2.3.0,Phases=3,kv=0.22,kW=0.31304,pf=0.92,Vminpu=0.92,Vmaxpu=1.5,model=8,zipv=[0.5,0,0.5,1,0,0,0],daily=COM1_5,status=variable
new load.BT_3000117905_M1 bus1=RML1002139106.2.0,Phases=1,kv=0.127,kW=0.5663,pf=0.92,Vminpu=0.92,Vmaxpu=1.5,model=8,zipv=[0.5,0,0.5,1,0,0,0],daily=RES1_2,status=variable
new load.BT_3000117906_M1 bus1=RML1002139239.3.1.0,Phases=2,kv=0.22,kW=2.89014,pf=0.92,Vminpu=0.92,Vmaxpu=1.5,model=8,zipv=[0.5,0,0.5,1,0,0,0],daily=RES1_2,status=variable
new load.BT_3000117907_M1 bus1=RML1002139323.2.3.0,Phases=2,kv=0.22,kW=1.73072,pf=0.92,Vminpu=0.92,Vmaxpu=1.5,model=8,zipv=[0.5,0,0.5,1,0,0,0],daily=RES1_2,status=variable
new load.BT_3000117908_M1 bus1=RML1002139316.1.0,Phases=1,kv=0.127,kW=0.38244,pf=0.92,Vminpu=0.92,Vmaxpu=1.5,model=8,zipv=[0.5,0,0.5,1,0,0,0],daily=RES1_2,status=variable
new load.BT_3000117909_M1 bus1=RML1002139309.2.3.0,Phases=2,kv=0.22,kW=0.4518,pf=0.92,Vminpu=0.92,Vmaxpu=1.5,model=8,zipv=[0.5,0,0.5,1,0,0,0],daily=RES1_2,status=variable
new load.BT_3000117910_M1 bus1=RML1010976164.1.2.0,Phases=2,kv=0.22,kW=2.85024,pf=0.92,Vminpu=0.92,Vmaxpu=1.5,model=8,zipv=[0.5,0,0.5,1,0,0,0],daily=RES1_2,status=variable
new load.BT_3000117923_M1 bus1=RML1002139505.2.0,Phases=1,kv=0.127,kW=1.10948,pf=0.92,Vminpu=0.92,Vmaxpu=1.5,model=8,zipv=[0.5,0,0.5,1,0,0,0],daily=RES1_2,status=variable
new load.BT_3000117924_M1 bus1=RML1002139498.3.1.0,Phases=2,kv=0.22,kW=1.45048,pf=0.92,Vminpu=0.92,Vmaxpu=1.5,model=8,zipv=[0.5,0,0.5,1,0,0,0],daily=RES1_2,status=variable
new load.BT_3000117925_M1 bus1=RML1002139365.2.3.0,Phases=2,kv=0.22,kW=0.0592,pf=0.92,Vminpu=0.92,Vmaxpu=1.5,model=8,zipv=[0.5,0,0.5,1,0,0,0],daily=COM1_5,status=variable
new load.BT_3000117926_M1 bus1=RML1002139351.2.0,Phases=1,kv=0.127,kW=1.04884,pf=0.92,Vminpu=0.92,Vmaxpu=1.5,model=8,zipv=[0.5,0,0.5,1,0,0,0],daily=RES1_2,status=variable
new load.BT_3000117927_M1 bus1=RML1002139463.3.0,Phases=1,kv=0.127,kW=0.0098,pf=0.92,Vminpu=0.92,Vmaxpu=1.5,model=8,zipv=[0.5,0,0.5,1,0,0,0],daily=RES1_2,status=variable
new load.BT_3000117928_M1 bus1=RML1002139484.1.2.0,Phases=2,kv=0.22,kW=1.54434,pf=0.92,Vminpu=0.92,Vmaxpu=1.5,model=8,zipv=[0.5,0,0.5,1,0,0,0],daily=RES1_2,status=variable
new load.BT_3000117929_M1 bus1=RML1002142480.1.0,Phases=1,kv=0.127,kW=2.2179,pf=0.92,Vminpu=0.92,Vmaxpu=1.5,model=8,zipv=[0.5,0,0.5,1,0,0,0],daily=RES1_2,status=variable
new load.BT_3000117930_M1 bus1=RML1002142494.1.0,Phases=1,kv=0.127,kW=1.06578,pf=0.92,Vminpu=0.92,Vmaxpu=1.5,model=8,zipv=[0.5,0,0.5,1,0,0,0],daily=RES1_2,status=variable
new load.BT_3000117932_M1 bus1=RML1002142515.3.0,Phases=1,kv=0.127,kW=1.83946,pf=0.92,Vminpu=0.92,Vmaxpu=1.5,model=8,zipv=[0.5,0,0.5,1,0,0,0],daily=RES1_2,status=variable
new load.BT_3000117934_M1 bus1=RML1002142550.3.0,Phases=1,kv=0.127,kW=1.35222,pf=0.92,Vminpu=0.92,Vmaxpu=1.5,model=8,zipv=[0.5,0,0.5,1,0,0,0],daily=RES1_2,status=variable
new load.BT_3000117935_M1 bus1=RML1002142543.2.0,Phases=1,kv=0.127,kW=0.04174,pf=0.92,Vminpu=0.92,Vmaxpu=1.5,model=8,zipv=[0.5,0,0.5,1,0,0,0],daily=RES1_2,status=variable
new load.BT_3000117936_M1 bus1=RML1002139512.1.0,Phases=1,kv=0.127,kW=1.86806,pf=0.92,Vminpu=0.92,Vmaxpu=1.5,model=8,zipv=[0.5,0,0.5,1,0,0,0],daily=RES1_2,status=variable
new load.BT_3000117937_M1 bus1=RML1002139491.2.3.0,Phases=2,kv=0.22,kW=1.48622,pf=0.92,Vminpu=0.92,Vmaxpu=1.5,model=8,zipv=[0.5,0,0.5,1,0,0,0],daily=RES1_2,status=variable
new load.BT_3000117938_M1 bus1=RML1002139477.1.2.0,Phases=2,kv=0.22,kW=0.64428,pf=0.92,Vminpu=0.92,Vmaxpu=1.5,model=8,zipv=[0.5,0,0.5,1,0,0,0],daily=RES1_2,status=variable
new load.BT_3000117939_M1 bus1=RML1002139330.3.0,Phases=1,kv=0.127,kW=0.0026,pf=0.92,Vminpu=0.92,Vmaxpu=1.5,model=8,zipv=[0.5,0,0.5,1,0,0,0],daily=COM1_5,status=variable
new load.BT_3000117940_M1 bus1=RML1002139302.1.2.0,Phases=2,kv=0.22,kW=2.65232,pf=0.92,Vminpu=0.92,Vmaxpu=1.5,model=8,zipv=[0.5,0,0.5,1,0,0,0],daily=RES1_2,status=variable
new load.BT_3000117941_M1 bus1=RML1002139281.1.2.0,Phases=2,kv=0.22,kW=2.76286,pf=0.92,Vminpu=0.92,Vmaxpu=1.5,model=8,zipv=[0.5,0,0.5,1,0,0,0],daily=RES1_2,status=variable
new load.BT_3000117942_M1 bus1=RML1002139274.1.2.0,Phases=2,kv=0.22,kW=1.43694,pf=0.92,Vminpu=0.92,Vmaxpu=1.5,model=8,zipv=[0.5,0,0.5,1,0,0,0],daily=RES1_2,status=variable
new load.BT_3000117944_M1 bus1=RML1002139162.3.0,Phases=1,kv=0.127,kW=0.59446,pf=0.92,Vminpu=0.92,Vmaxpu=1.5,model=8,zipv=[0.5,0,0.5,1,0,0,0],daily=RES1_2,status=variable
new load.BT_3000117945_M1 bus1=RML1002139183.2.3.0,Phases=2,kv=0.22,kW=0.49158,pf=0.92,Vminpu=0.92,Vmaxpu=1.5,model=8,zipv=[0.5,0,0.5,1,0,0,0],daily=RES1_2,status=variable
new load.BT_3000117946_M1 bus1=RML1002139190.2.3.0,Phases=2,kv=0.22,kW=1.68516,pf=0.92,Vminpu=0.92,Vmaxpu=1.5,model=8,zipv=[0.5,0,0.5,1,0,0,0],daily=RES1_2,status=variable
new load.BT_3000117947_M1 bus1=RML1002139204.1.0,Phases=1,kv=0.127,kW=0.7209,pf=0.92,Vminpu=0.92,Vmaxpu=1.5,model=8,zipv=[0.5,0,0.5,1,0,0,0],daily=RES1_2,status=variable
new load.BT_3000117948_M1 bus1=RML1002139211.3.0,Phases=1,kv=0.127,kW=1.34022,pf=0.92,Vminpu=0.92,Vmaxpu=1.5,model=8,zipv=[0.5,0,0.5,1,0,0,0],daily=RES1_2,status=variable
new load.BT_3000117949_M1 bus1=RML1002139197.2.0,Phases=1,kv=0.127,kW=0.7475,pf=0.92,Vminpu=0.92,Vmaxpu=1.5,model=8,zipv=[0.5,0,0.5,1,0,0,0],daily=RES1_2,status=variable
new load.BT_3000117950_M1 bus1=RML1002139155.2.0,Phases=1,kv=0.127,kW=0.0098,pf=0.92,Vminpu=0.92,Vmaxpu=1.5,model=8,zipv=[0.5,0,0.5,1,0,0,0],daily=RES1_2,status=variable
new load.BT_3000117951_M1 bus1=RML1002139169.3.0,Phases=1,kv=0.127,kW=1.23456,pf=0.92,Vminpu=0.92,Vmaxpu=1.5,model=8,zipv=[0.5,0,0.5,1,0,0,0],daily=RES1_2,status=variable
new load.BT_3000117952_M1 bus1=RML1002137209.2.3.0,Phases=2,kv=0.22,kW=1.45902,pf=0.92,Vminpu=0.92,Vmaxpu=1.5,model=8,zipv=[0.5,0,0.5,1,0,0,0],daily=RES1_2,status=variable
new load.BT_3000117953_M1 bus1=RML1002137223.2.3.0,Phases=2,kv=0.22,kW=1.60664,pf=0.92,Vminpu=0.92,Vmaxpu=1.5,model=8,zipv=[0.5,0,0.5,1,0,0,0],daily=RES1_2,status=variable
new load.BT_3000117954_M1 bus1=RML1002137237.2.3.0,Phases=2,kv=0.22,kW=0.90594,pf=0.92,Vminpu=0.92,Vmaxpu=1.5,model=8,zipv=[0.5,0,0.5,1,0,0,0],daily=RES1_2,status=variable
new load.BT_3000117955_M1 bus1=RML1002137251.2.0,Phases=1,kv=0.127,kW=1.2487,pf=0.92,Vminpu=0.92,Vmaxpu=1.5,model=8,zipv=[0.5,0,0.5,1,0,0,0],daily=RES1_2,status=variable
new load.BT_3000117956_M1 bus1=RML1002137181.3.0,Phases=1,kv=0.127,kW=1.15826,pf=0.92,Vminpu=0.92,Vmaxpu=1.5,model=8,zipv=[0.5,0,0.5,1,0,0,0],daily=RES1_2,status=variable
new load.BT_3000117957_M1 bus1=RML1002135697.1.0,Phases=1,kv=0.127,kW=1.02758,pf=0.92,Vminpu=0.92,Vmaxpu=1.5,model=8,zipv=[0.5,0,0.5,1,0,0,0],daily=RES1_2,status=variable
new load.BT_3000117959_M1 bus1=RML1002135690.1.2.0,Phases=2,kv=0.22,kW=1.90056,pf=0.92,Vminpu=0.92,Vmaxpu=1.5,model=8,zipv=[0.5,0,0.5,1,0,0,0],daily=RES1_2,status=variable
new load.BT_3000117960_M1 bus1=RML1002135753.2.0,Phases=1,kv=0.127,kW=1.02062,pf=0.92,Vminpu=0.92,Vmaxpu=1.5,model=8,zipv=[0.5,0,0.5,1,0,0,0],daily=RES1_2,status=variable
new load.BT_3000117961_M1 bus1=RML1002135739.1.0,Phases=1,kv=0.127,kW=1.19178,pf=0.92,Vminpu=0.92,Vmaxpu=1.5,model=8,zipv=[0.5,0,0.5,1,0,0,0],daily=RES1_2,status=variable
new load.BT_3000117962_M1 bus1=RML1002137195.1.0,Phases=1,kv=0.127,kW=1.21158,pf=0.92,Vminpu=0.92,Vmaxpu=1.5,model=8,zipv=[0.5,0,0.5,1,0,0,0],daily=RES1_2,status=variable
new load.BT_3000117963_M1 bus1=RML1002137230.1.2.0,Phases=2,kv=0.22,kW=0.26268,pf=0.92,Vminpu=0.92,Vmaxpu=1.5,model=8,zipv=[0.5,0,0.5,1,0,0,0],daily=RES1_2,status=variable
new load.BT_3000117964_M1 bus1=RML1002137216.2.0,Phases=1,kv=0.127,kW=1.15282,pf=0.92,Vminpu=0.92,Vmaxpu=1.5,model=8,zipv=[0.5,0,0.5,1,0,0,0],daily=RES1_2,status=variable
new load.BT_3000117965_M1 bus1=RML1002137202.1.0,Phases=1,kv=0.127,kW=0.8236,pf=0.92,Vminpu=0.92,Vmaxpu=1.5,model=8,zipv=[0.5,0,0.5,1,0,0,0],daily=RES1_2,status=variable
new load.BT_3000117966_M1 bus1=RML1002139295.3.1.0,Phases=2,kv=0.22,kW=0.9604,pf=0.92,Vminpu=0.92,Vmaxpu=1.5,model=8,zipv=[0.5,0,0.5,1,0,0,0],daily=RES1_2,status=variable
new load.BT_3000117967_M1 bus1=RML1002139344.1.0,Phases=1,kv=0.127,kW=1.07458,pf=0.92,Vminpu=0.92,Vmaxpu=1.5,model=8,zipv=[0.5,0,0.5,1,0,0,0],daily=RES1_2,status=variable
new load.BT_3000117968_M1 bus1=RML1002139358.3.0,Phases=1,kv=0.127,kW=0.72868,pf=0.92,Vminpu=0.92,Vmaxpu=1.5,model=8,zipv=[0.5,0,0.5,1,0,0,0],daily=RES1_2,status=variable
new load.BT_3000117969_M1 bus1=RML1002139386.2.0,Phases=1,kv=0.127,kW=2.5847,pf=0.92,Vminpu=0.92,Vmaxpu=1.5,model=8,zipv=[0.5,0,0.5,1,0,0,0],daily=RES1_2,status=variable
new load.BT_3000117970_M1 bus1=RML1002139379.2.0,Phases=1,kv=0.127,kW=1.28308,pf=0.92,Vminpu=0.92,Vmaxpu=1.5,model=8,zipv=[0.5,0,0.5,1,0,0,0],daily=RES1_2,status=variable
new load.BT_3000117971_M1 bus1=RML1002139372.1.0,Phases=1,kv=0.127,kW=1.09868,pf=0.92,Vminpu=0.92,Vmaxpu=1.5,model=8,zipv=[0.5,0,0.5,1,0,0,0],daily=RES1_2,status=variable
new load.BT_3000117974_M1 bus1=RML1002139232.1.0,Phases=1,kv=0.127,kW=0.506,pf=0.92,Vminpu=0.92,Vmaxpu=1.5,model=8,zipv=[0.5,0,0.5,1,0,0,0],daily=RES1_2,status=variable
new load.BT_3000117975_M1 bus1=RML1002139253.3.0,Phases=1,kv=0.127,kW=0.99486,pf=0.92,Vminpu=0.92,Vmaxpu=1.5,model=8,zipv=[0.5,0,0.5,1,0,0,0],daily=RES1_2,status=variable
new load.BT_3000117976_M1 bus1=RML1002139260.2.0,Phases=1,kv=0.127,kW=0.1808,pf=0.92,Vminpu=0.92,Vmaxpu=1.5,model=8,zipv=[0.5,0,0.5,1,0,0,0],daily=RES1_2,status=variable
new load.BT_3000117977_M1 bus1=RML1002137258.1.0,Phases=1,kv=0.127,kW=0.59534,pf=0.92,Vminpu=0.92,Vmaxpu=1.5,model=8,zipv=[0.5,0,0.5,1,0,0,0],daily=COM1_5,status=variable
new load.BT_3000117978_M1 bus1=RML1002139141.3.0,Phases=1,kv=0.127,kW=0.0098,pf=0.92,Vminpu=0.92,Vmaxpu=1.5,model=8,zipv=[0.5,0,0.5,1,0,0,0],daily=RES1_2,status=variable
new load.BT_3000117979_M1 bus1=RML1002139134.1.0,Phases=1,kv=0.127,kW=0.0098,pf=0.92,Vminpu=0.92,Vmaxpu=1.5,model=8,zipv=[0.5,0,0.5,1,0,0,0],daily=RES1_2,status=variable
new load.BT_3000117980_M1 bus1=RML1002139127.3.0,Phases=1,kv=0.127,kW=0.5351,pf=0.92,Vminpu=0.92,Vmaxpu=1.5,model=8,zipv=[0.5,0,0.5,1,0,0,0],daily=RES1_2,status=variable
new load.BT_3000117981_M1 bus1=RML1002139120.2.3.0,Phases=2,kv=0.22,kW=0.67304,pf=0.92,Vminpu=0.92,Vmaxpu=1.5,model=8,zipv=[0.5,0,0.5,1,0,0,0],daily=RES1_2,status=variable
new load.BT_3000117982_M1 bus1=RML1002139113.1.2.3.0,Phases=3,kv=0.22,kW=1.81644,pf=0.92,Vminpu=0.92,Vmaxpu=1.5,model=8,zipv=[0.5,0,0.5,1,0,0,0],daily=RES1_2,status=variable
new load.BT_3000117983_M1 bus1=RML1010905572.1.2.0,Phases=2,kv=0.22,kW=0.53304,pf=0.92,Vminpu=0.92,Vmaxpu=1.5,model=8,zipv=[0.5,0,0.5,1,0,0,0],daily=RES1_2,status=variable
new load.BT_3000117984_M1 bus1=RML1002139071.1.0,Phases=1,kv=0.127,kW=1.0326,pf=0.92,Vminpu=0.92,Vmaxpu=1.5,model=8,zipv=[0.5,0,0.5,1,0,0,0],daily=RES1_2,status=variable
new load.BT_3000117985_M1 bus1=RML1002139092.3.0,Phases=1,kv=0.127,kW=1.71088,pf=0.92,Vminpu=0.92,Vmaxpu=1.5,model=8,zipv=[0.5,0,0.5,1,0,0,0],daily=RES1_2,status=variable
new load.BT_3000117986_M1 bus1=RML1002139050.1.2.0,Phases=2,kv=0.22,kW=0.7098,pf=0.92,Vminpu=0.92,Vmaxpu=1.5,model=8,zipv=[0.5,0,0.5,1,0,0,0],daily=RES1_2,status=variable
new load.BT_3000117987_M1 bus1=RML1002139036.1.2.0,Phases=2,kv=0.22,kW=2.757,pf=0.92,Vminpu=0.92,Vmaxpu=1.5,model=8,zipv=[0.5,0,0.5,1,0,0,0],daily=RES1_2,status=variable
new load.BT_3000117988_M1 bus1=RML1002139029.1.2.0,Phases=2,kv=0.22,kW=1.69726,pf=0.92,Vminpu=0.92,Vmaxpu=1.5,model=8,zipv=[0.5,0,0.5,1,0,0,0],daily=RES1_2,status=variable
new load.BT_3000117989_M1 bus1=RML1002139022.3.0,Phases=1,kv=0.127,kW=0.0098,pf=0.92,Vminpu=0.92,Vmaxpu=1.5,model=8,zipv=[0.5,0,0.5,1,0,0,0],daily=RES1_2,status=variable
new load.BT_3000117990_M1 bus1=RML1002138994.2.0,Phases=1,kv=0.127,kW=0.97676,pf=0.92,Vminpu=0.92,Vmaxpu=1.5,model=8,zipv=[0.5,0,0.5,1,0,0,0],daily=RES1_2,status=variable
new load.BT_3000117991_M1 bus1=RML1002138322.1.2.3.0,Phases=3,kv=0.22,kW=1.18864,pf=0.92,Vminpu=0.92,Vmaxpu=1.5,model=8,zipv=[0.5,0,0.5,1,0,0,0],daily=RES1_2,status=variable
new load.BT_3000117992_M1 bus1=RML1002138315.1.2.3.0,Phases=3,kv=0.22,kW=0.458,pf=0.92,Vminpu=0.92,Vmaxpu=1.5,model=8,zipv=[0.5,0,0.5,1,0,0,0],daily=COM1_5,status=variable
new load.BT_3000117993_M1 bus1=RML1002138315.1.2.3.0,Phases=3,kv=0.22,kW=0.17524,pf=0.92,Vminpu=0.92,Vmaxpu=1.5,model=8,zipv=[0.5,0,0.5,1,0,0,0],daily=RES1_2,status=variable
new load.BT_3000117994_M1 bus1=RML1002138329.2.3.0,Phases=2,kv=0.22,kW=1.7389,pf=0.92,Vminpu=0.92,Vmaxpu=1.5,model=8,zipv=[0.5,0,0.5,1,0,0,0],daily=RES1_2,status=variable
new load.BT_3000117995_M1 bus1=RML1002138329.2.3.0,Phases=2,kv=0.22,kW=0.0026,pf=0.92,Vminpu=0.92,Vmaxpu=1.5,model=8,zipv=[0.5,0,0.5,1,0,0,0],daily=COM1_5,status=variable
new load.BT_3000117996_M1 bus1=RML1002138287.3.0,Phases=1,kv=0.127,kW=1.11332,pf=0.92,Vminpu=0.92,Vmaxpu=1.5,model=8,zipv=[0.5,0,0.5,1,0,0,0],daily=COM1_5,status=variable
new load.BT_3000118007_M1 bus1=RML1002125848.1.2.0,Phases=2,kv=0.24,kW=0.21588,pf=0.92,Vminpu=0.92,Vmaxpu=1.5,model=8,zipv=[0.5,0,0.5,1,0,0,0],daily=RUR1_10,status=variable
new load.BT_3000118212_M1 bus1=RML1002409327.1.2.3.0,Phases=3,kv=0.22,kW=19.94598,pf=0.92,Vminpu=0.92,Vmaxpu=1.5,model=8,zipv=[0.5,0,0.5,1,0,0,0],daily=RUR1_10,status=variable
new load.BT_3000118217_M1 bus1=RML1002125967.1.2.0,Phases=2,kv=0.24,kW=1.26676,pf=0.92,Vminpu=0.92,Vmaxpu=1.5,model=8,zipv=[0.5,0,0.5,1,0,0,0],daily=RUR1_10,status=variable
new load.BT_3000118218_M1 bus1=RML1002125862.1.2.0,Phases=2,kv=0.24,kW=2.90794,pf=0.92,Vminpu=0.92,Vmaxpu=1.5,model=8,zipv=[0.5,0,0.5,1,0,0,0],daily=RUR1_10,status=variable
new load.BT_3000118219_M1 bus1=RML1002125820.1.2.0,Phases=2,kv=0.24,kW=7.48328,pf=0.92,Vminpu=0.92,Vmaxpu=1.5,model=8,zipv=[0.5,0,0.5,1,0,0,0],daily=RUR1_10,status=variable
new load.BT_3000118220_M1 bus1=RML1002125715.1.2.0,Phases=2,kv=0.24,kW=0.6303,pf=0.92,Vminpu=0.92,Vmaxpu=1.5,model=8,zipv=[0.5,0,0.5,1,0,0,0],daily=COM1_5,status=variable
new load.BT_3000118221_M1 bus1=RML1002125694.1.2.0,Phases=2,kv=0.24,kW=5.92012,pf=0.92,Vminpu=0.92,Vmaxpu=1.5,model=8,zipv=[0.5,0,0.5,1,0,0,0],daily=RUR1_10,status=variable
new load.BT_3000118222_M1 bus1=RML1002125778.1.2.0,Phases=2,kv=0.24,kW=5.33586,pf=0.92,Vminpu=0.92,Vmaxpu=1.5,model=8,zipv=[0.5,0,0.5,1,0,0,0],daily=RUR1_10,status=variable
new load.BT_3000118403_M1 bus1=RML1002390399.1.2.0,Phases=2,kv=0.24,kW=0.87122,pf=0.92,Vminpu=0.92,Vmaxpu=1.5,model=8,zipv=[0.5,0,0.5,1,0,0,0],daily=RUR1_10,status=variable
new load.BT_3000118404_M1 bus1=RML1002152672.1.2.0,Phases=2,kv=0.24,kW=1.46774,pf=0.92,Vminpu=0.92,Vmaxpu=1.5,model=8,zipv=[0.5,0,0.5,1,0,0,0],daily=RUR1_10,status=variable
new load.BT_3000118405_M1 bus1=RML1002379808.1.2.0,Phases=2,kv=0.24,kW=7.62954,pf=0.92,Vminpu=0.92,Vmaxpu=1.5,model=8,zipv=[0.5,0,0.5,1,0,0,0],daily=RUR1_10,status=variable
new load.BT_3000118406_M1 bus1=RML1002152609.1.2.0,Phases=2,kv=0.24,kW=0.89156,pf=0.92,Vminpu=0.92,Vmaxpu=1.5,model=8,zipv=[0.5,0,0.5,1,0,0,0],daily=RUR1_10,status=variable
new load.BT_3000118408_M1 bus1=RML1002152196.1.2.0,Phases=2,kv=0.24,kW=0.0157,pf=0.92,Vminpu=0.92,Vmaxpu=1.5,model=8,zipv=[0.5,0,0.5,1,0,0,0],daily=RUR1_10,status=variable
new load.BT_3000118409_M1 bus1=RML1002151986.1.2.0,Phases=2,kv=0.24,kW=0.59614,pf=0.92,Vminpu=0.92,Vmaxpu=1.5,model=8,zipv=[0.5,0,0.5,1,0,0,0],daily=COM1_5,status=variable
new load.BT_3000118410_M1 bus1=RML1002390413.1.2.0,Phases=2,kv=0.24,kW=0.6204,pf=0.92,Vminpu=0.92,Vmaxpu=1.5,model=8,zipv=[0.5,0,0.5,1,0,0,0],daily=RUR1_10,status=variable
new load.BT_3000118411_M1 bus1=RML1002390427.1.2.0,Phases=2,kv=0.24,kW=1.73816,pf=0.92,Vminpu=0.92,Vmaxpu=1.5,model=8,zipv=[0.5,0,0.5,1,0,0,0],daily=RUR1_10,status=variable
new load.BT_3000118412_M1 bus1=RML1002152133.1.2.0,Phases=2,kv=0.24,kW=1.29258,pf=0.92,Vminpu=0.92,Vmaxpu=1.5,model=8,zipv=[0.5,0,0.5,1,0,0,0],daily=RUR1_10,status=variable
new load.BT_3000118413_M1 bus1=RML1002152035.1.2.0,Phases=2,kv=0.24,kW=0.00778,pf=0.92,Vminpu=0.92,Vmaxpu=1.5,model=8,zipv=[0.5,0,0.5,1,0,0,0],daily=RUR1_10,status=variable
new load.BT_3000118414_M1 bus1=RML1002152049.1.2.0,Phases=2,kv=0.24,kW=2.78636,pf=0.92,Vminpu=0.92,Vmaxpu=1.5,model=8,zipv=[0.5,0,0.5,1,0,0,0],daily=RUR1_10,status=variable
new load.BT_3000118415_M1 bus1=RML1002151937.1.2.0,Phases=2,kv=0.24,kW=0.00778,pf=0.92,Vminpu=0.92,Vmaxpu=1.5,model=8,zipv=[0.5,0,0.5,1,0,0,0],daily=RUR1_10,status=variable
new load.BT_3000118417_M1 bus1=RML1002151846.1.2.0,Phases=2,kv=0.24,kW=2.00844,pf=0.92,Vminpu=0.92,Vmaxpu=1.5,model=8,zipv=[0.5,0,0.5,1,0,0,0],daily=RUR1_10,status=variable
new load.BT_3000118418_M1 bus1=RML1002151874.1.2.0,Phases=2,kv=0.24,kW=0.67274,pf=0.92,Vminpu=0.92,Vmaxpu=1.5,model=8,zipv=[0.5,0,0.5,1,0,0,0],daily=RUR1_10,status=variable
new load.BT_3000118435_M1 bus1=RML1002149501.1.2.0,Phases=2,kv=0.24,kW=0.30364,pf=0.92,Vminpu=0.92,Vmaxpu=1.5,model=8,zipv=[0.5,0,0.5,1,0,0,0],daily=RUR1_10,status=variable
new load.BT_3000118436_M1 bus1=RML1002151958.1.2.0,Phases=2,kv=0.24,kW=1.79912,pf=0.92,Vminpu=0.92,Vmaxpu=1.5,model=8,zipv=[0.5,0,0.5,1,0,0,0],daily=RUR1_10,status=variable
new load.BT_3000118437_M1 bus1=RML1002152077.1.2.0,Phases=2,kv=0.24,kW=1.87856,pf=0.92,Vminpu=0.92,Vmaxpu=1.5,model=8,zipv=[0.5,0,0.5,1,0,0,0],daily=COM1_5,status=variable
new load.BT_3000118438_M1 bus1=RML1002152280.1.2.0,Phases=2,kv=0.24,kW=0.2202,pf=0.92,Vminpu=0.92,Vmaxpu=1.5,model=8,zipv=[0.5,0,0.5,1,0,0,0],daily=COM1_5,status=variable
new load.BT_3000118439_M1 bus1=RML1002152287.1.2.0,Phases=2,kv=0.24,kW=3.2524,pf=0.92,Vminpu=0.92,Vmaxpu=1.5,model=8,zipv=[0.5,0,0.5,1,0,0,0],daily=RUR1_10,status=variable
new load.BT_3000118440_M1 bus1=RML1002400465.1.2.0,Phases=2,kv=0.24,kW=0.46558,pf=0.92,Vminpu=0.92,Vmaxpu=1.5,model=8,zipv=[0.5,0,0.5,1,0,0,0],daily=COM1_5,status=variable
new load.BT_3000118441_M1 bus1=RML1002152497.1.2.0,Phases=2,kv=0.24,kW=88.86736,pf=0.92,Vminpu=0.92,Vmaxpu=1.5,model=8,zipv=[0.5,0,0.5,1,0,0,0],daily=RUR1_10,status=variable
new load.BT_3000118442_M1 bus1=RML1002152525.1.2.0,Phases=2,kv=0.24,kW=1.6201,pf=0.92,Vminpu=0.92,Vmaxpu=1.5,model=8,zipv=[0.5,0,0.5,1,0,0,0],daily=RUR1_10,status=variable
new load.BT_3000118443_M1 bus1=RML1002152574.1.2.0,Phases=2,kv=0.24,kW=0.41408,pf=0.92,Vminpu=0.92,Vmaxpu=1.5,model=8,zipv=[0.5,0,0.5,1,0,0,0],daily=RES1_2,status=variable
new load.BT_3000118444_M1 bus1=RML1002152581.1.2.0,Phases=2,kv=0.24,kW=0.36524,pf=0.92,Vminpu=0.92,Vmaxpu=1.5,model=8,zipv=[0.5,0,0.5,1,0,0,0],daily=COM1_5,status=variable
new load.BT_3000118445_M1 bus1=RML1002152637.1.2.0,Phases=2,kv=0.24,kW=1.33042,pf=0.92,Vminpu=0.92,Vmaxpu=1.5,model=8,zipv=[0.5,0,0.5,1,0,0,0],daily=RUR1_10,status=variable
new load.BT_3000118446_M1 bus1=RML1002152735.1.2.0,Phases=2,kv=0.24,kW=1.90728,pf=0.92,Vminpu=0.92,Vmaxpu=1.5,model=8,zipv=[0.5,0,0.5,1,0,0,0],daily=RUR1_10,status=variable
new load.BT_3000118447_M1 bus1=RML1002152819.1.2.0,Phases=2,kv=0.24,kW=0.42814,pf=0.92,Vminpu=0.92,Vmaxpu=1.5,model=8,zipv=[0.5,0,0.5,1,0,0,0],daily=RUR1_10,status=variable
new load.BT_3000118449_M1 bus1=RML1002152973.1.2.0,Phases=2,kv=0.24,kW=0.00778,pf=0.92,Vminpu=0.92,Vmaxpu=1.5,model=8,zipv=[0.5,0,0.5,1,0,0,0],daily=RUR1_10,status=variable
new load.BT_3000118450_M1 bus1=RML1002152959.1.2.0,Phases=2,kv=0.24,kW=0.09716,pf=0.92,Vminpu=0.92,Vmaxpu=1.5,model=8,zipv=[0.5,0,0.5,1,0,0,0],daily=COM1_5,status=variable
new load.BT_3000118451_M1 bus1=RML1002153127.1.2.0,Phases=2,kv=0.24,kW=1.44098,pf=0.92,Vminpu=0.92,Vmaxpu=1.5,model=8,zipv=[0.5,0,0.5,1,0,0,0],daily=RUR1_10,status=variable
new load.BT_3000118452_M1 bus1=RML1002153197.1.2.0,Phases=2,kv=0.24,kW=0.00778,pf=0.92,Vminpu=0.92,Vmaxpu=1.5,model=8,zipv=[0.5,0,0.5,1,0,0,0],daily=RUR1_10,status=variable
new load.BT_3000118453_M1 bus1=RML1002153169.1.2.0,Phases=2,kv=0.24,kW=0.07064,pf=0.92,Vminpu=0.92,Vmaxpu=1.5,model=8,zipv=[0.5,0,0.5,1,0,0,0],daily=RUR1_10,status=variable
new load.BT_3000118454_M1 bus1=RML1002153113.1.2.0,Phases=2,kv=0.24,kW=0.3161,pf=0.92,Vminpu=0.92,Vmaxpu=1.5,model=8,zipv=[0.5,0,0.5,1,0,0,0],daily=RUR1_10,status=variable
new load.BT_3000118455_M1 bus1=RML1002153141.1.2.0,Phases=2,kv=0.24,kW=0.06564,pf=0.92,Vminpu=0.92,Vmaxpu=1.5,model=8,zipv=[0.5,0,0.5,1,0,0,0],daily=COM1_5,status=variable
new load.BT_3000118456_M1 bus1=RML1002153183.1.2.0,Phases=2,kv=0.24,kW=1.916,pf=0.92,Vminpu=0.92,Vmaxpu=1.5,model=8,zipv=[0.5,0,0.5,1,0,0,0],daily=RUR1_10,status=variable
new load.BT_3000118457_M1 bus1=RML1002153225.1.2.0,Phases=2,kv=0.24,kW=0.82198,pf=0.92,Vminpu=0.92,Vmaxpu=1.5,model=8,zipv=[0.5,0,0.5,1,0,0,0],daily=RUR1_10,status=variable
new load.BT_3000118458_M1 bus1=RML1002153295.1.2.0,Phases=2,kv=0.24,kW=0.11482,pf=0.92,Vminpu=0.92,Vmaxpu=1.5,model=8,zipv=[0.5,0,0.5,1,0,0,0],daily=RUR1_10,status=variable
new load.BT_3000118459_M1 bus1=RML1002153358.1.2.0,Phases=2,kv=0.24,kW=0.00778,pf=0.92,Vminpu=0.92,Vmaxpu=1.5,model=8,zipv=[0.5,0,0.5,1,0,0,0],daily=RUR1_10,status=variable
new load.BT_3000118460_M1 bus1=RML1002153379.1.2.0,Phases=2,kv=0.24,kW=0.00778,pf=0.92,Vminpu=0.92,Vmaxpu=1.5,model=8,zipv=[0.5,0,0.5,1,0,0,0],daily=RUR1_10,status=variable
new load.BT_3000118461_M1 bus1=RML1002153372.1.2.0,Phases=2,kv=0.24,kW=8.4339,pf=0.92,Vminpu=0.92,Vmaxpu=1.5,model=8,zipv=[0.5,0,0.5,1,0,0,0],daily=RUR1_10,status=variable
new load.BT_3000118462_M1 bus1=RML1002153715.1.2.0,Phases=2,kv=0.24,kW=6.55016,pf=0.92,Vminpu=0.92,Vmaxpu=1.5,model=8,zipv=[0.5,0,0.5,1,0,0,0],daily=RES1_2,status=variable
new load.BT_3000118463_M1 bus1=RML1002153869.1.2.0,Phases=2,kv=0.24,kW=1.6001,pf=0.92,Vminpu=0.92,Vmaxpu=1.5,model=8,zipv=[0.5,0,0.5,1,0,0,0],daily=RUR1_10,status=variable
new load.BT_3000118464_M1 bus1=RML1002153897.1.2.0,Phases=2,kv=0.24,kW=3.72964,pf=0.92,Vminpu=0.92,Vmaxpu=1.5,model=8,zipv=[0.5,0,0.5,1,0,0,0],daily=RUR1_10,status=variable
new load.BT_3000118465_M1 bus1=RML1002154065.1.2.0,Phases=2,kv=0.24,kW=2.23088,pf=0.92,Vminpu=0.92,Vmaxpu=1.5,model=8,zipv=[0.5,0,0.5,1,0,0,0],daily=RUR1_10,status=variable
new load.BT_3000118467_M1 bus1=RML1002153946.1.2.0,Phases=2,kv=0.24,kW=0.8943,pf=0.92,Vminpu=0.92,Vmaxpu=1.5,model=8,zipv=[0.5,0,0.5,1,0,0,0],daily=COM1_5,status=variable
new load.BT_3000118468_M1 bus1=RML1002154093.1.2.0,Phases=2,kv=0.24,kW=1.30096,pf=0.92,Vminpu=0.92,Vmaxpu=1.5,model=8,zipv=[0.5,0,0.5,1,0,0,0],daily=RUR1_10,status=variable
new load.BT_3000118469_M1 bus1=RML1002154296.1.2.0,Phases=2,kv=0.24,kW=0.00778,pf=0.92,Vminpu=0.92,Vmaxpu=1.5,model=8,zipv=[0.5,0,0.5,1,0,0,0],daily=RUR1_10,status=variable
new load.BT_3000118470_M1 bus1=RML1002154338.1.2.0,Phases=2,kv=0.24,kW=0.0026,pf=0.92,Vminpu=0.92,Vmaxpu=1.5,model=8,zipv=[0.5,0,0.5,1,0,0,0],daily=COM1_5,status=variable
new load.BT_3000118471_M1 bus1=RML1002154275.1.2.0,Phases=2,kv=0.24,kW=2.3793,pf=0.92,Vminpu=0.92,Vmaxpu=1.5,model=8,zipv=[0.5,0,0.5,1,0,0,0],daily=RUR1_10,status=variable
new load.BT_3000118472_M1 bus1=RML1002421850.1.2.0,Phases=2,kv=0.24,kW=0.45524,pf=0.92,Vminpu=0.92,Vmaxpu=1.5,model=8,zipv=[0.5,0,0.5,1,0,0,0],daily=RUR1_10,status=variable
new load.BT_3000118473_M1 bus1=RML1002153911.1.2.0,Phases=2,kv=0.24,kW=0.52848,pf=0.92,Vminpu=0.92,Vmaxpu=1.5,model=8,zipv=[0.5,0,0.5,1,0,0,0],daily=COM1_5,status=variable
new load.BT_3000118474_M1 bus1=RML1002359914.1.2.0,Phases=2,kv=0.24,kW=1.46922,pf=0.92,Vminpu=0.92,Vmaxpu=1.5,model=8,zipv=[0.5,0,0.5,1,0,0,0],daily=RUR1_10,status=variable
new load.BT_3000118475_M1 bus1=RML1002154233.1.2.0,Phases=2,kv=0.24,kW=6.16924,pf=0.92,Vminpu=0.92,Vmaxpu=1.5,model=8,zipv=[0.5,0,0.5,1,0,0,0],daily=RUR1_10,status=variable
new load.BT_3000118476_M1 bus1=RML1002390483.1.2.0,Phases=2,kv=0.24,kW=5.16278,pf=0.92,Vminpu=0.92,Vmaxpu=1.5,model=8,zipv=[0.5,0,0.5,1,0,0,0],daily=RUR1_10,status=variable
new load.BT_3000118477_M1 bus1=RML1002390490.1.2.0,Phases=2,kv=0.24,kW=1.41032,pf=0.92,Vminpu=0.92,Vmaxpu=1.5,model=8,zipv=[0.5,0,0.5,1,0,0,0],daily=RUR1_10,status=variable
new load.BT_3000118478_M1 bus1=RML1002390497.1.2.0,Phases=2,kv=0.24,kW=0.30036,pf=0.92,Vminpu=0.92,Vmaxpu=1.5,model=8,zipv=[0.5,0,0.5,1,0,0,0],daily=RES1_2,status=variable
new load.BT_3000118479_M1 bus1=RML1004919177.1.2.0,Phases=2,kv=0.24,kW=7.37228,pf=0.92,Vminpu=0.92,Vmaxpu=1.5,model=8,zipv=[0.5,0,0.5,1,0,0,0],daily=RUR1_10,status=variable
new load.BT_3000118480_M1 bus1=RML1002153981.1.2.0,Phases=2,kv=0.24,kW=10.14428,pf=0.92,Vminpu=0.92,Vmaxpu=1.5,model=8,zipv=[0.5,0,0.5,1,0,0,0],daily=RUR1_10,status=variable
new load.BT_3000118481_M1 bus1=RML1002390511.1.2.0,Phases=2,kv=0.24,kW=0.4221,pf=0.92,Vminpu=0.92,Vmaxpu=1.5,model=8,zipv=[0.5,0,0.5,1,0,0,0],daily=RUR1_10,status=variable
new load.BT_3000118483_M1 bus1=RML1002390504.1.2.0,Phases=2,kv=0.24,kW=0.12746,pf=0.92,Vminpu=0.92,Vmaxpu=1.5,model=8,zipv=[0.5,0,0.5,1,0,0,0],daily=COM1_5,status=variable
new load.BT_3000118484_M1 bus1=RML1002153848.1.2.0,Phases=2,kv=0.24,kW=16.61574,pf=0.92,Vminpu=0.92,Vmaxpu=1.5,model=8,zipv=[0.5,0,0.5,1,0,0,0],daily=RUR1_10,status=variable
new load.BT_3000118485_M1 bus1=RML1002154030.1.2.0,Phases=2,kv=0.24,kW=4.16992,pf=0.92,Vminpu=0.92,Vmaxpu=1.5,model=8,zipv=[0.5,0,0.5,1,0,0,0],daily=RUR1_10,status=variable
new load.BT_3000118486_M1 bus1=RML1002153778.1.2.0,Phases=2,kv=0.24,kW=3.67252,pf=0.92,Vminpu=0.92,Vmaxpu=1.5,model=8,zipv=[0.5,0,0.5,1,0,0,0],daily=RUR1_10,status=variable
new load.BT_3000118487_M1 bus1=RML1002153771.1.2.0,Phases=2,kv=0.24,kW=0.0955,pf=0.92,Vminpu=0.92,Vmaxpu=1.5,model=8,zipv=[0.5,0,0.5,1,0,0,0],daily=RUR1_10,status=variable
new load.BT_3000118488_M1 bus1=RML1002390518.1.2.0,Phases=2,kv=0.24,kW=0.00778,pf=0.92,Vminpu=0.92,Vmaxpu=1.5,model=8,zipv=[0.5,0,0.5,1,0,0,0],daily=RUR1_10,status=variable
new load.BT_3000118489_M1 bus1=RML1004079135.1.2.0,Phases=2,kv=0.24,kW=0.00778,pf=0.92,Vminpu=0.92,Vmaxpu=1.5,model=8,zipv=[0.5,0,0.5,1,0,0,0],daily=RUR1_10,status=variable
new load.BT_3000118490_M1 bus1=RML1002153792.1.2.0,Phases=2,kv=0.24,kW=0.00778,pf=0.92,Vminpu=0.92,Vmaxpu=1.5,model=8,zipv=[0.5,0,0.5,1,0,0,0],daily=RUR1_10,status=variable
new load.BT_3000118491_M1 bus1=RML1002153596.1.2.0,Phases=2,kv=0.24,kW=4.55392,pf=0.92,Vminpu=0.92,Vmaxpu=1.5,model=8,zipv=[0.5,0,0.5,1,0,0,0],daily=COM1_5,status=variable
new load.BT_3000118492_M1 bus1=RML1002153659.1.2.0,Phases=2,kv=0.24,kW=16.20518,pf=0.92,Vminpu=0.92,Vmaxpu=1.5,model=8,zipv=[0.5,0,0.5,1,0,0,0],daily=RUR1_10,status=variable
new load.BT_3000118493_M1 bus1=RML1002393920.1.2.0,Phases=2,kv=0.24,kW=0.3294,pf=0.92,Vminpu=0.92,Vmaxpu=1.5,model=8,zipv=[0.5,0,0.5,1,0,0,0],daily=COM1_5,status=variable
new load.BT_3000118495_M1 bus1=RML1002152931.1.2.0,Phases=2,kv=0.24,kW=0.20516,pf=0.92,Vminpu=0.92,Vmaxpu=1.5,model=8,zipv=[0.5,0,0.5,1,0,0,0],daily=COM1_5,status=variable
new load.BT_3000118496_M1 bus1=RML1002152910.1.2.0,Phases=2,kv=0.24,kW=3.9698,pf=0.92,Vminpu=0.92,Vmaxpu=1.5,model=8,zipv=[0.5,0,0.5,1,0,0,0],daily=RUR1_10,status=variable
new load.BT_3000118497_M1 bus1=RML1002152833.1.2.0,Phases=2,kv=0.24,kW=0.11216,pf=0.92,Vminpu=0.92,Vmaxpu=1.5,model=8,zipv=[0.5,0,0.5,1,0,0,0],daily=RUR1_10,status=variable
new load.BT_3000118498_M1 bus1=RML1002152847.1.2.0,Phases=2,kv=0.24,kW=0.00778,pf=0.92,Vminpu=0.92,Vmaxpu=1.5,model=8,zipv=[0.5,0,0.5,1,0,0,0],daily=RUR1_10,status=variable
new load.BT_3000118499_M1 bus1=RML1002152749.1.2.0,Phases=2,kv=0.24,kW=0.06116,pf=0.92,Vminpu=0.92,Vmaxpu=1.5,model=8,zipv=[0.5,0,0.5,1,0,0,0],daily=RUR1_10,status=variable
new load.BT_3000118500_M1 bus1=RML1002152770.1.2.0,Phases=2,kv=0.24,kW=0.623,pf=0.92,Vminpu=0.92,Vmaxpu=1.5,model=8,zipv=[0.5,0,0.5,1,0,0,0],daily=COM1_5,status=variable
new load.BT_3000118501_M1 bus1=RML1002152616.1.2.0,Phases=2,kv=0.24,kW=0.3659,pf=0.92,Vminpu=0.92,Vmaxpu=1.5,model=8,zipv=[0.5,0,0.5,1,0,0,0],daily=RUR1_10,status=variable
new load.BT_3000118502_M1 bus1=RML1002152350.1.2.0,Phases=2,kv=0.24,kW=0.03614,pf=0.92,Vminpu=0.92,Vmaxpu=1.5,model=8,zipv=[0.5,0,0.5,1,0,0,0],daily=RUR1_10,status=variable
new load.BT_3000118503_M1 bus1=RML1002152504.1.2.0,Phases=2,kv=0.24,kW=1.22268,pf=0.92,Vminpu=0.92,Vmaxpu=1.5,model=8,zipv=[0.5,0,0.5,1,0,0,0],daily=RUR1_10,status=variable
new load.BT_3000118507_M1 bus1=RML1002348049.1.2.0,Phases=2,kv=0.24,kW=4.0395,pf=0.92,Vminpu=0.92,Vmaxpu=1.5,model=8,zipv=[0.5,0,0.5,1,0,0,0],daily=RUR1_10,status=variable
new load.BT_3000118508_M1 bus1=RML1002152245.1.2.0,Phases=2,kv=0.24,kW=0.1187,pf=0.92,Vminpu=0.92,Vmaxpu=1.5,model=8,zipv=[0.5,0,0.5,1,0,0,0],daily=COM1_5,status=variable
new load.BT_3000118509_M1 bus1=RML1002390567.1.2.0,Phases=2,kv=0.24,kW=0.54046,pf=0.92,Vminpu=0.92,Vmaxpu=1.5,model=8,zipv=[0.5,0,0.5,1,0,0,0],daily=COM1_5,status=variable
new load.BT_3000118510_M1 bus1=RML1002151930.1.2.0,Phases=2,kv=0.24,kW=0.04186,pf=0.92,Vminpu=0.92,Vmaxpu=1.5,model=8,zipv=[0.5,0,0.5,1,0,0,0],daily=COM1_5,status=variable
new load.BT_3000118511_M1 bus1=RML1002152189.1.2.0,Phases=2,kv=0.24,kW=1.48532,pf=0.92,Vminpu=0.92,Vmaxpu=1.5,model=8,zipv=[0.5,0,0.5,1,0,0,0],daily=RUR1_10,status=variable