new line.RBT_10032076 bus1=BBT134079194.1.0,bus2=RML1010032076.1.0,Phases=1,Linecode=CABBTG02_4_1_1,Length=0.029000000,Units=km
new line.RBT_10032078 bus1=BBT134078599.1.2.3.0,bus2=RML1010032078.1.2.3.0,Phases=3,Linecode=CABBTG06_4_3_3,Length=0.029000000,Units=km
new line.RBT_10032081 bus1=BBT134092256.3.0,bus2=RML1010032081.3.0,Phases=1,Linecode=CABBTG02_4_1_1,Length=0.029000000,Units=km
new line.RBT_10032354 bus1=BBT134092256.1.0,bus2=RML1010032354.1.0,Phases=1,Linecode=CABBTG02_4_1_1,Length=0.029000000,Units=km
new line.RBT_10032394 bus1=BBT134083562.3.0,bus2=RML1010032394.3.0,Phases=1,Linecode=CABBTG02_4_1_1,Length=0.029000000,Units=km
new line.RBT_10033156 bus1=BBT134083842.1.0,bus2=RML1010033156.1.0,Phases=1,Linecode=CABBTG02_4_1_1,Length=0.029000000,Units=km
new line.RBT_10054435 bus1=BBT4162162.2.0,bus2=RML1010054435.2.0,Phases=1,Linecode=CABBTG02_4_1_1,Length=0.019000000,Units=km
new line.RBT_10054454 bus1=BBT148561348.1.2.0,bus2=RML1010054454.1.2.0,Phases=2,Linecode=CABBTG05_4_2_2,Length=0.010000000,Units=km
new line.RBT_10055011 bus1=BBT134078970.1.0,bus2=RML1010055011.1.0,Phases=1,Linecode=CABBTG02_4_1_1,Length=0.012000000,Units=km
new line.RBT_10055022 bus1=BBT23188470.1.0,bus2=RML1010055022.1.0,Phases=1,Linecode=CABBTG02_4_1_1,Length=0.006000000,Units=km
new line.RBT_10055026 bus1=BBT23188477.1.0,bus2=RML1010055026.1.0,Phases=1,Linecode=CABBTG02_4_1_1,Length=0.012000000,Units=km
new line.RBT_10055029 bus1=BBT23154303.1.0,bus2=RML1010055029.1.0,Phases=1,Linecode=CABBTG02_4_1_1,Length=0.008000000,Units=km
new line.RBT_10055040 bus1=BBT134081868.1.0,bus2=RML1010055040.1.0,Phases=1,Linecode=CABBTG02_4_1_1,Length=0.012000000,Units=km
new line.RBT_10055375 bus1=BBT23154324.1.2.0,bus2=RML1010055375.1.2.0,Phases=2,Linecode=CABBTG05_4_2_2,Length=0.015000000,Units=km
new line.RBT_10055388 bus1=BBT134091878.1.2.0,bus2=RML1010055388.1.2.0,Phases=2,Linecode=CABBTG05_4_2_2,Length=0.020000000,Units=km
new line.RBT_10055402 bus1=BBT1545296.1.0,bus2=RML1010055402.1.0,Phases=1,Linecode=CABBTG02_4_1_1,Length=0.020000000,Units=km
new line.RBT_10055407 bus1=BBT1704959.2.0,bus2=RML1010055407.2.0,Phases=1,Linecode=CABBTG02_4_1_1,Length=0.015000000,Units=km
new line.RBT_10055423 bus1=BBT5612065.1.2.0,bus2=RML1010055423.1.2.0,Phases=2,Linecode=CABBTG05_4_2_2,Length=0.013000000,Units=km
new line.RBT_10055449 bus1=BBT134081938.3.0,bus2=RML1010055449.3.0,Phases=1,Linecode=CABBTG02_4_1_1,Length=0.018000000,Units=km
new line.RBT_10119583 bus1=BBT1705169.1.2.0,bus2=RML1010119583.1.2.0,Phases=2,Linecode=CABBTG05_4_2_2,Length=0.029000000,Units=km
new line.RBT_10119593 bus1=BBT1705022.1.2.0,bus2=RML1010119593.1.2.0,Phases=2,Linecode=CABBTG05_4_2_2,Length=0.029000000,Units=km
new line.RBT_10119601 bus1=BBT1537407.1.2.3.0,bus2=RML1010119601.1.2.3.0,Phases=3,Linecode=CABBTG06_4_3_3,Length=0.029000000,Units=km
new line.RBT_10119610 bus1=BBT1537015.1.2.0,bus2=RML1010119610.1.2.0,Phases=2,Linecode=CABBTG05_4_2_2,Length=0.029000000,Units=km
new line.RBT_10119612 bus1=BBT1537043.1.2.0,bus2=RML1010119612.1.2.0,Phases=2,Linecode=CABBTG05_4_2_2,Length=0.029000000,Units=km
new line.RBT_10119617 bus1=BBT179927490.1.2.3.0,bus2=RML1010119617.1.2.3.0,Phases=3,Linecode=CABBTG06_4_3_3,Length=0.029000000,Units=km
new line.RBT_10119634 bus1=BBT1553465.1.2.0,bus2=RML1010119634.1.2.0,Phases=2,Linecode=CABBTG05_4_2_2,Length=0.029000000,Units=km
new line.RBT_10119673 bus1=BBT1544162.1.0,bus2=RML1010119673.1.0,Phases=1,Linecode=CABBTG01_4_1_1,Length=0.029000000,Units=km
new line.RBT_10119695 bus1=BBT1705155.1.2.0,bus2=RML1010119695.1.2.0,Phases=2,Linecode=CABBTG04_4_2_2,Length=0.029000000,Units=km
new line.RBT_10119699 bus1=BBT1705155.1.2.0,bus2=RML1010119699.1.2.0,Phases=2,Linecode=CABBTG04_4_2_2,Length=0.029000000,Units=km
new line.RBT_10119728 bus1=BBT134084822.1.2.0,bus2=RML1010119728.1.2.0,Phases=2,Linecode=CABBTG05_4_2_2,Length=0.029000000,Units=km
new line.RBT_10119734 bus1=BBT134084794.1.2.0,bus2=RML1010119734.1.2.0,Phases=2,Linecode=CABBTG05_4_2_2,Length=0.029000000,Units=km
new line.RBT_10119745 bus1=BBT134091871.1.2.0,bus2=RML1010119745.1.2.0,Phases=2,Linecode=CABBTG05_4_2_2,Length=0.029000000,Units=km
new line.RBT_10119814 bus1=BBT1704903.1.2.0,bus2=RML1010119814.1.2.0,Phases=2,Linecode=CABBTG13_4_2_2,Length=0.029000000,Units=km
new line.RBT_10119821 bus1=BBT1705162.1.2.0,bus2=RML1010119821.1.2.0,Phases=2,Linecode=CABBTG13_4_2_2,Length=0.029000000,Units=km
new line.RBT_10119830 bus1=BBT138676878.1.2.0,bus2=RML1010119830.1.2.0,Phases=2,Linecode=CABBTG13_4_2_2,Length=0.029000000,Units=km
new line.RBT_10119834 bus1=BBT138677984.1.0,bus2=RML1010119834.1.0,Phases=1,Linecode=CABBTG02_4_1_1,Length=0.017000000,Units=km
new line.RBT_10119838 bus1=BBT1544029.3.1.0,bus2=RML1010119838.3.1.0,Phases=2,Linecode=CABBTG13_4_2_2,Length=0.029000000,Units=km
new line.RBT_10119850 bus1=BBT134094503.3.0,bus2=RML1010119850.3.0,Phases=1,Linecode=CABBTG02_4_1_1,Length=0.029000000,Units=km
new line.RBT_10119861 bus1=BBT134091647.1.2.0,bus2=RML1010119861.1.2.0,Phases=2,Linecode=CABBTG13_4_2_2,Length=0.029000000,Units=km
new line.RBT_10119888 bus1=BBT1543952.1.0,bus2=RML1010119888.1.0,Phases=1,Linecode=CABBTG02_4_1_1,Length=0.029000000,Units=km
new line.RBT_10119892 bus1=BBT134073587.1.2.0,bus2=RML1010119892.1.2.0,Phases=2,Linecode=CABBTG05_4_2_2,Length=0.029000000,Units=km
new line.RBT_10119900 bus1=BBT1704959.1.2.0,bus2=RML1010119900.1.2.0,Phases=2,Linecode=CABBTG13_4_2_2,Length=0.029000000,Units=km
new line.RBT_10119982 bus1=BBT134094524.1.2.0,bus2=RML1010119982.1.2.0,Phases=2,Linecode=CABBTG05_4_2_2,Length=0.029000000,Units=km
new line.RBT_10119988 bus1=BBT134092263.1.0,bus2=RML1010119988.1.0,Phases=1,Linecode=CABBTG02_4_1_1,Length=0.029000000,Units=km
new line.RBT_10119989 bus1=BBT134091619.1.2.0,bus2=RML1010119989.1.2.0,Phases=2,Linecode=CABBTG05_4_2_2,Length=0.029000000,Units=km
new line.RBT_10120020 bus1=BBT134088301.1.2.0,bus2=RML1010120020.1.2.0,Phases=2,Linecode=CABBTG05_4_2_2,Length=0.029000000,Units=km
new line.RBT_10120022 bus1=BBT134089442.1.2.0,bus2=RML1010120022.1.2.0,Phases=2,Linecode=CABBTG05_4_2_2,Length=0.029000000,Units=km
new line.RBT_10120041 bus1=BBT1537050.1.2.3.0,bus2=RML1010120041.1.2.3.0,Phases=3,Linecode=CABBTG07_4_3_3,Length=0.029000000,Units=km
new line.RBT_10120053 bus1=BBT4553098.1.0,bus2=RML1010120053.1.0,Phases=1,Linecode=CABBTG02_4_1_1,Length=0.012000000,Units=km
new line.RBT_10120057 bus1=BBT23179965.1.2.0,bus2=RML1010120057.1.2.0,Phases=2,Linecode=CABBTG13_4_2_2,Length=0.029000000,Units=km
new line.RBT_10120165 bus1=BBT23149690.1.2.0,bus2=RML1010120165.1.2.0,Phases=2,Linecode=CABBTG05_4_2_2,Length=0.029000000,Units=km
new line.RBT_10120190 bus1=BBT134089421.1.2.0,bus2=RML1010120190.1.2.0,Phases=2,Linecode=CABBTG05_4_2_2,Length=0.029000000,Units=km
new line.RBT_10120192 bus1=BBT134089421.1.2.0,bus2=RML1010120192.1.2.0,Phases=2,Linecode=CABBTG05_4_2_2,Length=0.029000000,Units=km
new line.RBT_10120198 bus1=BBT145608187.1.2.3.0,bus2=RML1010120198.1.2.3.0,Phases=3,Linecode=CABBT803_4_3_3,Length=0.017000000,Units=km
new line.RBT_10120209 bus1=BBT147843378.1.2.3.0,bus2=RML1010120209.1.2.3.0,Phases=3,Linecode=CABBTG06_4_3_3,Length=0.017000000,Units=km
new line.RBT_10120229 bus1=BBT147005555.1.2.0,bus2=RML1010120229.1.2.0,Phases=2,Linecode=CABBT808_4_2_2,Length=0.023000000,Units=km
new line.RBT_10120248 bus1=BBT148215938.1.2.0,bus2=RML1010120248.1.2.0,Phases=2,Linecode=CABBTG05_4_2_2,Length=0.017000000,Units=km
new line.RBT_10188099 bus1=BBT134092088.1.2.3.0,bus2=RML1010188099.1.2.3.0,Phases=3,Linecode=CABBTG07_4_3_3,Length=0.029000000,Units=km
new line.RBT_10188533 bus1=BBT1546934.1.2.0,bus2=RML1010188533.1.2.0,Phases=2,Linecode=CABBTG05_4_2_2,Length=0.017000000,Units=km
new line.RBT_10188693 bus1=BBT1706905.1.2.0,bus2=RML1010188693.1.2.0,Phases=2,Linecode=CABBTG05_4_2_2,Length=0.017000000,Units=km
new line.RBT_10239898 bus1=BBT1535993.1.2.0,bus2=RML1010239898.1.2.0,Phases=2,Linecode=CABBTG05_4_2_2,Length=0.017000000,Units=km
new line.RBT_10239905 bus1=BBT134094496.2.3.0,bus2=RML1010239905.2.3.0,Phases=2,Linecode=CABBTG05_4_2_2,Length=0.029000000,Units=km
new line.RBT_10239913 bus1=BBT13234862.1.0,bus2=RML1010239913.1.0,Phases=1,Linecode=CABBTG02_4_1_1,Length=0.029000000,Units=km
new line.RBT_10239952 bus1=BBT134092305.2.3.0,bus2=RML1010239952.2.3.0,Phases=2,Linecode=CABBTG05_4_2_2,Length=0.029000000,Units=km
new line.RBT_10239976 bus1=BBT23180868.1.0,bus2=RML1010239976.1.0,Phases=1,Linecode=CABBTG02_4_1_1,Length=0.029000000,Units=km
new line.RBT_10239992 bus1=BBT134089435.1.0,bus2=RML1010239992.1.0,Phases=1,Linecode=CABBTG02_4_1_1,Length=0.029000000,Units=km
new line.RBT_10239993 bus1=BBT134089435.3.0,bus2=RML1010239993.3.0,Phases=1,Linecode=CABBTG02_4_1_1,Length=0.029000000,Units=km
new line.RBT_10239994 bus1=BBT23154296.1.2.0,bus2=RML1010239994.1.2.0,Phases=2,Linecode=CABBTG05_4_2_2,Length=0.029000000,Units=km
new line.RBT_10239996 bus1=BBT134089463.3.0,bus2=RML1010239996.3.0,Phases=1,Linecode=CABBTG02_4_1_1,Length=0.029000000,Units=km
new line.RBT_10241757 bus1=BBT1705169.1.2.3.0,bus2=RML1010241757.1.2.3.0,Phases=3,Linecode=CABBTG07_4_3_3,Length=0.029000000,Units=km
new line.RBT_10262130 bus1=BBT134076919.1.2.3.0,bus2=RML1010262130.1.2.3.0,Phases=3,Linecode=CABBTG07_4_3_3,Length=0.029000000,Units=km
new line.RBT_10262541 bus1=BBT151365038.1.2.3.0,bus2=RML1010262541.1.2.3.0,Phases=3,Linecode=CABBT813_4_3_3,Length=0.017000000,Units=km
new line.RBT_10263921 bus1=BBT134092200.1.0,bus2=RML1010263921.1.0,Phases=1,Linecode=CABBTG02_4_1_1,Length=0.029000000,Units=km
new line.RBT_10264870 bus1=BBT151403486.1.2.0,bus2=RML1010264870.1.2.0,Phases=2,Linecode=CABBTG05_4_2_2,Length=0.017000000,Units=km
new line.RBT_10059303 bus1=BBT134084829.2.0,bus2=RML1010059303.2.0,Phases=1,Linecode=CABBTG02_4_1_1,Length=0.012000000,Units=km
new line.RBT_10060932 bus1=BBT134092256.3.1.0,bus2=RML1010060932.3.1.0,Phases=2,Linecode=CABBTG05_4_2_2,Length=0.010000000,Units=km
new line.RBT_10089970 bus1=BBT146110010.1.2.0,bus2=RML1010089970.1.2.0,Phases=2,Linecode=CABBTG05_4_2_2,Length=0.010000000,Units=km
new line.RBT_10194898 bus1=BBT1545198.1.2.0,bus2=RML1010194898.1.2.0,Phases=2,Linecode=CABBTG05_4_2_2,Length=0.029000000,Units=km
new line.RBT_10194902 bus1=BBT134089078.1.0,bus2=RML1010194902.1.0,Phases=1,Linecode=CABBTG02_4_1_1,Length=0.029000000,Units=km
new line.RBT_10194906 bus1=BBT134089078.3.0,bus2=RML1010194906.3.0,Phases=1,Linecode=CABBTG02_4_1_1,Length=0.029000000,Units=km
new line.RBT_10194910 bus1=BBT134089078.1.2.3.0,bus2=RML1010194910.1.2.3.0,Phases=3,Linecode=CABBTG12_4_3_3,Length=0.029000000,Units=km
new line.RBT_10194912 bus1=BBT1543077.3.0,bus2=RML1010194912.3.0,Phases=1,Linecode=CABBTG01_4_1_1,Length=0.029000000,Units=km
new line.RBT_10194914 bus1=BBT1539647.1.0,bus2=RML1010194914.1.0,Phases=1,Linecode=CABBTG03_4_1_1,Length=0.029000000,Units=km
new line.RBT_10194916 bus1=BBT134092221.1.0,bus2=RML1010194916.1.0,Phases=1,Linecode=CABBTG01_4_1_1,Length=0.029000000,Units=km
new line.RBT_10194917 bus1=BBT134092235.2.3.0,bus2=RML1010194917.2.3.0,Phases=2,Linecode=CABBTG05_4_2_2,Length=0.029000000,Units=km
new line.RBT_10194932 bus1=BBT134091885.2.0,bus2=RML1010194932.2.0,Phases=1,Linecode=CABBTG02_4_1_1,Length=0.029000000,Units=km
new line.RBT_10195029 bus1=BBT4156590.1.2.0,bus2=RML1010195029.1.2.0,Phases=2,Linecode=CABBTG05_4_2_2,Length=0.029000000,Units=km
new line.RBT_10195040 bus1=BBT134081868.3.0,bus2=RML1010195040.3.0,Phases=1,Linecode=CABBTG02_4_1_1,Length=0.029000000,Units=km
new line.RBT_10195044 bus1=BBT134081658.1.0,bus2=RML1010195044.1.0,Phases=1,Linecode=CABBTG02_4_1_1,Length=0.029000000,Units=km
new line.RBT_10195048 bus1=BBT1545261.1.0,bus2=RML1010195048.1.0,Phases=1,Linecode=CABBTG02_4_1_1,Length=0.029000000,Units=km
new line.RBT_10195077 bus1=BBT1536434.2.0,bus2=RML1010195077.2.0,Phases=1,Linecode=CABBTG02_4_1_1,Length=0.029000000,Units=km
new line.RBT_10195080 bus1=BBT134079194.1.0,bus2=RML1010195080.1.0,Phases=1,Linecode=CABBTG02_4_1_1,Length=0.029000000,Units=km
new line.RBT_10195087 bus1=BBT134092263.1.0,bus2=RML1010195087.1.0,Phases=1,Linecode=CABBTG02_4_1_1,Length=0.029000000,Units=km
new line.RBT_10195142 bus1=BBT1537911.3.1.0,bus2=RML1010195142.3.1.0,Phases=2,Linecode=CABBTG05_4_2_2,Length=0.029000000,Units=km
new line.RBT_10195159 bus1=BBT5013131.2.0,bus2=RML1010195159.2.0,Phases=1,Linecode=CABBTG02_4_1_1,Length=0.029000000,Units=km
new line.RBT_10195181 bus1=BBT23188596.1.2.0,bus2=RML1010195181.1.2.0,Phases=2,Linecode=CABBTG04_4_2_2,Length=0.029000000,Units=km
new line.RBT_10195191 bus1=BBT1537981.3.0,bus2=RML1010195191.3.0,Phases=1,Linecode=CABBTG02_4_1_1,Length=0.029000000,Units=km
new line.RBT_10195220 bus1=BBT1536399.1.0,bus2=RML1010195220.1.0,Phases=1,Linecode=CABBTG02_4_1_1,Length=0.029000000,Units=km
new line.RBT_10224864 bus1=BBT1537092.1.2.3.0,bus2=RML1010224864.1.2.3.0,Phases=3,Linecode=CABBTG06_4_3_3,Length=0.029000000,Units=km
new line.RBT_10224985 bus1=BBT20612267.1.0,bus2=RML1010224985.1.0,Phases=1,Linecode=CABBTG02_4_1_1,Length=0.029000000,Units=km
new line.RBT_10297593 bus1=BBT134092340.1.2.0,bus2=RML1010297593.1.2.0,Phases=2,Linecode=CABBTG05_4_2_2,Length=0.029000000,Units=km
new line.RBT_10297981 bus1=BBT134081875.3.0,bus2=RML1010297981.3.0,Phases=1,Linecode=CABBTG02_4_1_1,Length=0.029000000,Units=km
new line.RBT_10297985 bus1=BBT1542027.2.3.0,bus2=RML1010297985.2.3.0,Phases=2,Linecode=CABBTG05_4_2_2,Length=0.029000000,Units=km
new line.RBT_10298233 bus1=BBT138677165.1.2.0,bus2=RML1010298233.1.2.0,Phases=2,Linecode=CABBTG05_4_2_2,Length=0.029000000,Units=km
new line.RBT_10298257 bus1=BBT134089421.3.0,bus2=RML1010298257.3.0,Phases=1,Linecode=CABBTG02_4_1_1,Length=0.029000000,Units=km
new line.RBT_10298948 bus1=BBT4156590.1.2.0,bus2=RML1010298948.1.2.0,Phases=2,Linecode=CABBTG05_4_2_2,Length=0.029000000,Units=km
new line.RBT_10298949 bus1=BBT134079194.1.0,bus2=RML1010298949.1.0,Phases=1,Linecode=CABBTG02_4_1_1,Length=0.029000000,Units=km
new line.RBT_10324190 bus1=BBT134091885.1.2.0,bus2=RML1010324190.1.2.0,Phases=2,Linecode=CABBTG05_4_2_2,Length=0.029000000,Units=km
new line.RBT_10351863 bus1=BBT138676927.3.0,bus2=RML1010351863.3.0,Phases=1,Linecode=CABBTG02_4_1_1,Length=0.029000000,Units=km
new line.RBT_10353374 bus1=BBT96967910.1.2.0,bus2=RML1010353374.1.2.0,Phases=2,Linecode=CABBTG05_4_2_2,Length=0.029000000,Units=km
new line.RBT_10353786 bus1=BBT150905383.1.0,bus2=RML1010353786.1.0,Phases=1,Linecode=CABBTG02_4_1_1,Length=0.029000000,Units=km
new line.RBT_10051580 bus1=BBT148488045.1.2.0,bus2=RML1010051580.1.2.0,Phases=2,Linecode=CABBTG05_4_2_2,Length=0.015000000,Units=km
new line.RBT_10051598 bus1=BBT148489799.1.2.0,bus2=RML1010051598.1.2.0,Phases=2,Linecode=CABBT808_4_2_2,Length=0.022000000,Units=km
new line.RBT_10053889 bus1=BBT134094517.1.0,bus2=RML1010053889.1.0,Phases=1,Linecode=CABBTG02_4_1_1,Length=0.010000000,Units=km
new line.RBT_10053892 bus1=BBT1539668.1.2.3.0,bus2=RML1010053892.1.2.3.0,Phases=3,Linecode=CABBTG06_4_3_3,Length=0.020000000,Units=km
new line.RBT_10053944 bus1=BBT23154289.2.0,bus2=RML1010053944.2.0,Phases=1,Linecode=CABBTG02_4_1_1,Length=0.015000000,Units=km
new line.RBT_10054047 bus1=BBT1539689.1.0,bus2=RML1010054047.1.0,Phases=1,Linecode=CABBTG01_4_1_1,Length=0.029000000,Units=km
new line.RBT_10054048 bus1=BBT134089428.2.0,bus2=RML1010054048.2.0,Phases=1,Linecode=CABBTG02_4_1_1,Length=0.021000000,Units=km
new line.RBT_10054049 bus1=BBT4156429.2.0,bus2=RML1010054049.2.0,Phases=1,Linecode=CABBTG02_4_1_1,Length=0.011000000,Units=km
new line.RBT_10054195 bus1=BBT4552867.2.0,bus2=RML1010054195.2.0,Phases=1,Linecode=CABBTG02_4_1_1,Length=0.017000000,Units=km
new line.RBT_10069903 bus1=BBT23149690.2.0,bus2=RML1010069903.2.0,Phases=1,Linecode=CABBTG02_4_1_1,Length=0.029000000,Units=km
new line.RBT_10071652 bus1=BBT3689004.3.1.0,bus2=RML1010071652.3.1.0,Phases=2,Linecode=CABBTG05_4_2_2,Length=0.029000000,Units=km
new line.RBT_10071726 bus1=BBT138676920.1.2.0,bus2=RML1010071726.1.2.0,Phases=2,Linecode=CABBTG05_4_2_2,Length=0.018000000,Units=km
new line.RBT_10071857 bus1=BBT23154380.1.2.0,bus2=RML1010071857.1.2.0,Phases=2,Linecode=CABBTG05_4_2_2,Length=0.013000000,Units=km
new line.RBT_10102474 bus1=BBT134092270.3.0,bus2=RML1010102474.3.0,Phases=1,Linecode=CABBTG02_4_1_1,Length=0.017000000,Units=km
new line.RBT_10131987 bus1=BBT143682767.1.2.3.0,bus2=RML1010131987.1.2.3.0,Phases=3,Linecode=CABBTG10_4_3_3,Length=0.022000000,Units=km
new line.RBT_10132087 bus1=BBT134091878.1.0,bus2=RML1010132087.1.0,Phases=1,Linecode=CABBTG02_4_1_1,Length=0.029000000,Units=km
new line.RBT_10204865 bus1=BBT3689025.2.0,bus2=RML1010204865.2.0,Phases=1,Linecode=CABBTG02_4_1_1,Length=0.017000000,Units=km
new line.RBT_10229149 bus1=BBT3066711.1.2.0,bus2=RML1010229149.1.2.0,Phases=2,Linecode=CABBTG05_4_2_2,Length=0.029000000,Units=km
new line.RBT_10229191 bus1=BBT4554708.1.2.0,bus2=RML1010229191.1.2.0,Phases=2,Linecode=CABBTG05_4_2_2,Length=0.029000000,Units=km
new line.RBT_10229200 bus1=BBT1544225.1.2.0,bus2=RML1010229200.1.2.0,Phases=2,Linecode=CABBTG05_4_2_2,Length=0.029000000,Units=km
new line.RBT_10229209 bus1=BBT1678268.1.2.3.0,bus2=RML1010229209.1.2.3.0,Phases=3,Linecode=CABBTG06_4_3_3,Length=0.029000000,Units=km
new line.RBT_10229213 bus1=BBT1678240.1.0,bus2=RML1010229213.1.0,Phases=1,Linecode=CABBTG01_4_1_1,Length=0.029000000,Units=km
new line.RBT_10229268 bus1=BBT138676507.1.0,bus2=RML1010229268.1.0,Phases=1,Linecode=CABBTG01_4_1_1,Length=0.029000000,Units=km
new line.RBT_10230063 bus1=BBT134091640.1.0,bus2=RML1010230063.1.0,Phases=1,Linecode=CABBTG02_4_1_1,Length=0.029000000,Units=km
new line.RBT_10230064 bus1=BBT134073342.1.2.0,bus2=RML1010230064.1.2.0,Phases=2,Linecode=CABBTG13_4_2_2,Length=0.029000000,Units=km
new line.RBT_10230073 bus1=BBT1536945.1.2.3.0,bus2=RML1010230073.1.2.3.0,Phases=3,Linecode=CABBTG07_4_3_3,Length=0.029000000,Units=km
new line.RBT_10230079 bus1=BBT134091878.1.2.0,bus2=RML1010230079.1.2.0,Phases=2,Linecode=CABBTG13_4_2_2,Length=0.029000000,Units=km
new line.RBT_10230083 bus1=BBT134078599.2.0,bus2=RML1010230083.2.0,Phases=1,Linecode=CABBTG02_4_1_1,Length=0.029000000,Units=km
new line.RBT_10258470 bus1=BBT134081714.2.0,bus2=RML1010258470.2.0,Phases=1,Linecode=CABBTG02_4_1_1,Length=0.029000000,Units=km
new line.RBT_10259460 bus1=BBT1537960.1.0,bus2=RML1010259460.1.0,Phases=1,Linecode=CABBTG02_4_1_1,Length=0.029000000,Units=km
new line.RBT_10393470 bus1=BBT153472972.1.2.0,bus2=RML1010393470.1.2.0,Phases=2,Linecode=CABBTG05_4_2_2,Length=0.017000000,Units=km
new line.RBT_10393658 bus1=BBT138678530.1.2.0,bus2=RML1010393658.1.2.0,Phases=2,Linecode=CABBTG05_4_2_2,Length=0.017000000,Units=km
new line.RBT_10393832 bus1=BBT134088847.1.0,bus2=RML1010393832.1.0,Phases=1,Linecode=CABBTG02_4_1_1,Length=0.029000000,Units=km
new line.RBT_10418195 bus1=BBT168096596.1.2.0,bus2=RML1010418195.1.2.0,Phases=2,Linecode=CABBT807_4_2_2,Length=0.010000000,Units=km
new line.RBT_10418227 bus1=BBT138676794.1.2.0,bus2=RML1010418227.1.2.0,Phases=2,Linecode=CABBTG05_4_2_2,Length=0.029000000,Units=km
new line.RBT_10446859 bus1=BBT134078088.2.3.0,bus2=RML1010446859.2.3.0,Phases=2,Linecode=CABBTG05_4_2_2,Length=0.017000000,Units=km
new line.RBT_10446865 bus1=BBT134092228.1.2.0,bus2=RML1010446865.1.2.0,Phases=2,Linecode=CABBTG13_4_2_2,Length=0.029000000,Units=km
new line.RBT_10045085 bus1=BBT134091871.2.0,bus2=RML1010045085.2.0,Phases=1,Linecode=CABBTG02_4_1_1,Length=0.029000000,Units=km
new line.RBT_10045181 bus1=BBT4162162.2.0,bus2=RML1010045181.2.0,Phases=1,Linecode=CABBTG02_4_1_1,Length=0.029000000,Units=km
new line.RBT_10045712 bus1=BBT4162253.1.0,bus2=RML1010045712.1.0,Phases=1,Linecode=CABBTG02_4_1_1,Length=0.029000000,Units=km
new line.RBT_10046401 bus1=BBT1553479.1.2.0,bus2=RML1010046401.1.2.0,Phases=2,Linecode=CABBTG05_4_2_2,Length=0.020000000,Units=km
new line.RBT_10064098 bus1=BBT134088427.1.0,bus2=RML1010064098.1.0,Phases=1,Linecode=CABBTG02_4_1_1,Length=0.013000000,Units=km
new line.RBT_10064753 bus1=BBT148835389.1.2.0,bus2=RML1010064753.1.2.0,Phases=2,Linecode=CABBT807_4_2_2,Length=0.008000000,Units=km
new line.RBT_10065333 bus1=BBT148856001.1.2.0,bus2=RML1010065333.1.2.0,Phases=2,Linecode=CABBTG05_4_2_2,Length=0.008000000,Units=km
new line.RBT_10065403 bus1=BBT148856375.1.2.0,bus2=RML1010065403.1.2.0,Phases=2,Linecode=CABBTG05_4_2_2,Length=0.010000000,Units=km
new line.RBT_10065419 bus1=BBT148858952.1.2.0,bus2=RML1010065419.1.2.0,Phases=2,Linecode=CABBTG05_4_2_2,Length=0.008000000,Units=km
new line.RBT_10086472 bus1=BBT134092221.1.2.0,bus2=RML1010086472.1.2.0,Phases=2,Linecode=CABBTG05_4_2_2,Length=0.015000000,Units=km
new line.RBT_10086503 bus1=BBT1545261.1.0,bus2=RML1010086503.1.0,Phases=1,Linecode=CABBTG02_4_1_1,Length=0.018000000,Units=km
new line.RBT_10113949 bus1=BBT138676871.1.2.0,bus2=RML1010113949.1.2.0,Phases=2,Linecode=CABBTG05_4_2_2,Length=0.015000000,Units=km
new line.RBT_10115727 bus1=BBT134094503.1.2.0,bus2=RML1010115727.1.2.0,Phases=2,Linecode=CABBTG05_4_2_2,Length=0.023000000,Units=km
new line.RBT_10115776 bus1=BBT4156443.2.0,bus2=RML1010115776.2.0,Phases=1,Linecode=CABBTG02_4_1_1,Length=0.010000000,Units=km
new line.RBT_10116269 bus1=BBT134091640.2.0,bus2=RML1010116269.2.0,Phases=1,Linecode=CABBTG02_4_1_1,Length=0.010000000,Units=km
new line.RBT_10200757 bus1=BBT1541950.3.0,bus2=RML1010200757.3.0,Phases=1,Linecode=CABBTG02_4_1_1,Length=0.029000000,Units=km
new line.RBT_10200760 bus1=BBT134084836.2.0,bus2=RML1010200760.2.0,Phases=1,Linecode=CABBTG02_4_1_1,Length=0.029000000,Units=km
new line.RBT_10200824 bus1=BBT134094594.2.0,bus2=RML1010200824.2.0,Phases=1,Linecode=CABBTG02_4_1_1,Length=0.029000000,Units=km
new line.RBT_10200827 bus1=BBT134088399.2.3.0,bus2=RML1010200827.2.3.0,Phases=2,Linecode=CABBTG05_4_2_2,Length=0.029000000,Units=km
new line.RBT_10200839 bus1=BBT1537911.1.0,bus2=RML1010200839.1.0,Phases=1,Linecode=CABBTG02_4_1_1,Length=0.029000000,Units=km
new line.RBT_10200850 bus1=BBT23154289.2.0,bus2=RML1010200850.2.0,Phases=1,Linecode=CABBTG02_4_1_1,Length=0.029000000,Units=km
new line.RBT_10200877 bus1=BBT3688990.1.0,bus2=RML1010200877.1.0,Phases=1,Linecode=CABBTG02_4_1_1,Length=0.029000000,Units=km
new line.RBT_10235270 bus1=BBT134092326.1.2.3.0,bus2=RML1010235270.1.2.3.0,Phases=3,Linecode=CABBTG06_4_3_3,Length=0.029000000,Units=km
new line.RBT_10266290 bus1=BBT134088840.2.0,bus2=RML1010266290.2.0,Phases=1,Linecode=CABBTG02_4_1_1,Length=0.029000000,Units=km
new line.RBT_10302351 bus1=BBT151979311.1.2.0,bus2=RML1010302351.1.2.0,Phases=2,Linecode=CABBTG05_4_2_2,Length=0.030000000,Units=km
new line.RBT_10339378 bus1=BBT23197969.1.2.0,bus2=RML1010339378.1.2.0,Phases=2,Linecode=CABBTG05_4_2_2,Length=0.029000000,Units=km
new line.RBT_10339404 bus1=BBT23154457.1.2.0,bus2=RML1010339404.1.2.0,Phases=2,Linecode=CABBTG05_4_2_2,Length=0.029000000,Units=km
new line.RBT_10366598 bus1=BBT1553325.3.1.0,bus2=RML1010366598.3.1.0,Phases=2,Linecode=CABBTG05_4_2_2,Length=0.029000000,Units=km
new line.RBT_10366631 bus1=BBT138656648.3.0,bus2=RML1010366631.3.0,Phases=1,Linecode=CABBTG02_4_1_1,Length=0.029000000,Units=km
new line.RBT_10368598 bus1=BBT134092340.2.3.0,bus2=RML1010368598.2.3.0,Phases=2,Linecode=CABBTG05_4_2_2,Length=0.029000000,Units=km
new line.RBT_10403567 bus1=BBT153713627.1.2.0,bus2=RML1010403567.1.2.0,Phases=2,Linecode=CABBTG05_4_2_2,Length=0.014000000,Units=km
new line.RBT_10404566 bus1=BBT1544183.3.0,bus2=RML1010404566.3.0,Phases=1,Linecode=CABBTG02_4_1_1,Length=0.029000000,Units=km
new line.RBT_10406199 bus1=BBT138678341.1.0,bus2=RML1010406199.1.0,Phases=1,Linecode=CABBTG02_4_1_1,Length=0.017000000,Units=km
new line.RBT_10406208 bus1=BBT134089526.1.2.0,bus2=RML1010406208.1.2.0,Phases=2,Linecode=CABBTG05_4_2_2,Length=0.029000000,Units=km
new line.RBT_10406886 bus1=BBT23149718.1.2.0,bus2=RML1010406886.1.2.0,Phases=2,Linecode=CABBTG05_4_2_2,Length=0.029000000,Units=km
new line.RBT_10439531 bus1=BBT1535860.1.2.0,bus2=RML1010439531.1.2.0,Phases=2,Linecode=CABBTG05_4_2_2,Length=0.017000000,Units=km
new line.RBT_10475653 bus1=BBT138676696.1.0,bus2=RML1010475653.1.0,Phases=1,Linecode=CABBTG02_4_1_1,Length=0.029000000,Units=km
new line.RBT_10050090 bus1=BBT134077927.1.2.3.0,bus2=RML1010050090.1.2.3.0,Phases=3,Linecode=CABBTG06_4_3_3,Length=0.011000000,Units=km
new line.RBT_10050094 bus1=BBT134079208.1.0,bus2=RML1010050094.1.0,Phases=1,Linecode=CABBTG02_4_1_1,Length=0.013000000,Units=km
new line.RBT_10078481 bus1=BBT149218885.1.2.0,bus2=RML1010078481.1.2.0,Phases=2,Linecode=CABBT808_4_2_2,Length=0.018000000,Units=km
new line.RBT_10079077 bus1=BBT149224170.1.2.0,bus2=RML1010079077.1.2.0,Phases=2,Linecode=CABBTG05_4_2_2,Length=0.015000000,Units=km
new line.RBT_10106823 bus1=BBT23198018.1.0,bus2=RML1010106823.1.0,Phases=1,Linecode=CABBTG02_4_1_1,Length=0.029000000,Units=km
new line.RBT_10108664 bus1=BBT3504750.1.0,bus2=RML1010108664.1.0,Phases=1,Linecode=CABBTG02_4_1_1,Length=0.029000000,Units=km
new line.RBT_10108669 bus1=BBT1707073.1.2.0,bus2=RML1010108669.1.2.0,Phases=2,Linecode=CABBTG05_4_2_2,Length=0.017000000,Units=km
new line.RBT_10109337 bus1=BBT134091619.2.0,bus2=RML1010109337.2.0,Phases=1,Linecode=CABBTG02_4_1_1,Length=0.016000000,Units=km
new line.RBT_10270519 bus1=BBT4162190.1.2.0,bus2=RML1010270519.1.2.0,Phases=2,Linecode=CABBTG05_4_2_2,Length=0.029000000,Units=km
new line.RBT_10270529 bus1=BBT134079222.3.0,bus2=RML1010270529.3.0,Phases=1,Linecode=CABBTG02_4_1_1,Length=0.029000000,Units=km
new line.RBT_10270549 bus1=BBT3444641.2.0,bus2=RML1010270549.2.0,Phases=1,Linecode=CABBTG02_4_1_1,Length=0.029000000,Units=km
new line.RBT_10270550 bus1=BBT3688990.2.0,bus2=RML1010270550.2.0,Phases=1,Linecode=CABBTG02_4_1_1,Length=0.029000000,Units=km
new line.RBT_10325268 bus1=BBT152332184.1.2.0,bus2=RML1010325268.1.2.0,Phases=2,Linecode=CABBTG05_4_2_2,Length=0.017000000,Units=km
new line.RBT_10327974 bus1=BBT134092326.2.0,bus2=RML1010327974.2.0,Phases=1,Linecode=CABBTG02_4_1_1,Length=0.029000000,Units=km
new line.RBT_10355342 bus1=BBT134091871.1.2.0,bus2=RML1010355342.1.2.0,Phases=2,Linecode=CABBTG05_4_2_2,Length=0.029000000,Units=km
new line.RBT_10356561 bus1=BBT134094559.2.0,bus2=RML1010356561.2.0,Phases=1,Linecode=CABBTG02_4_1_1,Length=0.029000000,Units=km
new line.RBT_10356622 bus1=BBT23188764.2.0,bus2=RML1010356622.2.0,Phases=1,Linecode=CABBTG02_4_1_1,Length=0.029000000,Units=km
new line.RBT_10357368 bus1=BBT138677116.2.0,bus2=RML1010357368.2.0,Phases=1,Linecode=CABBTG02_4_1_1,Length=0.029000000,Units=km
new line.RBT_10358346 bus1=BBT23154457.1.2.0,bus2=RML1010358346.1.2.0,Phases=2,Linecode=CABBTG05_4_2_2,Length=0.029000000,Units=km
new line.RBT_10358434 bus1=BBT1540739.1.2.0,bus2=RML1010358434.1.2.0,Phases=2,Linecode=CABBTG05_4_2_2,Length=0.029000000,Units=km
new line.RBT_10358490 bus1=BBT138677984.1.0,bus2=RML1010358490.1.0,Phases=1,Linecode=CABBTG02_4_1_1,Length=0.017000000,Units=km
new line.RBT_10381239 bus1=BBT153242934.1.2.0,bus2=RML1010381239.1.2.0,Phases=2,Linecode=CABBTG05_4_2_2,Length=0.017000000,Units=km
new line.RBT_10383650 bus1=BBT134084808.3.0,bus2=RML1010383650.3.0,Phases=1,Linecode=CABBTG02_4_1_1,Length=0.029000000,Units=km
new line.RBT_10383653 bus1=BBT134084570.1.0,bus2=RML1010383653.1.0,Phases=1,Linecode=CABBTG02_4_1_1,Length=0.029000000,Units=km
new line.RBT_10383654 bus1=BBT167624460.2.0,bus2=RML1010383654.2.0,Phases=1,Linecode=CABBTG02_4_1_1,Length=0.017000000,Units=km
new line.RBT_10383658 bus1=BBT134089463.1.2.0,bus2=RML1010383658.1.2.0,Phases=2,Linecode=CABBTG05_4_2_2,Length=0.029000000,Units=km
new line.RBT_10407847 bus1=BBT23154611.1.2.0,bus2=RML1010407847.1.2.0,Phases=2,Linecode=CABBTG05_4_2_2,Length=0.029000000,Units=km
new line.RBT_10407936 bus1=BBT134079194.1.0,bus2=RML1010407936.1.0,Phases=1,Linecode=CABBTG02_4_1_1,Length=0.029000000,Units=km
new line.RBT_10407998 bus1=BBT134092333.1.2.0,bus2=RML1010407998.1.2.0,Phases=2,Linecode=CABBTG05_4_2_2,Length=0.029000000,Units=km
new line.RBT_10433318 bus1=BBT1544183.1.2.0,bus2=RML1010433318.1.2.0,Phases=2,Linecode=CABBTG05_4_2_2,Length=0.029000000,Units=km
new line.RBT_10433370 bus1=BBT134091248.3.1.0,bus2=RML1010433370.3.1.0,Phases=2,Linecode=CABBTG05_4_2_2,Length=0.029000000,Units=km
new line.RBT_10433375 bus1=BBT3104798.3.1.0,bus2=RML1010433375.3.1.0,Phases=2,Linecode=CABBTG05_4_2_2,Length=0.029000000,Units=km
new line.RBT_10436455 bus1=BBT1553353.3.0,bus2=RML1010436455.3.0,Phases=1,Linecode=CABBTG02_4_1_1,Length=0.029000000,Units=km
new line.RBT_10436493 bus1=BBT134088847.2.0,bus2=RML1010436493.2.0,Phases=1,Linecode=CABBTG02_4_1_1,Length=0.029000000,Units=km
new line.RBT_10497212 bus1=BBT134094503.3.1.0,bus2=RML1010497212.3.1.0,Phases=2,Linecode=CABBTG05_4_2_2,Length=0.029000000,Units=km
new line.RBT_10497220 bus1=BBT5013131.1.0,bus2=RML1010497220.1.0,Phases=1,Linecode=CABBTG02_4_1_1,Length=0.029000000,Units=km
new line.RBT_10497221 bus1=BBT134092228.3.1.0,bus2=RML1010497221.3.1.0,Phases=2,Linecode=CABBTG05_4_2_2,Length=0.029000000,Units=km
new line.RBT_10036114 bus1=BBT134076919.1.2.0,bus2=RML1010036114.1.2.0,Phases=2,Linecode=CABBTG05_4_2_2,Length=0.029000000,Units=km
new line.RBT_10038731 bus1=BBT148206419.1.2.0,bus2=RML1010038731.1.2.0,Phases=2,Linecode=CABBTG05_4_2_2,Length=0.030000000,Units=km
new line.RBT_10083375 bus1=BBT1543952.1.0,bus2=RML1010083375.1.0,Phases=1,Linecode=CABBTG02_4_1_1,Length=0.018000000,Units=km
new line.RBT_10083841 bus1=BBT134088833.1.0,bus2=RML1010083841.1.0,Phases=1,Linecode=CABBTG02_4_1_1,Length=0.008000000,Units=km
new line.RBT_10083854 bus1=BBT134078970.1.0,bus2=RML1010083854.1.0,Phases=1,Linecode=CABBTG02_4_1_1,Length=0.010000000,Units=km
new line.RBT_10083913 bus1=BBT1536574.3.0,bus2=RML1010083913.3.0,Phases=1,Linecode=CABBTG02_4_1_1,Length=0.017000000,Units=km
new line.RBT_10083929 bus1=BBT134084864.2.0,bus2=RML1010083929.2.0,Phases=1,Linecode=CABBTG02_4_1_1,Length=0.015000000,Units=km
new line.RBT_10083959 bus1=BBT1544162.2.0,bus2=RML1010083959.2.0,Phases=1,Linecode=CABBTG02_4_1_1,Length=0.010000000,Units=km
new line.RBT_10110614 bus1=BBT3104805.1.0,bus2=RML1010110614.1.0,Phases=1,Linecode=CABBTG02_4_1_1,Length=0.010000000,Units=km