new line.TR622280 bus1=BMT154985710.1.2.3,bus2=BMT154985711.1.2.3,Phases=3,Linecode=CAB108_3_3,Length=0.030620000,Units=km
new line.TR7145587 bus1=BMT3243192D.1.2.3,bus2=BMT3243178D.1.2.3,Phases=3,Linecode=CAB907_4_3,Length=0.064967000,Units=km
new line.TR7145601 bus1=BMT3243199D.1.2.3,bus2=BMT3243192D.1.2.3,Phases=3,Linecode=CAB907_4_3,Length=0.062114000,Units=km
new line.TR622294 bus1=BMT148337143.1.2.3,bus2=BMT99558972.1.2.3,Phases=3,Linecode=CAB108_3_3,Length=0.027745000,Units=km
new line.TR7145531 bus1=BMT3243178D.1.2.3,bus2=BMT154985722.1.2.3,Phases=3,Linecode=CAB907_4_3,Length=0.063303000,Units=km
new line.TR7145454 bus1=BMT3243157D.1.2.3,bus2=BMT416487D.1.2.3,Phases=3,Linecode=CAB907_4_3,Length=0.013607000,Units=km
new line.TR7145503 bus1=BMT154985722.1.2.3,bus2=BMT2328530D.1.2.3,Phases=3,Linecode=CAB907_4_3,Length=0.031154000,Units=km
new line.TR667955 bus1=BMT154985720.1.2.3,bus2=BMT462001D.1.2.3,Phases=3,Linecode=CAB907_4_3,Length=0.032060000,Units=km
new line.TR730661 bus1=BMT154985718.1.2.3,bus2=BMT499605D.1.2.3,Phases=3,Linecode=CAB907_4_3,Length=0.035143000,Units=km
new line.TR744045 bus1=BMT154985717.1.2.3,bus2=BMT507375D.1.2.3,Phases=3,Linecode=CAB907_4_3,Length=0.031054000,Units=km
new line.TR766291 bus1=BMT154985716.1.2.3,bus2=BMT520066D.1.2.3,Phases=3,Linecode=CAB907_4_3,Length=0.033070000,Units=km
new line.TR507494 bus1=BMT154985713.1.2.3,bus2=BMT351366D.1.2.3,Phases=3,Linecode=CAB907_4_3,Length=0.029026000,Units=km
new line.TR510273 bus1=BMT154985712.1.2.3,bus2=BMT353179D.1.2.3,Phases=3,Linecode=CAB907_4_3,Length=0.021030000,Units=km
new line.TR596891 bus1=BMT154985721.1.2.3,bus2=BMT416473D.1.2.3,Phases=3,Linecode=CAB907_4_3,Length=0.028293000,Units=km
new line.TR691216 bus1=BMT154985719.1.2.3,bus2=BMT475175D.1.2.3,Phases=3,Linecode=CAB907_4_3,Length=0.030423000,Units=km
new line.TR789230 bus1=BMT154985715.1.2.3,bus2=BMT534129D.1.2.3,Phases=3,Linecode=CAB907_4_3,Length=0.034069000,Units=km
new line.TR7185424 bus1=BMT3260783D.1.2.3,bus2=BMT3243199D.1.2.3,Phases=3,Linecode=CAB907_4_3,Length=0.060335000,Units=km
new line.TR7185431 bus1=BMT3260783D.1.2.3,bus2=BMT3771496D.1.2.3,Phases=3,Linecode=CAB907_4_3,Length=0.058155000,Units=km
new line.TR7140246 bus1=BMT3240028D.1.2.3,bus2=BMT475189D.1.2.3,Phases=3,Linecode=CAB907_4_3,Length=0.031025000,Units=km
new line.TR30451 bus1=BMT19167D.1.2.3,bus2=BMT351345D.1.2.3,Phases=3,Linecode=CAB907_4_3,Length=0.032072000,Units=km
new line.TR30430 bus1=BMT19160D.1.2.3,bus2=BMT19167D.1.2.3,Phases=3,Linecode=CAB907_4_3,Length=0.028168000,Units=km
new line.TR30311 bus1=BMT19118D.1.2.3,bus2=BMT19139D.1.2.3,Phases=3,Linecode=CAB907_4_3,Length=0.027026000,Units=km
new line.TR552224 bus1=BMT154985724.1.2.3,bus2=BMT155032724.1.2.3,Phases=3,Linecode=CAB907_4_3,Length=0.017137000,Units=km
new line.TR507445 bus1=BMT351345D.1.2.3,bus2=BMT351352D.1.2.3,Phases=3,Linecode=CAB907_4_3,Length=0.032072000,Units=km
new line.TR507508 bus1=BMT351366D.1.2.3,bus2=BMT351373D.1.2.3,Phases=3,Linecode=CAB907_4_3,Length=0.029163000,Units=km
new line.TR822879 bus1=BMT154985714.1.2.3,bus2=BMT555934D.1.2.3,Phases=3,Linecode=CAB907_4_3,Length=0.025027000,Units=km
new line.TR4585449 bus1=BMT2328530D.1.2.3,bus2=BMT3243164D.1.2.3,Phases=3,Linecode=CAB907_4_3,Length=0.032150000,Units=km
new line.TR30367 bus1=BMT19139D.1.2.3,bus2=BMT19160D.1.2.3,Phases=3,Linecode=CAB907_4_3,Length=0.032025000,Units=km
new line.TR30255 bus1=BMT19090D.1.2.3,bus2=BMT19118D.1.2.3,Phases=3,Linecode=CAB907_4_3,Length=0.031073000,Units=km
new line.TR12306847 bus1=BMT154985724.1.2.3,bus2=BMT155032725.1.2.3,Phases=3,Linecode=CAB108_3_3,Length=0.025759000,Units=km
new line.TR510245 bus1=BMT353151D.1.2.3,bus2=BMT154985712.1.2.3,Phases=3,Linecode=CAB907_4_3,Length=0.029077000,Units=km
new line.TR7146413 bus1=BMT3243619D.1.2.3,bus2=BMT475168D.1.2.3,Phases=3,Linecode=CAB907_4_3,Length=0.036113000,Units=km
new line.TR7146469 bus1=BMT3243640D.1.2.3,bus2=BMT475161D.1.2.3,Phases=3,Linecode=CAB907_4_3,Length=0.026118000,Units=km
new line.TR4574032 bus1=BMT2325555D.1.2.3,bus2=BMT499598D.1.2.3,Phases=3,Linecode=CAB907_4_3,Length=0.004125000,Units=km
new line.TR8223727 bus1=BMT3771496D.1.2.3,bus2=BMT154985723.1.2.3,Phases=3,Linecode=CAB907_4_3,Length=0.060899000,Units=km
new line.TR612438 bus1=BMT427834D.1.2.3,bus2=BMT427820D.1.2.3,Phases=3,Linecode=CAB907_4_3,Length=0.037065000,Units=km
new line.TR544951 bus1=BMT377413D.1.2.3,bus2=BMT377427D.1.2.3,Phases=3,Linecode=CAB907_4_3,Length=0.006445000,Units=km
new line.TR612417 bus1=BMT427820D.1.2.3,bus2=BMT427778D.1.2.3,Phases=3,Linecode=CAB907_4_3,Length=0.038339000,Units=km
new line.TR544993 bus1=BMT377434D.1.2.3,bus2=BMT362468D.1.2.3,Phases=3,Linecode=CAB907_4_3,Length=0.030643000,Units=km
new line.TR587672 bus1=BMT408997D.1.2.3,bus2=BMT154985711.1.2.3,Phases=3,Linecode=CAB907_4_3,Length=0.027739000,Units=km
new line.TR596835 bus1=BMT416459D.1.2.3,bus2=BMT416452D.1.2.3,Phases=3,Linecode=CAB907_4_3,Length=0.032436000,Units=km
new line.TR545042 bus1=BMT377462D.1.2.3,bus2=BMT408997D.1.2.3,Phases=3,Linecode=CAB907_4_3,Length=0.025107000,Units=km
new line.TR599789 bus1=BMT418573D.1.2.3,bus2=BMT3243164D.1.2.3,Phases=3,Linecode=CAB907_4_3,Length=0.060296000,Units=km
new line.TR544972 bus1=BMT377427D.1.2.3,bus2=BMT377434D.1.2.3,Phases=3,Linecode=CAB907_4_3,Length=0.028400000,Units=km
new line.TR615868 bus1=BMT430361D.1.2.3,bus2=BMT418657D.1.2.3,Phases=3,Linecode=CAB907_4_3,Length=0.033289000,Units=km
new line.TR635699 bus1=BMT442296D.1.2.3,bus2=BMT442226D.1.2.3,Phases=3,Linecode=CAB907_4_3,Length=0.039515000,Units=km
new line.TR596912 bus1=BMT416487D.1.2.3,bus2=BMT154985721.1.2.3,Phases=3,Linecode=CAB907_4_3,Length=0.032296000,Units=km
new line.TR622350 bus1=BMT434659B.1.2.3,bus2=BMT3338406.1.2.3,Phases=3,Linecode=CAB108_3_3,Length=0.024761000,Units=km
new line.TR622371 bus1=BMT434673B.1.2.3,bus2=BMT99558951.1.2.3,Phases=3,Linecode=CAB108_3_3,Length=0.029975000,Units=km
new line.TR622518 bus1=BMT434750B.1.2.3,bus2=BMT99558937.1.2.3,Phases=3,Linecode=CAB108_3_3,Length=0.025503000,Units=km
new line.TR635454 bus1=BMT442226D.1.2.3,bus2=BMT444186D.1.2.3,Phases=3,Linecode=CAB907_4_3,Length=0.030396000,Units=km
new line.TR622406 bus1=BMT434694B.1.2.3,bus2=BMT434673B.1.2.3,Phases=3,Linecode=CAB108_3_3,Length=0.026844000,Units=km
new line.TR599810 bus1=BMT418580D.1.2.3,bus2=BMT418573D.1.2.3,Phases=3,Linecode=CAB907_4_3,Length=0.019571000,Units=km
new line.TR596821 bus1=BMT416452D.1.2.3,bus2=BMT418580D.1.2.3,Phases=3,Linecode=CAB907_4_3,Length=0.032612000,Units=km
new line.TR599901 bus1=BMT418643D.1.2.3,bus2=BMT3243157D.1.2.3,Phases=3,Linecode=CAB907_4_3,Length=0.014877000,Units=km
new line.TR622448 bus1=BMT434715B.1.2.3,bus2=BMT434694B.1.2.3,Phases=3,Linecode=CAB108_3_3,Length=0.028646000,Units=km
new line.TR510392 bus1=BMT353207D.1.2.3,bus2=BMT377413D.1.2.3,Phases=3,Linecode=CAB907_4_3,Length=0.020031000,Units=km
new line.TR507473 bus1=BMT351352D.1.2.3,bus2=BMT154985713.1.2.3,Phases=3,Linecode=CAB907_4_3,Length=0.025087000,Units=km
new line.TR524308 bus1=BMT362468D.1.2.3,bus2=BMT362482D.1.2.3,Phases=3,Linecode=CAB907_4_3,Length=0.021950000,Units=km
new line.TR596856 bus1=BMT416466D.1.2.3,bus2=BMT416459D.1.2.3,Phases=3,Linecode=CAB907_4_3,Length=0.030193000,Units=km
new line.TR507522 bus1=BMT351373D.1.2.3,bus2=BMT353151D.1.2.3,Phases=3,Linecode=CAB907_4_3,Length=0.024028000,Units=km
new line.TR524329 bus1=BMT362482D.1.2.3,bus2=BMT377462D.1.2.3,Phases=3,Linecode=CAB907_4_3,Length=0.020965000,Units=km
new line.TR596877 bus1=BMT416473D.1.2.3,bus2=BMT416466D.1.2.3,Phases=3,Linecode=CAB907_4_3,Length=0.034376000,Units=km
new line.TR510343 bus1=BMT353179D.1.2.3,bus2=BMT353200D.1.2.3,Phases=3,Linecode=CAB907_4_3,Length=0.030075000,Units=km
new line.TR510371 bus1=BMT353200D.1.2.3,bus2=BMT353207D.1.2.3,Phases=3,Linecode=CAB907_4_3,Length=0.019032000,Units=km
new line.TR599943 bus1=BMT418657D.1.2.3,bus2=BMT418650D.1.2.3,Phases=3,Linecode=CAB907_4_3,Length=0.035179000,Units=km
new line.TR612368 bus1=BMT427778D.1.2.3,bus2=BMT430396D.1.2.3,Phases=3,Linecode=CAB907_4_3,Length=0.035238000,Units=km
new line.TR615882 bus1=BMT430396D.1.2.3,bus2=BMT430361D.1.2.3,Phases=3,Linecode=CAB907_4_3,Length=0.025116000,Units=km
new line.TR599929 bus1=BMT418650D.1.2.3,bus2=BMT418643D.1.2.3,Phases=3,Linecode=CAB907_4_3,Length=0.035179000,Units=km
new line.TR638835 bus1=BMT444151D.1.2.3,bus2=BMT427834D.1.2.3,Phases=3,Linecode=CAB907_4_3,Length=0.038129000,Units=km
new line.TR635769 bus1=BMT442324D.1.2.3,bus2=BMT442296D.1.2.3,Phases=3,Linecode=CAB907_4_3,Length=0.036274000,Units=km
new line.TR712244 bus1=BMT487873D.1.2.3,bus2=BMT498709D.1.2.3,Phases=3,Linecode=CAB907_4_3,Length=0.015608000,Units=km
new line.TR729464 bus1=BMT498688D.1.2.3,bus2=BMT475196D.1.2.3,Phases=3,Linecode=CAB907_4_3,Length=0.031158000,Units=km
new line.TR637554 bus1=BMT443563D.1.2.3,bus2=BMT442324D.1.2.3,Phases=3,Linecode=CAB907_4_3,Length=0.022055000,Units=km
new line.TR638905 bus1=BMT444186D.1.2.3,bus2=BMT444151D.1.2.3,Phases=3,Linecode=CAB907_4_3,Length=0.027419000,Units=km
new line.TR638947 bus1=BMT444207B.1.2.3,bus2=BMT99558909.1.2.3,Phases=3,Linecode=CAB907_4_3,Length=0.024223000,Units=km
new line.TR638968 bus1=BMT444214B.1.2.3,bus2=BMT444207B.1.2.3,Phases=3,Linecode=CAB907_4_3,Length=0.014345000,Units=km
new line.TR642356 bus1=BMT446265B.1.2.3,bus2=BMT444270B.1.2.3,Phases=3,Linecode=CAB108_3_3,Length=0.037132000,Units=km
new line.TR642377 bus1=BMT446279B.1.2.3,bus2=BMT446265B.1.2.3,Phases=3,Linecode=CAB108_3_3,Length=0.036685000,Units=km
new line.TR644484 bus1=BMT447525D.1.2.3,bus2=BMT443563D.1.2.3,Phases=3,Linecode=CAB907_4_3,Length=0.039261000,Units=km
new line.TR667927 bus1=BMT462001D.1.2.3,bus2=BMT461987D.1.2.3,Phases=3,Linecode=CAB907_4_3,Length=0.023120000,Units=km
new line.TR668004 bus1=BMT462029D.1.2.3,bus2=BMT462022D.1.2.3,Phases=3,Linecode=CAB907_4_3,Length=0.032475000,Units=km
new line.TR691251 bus1=BMT475196D.1.2.3,bus2=BMT3240028D.1.2.3,Phases=3,Linecode=CAB907_4_3,Length=0.054491000,Units=km
new line.TR639080 bus1=BMT444270B.1.2.3,bus2=BMT99558902.1.2.3,Phases=3,Linecode=CAB108_3_3,Length=0.045708000,Units=km
new line.TR642454 bus1=BMT446321B.1.2.3,bus2=BMT446307B.1.2.3,Phases=3,Linecode=CAB108_3_3,Length=0.027739000,Units=km
new line.TR667892 bus1=BMT461987D.1.2.3,bus2=BMT447525D.1.2.3,Phases=3,Linecode=CAB907_4_3,Length=0.028483000,Units=km
new line.TR667976 bus1=BMT462022D.1.2.3,bus2=BMT154985720.1.2.3,Phases=3,Linecode=CAB907_4_3,Length=0.034671000,Units=km
new line.TR691146 bus1=BMT475161D.1.2.3,bus2=BMT475154D.1.2.3,Phases=3,Linecode=CAB907_4_3,Length=0.062487000,Units=km
new line.TR729485 bus1=BMT498695D.1.2.3,bus2=BMT498688D.1.2.3,Phases=3,Linecode=CAB907_4_3,Length=0.030162000,Units=km
new line.TR730619 bus1=BMT499598D.1.2.3,bus2=BMT487873D.1.2.3,Phases=3,Linecode=CAB907_4_3,Length=0.030162000,Units=km
new line.TR638989 bus1=BMT444221B.1.2.3,bus2=BMT444214B.1.2.3,Phases=3,Linecode=CAB907_4_3,Length=0.025541000,Units=km
new line.TR642426 bus1=BMT446307B.1.2.3,bus2=BMT99558895.1.2.3,Phases=3,Linecode=CAB108_3_3,Length=0.036685000,Units=km
new line.TR691132 bus1=BMT475154D.1.2.3,bus2=BMT462050D.1.2.3,Phases=3,Linecode=CAB907_4_3,Length=0.064486000,Units=km
new line.TR744024 bus1=BMT507375D.1.2.3,bus2=BMT507368D.1.2.3,Phases=3,Linecode=CAB907_4_3,Length=0.023323000,Units=km
new line.TR743975 bus1=BMT507361D.1.2.3,bus2=BMT499633D.1.2.3,Phases=3,Linecode=CAB907_4_3,Length=0.029331000,Units=km
new line.TR668060 bus1=BMT462043D.1.2.3,bus2=BMT462036D.1.2.3,Phases=3,Linecode=CAB907_4_3,Length=0.036232000,Units=km
new line.TR789251 bus1=BMT534129D.1.2.3,bus2=BMT534136D.1.2.3,Phases=3,Linecode=CAB907_4_3,Length=0.031074000,Units=km
new line.TR789279 bus1=BMT534136D.1.2.3,bus2=BMT534157D.1.2.3,Phases=3,Linecode=CAB907_4_3,Length=0.027082000,Units=km
new line.TR766277 bus1=BMT520066D.1.2.3,bus2=BMT520052D.1.2.3,Phases=3,Linecode=CAB907_4_3,Length=0.032072000,Units=km
new line.TR729527 bus1=BMT498702D.1.2.3,bus2=BMT498695D.1.2.3,Phases=3,Linecode=CAB907_4_3,Length=0.033150000,Units=km
new line.TR729548 bus1=BMT498709D.1.2.3,bus2=BMT498702D.1.2.3,Phases=3,Linecode=CAB907_4_3,Length=0.030604000,Units=km
new line.TR766312 bus1=BMT520080D.1.2.3,bus2=BMT154985716.1.2.3,Phases=3,Linecode=CAB907_4_3,Length=0.035067000,Units=km
new line.TR730640 bus1=BMT499605D.1.2.3,bus2=BMT2325555D.1.2.3,Phases=3,Linecode=CAB907_4_3,Length=0.035368000,Units=km
new line.TR822893 bus1=BMT555934D.1.2.3,bus2=BMT555941D.1.2.3,Phases=3,Linecode=CAB907_4_3,Length=0.035238000,Units=km
new line.TR822921 bus1=BMT555941D.1.2.3,bus2=BMT555948D.1.2.3,Phases=3,Linecode=CAB907_4_3,Length=0.023029000,Units=km
new line.TR744073 bus1=BMT507389D.1.2.3,bus2=BMT154985717.1.2.3,Phases=3,Linecode=CAB907_4_3,Length=0.029163000,Units=km
new line.TR789202 bus1=BMT534101D.1.2.3,bus2=BMT154985715.1.2.3,Phases=3,Linecode=CAB907_4_3,Length=0.033146000,Units=km
new line.TR743996 bus1=BMT507368D.1.2.3,bus2=BMT507361D.1.2.3,Phases=3,Linecode=CAB907_4_3,Length=0.040527000,Units=km
new line.TR668025 bus1=BMT462036D.1.2.3,bus2=BMT462029D.1.2.3,Phases=3,Linecode=CAB907_4_3,Length=0.036264000,Units=km
new line.TR766263 bus1=BMT520052D.1.2.3,bus2=BMT507410D.1.2.3,Phases=3,Linecode=CAB907_4_3,Length=0.030025000,Units=km
new line.TR845559 bus1=BMT569745D.1.2.3,bus2=BMT569773D.1.2.3,Phases=3,Linecode=CAB907_4_3,Length=0.025087000,Units=km
new line.TR691160 bus1=BMT475168D.1.2.3,bus2=BMT3243640D.1.2.3,Phases=3,Linecode=CAB907_4_3,Length=0.028483000,Units=km
new line.TR766333 bus1=BMT520087D.1.2.3,bus2=BMT520080D.1.2.3,Phases=3,Linecode=CAB907_4_3,Length=0.036066000,Units=km
new line.TR730710 bus1=BMT499626D.1.2.3,bus2=BMT499619D.1.2.3,Phases=3,Linecode=CAB907_4_3,Length=0.035074000,Units=km
new line.TR766340 bus1=BMT520087D.1.2.3,bus2=BMT520094D.1.2.3,Phases=3,Linecode=CAB907_4_3,Length=0.043059000,Units=km
new line.TR744108 bus1=BMT507396D.1.2.3,bus2=BMT507389D.1.2.3,Phases=3,Linecode=CAB907_4_3,Length=0.025087000,Units=km
new line.TR744136 bus1=BMT507403D.1.2.3,bus2=BMT507396D.1.2.3,Phases=3,Linecode=CAB907_4_3,Length=0.028026000,Units=km
new line.TR789363 bus1=BMT534164D.1.2.3,bus2=BMT555906D.1.2.3,Phases=3,Linecode=CAB907_4_3,Length=0.028169000,Units=km
new line.TR691195 bus1=BMT475175D.1.2.3,bus2=BMT3243619D.1.2.3,Phases=3,Linecode=CAB907_4_3,Length=0.027334000,Units=km
new line.TR822865 bus1=BMT555920D.1.2.3,bus2=BMT154985714.1.2.3,Phases=3,Linecode=CAB907_4_3,Length=0.029077000,Units=km
new line.TR730682 bus1=BMT499619D.1.2.3,bus2=BMT154985718.1.2.3,Phases=3,Linecode=CAB907_4_3,Length=0.034075000,Units=km
new line.TR642489 bus1=BMT99558888.1.2.3,bus2=BMT6183032B.1.2.3,Phases=3,Linecode=CAB108_3_3,Length=0.010299000,Units=km
new line.TR730745 bus1=BMT499633D.1.2.3,bus2=BMT499626D.1.2.3,Phases=3,Linecode=CAB907_4_3,Length=0.033280000,Units=km
new line.TR822970 bus1=BMT555962D.1.2.3,bus2=BMT555969D.1.2.3,Phases=3,Linecode=CAB907_4_3,Length=0.031073000,Units=km
new line.TR744164 bus1=BMT507410D.1.2.3,bus2=BMT507403D.1.2.3,Phases=3,Linecode=CAB907_4_3,Length=0.033146000,Units=km
new line.TR622287 bus1=BMT99558972.1.2.3,bus2=BMT148337144.1.2.3,Phases=3,Linecode=CAB108_3_3,Length=0.027741000,Units=km
new line.TR691237 bus1=BMT475189D.1.2.3,bus2=BMT154985719.1.2.3,Phases=3,Linecode=CAB907_4_3,Length=0.030116000,Units=km
new line.TR789342 bus1=BMT534157D.1.2.3,bus2=BMT534164D.1.2.3,Phases=3,Linecode=CAB907_4_3,Length=0.030025000,Units=km
new line.TR668102 bus1=BMT462050D.1.2.3,bus2=BMT462043D.1.2.3,Phases=3,Linecode=CAB907_4_3,Length=0.023202000,Units=km
new line.TR766368 bus1=BMT520094D.1.2.3,bus2=BMT534087D.1.2.3,Phases=3,Linecode=CAB907_4_3,Length=0.035067000,Units=km
new line.TR845615 bus1=BMT569773D.1.2.3,bus2=BMT569801D.1.2.3,Phases=3,Linecode=CAB907_4_3,Length=0.029077000,Units=km
new line.TR789160 bus1=BMT534087D.1.2.3,bus2=BMT534101D.1.2.3,Phases=3,Linecode=CAB907_4_3,Length=0.035024000,Units=km
new line.TR8090657 bus1=BMT150340629.1.2.3,bus2=BMT150340630.1.2.3,Phases=3,Linecode=CAB601_3_3,Length=0.014368000,Units=km
new line.TR10103542 bus1=BMT6183032B.1.2.3,bus2=BMT446321B.1.2.3,Phases=3,Linecode=CAB108_3_3,Length=0.013004000,Units=km
new line.TR639017 bus1=BMT99558902.1.2.3,bus2=BMT444221B.1.2.3,Phases=3,Linecode=CAB907_4_3,Length=0.031790000,Units=km
new line.TR845636 bus1=BMT569801D.1.2.3,bus2=BMT19090D.1.2.3,Phases=3,Linecode=CAB907_4_3,Length=0.032072000,Units=km
new line.TR642398 bus1=BMT99558895.1.2.3,bus2=BMT446279B.1.2.3,Phases=3,Linecode=CAB108_3_3,Length=0.034896000,Units=km
new line.TR822984 bus1=BMT555969D.1.2.3,bus2=BMT555976D.1.2.3,Phases=3,Linecode=CAB907_4_3,Length=0.030025000,Units=km
new line.TR822998 bus1=BMT555976D.1.2.3,bus2=BMT569745D.1.2.3,Phases=3,Linecode=CAB907_4_3,Length=0.034025000,Units=km
new line.TR638919 bus1=BMT99558923.1.2.3,bus2=BMT99558930.1.2.3,Phases=3,Linecode=CAB108_3_3,Length=0.033152000,Units=km
new line.TR822830 bus1=BMT555906D.1.2.3,bus2=BMT555913D.1.2.3,Phases=3,Linecode=CAB907_4_3,Length=0.028080000,Units=km
new line.TR638933 bus1=BMT99558909.1.2.3,bus2=BMT99558916.1.2.3,Phases=3,Linecode=CAB108_3_3,Length=0.032264000,Units=km
new line.TR822844 bus1=BMT555913D.1.2.3,bus2=BMT555920D.1.2.3,Phases=3,Linecode=CAB907_4_3,Length=0.029077000,Units=km
new line.TR622476 bus1=BMT99558944.1.2.3,bus2=BMT434715B.1.2.3,Phases=3,Linecode=CAB108_3_3,Length=0.024607000,Units=km
new line.TR622322 bus1=BMT99558951.1.2.3,bus2=BMT99558958.1.2.3,Phases=3,Linecode=CAB108_3_3,Length=0.024609000,Units=km
new line.TR622329 bus1=BMT99558951.1.2.3,bus2=BMT434659B.1.2.3,Phases=3,Linecode=CAB108_3_3,Length=0.007314000,Units=km
new line.TR632017 bus1=BMT149008716.1.2.3,bus2=BMT436381B.1.2.3,Phases=3,Linecode=CAB108_3_3,Length=0.031790000,Units=km
new line.TR582359 bus1=BMT150340628.1.2.3,bus2=BMT150340629.1.2.3,Phases=3,Linecode=CAB610_5_3,Length=0.006733000,Units=km
new line.TR500081 bus1=BMT149970805.1.2.3,bus2=BMT149970806.1.2.3,Phases=3,Linecode=CABA08_3_3,Length=0.031121000,Units=km
new line.TR603730 bus1=BMT99558930.1.2.3,bus2=BMT2978774.1.2.3,Phases=3,Linecode=CAB108_3_3,Length=0.007311000,Units=km
new line.TR603737 bus1=BMT99558930.1.2.3,bus2=BMT434750B.1.2.3,Phases=3,Linecode=CAB108_3_3,Length=0.024189000,Units=km
new line.TR570417 bus1=BMT152278688.1.2.3,bus2=BMT395599B.1.2.3,Phases=3,Linecode=CAB108_3_3,Length=0.020815000,Units=km
new line.TR568429 bus1=BMT152278692.1.2.3,bus2=BMT420323B.1.2.3,Phases=3,Linecode=CAB108_3_3,Length=0.033315000,Units=km
new line.TR588274 bus1=BMT152278690.1.2.3,bus2=BMT152278691.1.2.3,Phases=3,Linecode=CAB103_3_3,Length=0.026937000,Units=km
new line.TR568422 bus1=BMT152278692.1.2.3,bus2=BMT152278693.1.2.3,Phases=3,Linecode=CAB103_3_3,Length=0.028243000,Units=km
new line.TR582303 bus1=BMT152278684.1.2.3,bus2=BMT152278685.1.2.3,Phases=3,Linecode=CAB108_3_3,Length=0.020197000,Units=km
new line.TR582289 bus1=BMT152278685.1.2.3,bus2=BMT404846B.1.2.3,Phases=3,Linecode=CAB108_3_3,Length=0.018853000,Units=km
new line.TR4574256 bus1=BMT99558874.1.2.3,bus2=BMT99558881.1.2.3,Phases=3,Linecode=CAB907_5_3,Length=0.029008000,Units=km
new line.TR500123 bus1=BMT153035947.1.2.3,bus2=BMT3290834B.1.2.3,Phases=3,Linecode=CAB108_3_3,Length=0.032283000,Units=km
new line.TR524196 bus1=BMT153036440.1.2.3,bus2=BMT362433B.1.2.3,Phases=3,Linecode=CAB108_3_3,Length=0.018851000,Units=km
new line.TR543936 bus1=BMT153036551.1.2.3,bus2=BMT376832B.1.2.3,Phases=3,Linecode=CAB108_3_3,Length=0.028263000,Units=km
new line.TR570424 bus1=BMT152278688.1.2.3,bus2=BMT152278690.1.2.3,Phases=3,Linecode=CAB103_3_3,Length=0.039573000,Units=km
new line.TR624884 bus1=BMT149008717.1.2.3,bus2=BMT99559182.1.2.3,Phases=3,Linecode=CAB108_3_3,Length=0.014900000,Units=km
new line.TR568401 bus1=BMT152278689.1.2.3,bus2=BMT395641B.1.2.3,Phases=3,Linecode=CAB108_3_3,Length=0.013902000,Units=km
new line.TR624891 bus1=BMT149008717.1.2.3,bus2=BMT3682225.1.2.3,Phases=3,Linecode=CAB108_3_3,Length=0.010016000,Units=km
new line.TR500144 bus1=BMT149970804.1.2.3,bus2=BMT347222B.1.2.3,Phases=3,Linecode=CAB108_3_3,Length=0.046057000,Units=km
new line.TR570459 bus1=BMT152278687.1.2.3,bus2=BMT396992B.1.2.3,Phases=3,Linecode=CAB108_3_3,Length=0.026497000,Units=km
new line.TR602141 bus1=BMT152278694.1.2.3,bus2=BMT420344B.1.2.3,Phases=3,Linecode=CAB108_3_3,Length=0.026636000,Units=km
new line.TR548556 bus1=BMT156683000.1.2.3,bus2=BMT380563B.1.2.3,Phases=3,Linecode=CABA08_3_3,Length=0.036295000,Units=km
new line.TR582247 bus1=BMT152278686.1.2.3,bus2=BMT404818B.1.2.3,Phases=3,Linecode=CAB108_3_3,Length=0.032771000,Units=km
new line.TR524168 bus1=BMT153036552.1.2.3,bus2=BMT153036440.1.2.3,Phases=3,Linecode=CAB108_3_3,Length=0.019287000,Units=km
new line.TR548563 bus1=BMT380577B.1.2.3,bus2=BMT156683000.1.2.3,Phases=3,Linecode=CAB108_3_3,Length=0.030627000,Units=km
new line.TR563543 bus1=BMT156682998.1.2.3,bus2=BMT392127B.1.2.3,Phases=3,Linecode=CAB108_3_3,Length=0.043024000,Units=km
new line.TR548528 bus1=BMT156683002.1.2.3,bus2=BMT99559392.1.2.3,Phases=3,Linecode=CABA08_3_3,Length=0.024578000,Units=km
new line.TR5404092 bus1=BMT2544599B.1.2.3,bus2=BMT436325B.1.2.3,Phases=3,Linecode=CAB108_3_3,Length=0.013913000,Units=km
new line.TR532358 bus1=BMT2774045.1.2.3,bus2=BMT99559406.1.2.3,Phases=3,Linecode=CAB108_3_3,Length=0.018079000,Units=km
new line.TR7251763 bus1=BMT3290834B.1.2.3,bus2=BMT99559455.1.2.3,Phases=3,Linecode=CAB108_3_3,Length=0.022421000,Units=km
new line.TR563494 bus1=BMT156682999.1.2.3,bus2=BMT380584B.1.2.3,Phases=3,Linecode=CAB108_3_3,Length=0.029419000,Units=km
new line.TR500102 bus1=BMT347222B.1.2.3,bus2=BMT149970805.1.2.3,Phases=3,Linecode=CAB108_3_3,Length=0.046061000,Units=km
new line.TR563501 bus1=BMT156682999.1.2.3,bus2=BMT156683001.1.2.3,Phases=3,Linecode=CAB108_3_3,Length=0.027467000,Units=km
new line.TR500186 bus1=BMT347264B.1.2.3,bus2=BMT347257B.1.2.3,Phases=3,Linecode=CAB108_3_3,Length=0.034800000,Units=km
new line.TR524210 bus1=BMT362433B.1.2.3,bus2=BMT362440B.1.2.3,Phases=3,Linecode=CAB108_3_3,Length=0.031448000,Units=km
new line.TR602190 bus1=BMT156682997.1.2.3,bus2=BMT420386B.1.2.3,Phases=3,Linecode=CAB108_3_3,Length=0.033309000,Units=km
new line.TR822935 bus1=BMT555948D.1.2.3,bus2=BMT555955D.1.2.3,Phases=3,Linecode=CAB907_4_3,Length=0.023094000,Units=km
new line.TR570452 bus1=BMT396992B.1.2.3,bus2=BMT396985B.1.2.3,Phases=3,Linecode=CAB108_3_3,Length=0.027834000,Units=km
new line.TR822949 bus1=BMT555955D.1.2.3,bus2=BMT555962D.1.2.3,Phases=3,Linecode=CAB907_4_3,Length=0.029077000,Units=km
new line.TR500116 bus1=BMT347229B.1.2.3,bus2=BMT153035947.1.2.3,Phases=3,Linecode=CABA08_3_3,Length=0.034988000,Units=km
new line.TR548507 bus1=BMT380542B.1.2.3,bus2=BMT347278B.1.2.3,Phases=3,Linecode=CAB108_3_3,Length=0.030295000,Units=km
new line.TR500221 bus1=BMT347278B.1.2.3,bus2=BMT347271B.1.2.3,Phases=3,Linecode=CAB108_3_3,Length=0.030241000,Units=km
new line.TR524147 bus1=BMT362412B.1.2.3,bus2=BMT153036552.1.2.3,Phases=3,Linecode=CAB108_3_3,Length=0.029156000,Units=km
new line.TR543943 bus1=BMT376832B.1.2.3,bus2=BMT376839B.1.2.3,Phases=3,Linecode=CAB108_3_3,Length=0.038573000,Units=km
new line.TR602148 bus1=BMT420344B.1.2.3,bus2=BMT420351B.1.2.3,Phases=3,Linecode=CAB108_3_3,Length=0.025623000,Units=km
new line.TR543950 bus1=BMT376839B.1.2.3,bus2=BMT362412B.1.2.3,Phases=3,Linecode=CAB108_3_3,Length=0.030976000,Units=km
new line.TR500158 bus1=BMT347250B.1.2.3,bus2=BMT149970804.1.2.3,Phases=3,Linecode=CAB108_3_3,Length=0.031730000,Units=km
new line.TR548535 bus1=BMT380563B.1.2.3,bus2=BMT156683002.1.2.3,Phases=3,Linecode=CABA08_3_3,Length=0.030435000,Units=km
new line.TR563515 bus1=BMT392120B.1.2.3,bus2=BMT156682999.1.2.3,Phases=3,Linecode=CAB108_3_3,Length=0.036630000,Units=km
new line.TR500207 bus1=BMT347271B.1.2.3,bus2=BMT347264B.1.2.3,Phases=3,Linecode=CAB108_3_3,Length=0.030241000,Units=km
new line.TR500179 bus1=BMT347257B.1.2.3,bus2=BMT347250B.1.2.3,Phases=3,Linecode=CAB108_3_3,Length=0.033074000,Units=km
new line.TR524224 bus1=BMT362440B.1.2.3,bus2=BMT2773779.1.2.3,Phases=3,Linecode=CAB108_3_3,Length=0.007136000,Units=km
new line.TR4574312 bus1=BMT99559098.1.2.3,bus2=BMT150340627.1.2.3,Phases=3,Linecode=CAB608_3_3,Length=0.062699000,Units=km
new line.TR563529 bus1=BMT392127B.1.2.3,bus2=BMT392120B.1.2.3,Phases=3,Linecode=CAB108_3_3,Length=0.041893000,Units=km
new line.TR602204 bus1=BMT420386B.1.2.3,bus2=BMT392169B.1.2.3,Phases=3,Linecode=CAB108_3_3,Length=0.006099000,Units=km
new line.TR570466 bus1=BMT397006B.1.2.3,bus2=BMT152278687.1.2.3,Phases=3,Linecode=CAB108_3_3,Length=0.028738000,Units=km
new line.TR582170 bus1=BMT404818B.1.2.3,bus2=BMT99559252.1.2.3,Phases=3,Linecode=CAB108_3_3,Length=0.026492000,Units=km
new line.TR568338 bus1=BMT395599B.1.2.3,bus2=BMT395627B.1.2.3,Phases=3,Linecode=CAB108_3_3,Length=0.030538000,Units=km
new line.TR582233 bus1=BMT404832B.1.2.3,bus2=BMT99559539.1.2.3,Phases=3,Linecode=CAB103_3_3,Length=0.034868000,Units=km
new line.TR582261 bus1=BMT404846B.1.2.3,bus2=BMT152278686.1.2.3,Phases=3,Linecode=CAB108_3_3,Length=0.030073000,Units=km
new line.TR632164 bus1=BMT440469B.1.2.3,bus2=BMT99559133.1.2.3,Phases=3,Linecode=CAB103_3_3,Length=0.038024000,Units=km
new line.TR568380 bus1=BMT395627B.1.2.3,bus2=BMT152278689.1.2.3,Phases=3,Linecode=CAB108_3_3,Length=0.015269000,Units=km
new line.TR548570 bus1=BMT380584B.1.2.3,bus2=BMT380577B.1.2.3,Phases=3,Linecode=CAB108_3_3,Length=0.011708000,Units=km
new line.TR582345 bus1=BMT404881B.1.2.3,bus2=BMT99559224.1.2.3,Phases=3,Linecode=CAB108_3_3,Length=0.019773000,Units=km
new line.TR602113 bus1=BMT420323B.1.2.3,bus2=BMT99559315.1.2.3,Phases=3,Linecode=CAB108_3_3,Length=0.029166000,Units=km
new line.TR568408 bus1=BMT395641B.1.2.3,bus2=BMT152278692.1.2.3,Phases=3,Linecode=CAB108_3_3,Length=0.016656000,Units=km
new line.TR632108 bus1=BMT99559112.1.2.3,bus2=BMT99559119.1.2.3,Phases=3,Linecode=CAB108_3_3,Length=0.021030000,Units=km
new line.TR624912 bus1=BMT436367B.1.2.3,bus2=BMT149008717.1.2.3,Phases=3,Linecode=CAB108_3_3,Length=0.051013000,Units=km
new line.TR4574333 bus1=BMT99559399.1.2.3,bus2=BMT2774045.1.2.3,Phases=3,Linecode=CABA08_3_3,Length=0.024011000,Units=km
new line.TR548514 bus1=BMT99559413.1.2.3,bus2=BMT380542B.1.2.3,Phases=3,Linecode=CAB108_3_3,Length=0.030302000,Units=km
new line.TR500095 bus1=BMT99559441.1.2.3,bus2=BMT347229B.1.2.3,Phases=3,Linecode=CABA08_3_3,Length=0.035178000,Units=km
new line.TR4574361 bus1=BMT99559455.1.2.3,bus2=BMT152832929.1.2.3,Phases=3,Linecode=CAB108_3_3,Length=0.013483000,Units=km
new line.TR4574354 bus1=BMT99559469.1.2.3,bus2=BMT99559476.1.2.3,Phases=3,Linecode=CAB103_3_3,Length=0.024446000,Units=km
new line.TR11282839 bus1=BMT99559504.1.2.3,bus2=BMT99559511.1.2.3,Phases=3,Linecode=CAB902_4_3,Length=0.011221000,Units=km
new line.TR570445 bus1=BMT396985B.1.2.3,bus2=BMT152278688.1.2.3,Phases=3,Linecode=CAB108_3_3,Length=0.022739000,Units=km
new line.TR563641 bus1=BMT392162B.1.2.3,bus2=BMT392155B.1.2.3,Phases=3,Linecode=CAB108_3_3,Length=0.030415000,Units=km
new line.TR563662 bus1=BMT392169B.1.2.3,bus2=BMT392162B.1.2.3,Phases=3,Linecode=CAB108_3_3,Length=0.031814000,Units=km
new line.TR624779 bus1=BMT436318B.1.2.3,bus2=BMT99559196.1.2.3,Phases=3,Linecode=CAB108_3_3,Length=0.014789000,Units=km
new line.TR624940 bus1=BMT436381B.1.2.3,bus2=BMT99559168.1.2.3,Phases=3,Linecode=CAB108_3_3,Length=0.035351000,Units=km
new line.TR602162 bus1=BMT420351B.1.2.3,bus2=BMT99559329.1.2.3,Phases=3,Linecode=CAB108_3_3,Length=0.034997000,Units=km
new line.TR563599 bus1=BMT392155B.1.2.3,bus2=BMT392148B.1.2.3,Phases=3,Linecode=CAB108_3_3,Length=0.032246000,Units=km
new line.TR660661 bus1=BMT150340635.1.2.3,bus2=BMT150340636.1.2.3,Phases=3,Linecode=CAB601_3_3,Length=0.026934000,Units=km
new line.TR632136 bus1=BMT99559133.1.2.3,bus2=BMT99559140.1.2.3,Phases=3,Linecode=CAB103_3_3,Length=0.027865000,Units=km
new line.TR632143 bus1=BMT99559133.1.2.3,bus2=BMT99559126.1.2.3,Phases=3,Linecode=CAB103_3_3,Length=0.031790000,Units=km
new line.TR632115 bus1=BMT99559112.1.2.3,bus2=BMT99559126.1.2.3,Phases=3,Linecode=CAB103_3_3,Length=0.007618000,Units=km
new line.TR767285 bus1=BMT151303616.1.2.3,bus2=BMT520647B.1.2.3,Phases=3,Linecode=CAB103_3_3,Length=0.044088000,Units=km
new line.TR563564 bus1=BMT392141B.1.2.3,bus2=BMT156682998.1.2.3,Phases=3,Linecode=CAB108_3_3,Length=0.027211000,Units=km
new line.TR563578 bus1=BMT392148B.1.2.3,bus2=BMT392141B.1.2.3,Phases=3,Linecode=CAB108_3_3,Length=0.025007000,Units=km
new line.TR779563 bus1=BMT150997859.1.2.3,bus2=BMT527185B.1.2.3,Phases=3,Linecode=CAB103_3_3,Length=0.025027000,Units=km
new line.TR773088 bus1=BMT151303620.1.2.3,bus2=BMT523923B.1.2.3,Phases=3,Linecode=CAB103_3_3,Length=0.019319000,Units=km
new line.TR632080 bus1=BMT99559119.1.2.3,bus2=BMT99559147.1.2.3,Phases=3,Linecode=CAB108_3_3,Length=0.038921000,Units=km
new line.TR624933 bus1=BMT99559567.1.2.3,bus2=BMT99559574.1.2.3,Phases=3,Linecode=CAB103_3_3,Length=0.014427000,Units=km
new line.TR632066 bus1=BMT99559581.1.2.3,bus2=BMT99559588.1.2.3,Phases=3,Linecode=CAB902_4_3,Length=0.013897000,Units=km
new line.TR767278 bus1=BMT151303616.1.2.3,bus2=BMT520640B.1.2.3,Phases=3,Linecode=CAB103_3_3,Length=0.019827000,Units=km
new line.TR632059 bus1=BMT99559147.1.2.3,bus2=BMT99559154.1.2.3,Phases=3,Linecode=CAB108_3_3,Length=0.033115000,Units=km
new line.TR624926 bus1=BMT99559168.1.2.3,bus2=BMT436367B.1.2.3,Phases=3,Linecode=CAB108_3_3,Length=0.035787000,Units=km
new line.TR632087 bus1=BMT99559595.1.2.3,bus2=BMT99559602.1.2.3,Phases=3,Linecode=CAB103_3_3,Length=0.012810000,Units=km
new line.TR624828 bus1=BMT99559189.1.2.3,bus2=BMT2544599B.1.2.3,Phases=3,Linecode=CAB108_3_3,Length=0.034944000,Units=km
new line.TR582373 bus1=BMT99559203.1.2.3,bus2=BMT99559210.1.2.3,Phases=3,Linecode=CAB108_3_3,Length=0.036320000,Units=km
new line.TR624800 bus1=BMT436325B.1.2.3,bus2=BMT436318B.1.2.3,Phases=3,Linecode=CAB108_3_3,Length=0.014345000,Units=km
new line.TR632150 bus1=BMT99559609.1.2.3,bus2=BMT99559616.1.2.3,Phases=3,Linecode=CAB902_4_3,Length=0.009003000,Units=km
new line.TR582142 bus1=BMT99559252.1.2.3,bus2=BMT99559259.1.2.3,Phases=3,Linecode=CAB108_3_3,Length=0.021098000,Units=km