new line.CTR125917 bus1=BMT154793750.1.2.3,bus2=BMT99566336.1.2.3,Phases=3,LineCode=tieSwitch,Length=0.001,Units=km,switch=T !numEQ 2552
new line.CTR172992 bus1=BMT175696166.1.2.3,bus2=BMT99567113.1.2.3,Phases=3,LineCode=tieSwitch,Length=0.001,Units=km,switch=T !numEQ 5851
new line.CTR1730 bus1=BMT99575338.1.2.3,bus2=BMT99576878.1.2.3,Phases=3,LineCode=tieSwitch,Length=0.001,Units=km,switch=T !numEQ 202303
new line.CTR196652 bus1=BMT99573567.1.2.3,bus2=BMT165317397.1.2.3,Phases=3,LineCode=tieSwitch,Length=0.001,Units=km,switch=T !numEQ 148808
new line.CTR196665909 bus1=BMTSEGM#983329545.1.2.3,bus2=BMTSEGM#589997727.1.2.3,Phases=3,LineCode=tieSwitch,Length=0.001,Units=km,switch=T !numEQ 
open line.CTR196665909 term=1
new line.CTR196665946 bus1=BMTSEGM#983329730.1.2.3,bus2=BMTSEGM#589997838.1.2.3,Phases=3,LineCode=tieSwitch,Length=0.001,Units=km,switch=T !numEQ 
new line.CTR196665978 bus1=BMTSEGM#983329890.1.2.3,bus2=BMTSEGM#589997934.1.2.3,Phases=3,LineCode=tieSwitch,Length=0.001,Units=km,switch=T !numEQ 
open line.CTR196665978 term=1
new line.CTR196665982 bus1=BMTSEGM#983329910.1.2.3,bus2=BMTSEGM#589997946.1.2.3,Phases=3,LineCode=tieSwitch,Length=0.001,Units=km,switch=T !numEQ 
new line.CTR196666055 bus1=BMTSEGM#983330275.1.2.3,bus2=BMTSEGM#589998165.1.2.3,Phases=3,LineCode=tieSwitch,Length=0.001,Units=km,switch=T !numEQ 
new line.CTR196666056 bus1=BMTSEGM#983330280.1.2.3,bus2=BMTSEGM#589998168.1.2.3,Phases=3,LineCode=tieSwitch,Length=0.001,Units=km,switch=T !numEQ 
open line.CTR196666056 term=1
new line.CTR196666147 bus1=BMTSEGM#983330735.1.2.3,bus2=BMTSEGM#589998441.1.2.3,Phases=3,LineCode=tieSwitch,Length=0.001,Units=km,switch=T !numEQ 
open line.CTR196666147 term=1
new line.CTR196666153 bus1=BMTSEGM#983330765.1.2.3,bus2=BMTSEGM#589998459.1.2.3,Phases=3,LineCode=tieSwitch,Length=0.001,Units=km,switch=T !numEQ 
new line.CTR196666234 bus1=BMTSEGM#983331170.1.2.3,bus2=BMTSEGM#589998702.1.2.3,Phases=3,LineCode=tieSwitch,Length=0.001,Units=km,switch=T !numEQ 
open line.CTR196666234 term=1
new line.CTR196666240 bus1=BMTSEGM#983331200.1.2.3,bus2=BMTSEGM#589998720.1.2.3,Phases=3,LineCode=tieSwitch,Length=0.001,Units=km,switch=T !numEQ 
new line.CTR196666315 bus1=BMTSEGM#983331575.1.2.3,bus2=BMTSEGM#589998945.1.2.3,Phases=3,LineCode=tieSwitch,Length=0.001,Units=km,switch=T !numEQ 
new line.CTR196666331 bus1=BMTSEGM#983331655.1.2.3,bus2=BMTSEGM#589998993.1.2.3,Phases=3,LineCode=tieSwitch,Length=0.001,Units=km,switch=T !numEQ 
new line.CTR196666343 bus1=BMTSEGM#983331715.1.2.3,bus2=BMTSEGM#589999029.1.2.3,Phases=3,LineCode=tieSwitch,Length=0.001,Units=km,switch=T !numEQ 
new line.CTR196666355 bus1=BMTSEGM#983331775.1.2.3,bus2=BMTSEGM#589999065.1.2.3,Phases=3,LineCode=tieSwitch,Length=0.001,Units=km,switch=T !numEQ 
new line.CTR196666367 bus1=BMTSEGM#983331835.1.2.3,bus2=BMTSEGM#589999101.1.2.3,Phases=3,LineCode=tieSwitch,Length=0.001,Units=km,switch=T !numEQ 
new line.CTR196666387 bus1=BMTSEGM#983331935.1.2.3,bus2=BMTSEGM#589999161.1.2.3,Phases=3,LineCode=tieSwitch,Length=0.001,Units=km,switch=T !numEQ 
new line.CTR196666397 bus1=BMTSEGM#983331985.1.2.3,bus2=BMTSEGM#589999191.1.2.3,Phases=3,LineCode=tieSwitch,Length=0.001,Units=km,switch=T !numEQ 
new line.CTR196666398 bus1=BMTSEGM#983331990.1.2.3,bus2=BMTSEGM#589999194.1.2.3,Phases=3,LineCode=tieSwitch,Length=0.001,Units=km,switch=T !numEQ 
open line.CTR196666398 term=1
new line.CTR196666490 bus1=BMTSEGM#983332450.1.2.3,bus2=BMTSEGM#589999470.1.2.3,Phases=3,LineCode=tieSwitch,Length=0.001,Units=km,switch=T !numEQ 
new line.CTR196666492 bus1=BMTSEGM#983332460.1.2.3,bus2=BMTSEGM#589999476.1.2.3,Phases=3,LineCode=tieSwitch,Length=0.001,Units=km,switch=T !numEQ 
new line.CTR196666493 bus1=BMTSEGM#983332465.1.2.3,bus2=BMTSEGM#589999479.1.2.3,Phases=3,LineCode=tieSwitch,Length=0.001,Units=km,switch=T !numEQ 
open line.CTR196666493 term=1
new line.CTR196666584 bus1=BMTSEGM#983332920.1.2.3,bus2=BMTSEGM#589999752.1.2.3,Phases=3,LineCode=tieSwitch,Length=0.001,Units=km,switch=T !numEQ 
new line.CTR196666586 bus1=BMTSEGM#983332930.1.2.3,bus2=BMTSEGM#589999758.1.2.3,Phases=3,LineCode=tieSwitch,Length=0.001,Units=km,switch=T !numEQ 
new line.CTR196666587 bus1=BMTSEGM#983332935.1.2.3,bus2=BMTSEGM#589999761.1.2.3,Phases=3,LineCode=tieSwitch,Length=0.001,Units=km,switch=T !numEQ 
open line.CTR196666587 term=1
new line.CTR196667736 bus1=BMTSEGM#983338680.1.2.3,bus2=BMTSEGM#590003208.1.2.3,Phases=3,LineCode=tieSwitch,Length=0.001,Units=km,switch=T !numEQ 
new line.CTR196667760 bus1=BMTSEGM#983338800.1.2.3,bus2=BMTSEGM#590003280.1.2.3,Phases=3,LineCode=tieSwitch,Length=0.001,Units=km,switch=T !numEQ 
new line.CTR196667772 bus1=BMTSEGM#983338860.1.2.3,bus2=BMTSEGM#590003316.1.2.3,Phases=3,LineCode=tieSwitch,Length=0.001,Units=km,switch=T !numEQ 
new line.CTR196667784 bus1=BMTSEGM#983338920.1.2.3,bus2=BMTSEGM#590003352.1.2.3,Phases=3,LineCode=tieSwitch,Length=0.001,Units=km,switch=T !numEQ 
new line.CTR196667796 bus1=BMTSEGM#983338980.1.2.3,bus2=BMTSEGM#590003388.1.2.3,Phases=3,LineCode=tieSwitch,Length=0.001,Units=km,switch=T !numEQ 
new line.CTR196667808 bus1=BMTSEGM#983339040.1.2.3,bus2=BMTSEGM#590003424.1.2.3,Phases=3,LineCode=tieSwitch,Length=0.001,Units=km,switch=T !numEQ 
new line.CTR196668022 bus1=BMTSEGM#983340110.1.2.3,bus2=BMTSEGM#590004066.1.2.3,Phases=3,LineCode=tieSwitch,Length=0.001,Units=km,switch=T !numEQ 
open line.CTR196668022 term=1
new line.CTR196668034 bus1=BMTSEGM#983340170.1.2.3,bus2=BMTSEGM#590004102.1.2.3,Phases=3,LineCode=tieSwitch,Length=0.001,Units=km,switch=T !numEQ 
open line.CTR196668034 term=1
new line.CTR196668046 bus1=BMTSEGM#983340230.1.2.3,bus2=BMTSEGM#590004138.1.2.3,Phases=3,LineCode=tieSwitch,Length=0.001,Units=km,switch=T !numEQ 
open line.CTR196668046 term=1
new line.CTR196668058 bus1=BMTSEGM#983340290.1.2.3,bus2=BMTSEGM#590004174.1.2.3,Phases=3,LineCode=tieSwitch,Length=0.001,Units=km,switch=T !numEQ 
open line.CTR196668058 term=1
new line.CTR196668070 bus1=BMTSEGM#983340350.1.2.3,bus2=BMTSEGM#590004210.1.2.3,Phases=3,LineCode=tieSwitch,Length=0.001,Units=km,switch=T !numEQ 
open line.CTR196668070 term=1
new line.CTR196668106 bus1=BMTSEGM#983340530.1.2.3,bus2=BMTSEGM#590004318.1.2.3,Phases=3,LineCode=tieSwitch,Length=0.001,Units=km,switch=T !numEQ 
new line.CTR196668130 bus1=BMTSEGM#983340650.1.2.3,bus2=BMTSEGM#590004390.1.2.3,Phases=3,LineCode=tieSwitch,Length=0.001,Units=km,switch=T !numEQ 
new line.CTR1177 bus1=BMT99567057.1.2.3,bus2=BMT175696161.1.2.3,Phases=3,LineCode=tieSwitch,Length=0.001,Units=km,switch=T !numEQ 11470
new line.CTR159125 bus1=BMT99570669.1.2.3,bus2=BMT99570683.1.2.3,Phases=3,LineCode=tieSwitch,Length=0.001,Units=km,switch=T !numEQ 14216
new line.CTR174301 bus1=BMT99569808.1.2.3,bus2=BMT173504909.1.2.3,Phases=3,LineCode=tieSwitch,Length=0.001,Units=km,switch=T !numEQ 2865
new line.CTR175113 bus1=BMT99564481.1.2.3,bus2=BMT161625640.1.2.3,Phases=3,LineCode=tieSwitch,Length=0.001,Units=km,switch=T !numEQ 7059
new line.CTR175344 bus1=BMT99575163.1.2.3,bus2=BMT99575170.1.2.3,Phases=3,LineCode=tieSwitch,Length=0.001,Units=km,switch=T !numEQ 150743
new line.CTR189533 bus1=BMT171077804.1.2.3,bus2=BMT99560946.1.2.3,Phases=3,LineCode=tieSwitch,Length=0.001,Units=km,switch=T !numEQ 150503
new line.CTR190002 bus1=BMT103827145.1.2.3,bus2=BMT99561842.1.2.3,Phases=3,LineCode=tieSwitch,Length=0.001,Units=km,switch=T !numEQ 14
new line.CTR190016 bus1=BMT99561863.1.2.3,bus2=BMT162664831.1.2.3,Phases=3,LineCode=tieSwitch,Length=0.001,Units=km,switch=T !numEQ 15
new line.CTR190044 bus1=BMT99561877.1.2.3,bus2=BMT2773212.1.2.3,Phases=3,LineCode=tieSwitch,Length=0.001,Units=km,switch=T !numEQ 14024
open line.CTR190044 term=1
new line.CTR190058 bus1=BMT99561898.1.2.3,bus2=BMT161855488.1.2.3,Phases=3,LineCode=tieSwitch,Length=0.001,Units=km,switch=T !numEQ 5742
new line.CTR190086 bus1=BMT99561947.1.2.3,bus2=BMT99561968.1.2.3,Phases=3,LineCode=tieSwitch,Length=0.001,Units=km,switch=T !numEQ 6576
new line.CTR190114 bus1=BMT99562024.1.2.3,bus2=BMT173059984.1.2.3,Phases=3,LineCode=tieSwitch,Length=0.001,Units=km,switch=T !numEQ 109
new line.CTR190128 bus1=BMT99562059.1.2.3,bus2=BMT99562066.1.2.3,Phases=3,LineCode=tieSwitch,Length=0.001,Units=km,switch=T !numEQ 313859
new line.CTR190233 bus1=BMT99563333.1.2.3,bus2=BMT99563347.1.2.3,Phases=3,LineCode=tieSwitch,Length=0.001,Units=km,switch=T !numEQ 8492
new line.CTR190247 bus1=BMT150340681.1.2.3,bus2=BMT99575226.1.2.3,Phases=3,LineCode=tieSwitch,Length=0.001,Units=km,switch=T !numEQ 114
new line.CTR190289 bus1=BMT99575233.1.2.3,bus2=BMT99576962.1.2.3,Phases=3,LineCode=tieSwitch,Length=0.001,Units=km,switch=T !numEQ 2984
new line.CTR190303 bus1=BMT99575254.1.2.3,bus2=BMT173730200.1.2.3,Phases=3,LineCode=tieSwitch,Length=0.001,Units=km,switch=T !numEQ 97
new line.CTR190331 bus1=BMT99575492.1.2.3,bus2=BMT99575534.1.2.3,Phases=3,LineCode=tieSwitch,Length=0.001,Units=km,switch=T !numEQ 11942
new line.CTR190373 bus1=BMT99575380.1.2.3,bus2=BMT99576850.1.2.3,Phases=3,LineCode=tieSwitch,Length=0.001,Units=km,switch=T !numEQ 235796
new line.CTR190422 bus1=BMT99574491.1.2.3,bus2=BMT99575198.1.2.3,Phases=3,LineCode=tieSwitch,Length=0.001,Units=km,switch=T !numEQ 13708
new line.CTR190450 bus1=BMT99574526.1.2.3,bus2=BMT154677301.1.2.3,Phases=3,LineCode=tieSwitch,Length=0.001,Units=km,switch=T !numEQ 5417
new line.CTR190464 bus1=BMT99574701.1.2.3,bus2=BMT99575121.1.2.3,Phases=3,LineCode=tieSwitch,Length=0.001,Units=km,switch=T !numEQ 14082
new line.CTR190478 bus1=BMT99574589.1.2.3,bus2=BMT99574610.1.2.3,Phases=3,LineCode=tieSwitch,Length=0.001,Units=km,switch=T !numEQ 5388
new line.CTR190492 bus1=BMT99574477.1.2.3,bus2=BMT167498334.1.2.3,Phases=3,LineCode=tieSwitch,Length=0.001,Units=km,switch=T !numEQ 5464
new line.CTR190499 bus1=BMT99574631.1.2.3,bus2=BMT99574652.1.2.3,Phases=3,LineCode=tieSwitch,Length=0.001,Units=km,switch=T !numEQ 2954
new line.CTR190541 bus1=BMT99563522.1.2.3,bus2=BMT99563529.1.2.3,Phases=3,LineCode=tieSwitch,Length=0.001,Units=km,switch=T !numEQ 419
new line.CTR190548 bus1=BMT3724344.1.2.3,bus2=BMT99563431.1.2.3,Phases=3,LineCode=tieSwitch,Length=0.001,Units=km,switch=T !numEQ 8535
new line.CTR190562 bus1=BMT158102098.1.2.3,bus2=BMT2773723.1.2.3,Phases=3,LineCode=tieSwitch,Length=0.001,Units=km,switch=T !numEQ 9217
open line.CTR190562 term=1
new line.CTR190590 bus1=BMT155903443.1.2.3,bus2=BMT22773704.1.2.3,Phases=3,LineCode=tieSwitch,Length=0.001,Units=km,switch=T !numEQ 16
open line.CTR190590 term=1
new line.CTR190618 bus1=BMT99564271.1.2.3,bus2=BMT2773779.1.2.3,Phases=3,LineCode=tieSwitch,Length=0.001,Units=km,switch=T !numEQ 243744
open line.CTR190618 term=1
new line.CTR190632 bus1=BMT167277366.1.2.3,bus2=BMT153036440.1.2.3,Phases=3,LineCode=tieSwitch,Length=0.001,Units=km,switch=T !numEQ 304278
open line.CTR190632 term=1
new line.CTR190653 bus1=BMT99565671.1.2.3,bus2=BMT148200506.1.2.3,Phases=3,LineCode=tieSwitch,Length=0.001,Units=km,switch=T !numEQ 2618
new line.CTR190667 bus1=BMT99565692.1.2.3,bus2=BMT99565699.1.2.3,Phases=3,LineCode=tieSwitch,Length=0.001,Units=km,switch=T !numEQ 212514
new line.CTR190709 bus1=BMT99564418.1.2.3,bus2=BMT167833072.1.2.3,Phases=3,LineCode=tieSwitch,Length=0.001,Units=km,switch=T !numEQ 454
new line.CTR190723 bus1=BMT152352501.1.2.3,bus2=BMT99564495.1.2.3,Phases=3,LineCode=tieSwitch,Length=0.001,Units=km,switch=T !numEQ 194195
new line.CTR190737 bus1=BMT99564705.1.2.3,bus2=BMT99564712.1.2.3,Phases=3,LineCode=tieSwitch,Length=0.001,Units=km,switch=T !numEQ 456
new line.CTR190751 bus1=BMT99564859.1.2.3,bus2=BMT99565139.1.2.3,Phases=3,LineCode=tieSwitch,Length=0.001,Units=km,switch=T !numEQ 9614
new line.CTR190765 bus1=BMT99564803.1.2.3,bus2=BMT163741012.1.2.3,Phases=3,LineCode=tieSwitch,Length=0.001,Units=km,switch=T !numEQ 709
new line.CTR190849 bus1=BMT99559364.1.2.3,bus2=BMT99559483.1.2.3,Phases=3,LineCode=tieSwitch,Length=0.001,Units=km,switch=T !numEQ 4071
new line.CTR190863 bus1=BMT99559455.1.2.3,bus2=BMT99559469.1.2.3,Phases=3,LineCode=tieSwitch,Length=0.001,Units=km,switch=T !numEQ 766
new line.CTR190884 bus1=BMT99559679.1.2.3,bus2=BMT150340635.1.2.3,Phases=3,LineCode=tieSwitch,Length=0.001,Units=km,switch=T !numEQ 4198
new line.CTR190898 bus1=BMT99559707.1.2.3,bus2=BMT99559714.1.2.3,Phases=3,LineCode=tieSwitch,Length=0.001,Units=km,switch=T !numEQ 11985
new line.CTR190912 bus1=BMT99559742.1.2.3,bus2=BMT156683087.1.2.3,Phases=3,LineCode=tieSwitch,Length=0.001,Units=km,switch=T !numEQ 1754
new line.CTR190940 bus1=BMT99560778.1.2.3,bus2=BMT171077785.1.2.3,Phases=3,LineCode=tieSwitch,Length=0.001,Units=km,switch=T !numEQ 13730
new line.CTR191017 bus1=BMT99560470.1.2.3,bus2=BMT176066553.1.2.3,Phases=3,LineCode=tieSwitch,Length=0.001,Units=km,switch=T !numEQ 142
new line.CTR202847 bus1=BMT99559196.1.2.3,bus2=BMT99559203.1.2.3,Phases=3,LineCode=tieSwitch,Length=0.001,Units=km,switch=T !numEQ 11980
new line.CTR218919 bus1=BMT104916471.1.2.3,bus2=BMT104962006.1.2.3,Phases=3,LineCode=tieSwitch,Length=0.001,Units=km,switch=T !numEQ 285374
new line.CTR221033 bus1=BMT99564131.1.2.3,bus2=BMT99564152.1.2.3,Phases=3,LineCode=tieSwitch,Length=0.001,Units=km,switch=T !numEQ 11978
new line.CTR1093 bus1=BMT99566609.1.2.3,bus2=BMT164414487.1.2.3,Phases=3,LineCode=tieSwitch,Length=0.001,Units=km,switch=T !numEQ 200156
new line.CTR109901 bus1=BMT167804536.1.2.3,bus2=BMT99571481.1.2.3,Phases=3,LineCode=tieSwitch,Length=0.001,Units=km,switch=T !numEQ 6697
new line.CTR123033 bus1=BMT99569647.1.2.3,bus2=BMT158087172.1.2.3,Phases=3,LineCode=tieSwitch,Length=0.001,Units=km,switch=T !numEQ 2867
new line.CTR136172 bus1=BMT99572713.1.2.3,bus2=BMT149266468.1.2.3,Phases=3,LineCode=tieSwitch,Length=0.001,Units=km,switch=T !numEQ 4954
new line.CTR191059 bus1=BMT99566084.1.2.3,bus2=BMT114505981.1.2.3,Phases=3,LineCode=tieSwitch,Length=0.001,Units=km,switch=T !numEQ 7205
new line.CTR191073 bus1=BMT149448817.1.2.3,bus2=BMT2774325.1.2.3,Phases=3,LineCode=tieSwitch,Length=0.001,Units=km,switch=T !numEQ 422
open line.CTR191073 term=1
new line.CTR191115 bus1=BMT99566280.1.2.3,bus2=BMT154793748.1.2.3,Phases=3,LineCode=tieSwitch,Length=0.001,Units=km,switch=T !numEQ 11976
new line.CTR191136 bus1=BMT99566357.1.2.3,bus2=BMT99566427.1.2.3,Phases=3,LineCode=tieSwitch,Length=0.001,Units=km,switch=T !numEQ 2879
new line.CTR191150 bus1=BMT165421772.1.2.3,bus2=BMT3338406.1.2.3,Phases=3,LineCode=tieSwitch,Length=0.001,Units=km,switch=T !numEQ 11974
open line.CTR191150 term=1
new line.CTR191164 bus1=BMT176309305.1.2.3,bus2=BMT99566105.1.2.3,Phases=3,LineCode=tieSwitch,Length=0.001,Units=km,switch=T !numEQ 302039
open line.CTR191164 term=1
new line.CTR191220 bus1=BMT99567561.1.2.3,bus2=BMT174566017.1.2.3,Phases=3,LineCode=tieSwitch,Length=0.001,Units=km,switch=T !numEQ 2875
new line.CTR191248 bus1=BMT99569577.1.2.3,bus2=BMT99570970.1.2.3,Phases=3,LineCode=tieSwitch,Length=0.001,Units=km,switch=T !numEQ 49
new line.CTR191269 bus1=BMT99568436.1.2.3,bus2=BMT174720740.1.2.3,Phases=3,LineCode=tieSwitch,Length=0.001,Units=km,switch=T !numEQ 5415
new line.CTR191283 bus1=BMT174720746.1.2.3,bus2=BMT99568499.1.2.3,Phases=3,LineCode=tieSwitch,Length=0.001,Units=km,switch=T !numEQ 4610
new line.CTR191311 bus1=BMT99568716.1.2.3,bus2=BMT175271743.1.2.3,Phases=3,LineCode=tieSwitch,Length=0.001,Units=km,switch=T !numEQ 8645
new line.CTR192291 bus1=BMT99563501.1.2.3,bus2=BMT99563998.1.2.3,Phases=3,LineCode=tieSwitch,Length=0.001,Units=km,switch=T !numEQ 106257
new line.CTR192375 bus1=BMT99575765.1.2.3,bus2=BMT161468431.1.2.3,Phases=3,LineCode=tieSwitch,Length=0.001,Units=km,switch=T !numEQ 381681
new line.CTR192809 bus1=BMT152275991.1.2.3,bus2=BMT3679257.1.2.3,Phases=3,LineCode=tieSwitch,Length=0.001,Units=km,switch=T !numEQ 170
open line.CTR192809 term=1
new line.CTR207565 bus1=BMT99566371.1.2.3,bus2=BMT99566378.1.2.3,Phases=3,LineCode=tieSwitch,Length=0.001,Units=km,switch=T !numEQ 10986
new line.CTR247010 bus1=BMT99573581.1.2.3,bus2=BMT99574330.1.2.3,Phases=3,LineCode=tieSwitch,Length=0.001,Units=km,switch=T !numEQ 143816
new line.CTR247304 bus1=BMT99564348.1.2.3,bus2=BMT99565482.1.2.3,Phases=3,LineCode=tieSwitch,Length=0.001,Units=km,switch=T !numEQ 10902
new line.CTR274905 bus1=BMT99576563.1.2.3,bus2=BMT150340684.1.2.3,Phases=3,LineCode=tieSwitch,Length=0.001,Units=km,switch=T !numEQ 101136
new line.CTR274933 bus1=BMT99571782.1.2.3,bus2=BMT149467335.1.2.3,Phases=3,LineCode=tieSwitch,Length=0.001,Units=km,switch=T !numEQ 4471
new line.CTR274940 bus1=BMT149467345.1.2.3,bus2=BMT99571873.1.2.3,Phases=3,LineCode=tieSwitch,Length=0.001,Units=km,switch=T !numEQ 192114
new line.CTR275073 bus1=BMT99568275.1.2.3,bus2=BMT154936865.1.2.3,Phases=3,LineCode=tieSwitch,Length=0.001,Units=km,switch=T !numEQ 12457
new line.CTR275087 bus1=BMT99568345.1.2.3,bus2=BMT99569024.1.2.3,Phases=3,LineCode=tieSwitch,Length=0.001,Units=km,switch=T !numEQ 2857
new line.CTR275101 bus1=BMT99568366.1.2.3,bus2=BMT99569010.1.2.3,Phases=3,LineCode=tieSwitch,Length=0.001,Units=km,switch=T !numEQ 5103
new line.CTR275115 bus1=BMT99568380.1.2.3,bus2=BMT99568996.1.2.3,Phases=3,LineCode=tieSwitch,Length=0.001,Units=km,switch=T !numEQ 2895
new line.CTR275164 bus1=BMT99571201.1.2.3,bus2=BMT152929010.1.2.3,Phases=3,LineCode=tieSwitch,Length=0.001,Units=km,switch=T !numEQ 226078
new line.CTR275234 bus1=BMT99569549.1.2.3,bus2=BMT153494424.1.2.3,Phases=3,LineCode=tieSwitch,Length=0.001,Units=km,switch=T !numEQ 616
new line.CTR275276 bus1=BMT99567883.1.2.3,bus2=BMT175782729.1.2.3,Phases=3,LineCode=tieSwitch,Length=0.001,Units=km,switch=T !numEQ 2862
new line.CTR275290 bus1=BMT175782740.1.2.3,bus2=BMT2774605.1.2.3,Phases=3,LineCode=tieSwitch,Length=0.001,Units=km,switch=T !numEQ 243749
open line.CTR275290 term=1
new line.CTR275304 bus1=BMT99568212.1.2.3,bus2=BMT148165857.1.2.3,Phases=3,LineCode=tieSwitch,Length=0.001,Units=km,switch=T !numEQ 12553
new line.CTR275318 bus1=BMT99568002.1.2.3,bus2=BMT154047513.1.2.3,Phases=3,LineCode=tieSwitch,Length=0.001,Units=km,switch=T !numEQ 6650
new line.CTR275346 bus1=BMT99566112.1.2.3,bus2=BMT149448814.1.2.3,Phases=3,LineCode=tieSwitch,Length=0.001,Units=km,switch=T !numEQ 507
new line.CTR275360 bus1=BMT99566287.1.2.3,bus2=BMT148823240.1.2.3,Phases=3,LineCode=tieSwitch,Length=0.001,Units=km,switch=T !numEQ 11973
new line.CTR275402 bus1=BMT99566553.1.2.3,bus2=BMT99567379.1.2.3,Phases=3,LineCode=tieSwitch,Length=0.001,Units=km,switch=T !numEQ 6469
new line.CTR275416 bus1=BMT99566574.1.2.3,bus2=BMT105817777.1.2.3,Phases=3,LineCode=tieSwitch,Length=0.001,Units=km,switch=T !numEQ 200158
new line.CTR275451 bus1=BMT99566392.1.2.3,bus2=BMT165421770.1.2.3,Phases=3,LineCode=tieSwitch,Length=0.001,Units=km,switch=T !numEQ 11975
new line.CTR275507 bus1=BMT99559910.1.2.3,bus2=BMT99561597.1.2.3,Phases=3,LineCode=tieSwitch,Length=0.001,Units=km,switch=T !numEQ 6523
new line.CTR275521 bus1=BMT99559980.1.2.3,bus2=BMT169596637.1.2.3,Phases=3,LineCode=tieSwitch,Length=0.001,Units=km,switch=T !numEQ 8283
new line.CTR275535 bus1=BMT99560148.1.2.3,bus2=BMT99561485.1.2.3,Phases=3,LineCode=tieSwitch,Length=0.001,Units=km,switch=T !numEQ 9733
new line.CTR275549 bus1=BMT99560197.1.2.3,bus2=BMT165843627.1.2.3,Phases=3,LineCode=tieSwitch,Length=0.001,Units=km,switch=T !numEQ 771
new line.CTR275563 bus1=BMT151921625.1.2.3,bus2=BMT163696000.1.2.3,Phases=3,LineCode=tieSwitch,Length=0.001,Units=km,switch=T !numEQ 215989
new line.CTR275591 bus1=BMT99559938.1.2.3,bus2=BMT173227641.1.2.3,Phases=3,LineCode=tieSwitch,Length=0.001,Units=km,switch=T !numEQ 769
new line.CTR275605 bus1=BMT168711169.1.2.3,bus2=BMT165436971.1.2.3,Phases=3,LineCode=tieSwitch,Length=0.001,Units=km,switch=T !numEQ 669
new line.CTR275633 bus1=BMT99574757.1.2.3,bus2=BMT99575093.1.2.3,Phases=3,LineCode=tieSwitch,Length=0.001,Units=km,switch=T !numEQ 3135
new line.CTR275647 bus1=BMT99574785.1.2.3,bus2=BMT99575079.1.2.3,Phases=3,LineCode=tieSwitch,Length=0.001,Units=km,switch=T !numEQ 202130
new line.CTR11061 bus1=BMT99571656.1.2.3,bus2=BMT152992813.1.2.3,Phases=3,LineCode=tieSwitch,Length=0.001,Units=km,switch=T !numEQ 4207
new line.CTR110678 bus1=BMT169693813.1.2.3,bus2=BMT99573490.1.2.3,Phases=3,LineCode=tieSwitch,Length=0.001,Units=km,switch=T !numEQ 534
new line.CTR111105 bus1=BMT99575044.1.2.3,bus2=BMT2774745.1.2.3,Phases=3,LineCode=tieSwitch,Length=0.001,Units=km,switch=T !numEQ 88
open line.CTR111105 term=1
new line.CTR139553 bus1=BMT99564299.1.2.3,bus2=BMT167277361.1.2.3,Phases=3,LineCode=tieSwitch,Length=0.001,Units=km,switch=T !numEQ 451
new line.CTR152699 bus1=BMT99567876.1.2.3,bus2=BMT152980901.1.2.3,Phases=3,LineCode=tieSwitch,Length=0.001,Units=km,switch=T !numEQ 12543
new line.CTR166902 bus1=BMT99572363.1.2.3,bus2=BMT153223235.1.2.3,Phases=3,LineCode=tieSwitch,Length=0.001,Units=km,switch=T !numEQ 3774
new line.CTR168057 bus1=BMT99563606.1.2.3,bus2=BMT99563816.1.2.3,Phases=3,LineCode=tieSwitch,Length=0.001,Units=km,switch=T !numEQ 2934
new line.CTR168085 bus1=BMT99559728.1.2.3,bus2=BMT99559735.1.2.3,Phases=3,LineCode=tieSwitch,Length=0.001,Units=km,switch=T !numEQ 11984
new line.CTR168141 bus1=BMT99559777.1.2.3,bus2=BMT99559791.1.2.3,Phases=3,LineCode=tieSwitch,Length=0.001,Units=km,switch=T !numEQ 2839
new line.CTR168288 bus1=BMT99563571.1.2.3,bus2=BMT99563578.1.2.3,Phases=3,LineCode=tieSwitch,Length=0.001,Units=km,switch=T !numEQ 2933
new line.CTR16829 bus1=BMT174965950.1.2.3,bus2=BMT99570326.1.2.3,Phases=3,LineCode=tieSwitch,Length=0.001,Units=km,switch=T !numEQ 6655
new line.CTR181952 bus1=BMT99576185.1.2.3,bus2=BMT99576213.1.2.3,Phases=3,LineCode=tieSwitch,Length=0.001,Units=km,switch=T !numEQ 150460
new line.CTR194195 bus1=BMT99564509.1.2.3,bus2=BMT99564579.1.2.3,Phases=3,LineCode=tieSwitch,Length=0.001,Units=km,switch=T !numEQ 6557
new line.CTR194545 bus1=BMT99564103.1.2.3,bus2=BMT99565930.1.2.3,Phases=3,LineCode=tieSwitch,Length=0.001,Units=km,switch=T !numEQ 5526
new line.CTR194573 bus1=BMT99564124.1.2.3,bus2=BMT163841253.1.2.3,Phases=3,LineCode=tieSwitch,Length=0.001,Units=km,switch=T !numEQ 377316
new line.CTR194587 bus1=BMT99564180.1.2.3,bus2=BMT2773744.1.2.3,Phases=3,LineCode=tieSwitch,Length=0.001,Units=km,switch=T !numEQ 6528
open line.CTR194587 term=1
new line.CTR194615 bus1=BMT168422617.1.2.3,bus2=BMT99564628.1.2.3,Phases=3,LineCode=tieSwitch,Length=0.001,Units=km,switch=T !numEQ 13160
new line.CTR210988 bus1=BMT99573931.1.2.3,bus2=BMT99574253.1.2.3,Phases=3,LineCode=tieSwitch,Length=0.001,Units=km,switch=T !numEQ 9309
new line.CTR212017 bus1=BMT99571348.1.2.3,bus2=BMT99571362.1.2.3,Phases=3,LineCode=tieSwitch,Length=0.001,Units=km,switch=T !numEQ 10937
new line.CTR212031 bus1=BMT167804538.1.2.3,bus2=BMT99569850.1.2.3,Phases=3,LineCode=tieSwitch,Length=0.001,Units=km,switch=T !numEQ 11228
open line.CTR212031 term=1
new line.CTR25355 bus1=BMT99567680.1.2.3,bus2=BMT163914730.1.2.3,Phases=3,LineCode=tieSwitch,Length=0.001,Units=km,switch=T !numEQ 381057
new line.CTR254346 bus1=BMT99574127.1.2.3,bus2=BMT149102573.1.2.3,Phases=3,LineCode=tieSwitch,Length=0.001,Units=km,switch=T !numEQ 14085
new line.CTR25446 bus1=BMT99566525.1.2.3,bus2=BMT99567393.1.2.3,Phases=3,LineCode=tieSwitch,Length=0.001,Units=km,switch=T !numEQ 108277
new line.CTR278482 bus1=BMT99569605.1.2.3,bus2=BMT150889886.1.2.3,Phases=3,LineCode=tieSwitch,Length=0.001,Units=km,switch=T !numEQ 12928
new line.CTR278580 bus1=BMT99569752.1.2.3,bus2=BMT99569766.1.2.3,Phases=3,LineCode=tieSwitch,Length=0.001,Units=km,switch=T !numEQ 11227
new line.CTR278594 bus1=BMT99570375.1.2.3,bus2=BMT99570382.1.2.3,Phases=3,LineCode=tieSwitch,Length=0.001,Units=km,switch=T !numEQ 4732
new line.CTR278622 bus1=BMT99570340.1.2.3,bus2=BMT138355226.1.2.3,Phases=3,LineCode=tieSwitch,Length=0.001,Units=km,switch=T !numEQ 12347
new line.CTR278636 bus1=BMT99572636.1.2.3,bus2=BMT99573147.1.2.3,Phases=3,LineCode=tieSwitch,Length=0.001,Units=km,switch=T !numEQ 330
new line.CTR278650 bus1=BMT168594307.1.2.3,bus2=BMT99572664.1.2.3,Phases=3,LineCode=tieSwitch,Length=0.001,Units=km,switch=T !numEQ 7629
new line.CTR278685 bus1=BMT99572811.1.2.3,bus2=BMT99572818.1.2.3,Phases=3,LineCode=tieSwitch,Length=0.001,Units=km,switch=T !numEQ 3152
new line.CTR278699 bus1=BMT99572825.1.2.3,bus2=BMT162167374.1.2.3,Phases=3,LineCode=tieSwitch,Length=0.001,Units=km,switch=T !numEQ 13861
new line.CTR278713 bus1=BMT162167379.1.2.3,bus2=BMT73193423.1.2.3,Phases=3,LineCode=tieSwitch,Length=0.001,Units=km,switch=T !numEQ 212604
open line.CTR278713 term=1
new line.CTR278727 bus1=BMT99572846.1.2.3,bus2=BMT99572853.1.2.3,Phases=3,LineCode=tieSwitch,Length=0.001,Units=km,switch=T !numEQ 2913
new line.CTR278741 bus1=BMT99572685.1.2.3,bus2=BMT99572776.1.2.3,Phases=3,LineCode=tieSwitch,Length=0.001,Units=km,switch=T !numEQ 8641
new line.CTR278755 bus1=BMT99573308.1.2.3,bus2=BMT152159218.1.2.3,Phases=3,LineCode=tieSwitch,Length=0.001,Units=km,switch=T !numEQ 112
new line.CTR278783 bus1=BMT99573210.1.2.3,bus2=BMT99573231.1.2.3,Phases=3,LineCode=tieSwitch,Length=0.001,Units=km,switch=T !numEQ 2286
new line.CTR278853 bus1=BMT99573336.1.2.3,bus2=BMT152159148.1.2.3,Phases=3,LineCode=tieSwitch,Length=0.001,Units=km,switch=T !numEQ 12427
new line.CTR278867 bus1=BMT99573343.1.2.3,bus2=BMT169693810.1.2.3,Phases=3,LineCode=tieSwitch,Length=0.001,Units=km,switch=T !numEQ 67
new line.CTR278881 bus1=BMT99573350.1.2.3,bus2=BMT99573434.1.2.3,Phases=3,LineCode=tieSwitch,Length=0.001,Units=km,switch=T !numEQ 6427
new line.CTR278895 bus1=BMT152159224.1.2.3,bus2=BMT2773401.1.2.3,Phases=3,LineCode=tieSwitch,Length=0.001,Units=km,switch=T !numEQ 66
open line.CTR278895 term=1
new line.CTR278909 bus1=BMT99573455.1.2.3,bus2=BMT99574456.1.2.3,Phases=3,LineCode=tieSwitch,Length=0.001,Units=km,switch=T !numEQ 2990
new line.CTR278937 bus1=BMT99575856.1.2.3,bus2=BMT149442682.1.2.3,Phases=3,LineCode=tieSwitch,Length=0.001,Units=km,switch=T !numEQ 8671
new line.CTR278951 bus1=BMT99575849.1.2.3,bus2=BMT99575884.1.2.3,Phases=3,LineCode=tieSwitch,Length=0.001,Units=km,switch=T !numEQ 7710
new line.CTR278958 bus1=BMT99559182.1.2.3,bus2=BMT99559189.1.2.3,Phases=3,LineCode=tieSwitch,Length=0.001,Units=km,switch=T !numEQ 9403
new line.CTR278972 bus1=BMT99575898.1.2.3,bus2=BMT99575905.1.2.3,Phases=3,LineCode=tieSwitch,Length=0.001,Units=km,switch=T !numEQ 3024
new line.CTR278986 bus1=BMT99575702.1.2.3,bus2=BMT150458295.1.2.3,Phases=3,LineCode=tieSwitch,Length=0.001,Units=km,switch=T !numEQ 232459
new line.CTR279000 bus1=BMT99575681.1.2.3,bus2=BMT99576619.1.2.3,Phases=3,LineCode=tieSwitch,Length=0.001,Units=km,switch=T !numEQ 7854
new line.CTR279014 bus1=BMT99573805.1.2.3,bus2=BMT150766250.1.2.3,Phases=3,LineCode=tieSwitch,Length=0.001,Units=km,switch=T !numEQ 75
new line.CTR11999 bus1=BMT99565664.1.2.3,bus2=BMT99565720.1.2.3,Phases=3,LineCode=tieSwitch,Length=0.001,Units=km,switch=T !numEQ 5027
new line.CTR1205 bus1=BMT99567246.1.2.3,bus2=BMT99567274.1.2.3,Phases=3,LineCode=tieSwitch,Length=0.001,Units=km,switch=T !numEQ 46
new line.CTR193110 bus1=BMT99571005.1.2.3,bus2=BMT157315617.1.2.3,Phases=3,LineCode=tieSwitch,Length=0.001,Units=km,switch=T !numEQ 10536
new line.CTR193509 bus1=BMT158804559.1.2.3,bus2=BMT98966954.1.2.3,Phases=3,LineCode=tieSwitch,Length=0.001,Units=km,switch=T !numEQ 12464
open line.CTR193509 term=1
new line.CTR193551 bus1=BMT152993057.1.2.3,bus2=BMT3732093.1.2.3,Phases=3,LineCode=tieSwitch,Length=0.001,Units=km,switch=T !numEQ 7733
open line.CTR193551 term=1
new line.CTR193593 bus1=BMT150340638.1.2.3,bus2=BMT99561688.1.2.3,Phases=3,LineCode=tieSwitch,Length=0.001,Units=km,switch=T !numEQ 291
new line.CTR193621 bus1=BMT99574519.1.2.3,bus2=BMT99575184.1.2.3,Phases=3,LineCode=tieSwitch,Length=0.001,Units=km,switch=T !numEQ 2120
new line.CTR193761 bus1=BMT99575408.1.2.3,bus2=BMT157699550.1.2.3,Phases=3,LineCode=tieSwitch,Length=0.001,Units=km,switch=T !numEQ 243752
new line.CTR194146 bus1=BMT99558881.1.2.3,bus2=BMT99558888.1.2.3,Phases=3,LineCode=tieSwitch,Length=0.001,Units=km,switch=T !numEQ 195244
new line.CTR194153 bus1=BMT168422618.1.2.3,bus2=BMT99564642.1.2.3,Phases=3,LineCode=tieSwitch,Length=0.001,Units=km,switch=T !numEQ 9244
new line.CTR194181 bus1=BMT99564558.1.2.3,bus2=BMT99564565.1.2.3,Phases=3,LineCode=tieSwitch,Length=0.001,Units=km,switch=T !numEQ 4324
new line.CTR208111 bus1=BMT153498599.1.2.3,bus2=BMT3630054.1.2.3,Phases=3,LineCode=tieSwitch,Length=0.001,Units=km,switch=T !numEQ 694
open line.CTR208111 term=1
new line.CTR228523 bus1=BMT169684730.1.2.3,bus2=BMT3725632.1.2.3,Phases=3,LineCode=tieSwitch,Length=0.001,Units=km,switch=T !numEQ 535
open line.CTR228523 term=1
new line.CTR229055 bus1=BMT99561849.1.2.3,bus2=BMT99563361.1.2.3,Phases=3,LineCode=tieSwitch,Length=0.001,Units=km,switch=T !numEQ 2409
new line.CTR229307 bus1=BMT155032725.1.2.3,bus2=BMT155032717.1.2.3,Phases=3,LineCode=tieSwitch,Length=0.001,Units=km,switch=T !numEQ 6601
open line.CTR229307 term=1
new line.CTR251511 bus1=BMT99565713.1.2.3,bus2=BMT99564369.1.2.3,Phases=3,LineCode=tieSwitch,Length=0.001,Units=km,switch=T !numEQ 6467
open line.CTR251511 term=1
new line.CTR269487 bus1=BMT99562367.1.2.3,bus2=BMT154583291.1.2.3,Phases=3,LineCode=tieSwitch,Length=0.001,Units=km,switch=T !numEQ 13709
new line.CTR270852 bus1=BMT99564838.1.2.3,bus2=BMT99565153.1.2.3,Phases=3,LineCode=tieSwitch,Length=0.001,Units=km,switch=T !numEQ 147771
new line.CTR271006 bus1=BMT99576276.1.2.3,bus2=BMT99576444.1.2.3,Phases=3,LineCode=tieSwitch,Length=0.001,Units=km,switch=T !numEQ 7487
new line.CTR271020 bus1=BMT99576255.1.2.3,bus2=BMT163768384.1.2.3,Phases=3,LineCode=tieSwitch,Length=0.001,Units=km,switch=T !numEQ 6616
new line.CTR271027 bus1=BMT99576171.1.2.3,bus2=BMT168850064.1.2.3,Phases=3,LineCode=tieSwitch,Length=0.001,Units=km,switch=T !numEQ 12547
new line.CTR271048 bus1=BMT99573819.1.2.3,bus2=BMT99573840.1.2.3,Phases=3,LineCode=tieSwitch,Length=0.001,Units=km,switch=T !numEQ 5849
new line.CTR271062 bus1=BMT99573749.1.2.3,bus2=BMT99574316.1.2.3,Phases=3,LineCode=tieSwitch,Length=0.001,Units=km,switch=T !numEQ 2953
new line.CTR293441 bus1=BMT99572923.1.2.3,bus2=BMT153274064.1.2.3,Phases=3,LineCode=tieSwitch,Length=0.001,Units=km,switch=T !numEQ 11656