new transformer.1232709 Phases=3,Windings=2,Buses=[BMT174308748.1.2.3 BBT53165394.1.2.3.0],Conns=[delta wye],kvs=[13.80 0.22],kvas=[100.000000000 100.000000000],Taps=[1,1.000000000],XHL=3.770000000,%loadloss=1.330000000,%noloadloss=0.390000000
new transformer.1257132 Phases=3,Windings=2,Buses=[BMT173700719.1.2.3 BBT63336499.1.2.3.0],Conns=[delta wye],kvs=[13.80 0.22],kvas=[150.000000000 150.000000000],Taps=[1,1.000000000],XHL=3.805000000,%loadloss=1.127000000,%noloadloss=0.280000000
new transformer.1407137 Phases=3,Windings=2,Buses=[BMT161437756.1.2.3 BBT152192874.1.2.3.0],Conns=[delta wye],kvs=[13.80 0.22],kvas=[150.000000000 150.000000000],Taps=[1,1.000000000],XHL=3.805000000,%loadloss=1.127000000,%noloadloss=0.280000000
new transformer.1441955 Phases=3,Windings=2,Buses=[BMT176581630.1.2.3 BBT159575398.1.2.3.0],Conns=[delta wye],kvs=[13.80 0.22],kvas=[45.000000000 45.000000000],Taps=[1,1.000000000],XHL=3.636000000,%loadloss=1.522000000,%noloadloss=0.377777778
new transformer.1448775 Phases=3,Windings=2,Buses=[BMT173685316.1.2.3 BBT161381344.1.2.3.0],Conns=[delta wye],kvs=[13.80 0.22],kvas=[45.000000000 45.000000000],Taps=[1,1.000000000],XHL=3.636000000,%loadloss=1.522000000,%noloadloss=0.377777778
new transformer.1454348 Phases=3,Windings=2,Buses=[BMT162887184.1.2.3 BBT162887185.1.2.3.0],Conns=[delta wye],kvs=[13.80 0.22],kvas=[250.000000000 250.000000000],Taps=[1,1.000000000],XHL=4.880000000,%loadloss=1.080000000,%noloadloss=0.249000000
new transformer.1961 Phases=3,Windings=2,Buses=[BMT99562773.1.2.3 BBT20609.1.2.3.0],Conns=[delta wye],kvs=[13.80 0.22],kvas=[15.000000000 15.000000000],Taps=[1,1.000000000],XHL=3.362000000,%loadloss=1.967000000,%noloadloss=0.500000000
new transformer.216413 Phases=3,Windings=2,Buses=[BMT154705920.1.2.3 BBT1692594.1.2.3.0],Conns=[delta wye],kvs=[13.80 0.22],kvas=[30.000000000 30.000000000],Taps=[1,1.000000000],XHL=3.564000000,%loadloss=1.667000000,%noloadloss=0.433333333
new transformer.216420 Phases=3,Windings=2,Buses=[BMT175271747.1.2.3 BBT1692657.1.2.3.0],Conns=[delta wye],kvs=[13.80 0.22],kvas=[75.000000000 75.000000000],Taps=[1,1.000000000],XHL=3.721000000,%loadloss=1.340000000,%noloadloss=0.340000000
new transformer.216427 Phases=3,Windings=2,Buses=[BMT175271754.1.2.3 BBT1692769.1.2.3.0],Conns=[delta wye],kvs=[13.80 0.22],kvas=[75.000000000 75.000000000],Taps=[1,1.000000000],XHL=3.721000000,%loadloss=1.340000000,%noloadloss=0.340000000
new transformer.216441 Phases=3,Windings=2,Buses=[BMT175271751.1.2.3 BBT1692937.1.2.3.0],Conns=[delta wye],kvs=[13.80 0.22],kvas=[45.000000000 45.000000000],Taps=[1,1.000000000],XHL=3.636000000,%loadloss=1.522000000,%noloadloss=0.377777778
new transformer.1312901 Phases=3,Windings=2,Buses=[BMT155903442.1.2.3 BBT90527236.1.2.3.0],Conns=[delta wye],kvs=[13.80 0.22],kvas=[45.000000000 45.000000000],Taps=[1,1.000000000],XHL=3.636000000,%loadloss=1.522000000,%noloadloss=0.377777778
new transformer.1336050 Phases=3,Windings=2,Buses=[BMT163450454.1.2.3 BBT105273317.1.2.3.0],Conns=[delta wye],kvs=[13.80 0.22],kvas=[45.000000000 45.000000000],Taps=[1,1.000000000],XHL=3.636000000,%loadloss=1.522000000,%noloadloss=0.377777778
new transformer.1358576 Phases=3,Windings=2,Buses=[BMT160320826.1.2.3 BBT122307908.1.2.3.0],Conns=[delta wye],kvs=[13.80 0.22],kvas=[75.000000000 75.000000000],Taps=[1,1.000000000],XHL=3.721000000,%loadloss=1.340000000,%noloadloss=0.340000000
new transformer.1358772 Phases=3,Windings=2,Buses=[BMT122574699.1.2.3 BBT122574706.1.2.3.0],Conns=[delta wye],kvs=[13.80 0.22],kvas=[150.000000000 150.000000000],Taps=[1,1.000000000],XHL=3.805000000,%loadloss=1.127000000,%noloadloss=0.280000000
new transformer.1403793 Phases=3,Windings=2,Buses=[BMT172001042.1.2.3 BBT154121048.1.2.3.0],Conns=[delta wye],kvs=[13.80 0.22],kvas=[45.000000000 45.000000000],Taps=[1,1.000000000],XHL=3.636000000,%loadloss=1.522000000,%noloadloss=0.377777778
new transformer.1404064 Phases=3,Windings=2,Buses=[BMT173685314.1.2.3 BBT151420146.1.2.3.0],Conns=[delta wye],kvs=[13.80 0.22],kvas=[150.000000000 150.000000000],Taps=[1,1.000000000],XHL=3.805000000,%loadloss=1.127000000,%noloadloss=0.280000000
new transformer.1404066 Phases=3,Windings=2,Buses=[BMT151422308.1.2.3 BBT151421351.1.2.3.0],Conns=[delta wye],kvs=[13.80 0.22],kvas=[150.000000000 150.000000000],Taps=[1,1.000000000],XHL=3.805000000,%loadloss=1.127000000,%noloadloss=0.280000000
new transformer.1415015 Phases=3,Windings=2,Buses=[BMT163509169.1.2.3 BBT153875265.1.2.3.0],Conns=[delta wye],kvs=[13.80 0.22],kvas=[150.000000000 150.000000000],Taps=[1,1.000000000],XHL=3.805000000,%loadloss=1.127000000,%noloadloss=0.280000000
new transformer.1449569 Phases=3,Windings=2,Buses=[BMT173685313.1.2.3 BBT161545844.1.2.3.0],Conns=[delta wye],kvs=[13.80 0.22],kvas=[45.000000000 45.000000000],Taps=[1,1.000000000],XHL=3.636000000,%loadloss=1.522000000,%noloadloss=0.377777778
new transformer.1497582 Phases=3,Windings=2,Buses=[BMT171496871.1.2.3 BBT171496883.1.2.3.0],Conns=[delta wye],kvs=[13.80 0.22],kvas=[45.000000000 45.000000000],Taps=[1,1.000000000],XHL=3.636000000,%loadloss=1.522000000,%noloadloss=0.377777778
new transformer.2031 Phases=3,Windings=2,Buses=[BMT99565706.1.2.3 BBT21470.1.2.3.0],Conns=[delta wye],kvs=[13.80 0.22],kvas=[75.000000000 75.000000000],Taps=[1,1.000000000],XHL=3.721000000,%loadloss=1.340000000,%noloadloss=0.340000000
new transformer.2129 Phases=3,Windings=2,Buses=[BMT167170752.1.2.3 BBT22527.1.2.3.0],Conns=[delta wye],kvs=[13.80 0.22],kvas=[75.000000000 75.000000000],Taps=[1,1.000000000],XHL=3.721000000,%loadloss=1.340000000,%noloadloss=0.340000000
new transformer.1057296 Phases=3,Windings=2,Buses=[BMT176182080.1.2.3 BBT9803516.1.2.3.0],Conns=[delta wye],kvs=[13.80 0.22],kvas=[500.000000000 500.000000000],Taps=[1,1.000000000],XHL=4.895000000,%loadloss=1.020000000,%noloadloss=0.260000000
new transformer.1400095 Phases=3,Windings=2,Buses=[BMT154704740.1.2.3 BBT150441356.1.2.3.0],Conns=[delta wye],kvs=[13.80 0.22],kvas=[250.000000000 250.000000000],Taps=[1,1.000000000],XHL=4.880000000,%loadloss=1.080000000,%noloadloss=0.249000000
new transformer.1400113 Phases=1,Windings=3,Buses=[BMT152634873.2 BBT150445137.1.0 BBT150445137.0.2],Conns=[wye wye wye],kvs=[7.967 0.12 0.12],kvas=[5.000000000 5.000000000 5.000000000],Taps=[1,1.000000000,1.000000000],XHL=1.628000000,XHT=1.628000000,XLT=1.085000000,%loadloss=1.900000000,%noloadloss=0.600000000
new transformer.1406149 Phases=3,Windings=2,Buses=[BMT163509171.1.2.3 BBT151895725.1.2.3.0],Conns=[delta wye],kvs=[13.80 0.22],kvas=[75.000000000 75.000000000],Taps=[1,1.000000000],XHL=3.721000000,%loadloss=1.340000000,%noloadloss=0.340000000
new transformer.1406246 Phases=3,Windings=2,Buses=[BMT163696001.1.2.3 BBT151921720.1.2.3.0],Conns=[delta wye],kvs=[13.80 0.22],kvas=[150.000000000 150.000000000],Taps=[1,1.000000000],XHL=3.805000000,%loadloss=1.127000000,%noloadloss=0.280000000
new transformer.1417066 Phases=3,Windings=2,Buses=[BMT163741023.1.2.3 BBT154413202.1.2.3.0],Conns=[delta wye],kvs=[13.80 0.22],kvas=[75.000000000 75.000000000],Taps=[1,1.000000000],XHL=3.721000000,%loadloss=1.340000000,%noloadloss=0.340000000
new transformer.1444335 Phases=3,Windings=2,Buses=[BMT166011610.1.2.3 BBT160121704.1.2.3.0],Conns=[delta wye],kvs=[13.80 0.22],kvas=[45.000000000 45.000000000],Taps=[1,1.000000000],XHL=3.636000000,%loadloss=1.522000000,%noloadloss=0.377777778
new transformer.2017 Phases=3,Windings=2,Buses=[BMT166792546.1.2.3 BBT21316.1.2.3.0],Conns=[delta wye],kvs=[13.80 0.22],kvas=[75.000000000 75.000000000],Taps=[1,1.000000000],XHL=3.721000000,%loadloss=1.340000000,%noloadloss=0.340000000
new transformer.216945 Phases=3,Windings=2,Buses=[BMT175271746.1.2.3 BBT1698257.1.2.3.0],Conns=[delta wye],kvs=[13.80 0.22],kvas=[75.000000000 75.000000000],Taps=[1,1.000000000],XHL=3.721000000,%loadloss=1.340000000,%noloadloss=0.340000000
new transformer.216987 Phases=3,Windings=2,Buses=[BMT175271752.1.2.3 BBT1698691.1.2.3.0],Conns=[delta wye],kvs=[13.80 0.22],kvas=[75.000000000 75.000000000],Taps=[1,1.000000000],XHL=3.721000000,%loadloss=1.340000000,%noloadloss=0.340000000
new transformer.217057 Phases=3,Windings=2,Buses=[BMT154705918.1.2.3 BBT1699496.1.2.3.0],Conns=[delta wye],kvs=[13.80 0.22],kvas=[150.000000000 150.000000000],Taps=[1,1.000000000],XHL=3.805000000,%loadloss=1.127000000,%noloadloss=0.280000000
new transformer.2171 Phases=3,Windings=2,Buses=[BMT99562906.1.2.3 BBT22975.1.2.3.0],Conns=[delta wye],kvs=[13.80 0.22],kvas=[75.000000000 75.000000000],Taps=[1,1.000000000],XHL=3.721000000,%loadloss=1.340000000,%noloadloss=0.340000000
new transformer.217183 Phases=3,Windings=2,Buses=[BMT154705914.1.2.3 BBT1700938.1.2.3.0],Conns=[delta wye],kvs=[13.80 0.22],kvas=[75.000000000 75.000000000],Taps=[1,1.000000000],XHL=3.721000000,%loadloss=1.340000000,%noloadloss=0.340000000
new transformer.217218 Phases=3,Windings=2,Buses=[BMT154705911.1.2.3 BBT1701274.1.2.3.0],Conns=[delta wye],kvs=[13.80 0.22],kvas=[100.000000000 100.000000000],Taps=[1,1.000000000],XHL=3.770000000,%loadloss=1.330000000,%noloadloss=0.390000000
new transformer.217288 Phases=3,Windings=2,Buses=[BMT154705919.1.2.3 BBT1702135.1.2.3.0],Conns=[delta wye],kvs=[13.80 0.22],kvas=[30.000000000 30.000000000],Taps=[1,1.000000000],XHL=3.564000000,%loadloss=1.667000000,%noloadloss=0.433333333
new transformer.217309 Phases=3,Windings=2,Buses=[BMT175271756.1.2.3 BBT1702422.1.2.3.0],Conns=[delta wye],kvs=[13.80 0.22],kvas=[75.000000000 75.000000000],Taps=[1,1.000000000],XHL=3.721000000,%loadloss=1.340000000,%noloadloss=0.340000000
new transformer.1112575 Phases=3,Windings=2,Buses=[BMT99563704.1.2.3 BBT25687860.1.2.3.0],Conns=[delta wye],kvs=[13.80 0.22],kvas=[250.000000000 250.000000000],Taps=[1,1.000000000],XHL=4.880000000,%loadloss=1.080000000,%noloadloss=0.249000000
new transformer.1373549 Phases=3,Windings=2,Buses=[BMT148200508.1.2.3 BBT133760909.1.2.3.0],Conns=[delta wye],kvs=[13.80 0.22],kvas=[250.000000000 250.000000000],Taps=[1,1.000000000],XHL=4.880000000,%loadloss=1.080000000,%noloadloss=0.249000000
new transformer.1426046 Phases=3,Windings=2,Buses=[BMT158804553.1.2.3 BBT156359940.1.2.3.0],Conns=[delta wye],kvs=[13.80 0.22],kvas=[150.000000000 150.000000000],Taps=[1,1.000000000],XHL=3.805000000,%loadloss=1.127000000,%noloadloss=0.280000000
new transformer.1436734 Phases=3,Windings=2,Buses=[BMT158503929.1.2.3 BBT158503791.1.2.3.0],Conns=[delta wye],kvs=[13.80 0.22],kvas=[75.000000000 75.000000000],Taps=[1,1.000000000],XHL=3.721000000,%loadloss=1.340000000,%noloadloss=0.340000000
new transformer.1464214 Phases=3,Windings=2,Buses=[BMT172020697.1.2.3 BBT165162584.1.2.3.0],Conns=[delta wye],kvs=[13.80 0.22],kvas=[150.000000000 150.000000000],Taps=[1,1.000000000],XHL=3.805000000,%loadloss=1.127000000,%noloadloss=0.280000000
new transformer.210890 Phases=3,Windings=2,Buses=[BMT152289684.1.2.3 BBT1665119.1.2.3.0],Conns=[delta wye],kvs=[13.80 0.22],kvas=[75.000000000 75.000000000],Taps=[1,1.000000000],XHL=3.721000000,%loadloss=1.340000000,%noloadloss=0.340000000
new transformer.2157 Phases=3,Windings=2,Buses=[BMT174965948.1.2.3 BBT22821.1.2.3.0],Conns=[delta wye],kvs=[13.80 0.22],kvas=[100.000000000 100.000000000],Taps=[1,1.000000000],XHL=3.770000000,%loadloss=1.330000000,%noloadloss=0.390000000
new transformer.2248 Phases=3,Windings=2,Buses=[BMT138355240.1.2.3 BBT23927.1.2.3.0],Conns=[delta wye],kvs=[13.80 0.22],kvas=[30.000000000 30.000000000],Taps=[1,1.000000000],XHL=3.564000000,%loadloss=1.667000000,%noloadloss=0.433333333
new transformer.2311 Phases=3,Windings=2,Buses=[BMT152933574.1.2.3 BBT24564.1.2.3.0],Conns=[delta wye],kvs=[13.80 0.22],kvas=[100.000000000 100.000000000],Taps=[1,1.000000000],XHL=3.770000000,%loadloss=1.330000000,%noloadloss=0.390000000
new transformer.2360 Phases=3,Windings=2,Buses=[BMT165165310.1.2.3 BBT25124.1.2.3.0],Conns=[delta wye],kvs=[13.80 0.22],kvas=[75.000000000 75.000000000],Taps=[1,1.000000000],XHL=3.721000000,%loadloss=1.340000000,%noloadloss=0.340000000
new transformer.2465 Phases=3,Windings=2,Buses=[BMT149462815.1.2.3 BBT26314.1.2.3.0],Conns=[delta wye],kvs=[13.80 0.22],kvas=[100.000000000 100.000000000],Taps=[1,1.000000000],XHL=3.770000000,%loadloss=1.330000000,%noloadloss=0.390000000
new transformer.33244 Phases=3,Windings=2,Buses=[BMT99561555.1.2.3 BBT333845.1.2.3.0],Conns=[delta wye],kvs=[13.80 0.22],kvas=[75.000000000 75.000000000],Taps=[1,1.000000000],XHL=3.721000000,%loadloss=1.340000000,%noloadloss=0.340000000
new transformer.34168 Phases=3,Windings=2,Buses=[BMT166792552.1.2.3 BBT344835.1.2.3.0],Conns=[delta wye],kvs=[13.80 0.22],kvas=[45.000000000 45.000000000],Taps=[1,1.000000000],XHL=3.636000000,%loadloss=1.522000000,%noloadloss=0.377777778
new transformer.35253 Phases=3,Windings=2,Buses=[BMT176073089.1.2.3 BBT357540.1.2.3.0],Conns=[delta wye],kvs=[13.80 0.22],kvas=[75.000000000 75.000000000],Taps=[1,1.000000000],XHL=3.721000000,%loadloss=1.340000000,%noloadloss=0.340000000
new transformer.36814 Phases=3,Windings=2,Buses=[BMT152987718.1.2.3 BBT375355.1.2.3.0],Conns=[delta wye],kvs=[13.80 0.22],kvas=[75.000000000 75.000000000],Taps=[1,1.000000000],XHL=3.721000000,%loadloss=1.340000000,%noloadloss=0.340000000
new transformer.36821 Phases=3,Windings=2,Buses=[BMT174417589.1.2.3 BBT375453.1.2.3.0],Conns=[delta wye],kvs=[13.80 0.22],kvas=[75.000000000 75.000000000],Taps=[1,1.000000000],XHL=3.721000000,%loadloss=1.340000000,%noloadloss=0.340000000
new transformer.368376 Phases=3,Windings=2,Buses=[BMT99561975.1.2.3 BBT3056432.1.2.3.0],Conns=[delta wye],kvs=[13.80 0.22],kvas=[75.000000000 75.000000000],Taps=[1,1.000000000],XHL=3.721000000,%loadloss=1.340000000,%noloadloss=0.340000000
new transformer.37353 Phases=3,Windings=2,Buses=[BMT174417590.1.2.3 BBT381256.1.2.3.0],Conns=[delta wye],kvs=[13.80 0.22],kvas=[45.000000000 45.000000000],Taps=[1,1.000000000],XHL=3.636000000,%loadloss=1.522000000,%noloadloss=0.377777778
new transformer.373689 Phases=3,Windings=2,Buses=[BMT175271757.1.2.3 BBT3231208.1.2.3.0],Conns=[delta wye],kvs=[13.80 0.22],kvas=[45.000000000 45.000000000],Taps=[1,1.000000000],XHL=3.636000000,%loadloss=1.522000000,%noloadloss=0.377777778
new transformer.1404467 Phases=3,Windings=2,Buses=[BMT159416402.1.2.3 BBT151531750.1.2.3.0],Conns=[delta wye],kvs=[13.80 0.22],kvas=[150.000000000 150.000000000],Taps=[1,1.000000000],XHL=3.805000000,%loadloss=1.127000000,%noloadloss=0.280000000
new transformer.1507632 Phases=3,Windings=2,Buses=[BMT173700724.1.2.3 BBT173700675.1.2.3.0],Conns=[delta wye],kvs=[13.80 0.22],kvas=[45.000000000 45.000000000],Taps=[1,1.000000000],XHL=3.636000000,%loadloss=1.522000000,%noloadloss=0.377777778
new transformer.1968 Phases=3,Windings=2,Buses=[BMT104962020.1.2.3 BBT20728.1.2.3.0],Conns=[delta wye],kvs=[13.80 0.22],kvas=[75.000000000 75.000000000],Taps=[1,1.000000000],XHL=3.721000000,%loadloss=1.340000000,%noloadloss=0.340000000
new transformer.2024 Phases=3,Windings=2,Buses=[BMT165165314.1.2.3 BBT21386.1.2.3.0],Conns=[delta wye],kvs=[13.80 0.22],kvas=[45.000000000 45.000000000],Taps=[1,1.000000000],XHL=3.636000000,%loadloss=1.522000000,%noloadloss=0.377777778
new transformer.207544 Phases=3,Windings=2,Buses=[BMT153274069.1.2.3 BBT1646856.1.2.3.0],Conns=[delta wye],kvs=[13.80 0.22],kvas=[75.000000000 75.000000000],Taps=[1,1.000000000],XHL=3.721000000,%loadloss=1.340000000,%noloadloss=0.340000000
new transformer.2136 Phases=3,Windings=2,Buses=[BMT152631272.1.2.3 BBT22611.1.2.3.0],Conns=[delta wye],kvs=[13.80 0.22],kvas=[75.000000000 75.000000000],Taps=[1,1.000000000],XHL=3.721000000,%loadloss=1.340000000,%noloadloss=0.340000000
new transformer.2227 Phases=3,Windings=2,Buses=[BMT152193168.1.2.3 BBT23563.1.2.3.0],Conns=[delta wye],kvs=[13.80 0.22],kvas=[100.000000000 100.000000000],Taps=[1,1.000000000],XHL=3.770000000,%loadloss=1.330000000,%noloadloss=0.390000000
new transformer.2381 Phases=3,Windings=2,Buses=[BMT175782733.1.2.3 BBT25467.1.2.3.0],Conns=[delta wye],kvs=[13.80 0.22],kvas=[45.000000000 45.000000000],Taps=[1,1.000000000],XHL=3.636000000,%loadloss=1.522000000,%noloadloss=0.377777778
new transformer.2437 Phases=3,Windings=2,Buses=[BMT163450451.1.2.3 BBT26069.1.2.3.0],Conns=[delta wye],kvs=[13.80 0.22],kvas=[75.000000000 75.000000000],Taps=[1,1.000000000],XHL=3.721000000,%loadloss=1.340000000,%noloadloss=0.340000000
new transformer.2486 Phases=3,Windings=2,Buses=[BMT99561506.1.2.3 BBT26531.1.2.3.0],Conns=[delta wye],kvs=[13.80 0.22],kvas=[75.000000000 75.000000000],Taps=[1,1.000000000],XHL=3.721000000,%loadloss=1.340000000,%noloadloss=0.340000000
new transformer.32502 Phases=3,Windings=2,Buses=[BMT153044587.1.2.3 BBT325557.1.2.3.0],Conns=[delta wye],kvs=[13.80 0.22],kvas=[45.000000000 45.000000000],Taps=[1,1.000000000],XHL=3.636000000,%loadloss=1.522000000,%noloadloss=0.377777778
new transformer.33356 Phases=3,Windings=2,Buses=[BMT99565741.1.2.3 BBT335231.1.2.3.0],Conns=[delta wye],kvs=[13.80 0.22],kvas=[75.000000000 75.000000000],Taps=[1,1.000000000],XHL=3.721000000,%loadloss=1.340000000,%noloadloss=0.340000000
new transformer.368075 Phases=3,Windings=2,Buses=[BMT154957033.1.2.3 BBT3034529.1.2.3.0],Conns=[delta wye],kvs=[13.80 0.22],kvas=[150.000000000 150.000000000],Taps=[1,1.000000000],XHL=3.805000000,%loadloss=1.127000000,%noloadloss=0.280000000
new transformer.37689 Phases=3,Windings=2,Buses=[BMT166792549.1.2.3 BBT384910.1.2.3.0],Conns=[delta wye],kvs=[13.80 0.22],kvas=[75.000000000 75.000000000],Taps=[1,1.000000000],XHL=3.721000000,%loadloss=1.340000000,%noloadloss=0.340000000
new transformer.377007 Phases=3,Windings=2,Buses=[BMT138355247.1.2.3 BBT3326702.1.2.3.0],Conns=[delta wye],kvs=[13.80 0.22],kvas=[45.000000000 45.000000000],Taps=[1,1.000000000],XHL=3.636000000,%loadloss=1.522000000,%noloadloss=0.377777778
new transformer.1408039 Phases=3,Windings=2,Buses=[BMT162652017.1.2.3 BBT152401293.1.2.3.0],Conns=[delta wye],kvs=[13.80 0.22],kvas=[150.000000000 150.000000000],Taps=[1,1.000000000],XHL=3.805000000,%loadloss=1.127000000,%noloadloss=0.280000000
new transformer.1408041 Phases=3,Windings=2,Buses=[BMT162652016.1.2.3 BBT152401602.1.2.3.0],Conns=[delta wye],kvs=[13.80 0.22],kvas=[150.000000000 150.000000000],Taps=[1,1.000000000],XHL=3.805000000,%loadloss=1.127000000,%noloadloss=0.280000000
new transformer.1412670 Phases=3,Windings=2,Buses=[BMT161134126.1.2.3 BBT153347643.1.2.3.0],Conns=[delta wye],kvs=[13.80 0.22],kvas=[75.000000000 75.000000000],Taps=[1,1.000000000],XHL=3.721000000,%loadloss=1.340000000,%noloadloss=0.340000000
new transformer.1430176 Phases=3,Windings=2,Buses=[BMT163509172.1.2.3 BBT157242017.1.2.3.0],Conns=[delta wye],kvs=[13.80 0.22],kvas=[75.000000000 75.000000000],Taps=[1,1.000000000],XHL=3.721000000,%loadloss=1.340000000,%noloadloss=0.340000000
new transformer.1446390 Phases=3,Windings=2,Buses=[BMT163762812.1.2.3 BBT160830622.1.2.3.0],Conns=[delta wye],kvs=[13.80 0.22],kvas=[45.000000000 45.000000000],Taps=[1,1.000000000],XHL=3.636000000,%loadloss=1.522000000,%noloadloss=0.377777778
new transformer.1446438 Phases=3,Windings=2,Buses=[BMT161625645.1.2.3 BBT160841708.1.2.3.0],Conns=[delta wye],kvs=[13.80 0.22],kvas=[45.000000000 45.000000000],Taps=[1,1.000000000],XHL=3.636000000,%loadloss=1.522000000,%noloadloss=0.377777778
new transformer.1451737 Phases=1,Windings=3,Buses=[BMT162847834.1 BBT162100712.1.0 BBT162100712.0.2],Conns=[wye wye wye],kvs=[7.967 0.12 0.12],kvas=[10.000000000 10.000000000 10.000000000],Taps=[1,1.000000000,1.000000000],XHL=1.877000000,XHT=1.877000000,XLT=1.252000000,%loadloss=1.800000000,%noloadloss=0.450000000
new transformer.209259 Phases=3,Windings=2,Buses=[BMT153274066.1.2.3 BBT1656663.1.2.3.0],Conns=[delta wye],kvs=[13.80 0.22],kvas=[75.000000000 75.000000000],Taps=[1,1.000000000],XHL=3.721000000,%loadloss=1.340000000,%noloadloss=0.340000000
new transformer.2094 Phases=3,Windings=2,Buses=[BMT174965949.1.2.3 BBT22100.1.2.3.0],Conns=[delta wye],kvs=[13.80 0.22],kvas=[100.000000000 100.000000000],Taps=[1,1.000000000],XHL=3.770000000,%loadloss=1.330000000,%noloadloss=0.390000000
new transformer.209532 Phases=3,Windings=2,Buses=[BMT153274067.1.2.3 BBT1658175.1.2.3.0],Conns=[delta wye],kvs=[13.80 0.22],kvas=[100.000000000 100.000000000],Taps=[1,1.000000000],XHL=3.770000000,%loadloss=1.330000000,%noloadloss=0.390000000
new transformer.2143 Phases=3,Windings=2,Buses=[BMT99562045.1.2.3 BBT22723.1.2.3.0],Conns=[delta wye],kvs=[13.80 0.22],kvas=[100.000000000 100.000000000],Taps=[1,1.000000000],XHL=3.770000000,%loadloss=1.330000000,%noloadloss=0.390000000
new transformer.2199 Phases=3,Windings=2,Buses=[BMT99562052.1.2.3 BBT23318.1.2.3.0],Conns=[delta wye],kvs=[13.80 0.22],kvas=[45.000000000 45.000000000],Taps=[1,1.000000000],XHL=3.636000000,%loadloss=1.522000000,%noloadloss=0.377777778
new transformer.2563 Phases=3,Windings=2,Buses=[BMT163450448.1.2.3 BBT27490.1.2.3.0],Conns=[delta wye],kvs=[13.80 0.22],kvas=[100.000000000 100.000000000],Taps=[1,1.000000000],XHL=3.770000000,%loadloss=1.330000000,%noloadloss=0.390000000
new transformer.35561 Phases=3,Windings=2,Buses=[BMT166792551.1.2.3 BBT361201.1.2.3.0],Conns=[delta wye],kvs=[13.80 0.22],kvas=[45.000000000 45.000000000],Taps=[1,1.000000000],XHL=3.636000000,%loadloss=1.522000000,%noloadloss=0.377777778
new transformer.375992 Phases=3,Windings=2,Buses=[BMT173525778.1.2.3 BBT3304904.1.2.3.0],Conns=[delta wye],kvs=[13.80 0.22],kvas=[45.000000000 45.000000000],Taps=[1,1.000000000],XHL=3.636000000,%loadloss=1.522000000,%noloadloss=0.377777778
new transformer.386562 Phases=3,Windings=2,Buses=[BMT157031836.1.2.3 BBT3437330.1.2.3.0],Conns=[delta wye],kvs=[13.80 0.22],kvas=[45.000000000 45.000000000],Taps=[1,1.000000000],XHL=3.636000000,%loadloss=1.522000000,%noloadloss=0.377777778
new transformer.1317066 Phases=3,Windings=2,Buses=[BMT170494871.1.2.3 BBT91919662.1.2.3.0],Conns=[delta wye],kvs=[13.80 0.22],kvas=[75.000000000 75.000000000],Taps=[1,1.000000000],XHL=3.721000000,%loadloss=1.340000000,%noloadloss=0.340000000
new transformer.1338990 Phases=3,Windings=2,Buses=[BMT163741014.1.2.3 BBT107465052.1.2.3.0],Conns=[delta wye],kvs=[13.80 0.22],kvas=[45.000000000 45.000000000],Taps=[1,1.000000000],XHL=3.636000000,%loadloss=1.522000000,%noloadloss=0.377777778
new transformer.1338997 Phases=3,Windings=2,Buses=[BMT163741016.1.2.3 BBT107476238.1.2.3.0],Conns=[delta wye],kvs=[13.80 0.22],kvas=[45.000000000 45.000000000],Taps=[1,1.000000000],XHL=3.636000000,%loadloss=1.522000000,%noloadloss=0.377777778
new transformer.1387738 Phases=3,Windings=2,Buses=[BMT163762811.1.2.3 BBT139166484.1.2.3.0],Conns=[delta wye],kvs=[13.80 0.22],kvas=[75.000000000 75.000000000],Taps=[1,1.000000000],XHL=3.721000000,%loadloss=1.340000000,%noloadloss=0.340000000
new transformer.1393994 Phases=3,Windings=2,Buses=[BMT148980534.1.2.3 BBT148963684.1.2.3.0],Conns=[delta wye],kvs=[13.80 0.22],kvas=[75.000000000 75.000000000],Taps=[1,1.000000000],XHL=3.721000000,%loadloss=1.340000000,%noloadloss=0.340000000
new transformer.1462488 Phases=3,Windings=2,Buses=[BMT164838609.1.2.3 BBT164838610.1.2.3.0],Conns=[delta wye],kvs=[13.80 0.22],kvas=[45.000000000 45.000000000],Taps=[1,1.000000000],XHL=3.636000000,%loadloss=1.522000000,%noloadloss=0.377777778
new transformer.1511025 Phases=3,Windings=2,Buses=[BMT174417407.1.2.3 BBT174417363.1.2.3.0],Conns=[delta wye],kvs=[13.80 0.22],kvas=[100.000000000 100.000000000],Taps=[1,1.000000000],XHL=3.770000000,%loadloss=1.330000000,%noloadloss=0.390000000
new transformer.208615 Phases=1,Windings=3,Buses=[BMT153274071.3 BBT1653366.1.0 BBT1653366.0.2],Conns=[wye wye wye],kvs=[7.967 0.12 0.12],kvas=[35.000000000 35.000000000 35.000000000],Taps=[1,1.000000000,1.000000000],XHL=2.060000000,XHT=2.060000000,XLT=1.648000000,%loadloss=1.410000000,%noloadloss=0.433000000
new transformer.208734 Phases=3,Windings=2,Buses=[BMT153274072.1.2.3 BBT1654031.1.2.3.0],Conns=[delta wye],kvs=[13.80 0.22],kvas=[45.000000000 45.000000000],Taps=[1,1.000000000],XHL=3.636000000,%loadloss=1.522000000,%noloadloss=0.377777778
new transformer.2297 Phases=3,Windings=2,Buses=[BMT99562038.1.2.3 BBT24396.1.2.3.0],Conns=[delta wye],kvs=[13.80 0.22],kvas=[100.000000000 100.000000000],Taps=[1,1.000000000],XHL=3.770000000,%loadloss=1.330000000,%noloadloss=0.390000000
new transformer.2493 Phases=3,Windings=2,Buses=[BMT152987719.1.2.3 BBT26636.1.2.3.0],Conns=[delta wye],kvs=[13.80 0.22],kvas=[75.000000000 75.000000000],Taps=[1,1.000000000],XHL=3.721000000,%loadloss=1.340000000,%noloadloss=0.340000000
new transformer.33685 Phases=3,Windings=2,Buses=[BMT162847854.1.2.3 BBT338857.1.2.3.0],Conns=[delta wye],kvs=[13.80 0.22],kvas=[30.000000000 30.000000000],Taps=[1,1.000000000],XHL=3.564000000,%loadloss=1.667000000,%noloadloss=0.433333333
new transformer.34224 Phases=3,Windings=2,Buses=[BMT174417587.1.2.3 BBT345514.1.2.3.0],Conns=[delta wye],kvs=[13.80 0.22],kvas=[150.000000000 150.000000000],Taps=[1,1.000000000],XHL=3.805000000,%loadloss=1.127000000,%noloadloss=0.280000000
new transformer.35722 Phases=3,Windings=2,Buses=[BMT99565678.1.2.3 BBT363091.1.2.3.0],Conns=[delta wye],kvs=[13.80 0.22],kvas=[75.000000000 75.000000000],Taps=[1,1.000000000],XHL=3.721000000,%loadloss=1.340000000,%noloadloss=0.340000000
new transformer.36702 Phases=3,Windings=2,Buses=[BMT99561562.1.2.3 BBT374270.1.2.3.0],Conns=[delta wye],kvs=[13.80 0.22],kvas=[75.000000000 75.000000000],Taps=[1,1.000000000],XHL=3.721000000,%loadloss=1.340000000,%noloadloss=0.340000000
new transformer.37801 Phases=3,Windings=2,Buses=[BMT148981062.1.2.3 BBT386114.1.2.3.0],Conns=[delta wye],kvs=[13.80 0.22],kvas=[75.000000000 75.000000000],Taps=[1,1.000000000],XHL=3.721000000,%loadloss=1.340000000,%noloadloss=0.340000000
new transformer.382817 Phases=3,Windings=2,Buses=[BMT154705917.1.2.3 BBT3403303.1.2.3.0],Conns=[delta wye],kvs=[13.80 0.22],kvas=[45.000000000 45.000000000],Taps=[1,1.000000000],XHL=3.636000000,%loadloss=1.522000000,%noloadloss=0.377777778
new transformer.383300 Phases=3,Windings=2,Buses=[BMT163249833.1.2.3 BBT3407951.1.2.3.0],Conns=[delta wye],kvs=[13.80 0.22],kvas=[45.000000000 45.000000000],Taps=[1,1.000000000],XHL=3.636000000,%loadloss=1.522000000,%noloadloss=0.377777778
new transformer.38802 Phases=3,Windings=2,Buses=[BMT159468311.1.2.3 BBT396859.1.2.3.0],Conns=[delta wye],kvs=[13.80 0.22],kvas=[30.000000000 30.000000000],Taps=[1,1.000000000],XHL=3.564000000,%loadloss=1.667000000,%noloadloss=0.433333333
new transformer.38823 Phases=3,Windings=2,Buses=[BMT99570235.1.2.3 BBT397307.1.2.3.0],Conns=[delta wye],kvs=[13.80 0.22],kvas=[150.000000000 150.000000000],Taps=[1,1.000000000],XHL=3.805000000,%loadloss=1.127000000,%noloadloss=0.280000000
new transformer.38837 Phases=3,Windings=2,Buses=[BMT151444873.1.2.3 BBT397405.1.2.3.0],Conns=[delta wye],kvs=[13.80 0.22],kvas=[100.000000000 100.000000000],Taps=[1,1.000000000],XHL=3.770000000,%loadloss=1.330000000,%noloadloss=0.390000000
new transformer.39334 Phases=3,Windings=2,Buses=[BMT173059987.1.2.3 BBT402872.1.2.3.0],Conns=[delta wye],kvs=[13.80 0.22],kvas=[30.000000000 30.000000000],Taps=[1,1.000000000],XHL=3.564000000,%loadloss=1.667000000,%noloadloss=0.433333333
new transformer.39362 Phases=3,Windings=2,Buses=[BMT166792545.1.2.3 BBT403117.1.2.3.0],Conns=[delta wye],kvs=[13.80 0.22],kvas=[75.000000000 75.000000000],Taps=[1,1.000000000],XHL=3.721000000,%loadloss=1.340000000,%noloadloss=0.340000000
new transformer.1418031 Phases=3,Windings=2,Buses=[BMT156908625.1.2.3 BBT154651062.1.2.3.0],Conns=[delta wye],kvs=[13.80 0.22],kvas=[250.000000000 250.000000000],Taps=[1,1.000000000],XHL=4.880000000,%loadloss=1.080000000,%noloadloss=0.249000000
new transformer.1418145 Phases=3,Windings=2,Buses=[BMT154677302.1.2.3 BBT154677305.1.2.3.0],Conns=[delta wye],kvs=[13.80 0.22],kvas=[75.000000000 75.000000000],Taps=[1,1.000000000],XHL=3.721000000,%loadloss=1.340000000,%noloadloss=0.340000000
new transformer.2101 Phases=3,Windings=2,Buses=[BMT163914733.1.2.3 BBT22114.1.2.3.0],Conns=[delta wye],kvs=[13.80 0.22],kvas=[75.000000000 75.000000000],Taps=[1,1.000000000],XHL=3.721000000,%loadloss=1.340000000,%noloadloss=0.340000000
new transformer.2367 Phases=3,Windings=2,Buses=[BMT165843633.1.2.3 BBT25257.1.2.3.0],Conns=[delta wye],kvs=[13.80 0.22],kvas=[150.000000000 150.000000000],Taps=[1,1.000000000],XHL=3.805000000,%loadloss=1.127000000,%noloadloss=0.280000000
new transformer.33083 Phases=3,Windings=2,Buses=[BMT166792550.1.2.3 BBT331899.1.2.3.0],Conns=[delta wye],kvs=[13.80 0.22],kvas=[75.000000000 75.000000000],Taps=[1,1.000000000],XHL=3.721000000,%loadloss=1.340000000,%noloadloss=0.340000000
new transformer.37143 Phases=3,Windings=2,Buses=[BMT152992983.1.2.3 BBT378946.1.2.3.0],Conns=[delta wye],kvs=[13.80 0.22],kvas=[75.000000000 75.000000000],Taps=[1,1.000000000],XHL=3.721000000,%loadloss=1.340000000,%noloadloss=0.340000000
new transformer.37150 Phases=3,Windings=2,Buses=[BMT99565748.1.2.3 BBT379023.1.2.3.0],Conns=[delta wye],kvs=[13.80 0.22],kvas=[75.000000000 75.000000000],Taps=[1,1.000000000],XHL=3.721000000,%loadloss=1.340000000,%noloadloss=0.340000000
new transformer.38228 Phases=3,Windings=2,Buses=[BMT174965944.1.2.3 BBT390762.1.2.3.0],Conns=[delta wye],kvs=[13.80 0.22],kvas=[150.000000000 150.000000000],Taps=[1,1.000000000],XHL=3.805000000,%loadloss=1.127000000,%noloadloss=0.280000000
new transformer.38746 Phases=3,Windings=2,Buses=[BMT104907154.1.2.3 BBT396432.1.2.3.0],Conns=[delta wye],kvs=[13.80 0.22],kvas=[75.000000000 75.000000000],Taps=[1,1.000000000],XHL=3.721000000,%loadloss=1.340000000,%noloadloss=0.340000000
new transformer.38788 Phases=3,Windings=2,Buses=[BMT104962069.1.2.3 BBT396747.1.2.3.0],Conns=[delta wye],kvs=[13.80 0.22],kvas=[150.000000000 150.000000000],Taps=[1,1.000000000],XHL=3.805000000,%loadloss=1.127000000,%noloadloss=0.280000000
new transformer.392680 Phases=3,Windings=2,Buses=[BMT99563634.1.2.3 BBT3523325.1.2.3.0],Conns=[delta wye],kvs=[13.80 0.22],kvas=[45.000000000 45.000000000],Taps=[1,1.000000000],XHL=3.636000000,%loadloss=1.522000000,%noloadloss=0.377777778