new load.3009000162M1 bus1=BMT99566035.1.2.3,Phases=3,kv=13.800000000,kW=9.439,pf=0.92,Vminpu=0.93,Vmaxpu=1.5,model=8,zipv=[0.5,0,0.5,1,0,0,0],daily=MT1_1,status=variable
new load.3009000163M1 bus1=BMT99563991.1.2.3,Phases=3,kv=13.800000000,kW=51.48412,pf=0.92,Vminpu=0.93,Vmaxpu=1.5,model=8,zipv=[0.5,0,0.5,1,0,0,0],daily=MT3_1,status=variable
new load.3009000170M1 bus1=BMT99563991.1.2.3,Phases=3,kv=13.800000000,kW=112.91214,pf=0.92,Vminpu=0.93,Vmaxpu=1.5,model=8,zipv=[0.5,0,0.5,1,0,0,0],daily=MT5_2,status=variable
new load.3009000326M1 bus1=BMT99561373.1.2.3,Phases=3,kv=13.800000000,kW=8.84896,pf=0.92,Vminpu=0.93,Vmaxpu=1.5,model=8,zipv=[0.5,0,0.5,1,0,0,0],daily=MT2_1,status=variable
new load.3009001105M1 bus1=BMT99576969.1.2.3,Phases=3,kv=13.800000000,kW=4.23546,pf=0.92,Vminpu=0.93,Vmaxpu=1.5,model=8,zipv=[0.5,0,0.5,1,0,0,0],daily=MT1_1,status=variable
new load.3009001107M1 bus1=BMT99574463.1.2.3,Phases=3,kv=13.800000000,kW=2.3295,pf=0.92,Vminpu=0.93,Vmaxpu=1.5,model=8,zipv=[0.5,0,0.5,1,0,0,0],daily=MT1_1,status=variable
new load.3009001114M1 bus1=BMT99575128.1.2.3,Phases=3,kv=13.800000000,kW=25.97796,pf=0.92,Vminpu=0.93,Vmaxpu=1.5,model=8,zipv=[0.5,0,0.5,1,0,0,0],daily=MT3_1,status=variable
new load.3009001124M1 bus1=BMT99576528.1.2.3,Phases=3,kv=13.800000000,kW=4.34134,pf=0.92,Vminpu=0.93,Vmaxpu=1.5,model=8,zipv=[0.5,0,0.5,1,0,0,0],daily=MT1_1,status=variable
new load.3009001133M1 bus1=BMT99574232.1.2.3,Phases=3,kv=13.800000000,kW=49.45806,pf=0.92,Vminpu=0.93,Vmaxpu=1.5,model=8,zipv=[0.5,0,0.5,1,0,0,0],daily=MT3_1,status=variable
new load.3009001138M1 bus1=BMT99573770.1.2.3,Phases=3,kv=13.800000000,kW=4.659,pf=0.92,Vminpu=0.93,Vmaxpu=1.5,model=8,zipv=[0.5,0,0.5,1,0,0,0],daily=MT1_1,status=variable
new load.3009001160M1 bus1=BMT150340663.1.2.3,Phases=3,kv=13.800000000,kW=12.60046,pf=0.92,Vminpu=0.93,Vmaxpu=1.5,model=8,zipv=[0.5,0,0.5,1,0,0,0],daily=MT1_1,status=variable
new load.3009001164M1 bus1=BMT99563809.1.2.3,Phases=3,kv=13.800000000,kW=18.8187,pf=0.92,Vminpu=0.93,Vmaxpu=1.5,model=8,zipv=[0.5,0,0.5,1,0,0,0],daily=MT5_2,status=variable
new load.3009001167M1 bus1=BMT99563585.1.2.3,Phases=3,kv=13.800000000,kW=16.8374,pf=0.92,Vminpu=0.93,Vmaxpu=1.5,model=8,zipv=[0.5,0,0.5,1,0,0,0],daily=MT5_3,status=variable
new load.3009003037M1 bus1=BMT99563410.1.2.3,Phases=3,kv=13.800000000,kW=11.0394,pf=0.92,Vminpu=0.93,Vmaxpu=1.5,model=8,zipv=[0.5,0,0.5,1,0,0,0],daily=MT1_1,status=variable
new load.3009003042M1 bus1=BMT99561520.1.2.3,Phases=3,kv=13.800000000,kW=1.05886,pf=0.92,Vminpu=0.93,Vmaxpu=1.5,model=8,zipv=[0.5,0,0.5,1,0,0,0],daily=MT1_1,status=variable
new load.3009003050M1 bus1=BMT99559574.1.2.3,Phases=3,kv=13.800000000,kW=5.4002,pf=0.92,Vminpu=0.93,Vmaxpu=1.5,model=8,zipv=[0.5,0,0.5,1,0,0,0],daily=MT1_1,status=variable
new load.3009003051M1 bus1=BMT99561646.1.2.3,Phases=3,kv=13.800000000,kW=447.2432,pf=0.92,Vminpu=0.93,Vmaxpu=1.5,model=8,zipv=[0.5,0,0.5,1,0,0,0],daily=MT5_3,status=variable
new load.3009003053M1 bus1=BMT99561751.1.2.3,Phases=3,kv=13.800000000,kW=23.28286,pf=0.92,Vminpu=0.93,Vmaxpu=1.5,model=8,zipv=[0.5,0,0.5,1,0,0,0],daily=MT2_1,status=variable
new load.3009003089M1 bus1=BMT99565258.1.2.3,Phases=3,kv=13.800000000,kW=20.69078,pf=0.92,Vminpu=0.93,Vmaxpu=1.5,model=8,zipv=[0.5,0,0.5,1,0,0,0],daily=MT3_1,status=variable
new load.3009003090M1 bus1=BMT99564677.1.2.3,Phases=3,kv=13.800000000,kW=53.03836,pf=0.92,Vminpu=0.93,Vmaxpu=1.5,model=8,zipv=[0.5,0,0.5,1,0,0,0],daily=MT3_1,status=variable
new load.3009003114M1 bus1=BMT99567449.1.2.3,Phases=3,kv=13.800000000,kW=165.2169,pf=0.92,Vminpu=0.93,Vmaxpu=1.5,model=8,zipv=[0.5,0,0.5,1,0,0,0],daily=MT5_3,status=variable
new load.3009008325M1 bus1=BMT99576234.1.2.3,Phases=3,kv=13.800000000,kW=2.11772,pf=0.92,Vminpu=0.93,Vmaxpu=1.5,model=8,zipv=[0.5,0,0.5,1,0,0,0],daily=MT1_1,status=variable
new load.3009008466M1 bus1=BMT163841257.1.2.3,Phases=3,kv=13.800000000,kW=24.40846,pf=0.92,Vminpu=0.93,Vmaxpu=1.5,model=8,zipv=[0.5,0,0.5,1,0,0,0],daily=MT3_1,status=variable
new load.3009008877M1 bus1=BMT99559525.1.2.3,Phases=3,kv=13.800000000,kW=79.38328,pf=0.92,Vminpu=0.93,Vmaxpu=1.5,model=8,zipv=[0.5,0,0.5,1,0,0,0],daily=MT4_1,status=variable
new load.3009009137M1 bus1=BMT153223155.1.2.3,Phases=3,kv=13.800000000,kW=130.94524,pf=0.92,Vminpu=0.93,Vmaxpu=1.5,model=8,zipv=[0.5,0,0.5,1,0,0,0],daily=MT5_2,status=variable
new load.3009009293M1 bus1=BMT150340636.1.2.3,Phases=3,kv=13.800000000,kW=0.86826,pf=0.92,Vminpu=0.93,Vmaxpu=1.5,model=8,zipv=[0.5,0,0.5,1,0,0,0],daily=MT1_1,status=variable
new load.3009009869M1 bus1=BMT99569332.1.2.3,Phases=3,kv=13.800000000,kW=18.54646,pf=0.92,Vminpu=0.93,Vmaxpu=1.5,model=8,zipv=[0.5,0,0.5,1,0,0,0],daily=MT2_1,status=variable
new load.3009010367M1 bus1=BMT99576584.1.2.3,Phases=3,kv=13.800000000,kW=21.16538,pf=0.92,Vminpu=0.93,Vmaxpu=1.5,model=8,zipv=[0.5,0,0.5,1,0,0,0],daily=MT3_1,status=variable
new load.3009010400M1 bus1=BMT99567386.1.2.3,Phases=3,kv=13.800000000,kW=37.77908,pf=0.92,Vminpu=0.93,Vmaxpu=1.5,model=8,zipv=[0.5,0,0.5,1,0,0,0],daily=MT3_1,status=variable
new load.3009010496M1 bus1=BMT150340680.1.2.3,Phases=3,kv=13.800000000,kW=244.5523,pf=0.92,Vminpu=0.93,Vmaxpu=1.5,model=8,zipv=[0.5,0,0.5,1,0,0,0],daily=MT5_1,status=variable
new load.3009010575M1 bus1=BMT99576843.1.2.3,Phases=3,kv=13.800000000,kW=17.57672,pf=0.92,Vminpu=0.93,Vmaxpu=1.5,model=8,zipv=[0.5,0,0.5,1,0,0,0],daily=MT2_1,status=variable
new load.3009011393M1 bus1=BMT99576451.1.2.3,Phases=3,kv=13.800000000,kW=8.24288,pf=0.92,Vminpu=0.93,Vmaxpu=1.5,model=8,zipv=[0.5,0,0.5,1,0,0,0],daily=MT2_1,status=variable
new load.3009011410M1 bus1=BMT99564586.1.2.3,Phases=3,kv=13.800000000,kW=19.75866,pf=0.92,Vminpu=0.93,Vmaxpu=1.5,model=8,zipv=[0.5,0,0.5,1,0,0,0],daily=MT2_1,status=variable
new load.3009011904M1 bus1=BMT99563354.1.2.3,Phases=3,kv=13.800000000,kW=3.39412,pf=0.92,Vminpu=0.93,Vmaxpu=1.5,model=8,zipv=[0.5,0,0.5,1,0,0,0],daily=MT2_1,status=variable
new load.3009012275M1 bus1=BMT99565146.1.2.3,Phases=3,kv=13.800000000,kW=48.37564,pf=0.92,Vminpu=0.93,Vmaxpu=1.5,model=8,zipv=[0.5,0,0.5,1,0,0,0],daily=MT3_1,status=variable
new load.3009012276M1 bus1=BMT99575793.1.2.3,Phases=3,kv=13.800000000,kW=4.35646,pf=0.92,Vminpu=0.93,Vmaxpu=1.5,model=8,zipv=[0.5,0,0.5,1,0,0,0],daily=MT1_1,status=variable
new load.3009012491M1 bus1=BMT99575100.1.2.3,Phases=3,kv=13.800000000,kW=12.06126,pf=0.92,Vminpu=0.93,Vmaxpu=1.5,model=8,zipv=[0.5,0,0.5,1,0,0,0],daily=MT2_1,status=variable
new load.3009012593M1 bus1=BMT99576801.1.2.3,Phases=3,kv=13.800000000,kW=11.72162,pf=0.92,Vminpu=0.93,Vmaxpu=1.5,model=8,zipv=[0.5,0,0.5,1,0,0,0],daily=MT1_1,status=variable
new load.3009012925M1 bus1=BMT150340658.1.2.3,Phases=3,kv=13.800000000,kW=324.0332,pf=0.92,Vminpu=0.93,Vmaxpu=1.5,model=8,zipv=[0.5,0,0.5,1,0,0,0],daily=MT5_1,status=variable
new load.3009012942M1 bus1=BMT99576486.1.2.3,Phases=3,kv=13.800000000,kW=12.84918,pf=0.92,Vminpu=0.93,Vmaxpu=1.5,model=8,zipv=[0.5,0,0.5,1,0,0,0],daily=MT2_1,status=variable
new load.3009013118M1 bus1=BMT99563459.1.2.3,Phases=3,kv=13.800000000,kW=29.7248,pf=0.92,Vminpu=0.93,Vmaxpu=1.5,model=8,zipv=[0.5,0,0.5,1,0,0,0],daily=MT3_1,status=variable
new load.3009013182M1 bus1=BMT173227393.1.2.3,Phases=3,kv=13.800000000,kW=90.99468,pf=0.92,Vminpu=0.93,Vmaxpu=1.5,model=8,zipv=[0.5,0,0.5,1,0,0,0],daily=MT5_1,status=variable
new load.3009013227M1 bus1=BMT99576108.1.2.3,Phases=3,kv=13.800000000,kW=50.7049,pf=0.92,Vminpu=0.93,Vmaxpu=1.5,model=8,zipv=[0.5,0,0.5,1,0,0,0],daily=MT2_1,status=variable
new load.3009013904M1 bus1=BMT99563368.1.2.3,Phases=3,kv=13.800000000,kW=17.05232,pf=0.92,Vminpu=0.93,Vmaxpu=1.5,model=8,zipv=[0.5,0,0.5,1,0,0,0],daily=MT4_1,status=variable
new load.3009014961M1 bus1=BMT99571551.1.2.3,Phases=3,kv=13.800000000,kW=12.12188,pf=0.92,Vminpu=0.93,Vmaxpu=1.5,model=8,zipv=[0.5,0,0.5,1,0,0,0],daily=MT2_1,status=variable
new load.3009015532M1 bus1=BMT162761417.1.2.3,Phases=3,kv=13.800000000,kW=15.94026,pf=0.92,Vminpu=0.93,Vmaxpu=1.5,model=8,zipv=[0.5,0,0.5,1,0,0,0],daily=MT2_1,status=variable
new load.3009015938M1 bus1=BMT99573238.1.2.3,Phases=3,kv=13.800000000,kW=71.5035,pf=0.92,Vminpu=0.93,Vmaxpu=1.5,model=8,zipv=[0.5,0,0.5,1,0,0,0],daily=MT4_1,status=variable
new load.3009015940M1 bus1=BMT99565979.1.2.3,Phases=3,kv=13.800000000,kW=11.01218,pf=0.92,Vminpu=0.93,Vmaxpu=1.5,model=8,zipv=[0.5,0,0.5,1,0,0,0],daily=MT1_1,status=variable
new load.3009016002M1 bus1=BMT99572419.1.2.3,Phases=3,kv=13.800000000,kW=13.81894,pf=0.92,Vminpu=0.93,Vmaxpu=1.5,model=8,zipv=[0.5,0,0.5,1,0,0,0],daily=MT2_1,status=variable
new load.3009016042M1 bus1=BMT99574421.1.2.3,Phases=3,kv=13.800000000,kW=21.50918,pf=0.92,Vminpu=0.93,Vmaxpu=1.5,model=8,zipv=[0.5,0,0.5,1,0,0,0],daily=MT4_1,status=variable
new load.3009016089M1 bus1=BMT99559798.1.2.3,Phases=3,kv=13.800000000,kW=13.0799,pf=0.92,Vminpu=0.93,Vmaxpu=1.5,model=8,zipv=[0.5,0,0.5,1,0,0,0],daily=MT4_1,status=variable
new load.3009016310M1 bus1=BMT99576080.1.2.3,Phases=3,kv=13.800000000,kW=22.98606,pf=0.92,Vminpu=0.93,Vmaxpu=1.5,model=8,zipv=[0.5,0,0.5,1,0,0,0],daily=MT3_1,status=variable
new load.3009016337M1 bus1=BMT112664421.1.2.3,Phases=3,kv=13.800000000,kW=83.12534,pf=0.92,Vminpu=0.93,Vmaxpu=1.5,model=8,zipv=[0.5,0,0.5,1,0,0,0],daily=MT3_1,status=variable
new load.3009016756M1 bus1=BMT150340685.1.2.3,Phases=3,kv=13.800000000,kW=104.78726,pf=0.92,Vminpu=0.93,Vmaxpu=1.5,model=8,zipv=[0.5,0,0.5,1,0,0,0],daily=MT5_2,status=variable
new load.3009016757M1 bus1=BMT99573868.1.2.3,Phases=3,kv=13.800000000,kW=43.24258,pf=0.92,Vminpu=0.93,Vmaxpu=1.5,model=8,zipv=[0.5,0,0.5,1,0,0,0],daily=MT4_1,status=variable
new load.3009017541M1 bus1=BMT99560106.1.2.3,Phases=3,kv=13.800000000,kW=0.55818,pf=0.92,Vminpu=0.93,Vmaxpu=1.5,model=8,zipv=[0.5,0,0.5,1,0,0,0],daily=MT1_1,status=variable
new load.3009017740M1 bus1=BMT99568947.1.2.3,Phases=3,kv=13.800000000,kW=7.8186,pf=0.92,Vminpu=0.93,Vmaxpu=1.5,model=8,zipv=[0.5,0,0.5,1,0,0,0],daily=MT2_1,status=variable
new load.3009017760M1 bus1=BMT99561387.1.2.3,Phases=3,kv=13.800000000,kW=37.69902,pf=0.92,Vminpu=0.93,Vmaxpu=1.5,model=8,zipv=[0.5,0,0.5,1,0,0,0],daily=MT2_1,status=variable
new load.3009017776M1 bus1=BMT151444819.1.2.3,Phases=3,kv=13.800000000,kW=1.11634,pf=0.92,Vminpu=0.93,Vmaxpu=1.5,model=8,zipv=[0.5,0,0.5,1,0,0,0],daily=MT1_1,status=variable
new load.3009017900M1 bus1=BMT99563718.1.2.3,Phases=3,kv=13.800000000,kW=2.3295,pf=0.92,Vminpu=0.93,Vmaxpu=1.5,model=8,zipv=[0.5,0,0.5,1,0,0,0],daily=MT1_1,status=variable
new load.3009017964M1 bus1=BMT99575058.1.2.3,Phases=3,kv=13.800000000,kW=20.84962,pf=0.92,Vminpu=0.93,Vmaxpu=1.5,model=8,zipv=[0.5,0,0.5,1,0,0,0],daily=MT2_1,status=variable
new load.3009018969M1 bus1=BMT99576829.1.2.3,Phases=3,kv=13.800000000,kW=44.56858,pf=0.92,Vminpu=0.93,Vmaxpu=1.5,model=8,zipv=[0.5,0,0.5,1,0,0,0],daily=MT4_1,status=variable
new load.3009019481M1 bus1=BMT99576094.1.2.3,Phases=3,kv=13.800000000,kW=5.70576,pf=0.92,Vminpu=0.93,Vmaxpu=1.5,model=8,zipv=[0.5,0,0.5,1,0,0,0],daily=MT1_1,status=variable
new load.3009019534M1 bus1=BMT99576857.1.2.3,Phases=3,kv=13.800000000,kW=2.85288,pf=0.92,Vminpu=0.93,Vmaxpu=1.5,model=8,zipv=[0.5,0,0.5,1,0,0,0],daily=MT1_1,status=variable
new load.3009019608M1 bus1=BMT118151959.1.2.3,Phases=3,kv=13.800000000,kW=19.91366,pf=0.92,Vminpu=0.93,Vmaxpu=1.5,model=8,zipv=[0.5,0,0.5,1,0,0,0],daily=MT3_1,status=variable
new load.3009019912M1 bus1=BMT150340683.1.2.3,Phases=3,kv=13.800000000,kW=39.34164,pf=0.92,Vminpu=0.93,Vmaxpu=1.5,model=8,zipv=[0.5,0,0.5,1,0,0,0],daily=MT3_1,status=variable
new load.3009019965M1 bus1=BMT99563914.1.2.3,Phases=3,kv=13.800000000,kW=31.4733,pf=0.92,Vminpu=0.93,Vmaxpu=1.5,model=8,zipv=[0.5,0,0.5,1,0,0,0],daily=MT3_1,status=variable
new load.3009020098M1 bus1=BMT150340652.1.2.3,Phases=3,kv=13.800000000,kW=25.74206,pf=0.92,Vminpu=0.93,Vmaxpu=1.5,model=8,zipv=[0.5,0,0.5,1,0,0,0],daily=MT3_1,status=variable
new load.3009020358M1 bus1=BMT99576367.1.2.3,Phases=3,kv=13.800000000,kW=23.8345,pf=0.92,Vminpu=0.93,Vmaxpu=1.5,model=8,zipv=[0.5,0,0.5,1,0,0,0],daily=MT4_1,status=variable
new load.3009020720M1 bus1=BMT99572006.1.2.3,Phases=3,kv=13.800000000,kW=19.0676,pf=0.92,Vminpu=0.93,Vmaxpu=1.5,model=8,zipv=[0.5,0,0.5,1,0,0,0],daily=MT4_1,status=variable
new load.3009020744M1 bus1=BMT99572783.1.2.3,Phases=3,kv=13.800000000,kW=7.38178,pf=0.92,Vminpu=0.93,Vmaxpu=1.5,model=8,zipv=[0.5,0,0.5,1,0,0,0],daily=MT1_1,status=variable
new load.3009020764M1 bus1=BMT150342769.1.2.3,Phases=3,kv=13.800000000,kW=67.0265,pf=0.92,Vminpu=0.93,Vmaxpu=1.5,model=8,zipv=[0.5,0,0.5,1,0,0,0],daily=MT3_1,status=variable
new load.3009020831M1 bus1=BMT99565160.1.2.3,Phases=3,kv=13.800000000,kW=50.8652,pf=0.92,Vminpu=0.93,Vmaxpu=1.5,model=8,zipv=[0.5,0,0.5,1,0,0,0],daily=MT3_1,status=variable
new load.3009020965M1 bus1=BMT99574246.1.2.3,Phases=3,kv=13.800000000,kW=59.76638,pf=0.92,Vminpu=0.93,Vmaxpu=1.5,model=8,zipv=[0.5,0,0.5,1,0,0,0],daily=MT5_1,status=variable
new load.3009021176M1 bus1=BMT99573441.1.2.3,Phases=3,kv=13.800000000,kW=8.61612,pf=0.92,Vminpu=0.93,Vmaxpu=1.5,model=8,zipv=[0.5,0,0.5,1,0,0,0],daily=MT1_1,status=variable
new load.3009021194M1 bus1=BMT99566434.1.2.3,Phases=3,kv=13.800000000,kW=88.16826,pf=0.92,Vminpu=0.93,Vmaxpu=1.5,model=8,zipv=[0.5,0,0.5,1,0,0,0],daily=MT4_1,status=variable
new load.3009021326M1 bus1=BMT99571971.1.2.3,Phases=3,kv=13.800000000,kW=113.84364,pf=0.92,Vminpu=0.93,Vmaxpu=1.5,model=8,zipv=[0.5,0,0.5,1,0,0,0],daily=MT4_1,status=variable
new load.3009021379M1 bus1=BMT99561254.1.2.3,Phases=3,kv=13.800000000,kW=6.8221,pf=0.92,Vminpu=0.93,Vmaxpu=1.5,model=8,zipv=[0.5,0,0.5,1,0,0,0],daily=MT1_1,status=variable
new load.3009021426M1 bus1=BMT174308810.1.2.3,Phases=3,kv=13.800000000,kW=10.05228,pf=0.92,Vminpu=0.93,Vmaxpu=1.5,model=8,zipv=[0.5,0,0.5,1,0,0,0],daily=MT2_1,status=variable
new load.3009021506M1 bus1=BMT99573294.1.2.3,Phases=3,kv=13.800000000,kW=20.0011,pf=0.92,Vminpu=0.93,Vmaxpu=1.5,model=8,zipv=[0.5,0,0.5,1,0,0,0],daily=MT2_1,status=variable
new load.3009021537M1 bus1=BMT99574393.1.2.3,Phases=3,kv=13.800000000,kW=17.11882,pf=0.92,Vminpu=0.93,Vmaxpu=1.5,model=8,zipv=[0.5,0,0.5,1,0,0,0],daily=MT3_1,status=variable
new load.3009021609M1 bus1=BMT99576955.1.2.3,Phases=3,kv=13.800000000,kW=125.50522,pf=0.92,Vminpu=0.93,Vmaxpu=1.5,model=8,zipv=[0.5,0,0.5,1,0,0,0],daily=MT5_1,status=variable
new load.3009022058M1 bus1=BMT99570690.1.2.3,Phases=3,kv=13.800000000,kW=49.32568,pf=0.92,Vminpu=0.93,Vmaxpu=1.5,model=8,zipv=[0.5,0,0.5,1,0,0,0],daily=MT2_1,status=variable
new load.3009022059M1 bus1=BMT99565909.1.2.3,Phases=3,kv=13.800000000,kW=13.09162,pf=0.92,Vminpu=0.93,Vmaxpu=1.5,model=8,zipv=[0.5,0,0.5,1,0,0,0],daily=MT2_1,status=variable
new load.3009022256M1 bus1=BMT165992968.1.2.3,Phases=3,kv=13.800000000,kW=30.21188,pf=0.92,Vminpu=0.93,Vmaxpu=1.5,model=8,zipv=[0.5,0,0.5,1,0,0,0],daily=MT3_1,status=variable
new load.3009900241M1 bus1=BMT99559476.1.2.3,Phases=3,kv=13.800000000,kW=1006.3047,pf=0.92,Vminpu=0.93,Vmaxpu=1.5,model=8,zipv=[0.5,0,0.5,1,0,0,0],daily=MT5_3,status=variable
new load.3010000149M1 bus1=BMT99565489.1.2.3,Phases=3,kv=13.800000000,kW=23.04296,pf=0.92,Vminpu=0.93,Vmaxpu=1.5,model=8,zipv=[0.5,0,0.5,1,0,0,0],daily=MT3_1,status=variable
new load.3010000408M1 bus1=BMT99570473.1.2.3,Phases=3,kv=13.800000000,kW=8.18652,pf=0.92,Vminpu=0.93,Vmaxpu=1.5,model=8,zipv=[0.5,0,0.5,1,0,0,0],daily=MT1_1,status=variable
new load.3010000426M1 bus1=BMT99575072.1.2.3,Phases=3,kv=13.800000000,kW=233.4354,pf=0.92,Vminpu=0.93,Vmaxpu=1.5,model=8,zipv=[0.5,0,0.5,1,0,0,0],daily=MT5_2,status=variable
new load.3010000862M1 bus1=BMT99575177.1.2.3,Phases=3,kv=13.800000000,kW=11.96968,pf=0.92,Vminpu=0.93,Vmaxpu=1.5,model=8,zipv=[0.5,0,0.5,1,0,0,0],daily=MT1_1,status=variable
new load.3010000872M1 bus1=BMT99564285.1.2.3,Phases=3,kv=13.800000000,kW=3.16298,pf=0.92,Vminpu=0.93,Vmaxpu=1.5,model=8,zipv=[0.5,0,0.5,1,0,0,0],daily=MT1_1,status=variable
new load.3010046173M1 bus1=BMT99563396.1.2.3,Phases=3,kv=13.800000000,kW=15.53266,pf=0.92,Vminpu=0.93,Vmaxpu=1.5,model=8,zipv=[0.5,0,0.5,1,0,0,0],daily=MT3_1,status=variable
new load.3010159974M1 bus1=BMT99570809.1.2.3,Phases=3,kv=13.800000000,kW=21.37076,pf=0.92,Vminpu=0.93,Vmaxpu=1.5,model=8,zipv=[0.5,0,0.5,1,0,0,0],daily=MT3_1,status=variable
new load.3010206703M1 bus1=BMT99562885.1.2.3,Phases=3,kv=13.800000000,kW=23.7826,pf=0.92,Vminpu=0.93,Vmaxpu=1.5,model=8,zipv=[0.5,0,0.5,1,0,0,0],daily=MT3_1,status=variable
new load.3010212901M1 bus1=BMT99576220.1.2.3,Phases=3,kv=13.800000000,kW=2.23268,pf=0.92,Vminpu=0.93,Vmaxpu=1.5,model=8,zipv=[0.5,0,0.5,1,0,0,0],daily=MT1_1,status=variable
new load.3010234895M1 bus1=BMT155032724.1.2.3,Phases=3,kv=13.800000000,kW=2615.44812,pf=0.92,Vminpu=0.93,Vmaxpu=1.5,model=8,zipv=[0.5,0,0.5,1,0,0,0],daily=MT5_3,status=variable
new load.3010265316M1 bus1=BMT99571166.1.2.3,Phases=3,kv=13.800000000,kW=35.0408,pf=0.92,Vminpu=0.93,Vmaxpu=1.5,model=8,zipv=[0.5,0,0.5,1,0,0,0],daily=MT1_1,status=variable
new load.3010490884M1 bus1=BMT99571929.1.2.3,Phases=3,kv=13.800000000,kW=25.2619,pf=0.92,Vminpu=0.93,Vmaxpu=1.5,model=8,zipv=[0.5,0,0.5,1,0,0,0],daily=MT3_1,status=variable
new load.3010564519M1 bus1=BMT99563445.1.2.3,Phases=3,kv=13.800000000,kW=852.2546,pf=0.92,Vminpu=0.93,Vmaxpu=1.5,model=8,zipv=[0.5,0,0.5,1,0,0,0],daily=MT5_3,status=variable
new load.3010590298M1 bus1=BMT99574659.1.2.3,Phases=3,kv=13.800000000,kW=215.01698,pf=0.92,Vminpu=0.93,Vmaxpu=1.5,model=8,zipv=[0.5,0,0.5,1,0,0,0],daily=MT5_2,status=variable
new load.3010628594M1 bus1=BMT99571957.1.2.3,Phases=3,kv=13.800000000,kW=41.5529,pf=0.92,Vminpu=0.93,Vmaxpu=1.5,model=8,zipv=[0.5,0,0.5,1,0,0,0],daily=MT2_1,status=variable
new load.3010628675M1 bus1=BMT99576885.1.2.3,Phases=3,kv=13.800000000,kW=7.83134,pf=0.92,Vminpu=0.93,Vmaxpu=1.5,model=8,zipv=[0.5,0,0.5,1,0,0,0],daily=MT4_1,status=variable
new load.3010638839M1 bus1=BMT99559588.1.2.3,Phases=3,kv=13.800000000,kW=9.45506,pf=0.92,Vminpu=0.93,Vmaxpu=1.5,model=8,zipv=[0.5,0,0.5,1,0,0,0],daily=MT2_1,status=variable
new load.3010789542M1 bus1=BMT157552630.1.2.3,Phases=3,kv=13.800000000,kW=3058.4068,pf=0.92,Vminpu=0.93,Vmaxpu=1.5,model=8,zipv=[0.5,0,0.5,1,0,0,0],daily=MT5_3,status=variable
new load.3010847150M1 bus1=BMT99567309.1.2.3,Phases=3,kv=13.800000000,kW=4.3713,pf=0.92,Vminpu=0.93,Vmaxpu=1.5,model=8,zipv=[0.5,0,0.5,1,0,0,0],daily=MT3_1,status=variable
new load.3010914836M1 bus1=BMT99573427.1.2.3,Phases=3,kv=13.800000000,kW=2.66682,pf=0.92,Vminpu=0.93,Vmaxpu=1.5,model=8,zipv=[0.5,0,0.5,1,0,0,0],daily=MT1_1,status=variable
new load.3010932356M1 bus1=BMT150349145.1.2.3,Phases=3,kv=13.800000000,kW=77.32398,pf=0.92,Vminpu=0.93,Vmaxpu=1.5,model=8,zipv=[0.5,0,0.5,1,0,0,0],daily=MT5_1,status=variable
new load.3010957550M1 bus1=BMT99572517.1.2.3,Phases=3,kv=13.800000000,kW=388.04738,pf=0.92,Vminpu=0.93,Vmaxpu=1.5,model=8,zipv=[0.5,0,0.5,1,0,0,0],daily=MT5_2,status=variable
new load.3011104849M1 bus1=BMT99576003.1.2.3,Phases=3,kv=13.800000000,kW=9.33384,pf=0.92,Vminpu=0.93,Vmaxpu=1.5,model=8,zipv=[0.5,0,0.5,1,0,0,0],daily=MT2_1,status=variable
new load.3011107585M1 bus1=BMT99572552.1.2.3,Phases=3,kv=13.800000000,kW=358.92472,pf=0.92,Vminpu=0.93,Vmaxpu=1.5,model=8,zipv=[0.5,0,0.5,1,0,0,0],daily=MT5_2,status=variable
new load.3011188926M1 bus1=BMT99559511.1.2.3,Phases=3,kv=13.800000000,kW=61.2203,pf=0.92,Vminpu=0.93,Vmaxpu=1.5,model=8,zipv=[0.5,0,0.5,1,0,0,0],daily=MT3_1,status=variable
new load.3011273052M1 bus1=BMT166612516.1.2.3,Phases=3,kv=13.800000000,kW=16.27232,pf=0.92,Vminpu=0.93,Vmaxpu=1.5,model=8,zipv=[0.5,0,0.5,1,0,0,0],daily=MT3_1,status=variable
new load.3011355650M1 bus1=BMT171495768.1.2.3,Phases=3,kv=13.800000000,kW=192.1941,pf=0.92,Vminpu=0.93,Vmaxpu=1.5,model=8,zipv=[0.5,0,0.5,1,0,0,0],daily=MT5_2,status=variable
new load.3011362347M1 bus1=BMT166612516.1.2.3,Phases=3,kv=13.800000000,kW=25.63776,pf=0.92,Vminpu=0.93,Vmaxpu=1.5,model=8,zipv=[0.5,0,0.5,1,0,0,0],daily=MT2_1,status=variable
new load.3011486405M1 bus1=BMT167821576.1.2.3,Phases=3,kv=13.800000000,kW=22.42546,pf=0.92,Vminpu=0.93,Vmaxpu=1.5,model=8,zipv=[0.5,0,0.5,1,0,0,0],daily=MT2_1,status=variable
new load.3011547459M1 bus1=BMT160390967.1.2.3,Phases=3,kv=13.800000000,kW=13.6371,pf=0.92,Vminpu=0.93,Vmaxpu=1.5,model=8,zipv=[0.5,0,0.5,1,0,0,0],daily=MT2_1,status=variable
new load.3011789719M1 bus1=BMT150343810.1.2.3,Phases=3,kv=13.800000000,kW=13.96972,pf=0.92,Vminpu=0.93,Vmaxpu=1.5,model=8,zipv=[0.5,0,0.5,1,0,0,0],daily=MT2_1,status=variable
new load.3011809869M1 bus1=BMT132269629.1.2.3,Phases=3,kv=13.800000000,kW=11.90768,pf=0.92,Vminpu=0.93,Vmaxpu=1.5,model=8,zipv=[0.5,0,0.5,1,0,0,0],daily=MT1_1,status=variable
new load.3011986881M1 bus1=BMT99574841.1.2.3,Phases=3,kv=13.800000000,kW=0.6202,pf=0.92,Vminpu=0.93,Vmaxpu=1.5,model=8,zipv=[0.5,0,0.5,1,0,0,0],daily=MT1_1,status=variable
new load.3012003171M1 bus1=BMT148272417.1.2.3,Phases=3,kv=13.800000000,kW=21.67744,pf=0.92,Vminpu=0.93,Vmaxpu=1.5,model=8,zipv=[0.5,0,0.5,1,0,0,0],daily=MT3_1,status=variable
new load.3012050198M1 bus1=BMT153274074.1.2.3,Phases=3,kv=13.800000000,kW=12.32288,pf=0.92,Vminpu=0.93,Vmaxpu=1.5,model=8,zipv=[0.5,0,0.5,1,0,0,0],daily=MT3_1,status=variable
new load.3012212509M1 bus1=BMT160204020.1.2.3,Phases=3,kv=13.800000000,kW=14.65424,pf=0.92,Vminpu=0.93,Vmaxpu=1.5,model=8,zipv=[0.5,0,0.5,1,0,0,0],daily=MT3_1,status=variable
new load.3012274319M1 bus1=BMT150443608.1.2.3,Phases=3,kv=13.800000000,kW=81.07708,pf=0.92,Vminpu=0.93,Vmaxpu=1.5,model=8,zipv=[0.5,0,0.5,1,0,0,0],daily=MT3_1,status=variable
new load.3012311565M1 bus1=BMT152276800.1.2.3,Phases=3,kv=13.800000000,kW=30.89304,pf=0.92,Vminpu=0.93,Vmaxpu=1.5,model=8,zipv=[0.5,0,0.5,1,0,0,0],daily=MT2_1,status=variable
new load.3012472222M1 bus1=BMT150340661.1.2.3,Phases=3,kv=13.800000000,kW=87.67136,pf=0.92,Vminpu=0.93,Vmaxpu=1.5,model=8,zipv=[0.5,0,0.5,1,0,0,0],daily=MT4_1,status=variable
new load.3012579498M1 bus1=BMT159967513.1.2.3,Phases=3,kv=13.800000000,kW=8.18652,pf=0.92,Vminpu=0.93,Vmaxpu=1.5,model=8,zipv=[0.5,0,0.5,1,0,0,0],daily=MT1_1,status=variable
new load.3012597318M1 bus1=BMT153117080.1.2.3,Phases=3,kv=13.800000000,kW=101.31738,pf=0.92,Vminpu=0.93,Vmaxpu=1.5,model=8,zipv=[0.5,0,0.5,1,0,0,0],daily=MT4_1,status=variable
new load.3012948466M1 bus1=BMT156933182.1.2.3,Phases=3,kv=13.800000000,kW=18.42524,pf=0.92,Vminpu=0.93,Vmaxpu=1.5,model=8,zipv=[0.5,0,0.5,1,0,0,0],daily=MT2_1,status=variable
new load.3012981608M1 bus1=BMT99572447.1.2.3,Phases=3,kv=13.800000000,kW=341.69516,pf=0.92,Vminpu=0.93,Vmaxpu=1.5,model=8,zipv=[0.5,0,0.5,1,0,0,0],daily=MT5_2,status=variable
new load.3013003334M1 bus1=BMT158840732.1.2.3,Phases=3,kv=13.800000000,kW=262.69916,pf=0.92,Vminpu=0.93,Vmaxpu=1.5,model=8,zipv=[0.5,0,0.5,1,0,0,0],daily=MT5_1,status=variable
new load.3013017924M1 bus1=BMT157617405.1.2.3,Phases=3,kv=13.800000000,kW=21.39296,pf=0.92,Vminpu=0.93,Vmaxpu=1.5,model=8,zipv=[0.5,0,0.5,1,0,0,0],daily=MT3_1,status=variable
new load.3013065295M1 bus1=BMT99569031.1.2.3,Phases=3,kv=13.800000000,kW=1029.80188,pf=0.92,Vminpu=0.93,Vmaxpu=1.5,model=8,zipv=[0.5,0,0.5,1,0,0,0],daily=MT5_3,status=variable
new load.3013088719M1 bus1=BMT149026837.1.2.3,Phases=3,kv=13.800000000,kW=634.1683,pf=0.92,Vminpu=0.93,Vmaxpu=1.5,model=8,zipv=[0.5,0,0.5,1,0,0,0],daily=MT5_3,status=variable
new load.3013117325M1 bus1=BMT164897223.1.2.3,Phases=3,kv=13.800000000,kW=558.73228,pf=0.92,Vminpu=0.93,Vmaxpu=1.5,model=8,zipv=[0.5,0,0.5,1,0,0,0],daily=MT5_3,status=variable
new load.3013149454M1 bus1=BMT159416406.1.2.3,Phases=3,kv=13.800000000,kW=42.48716,pf=0.92,Vminpu=0.93,Vmaxpu=1.5,model=8,zipv=[0.5,0,0.5,1,0,0,0],daily=MT2_1,status=variable
new load.3013201634M1 bus1=BMT176180920.1.2.3,Phases=3,kv=13.800000000,kW=285.92164,pf=0.92,Vminpu=0.93,Vmaxpu=1.5,model=8,zipv=[0.5,0,0.5,1,0,0,0],daily=MT5_2,status=variable
new load.3013223739M1 bus1=BMT164441840.1.2.3,Phases=3,kv=13.800000000,kW=64.75298,pf=0.92,Vminpu=0.93,Vmaxpu=1.5,model=8,zipv=[0.5,0,0.5,1,0,0,0],daily=MT2_1,status=variable
new load.3013257662M1 bus1=BMT99566420.1.2.3,Phases=3,kv=13.800000000,kW=456.95516,pf=0.92,Vminpu=0.93,Vmaxpu=1.5,model=8,zipv=[0.5,0,0.5,1,0,0,0],daily=MT5_2,status=variable
new load.3013328694M1 bus1=BMT99575191.1.2.3,Phases=3,kv=13.800000000,kW=410.85262,pf=0.92,Vminpu=0.93,Vmaxpu=1.5,model=8,zipv=[0.5,0,0.5,1,0,0,0],daily=MT5_1,status=variable
new load.3013351212M1 bus1=BMT172858118.1.2.3,Phases=3,kv=13.800000000,kW=210.57504,pf=0.92,Vminpu=0.93,Vmaxpu=1.5,model=8,zipv=[0.5,0,0.5,1,0,0,0],daily=MT5_1,status=variable
new load.3013376898M1 bus1=BMT166523545.1.2.3,Phases=3,kv=13.800000000,kW=146.9351,pf=0.92,Vminpu=0.93,Vmaxpu=1.5,model=8,zipv=[0.5,0,0.5,1,0,0,0],daily=MT4_1,status=variable
new load.3013379226M1 bus1=BMT164931887.1.2.3,Phases=3,kv=13.800000000,kW=176.0943,pf=0.92,Vminpu=0.93,Vmaxpu=1.5,model=8,zipv=[0.5,0,0.5,1,0,0,0],daily=MT4_1,status=variable
new load.3013424051M1 bus1=BMT164426041.1.2.3,Phases=3,kv=13.800000000,kW=416.6249,pf=0.92,Vminpu=0.93,Vmaxpu=1.5,model=8,zipv=[0.5,0,0.5,1,0,0,0],daily=MT5_2,status=variable
new load.3013452736M1 bus1=BMT165430254.1.2.3,Phases=3,kv=13.800000000,kW=166.63624,pf=0.92,Vminpu=0.93,Vmaxpu=1.5,model=8,zipv=[0.5,0,0.5,1,0,0,0],daily=MT5_1,status=variable
new load.3013570845M1 bus1=BMT168851232.1.2.3,Phases=3,kv=13.800000000,kW=11.48622,pf=0.92,Vminpu=0.93,Vmaxpu=1.5,model=8,zipv=[0.5,0,0.5,1,0,0,0],daily=MT2_1,status=variable
new load.3013576128M1 bus1=BMT170001988.1.2.3,Phases=3,kv=13.800000000,kW=83.56192,pf=0.92,Vminpu=0.93,Vmaxpu=1.5,model=8,zipv=[0.5,0,0.5,1,0,0,0],daily=MT4_1,status=variable
new load.3013591050M1 bus1=BMT166265627.1.2.3,Phases=3,kv=13.800000000,kW=20.7284,pf=0.92,Vminpu=0.93,Vmaxpu=1.5,model=8,zipv=[0.5,0,0.5,1,0,0,0],daily=MT2_1,status=variable
new load.3013606650M1 bus1=BMT166523545.1.2.3,Phases=3,kv=13.800000000,kW=12.27296,pf=0.92,Vminpu=0.93,Vmaxpu=1.5,model=8,zipv=[0.5,0,0.5,1,0,0,0],daily=MT4_1,status=variable
new load.3013698562M1 bus1=BMT170780732.1.2.3,Phases=3,kv=13.800000000,kW=94.90476,pf=0.92,Vminpu=0.93,Vmaxpu=1.5,model=8,zipv=[0.5,0,0.5,1,0,0,0],daily=MT4_1,status=variable
new load.3013756588M1 bus1=BMT169597076.1.2.3,Phases=3,kv=13.800000000,kW=115.7782,pf=0.92,Vminpu=0.93,Vmaxpu=1.5,model=8,zipv=[0.5,0,0.5,1,0,0,0],daily=MT3_1,status=variable
new load.3013768066M1 bus1=BMT171749338.1.2.3,Phases=3,kv=13.800000000,kW=4.76488,pf=0.92,Vminpu=0.93,Vmaxpu=1.5,model=8,zipv=[0.5,0,0.5,1,0,0,0],daily=MT1_1,status=variable
new load.3013845244M1 bus1=BMT170001988.1.2.3,Phases=3,kv=13.800000000,kW=165.19438,pf=0.92,Vminpu=0.93,Vmaxpu=1.5,model=8,zipv=[0.5,0,0.5,1,0,0,0],daily=MT4_1,status=variable
new load.3013868439M1 bus1=BMT157552630.1.2.3,Phases=3,kv=13.800000000,kW=6.5192,pf=0.92,Vminpu=0.93,Vmaxpu=1.5,model=8,zipv=[0.5,0,0.5,1,0,0,0],daily=MT2_1,status=variable
new load.3013893207M1 bus1=BMT171604560.1.2.3,Phases=3,kv=13.800000000,kW=646.13488,pf=0.92,Vminpu=0.93,Vmaxpu=1.5,model=8,zipv=[0.5,0,0.5,1,0,0,0],daily=MT5_3,status=variable
new load.3013949186M1 bus1=BMT166523545.1.2.3,Phases=3,kv=13.800000000,kW=31.57448,pf=0.92,Vminpu=0.93,Vmaxpu=1.5,model=8,zipv=[0.5,0,0.5,1,0,0,0],daily=MT4_1,status=variable
new load.3013973850M1 bus1=BMT173730262.1.2.3,Phases=3,kv=13.800000000,kW=14.57098,pf=0.92,Vminpu=0.93,Vmaxpu=1.5,model=8,zipv=[0.5,0,0.5,1,0,0,0],daily=MT3_1,status=variable
new load.3014107192M1 bus1=BMT171749338.1.2.3,Phases=3,kv=13.800000000,kW=86.25956,pf=0.92,Vminpu=0.93,Vmaxpu=1.5,model=8,zipv=[0.5,0,0.5,1,0,0,0],daily=MT4_1,status=variable
new load.3014136713M1 bus1=BMT174417407.1.2.3,Phases=3,kv=13.800000000,kW=27.31856,pf=0.92,Vminpu=0.93,Vmaxpu=1.5,model=8,zipv=[0.5,0,0.5,1,0,0,0],daily=MT2_1,status=variable
