new line.RML1002394 bus1=BBT473306.2.0,bus2=RML1001002394.2.0,Phases=1,Linecode=CABBTG01_4_1,Length=0.017000000,Units=km
new line.RML1002401 bus1=BBT473306.1.2.3.0,bus2=RML1001002401.1.2.3.0,Phases=3,Linecode=CABBTG06_4_3,Length=0.017000000,Units=km
new line.RML1002408 bus1=BBT473306.1.2.3.0,bus2=RML1001002408.1.2.3.0,Phases=3,Linecode=CABBTG06_4_3,Length=0.017000000,Units=km
new line.RML1002415 bus1=BBT473313.1.3.0,bus2=RML1001002415.1.3.0,Phases=2,Linecode=CABBTG05_4_2,Length=0.017000000,Units=km
new line.RML1002422 bus1=BBT473313.1.3.0,bus2=RML1001002422.1.3.0,Phases=2,Linecode=CABBTG05_4_2,Length=0.017000000,Units=km
new line.RML1002429 bus1=BBT473313.1.0,bus2=RML1001002429.1.0,Phases=1,Linecode=CABBTG01_4_1,Length=0.017000000,Units=km
new line.RML1002436 bus1=BBT473313.1.0,bus2=RML1001002436.1.0,Phases=1,Linecode=CABBTG01_4_1,Length=0.017000000,Units=km
new line.RML1002443 bus1=BBT473313.2.0,bus2=RML1001002443.2.0,Phases=1,Linecode=CABBTG01_4_1,Length=0.017000000,Units=km
new line.RML1002450 bus1=BBT473313.2.3.0,bus2=RML1001002450.2.3.0,Phases=2,Linecode=CABBTG05_4_2,Length=0.017000000,Units=km
new line.RML1002457 bus1=BBT473320.2.3.0,bus2=RML1001002457.2.3.0,Phases=2,Linecode=CABBTG05_4_2,Length=0.017000000,Units=km
new line.RML1002464 bus1=BBT473320.2.0,bus2=RML1001002464.2.0,Phases=1,Linecode=CABBTG01_4_1,Length=0.017000000,Units=km
new line.RML1002471 bus1=BBT473320.3.0,bus2=RML1001002471.3.0,Phases=1,Linecode=CABBTG01_4_1,Length=0.017000000,Units=km
new line.RML1002478 bus1=BBT473320.1.2.3.0,bus2=RML1001002478.1.2.3.0,Phases=3,Linecode=CABBTG06_4_3,Length=0.017000000,Units=km
new line.RML1002485 bus1=BBT473320.2.0,bus2=RML1001002485.2.0,Phases=1,Linecode=CABBTG01_4_1,Length=0.017000000,Units=km
new line.RML1002492 bus1=BBT473320.2.0,bus2=RML1001002492.2.0,Phases=1,Linecode=CABBTG01_4_1,Length=0.017000000,Units=km
new line.RML1002499 bus1=BBT473320.1.2.0,bus2=RML1001002499.1.2.0,Phases=2,Linecode=CABBTG04_4_2,Length=0.017000000,Units=km
new line.RML1002506 bus1=BBT473320.2.0,bus2=RML1001002506.2.0,Phases=1,Linecode=CABBTG01_4_1,Length=0.017000000,Units=km
new line.RML1002513 bus1=BBT473327.1.0,bus2=RML1001002513.1.0,Phases=1,Linecode=CABBTG01_4_1,Length=0.017000000,Units=km
new line.RML10025149 bus1=BBT628622.1.2.3.0,bus2=RML1010025149.1.2.3.0,Phases=3,Linecode=CABBTG06_4_3,Length=0.017000000,Units=km
new line.RML10025163 bus1=BBT550726.1.0,bus2=RML1010025163.1.0,Phases=1,Linecode=CABBTG02_4_1,Length=0.017000000,Units=km
new line.RML10025170 bus1=BBT571901.1.2.0,bus2=RML1010025170.1.2.0,Phases=2,Linecode=CABBTG05_4_2,Length=0.017000000,Units=km
new line.RML10025198 bus1=BBT623449.1.2.0,bus2=RML1010025198.1.2.0,Phases=2,Linecode=CABBTG05_4_2,Length=0.017000000,Units=km
new line.RML1002520 bus1=BBT473327.1.2.3.0,bus2=RML1001002520.1.2.3.0,Phases=3,Linecode=CABBTG07_4_3,Length=0.017000000,Units=km
new line.RML10025212 bus1=BBT625423.1.2.3.0,bus2=RML1010025212.1.2.3.0,Phases=3,Linecode=CABBTG06_4_3,Length=0.017000000,Units=km
new line.RML10025226 bus1=BBT608623.1.2.3.0,bus2=RML1010025226.1.2.3.0,Phases=3,Linecode=CABBTG09_4_3,Length=0.017000000,Units=km
new line.RML10025233 bus1=BBT529075.1.0,bus2=RML1010025233.1.0,Phases=1,Linecode=CABBTG02_4_1,Length=0.017000000,Units=km
new line.RML10025247 bus1=BBT420736.1.0,bus2=RML1010025247.1.0,Phases=1,Linecode=CABBTG02_4_1,Length=0.017000000,Units=km
new line.RML1002527 bus1=BBT473334.1.2.0,bus2=RML1001002527.1.2.0,Phases=2,Linecode=CABBTG05_4_2,Length=0.017000000,Units=km
new line.RML10025324 bus1=BBT139671275.1.2.3.0,bus2=RML1010025324.1.2.3.0,Phases=3,Linecode=CABBTG09_4_3,Length=0.017000000,Units=km
new line.RML1002534 bus1=BBT473334.1.2.3.0,bus2=RML1001002534.1.2.3.0,Phases=3,Linecode=CABBTG07_4_3,Length=0.017000000,Units=km
new line.RML1002541 bus1=BBT473334.1.2.3.0,bus2=RML1001002541.1.2.3.0,Phases=3,Linecode=CABBTG07_4_3,Length=0.017000000,Units=km
new line.RML1002548 bus1=BBT473334.1.2.0,bus2=RML1001002548.1.2.0,Phases=2,Linecode=CABBTG05_4_2,Length=0.017000000,Units=km
new line.RML1002555 bus1=BBT473348.3.0,bus2=RML1001002555.3.0,Phases=1,Linecode=CABBTG01_4_1,Length=0.017000000,Units=km
new line.RML1002562 bus1=BBT473348.1.2.3.0,bus2=RML1001002562.1.2.3.0,Phases=3,Linecode=CABBTG07_4_3,Length=0.017000000,Units=km
new line.RML1002569 bus1=BBT473348.1.2.0,bus2=RML1001002569.1.2.0,Phases=2,Linecode=CABBTG05_4_2,Length=0.017000000,Units=km
new line.RML1002576 bus1=BBT473362.3.0,bus2=RML1001002576.3.0,Phases=1,Linecode=CABBTG01_4_1,Length=0.017000000,Units=km
new line.RML1002583 bus1=BBT473369.1.2.0,bus2=RML1001002583.1.2.0,Phases=2,Linecode=CABBTG05_4_2,Length=0.017000000,Units=km
new line.RML1002590 bus1=BBT473369.3.0,bus2=RML1001002590.3.0,Phases=1,Linecode=CABBTG01_4_1,Length=0.017000000,Units=km
new line.RML1002597 bus1=BBT473369.1.2.0,bus2=RML1001002597.1.2.0,Phases=2,Linecode=CABBTG05_4_2,Length=0.017000000,Units=km
new line.RML1002604 bus1=BBT473376.1.2.0,bus2=RML1001002604.1.2.0,Phases=2,Linecode=CABBTG05_4_2,Length=0.017000000,Units=km
new line.RML1002611 bus1=BBT473376.1.3.0,bus2=RML1001002611.1.3.0,Phases=2,Linecode=CABBTG05_4_2,Length=0.017000000,Units=km
new line.RML1002618 bus1=BBT473376.1.2.0,bus2=RML1001002618.1.2.0,Phases=2,Linecode=CABBTG05_4_2,Length=0.017000000,Units=km
new line.RML1002625 bus1=BBT473376.1.2.0,bus2=RML1001002625.1.2.0,Phases=2,Linecode=CABBTG05_4_2,Length=0.017000000,Units=km
new line.RML1006426 bus1=BBT475210.3.0,bus2=RML1001006426.3.0,Phases=1,Linecode=CABBTG01_4_1,Length=0.017000000,Units=km
new line.RML1006433 bus1=BBT475210.2.3.0,bus2=RML1001006433.2.3.0,Phases=2,Linecode=CABBTG13_4_2,Length=0.017000000,Units=km
new line.RML1006440 bus1=BBT475210.2.3.0,bus2=RML1001006440.2.3.0,Phases=2,Linecode=CABBTG05_4_2,Length=0.017000000,Units=km
new line.RML1006447 bus1=BBT475210.1.3.0,bus2=RML1001006447.1.3.0,Phases=2,Linecode=CABBTG05_4_2,Length=0.017000000,Units=km
new line.RML1006454 bus1=BBT475210.2.3.0,bus2=RML1001006454.2.3.0,Phases=2,Linecode=CABBTG05_4_2,Length=0.017000000,Units=km
new line.RML1006461 bus1=BBT475210.1.2.3.0,bus2=RML1001006461.1.2.3.0,Phases=3,Linecode=CABBTG07_4_3,Length=0.017000000,Units=km
new line.RML1006468 bus1=BBT475210.1.2.3.0,bus2=RML1001006468.1.2.3.0,Phases=3,Linecode=CABBTG06_4_3,Length=0.017000000,Units=km
new line.RML1006475 bus1=BBT475210.3.0,bus2=RML1001006475.3.0,Phases=1,Linecode=CABBTG01_4_1,Length=0.017000000,Units=km
new line.RML1006482 bus1=BBT475217.3.0,bus2=RML1001006482.3.0,Phases=1,Linecode=CABBTG01_4_1,Length=0.017000000,Units=km
new line.RML1006489 bus1=BBT475224.3.0,bus2=RML1001006489.3.0,Phases=1,Linecode=CABBTG01_4_1,Length=0.017000000,Units=km
new line.RML1006496 bus1=BBT475224.2.0,bus2=RML1001006496.2.0,Phases=1,Linecode=CABBTG01_4_1,Length=0.017000000,Units=km
new line.RML1006503 bus1=BBT475224.3.0,bus2=RML1001006503.3.0,Phases=1,Linecode=CABBTG01_4_1,Length=0.017000000,Units=km
new line.RML1006510 bus1=BBT475224.2.0,bus2=RML1001006510.2.0,Phases=1,Linecode=CABBTG01_4_1,Length=0.017000000,Units=km
new line.RML1006517 bus1=BBT475224.1.0,bus2=RML1001006517.1.0,Phases=1,Linecode=CABBTG01_4_1,Length=0.017000000,Units=km
new line.RML1006524 bus1=BBT475224.1.0,bus2=RML1001006524.1.0,Phases=1,Linecode=CABBTG01_4_1,Length=0.017000000,Units=km
new line.RML1006531 bus1=BBT475231.2.0,bus2=RML1001006531.2.0,Phases=1,Linecode=CABBTG01_4_1,Length=0.017000000,Units=km
new line.RML10039702 bus1=BBT630386.1.2.0,bus2=RML1010039702.1.2.0,Phases=2,Linecode=CABBTG04_4_2,Length=0.017000000,Units=km
new line.RML10039718 bus1=BBT26384.1.2.3.0,bus2=RML1010039718.1.2.3.0,Phases=3,Linecode=CABBTG06_4_3,Length=0.017000000,Units=km
new line.RML10039999 bus1=BBT436605.2.0,bus2=RML1010039999.2.0,Phases=1,Linecode=CABBTG01_4_1,Length=0.017000000,Units=km
new line.RML10040010 bus1=BBT467062.1.2.3.0,bus2=RML1010040010.1.2.3.0,Phases=3,Linecode=CABBTG06_4_3,Length=0.017000000,Units=km
new line.RML1005593 bus1=BBT97142005.2.0,bus2=RML1001005593.2.0,Phases=1,Linecode=CABBTG01_4_1,Length=0.017000000,Units=km
new line.RML1005600 bus1=BBT97142005.3.0,bus2=RML1001005600.3.0,Phases=1,Linecode=CABBTG01_4_1,Length=0.017000000,Units=km
new line.RML1005607 bus1=BBT97142012.1.2.0,bus2=RML1001005607.1.2.0,Phases=2,Linecode=CABBTG05_4_2,Length=0.017000000,Units=km
new line.RML1005614 bus1=BBT97142005.2.0,bus2=RML1001005614.2.0,Phases=1,Linecode=CABBTG01_4_1,Length=0.017000000,Units=km
new line.RML10056186 bus1=BBT650952.1.2.3.0,bus2=RML1010056186.1.2.3.0,Phases=3,Linecode=CABBTG08_4_3,Length=0.017000000,Units=km
new line.RML1005621 bus1=BBT97142005.2.0,bus2=RML1001005621.2.0,Phases=1,Linecode=CABBTG01_4_1,Length=0.017000000,Units=km
new line.RML1005628 bus1=BBT97142005.3.0,bus2=RML1001005628.3.0,Phases=1,Linecode=CABBTG01_4_1,Length=0.017000000,Units=km
new line.RML1005635 bus1=BBT97142005.1.0,bus2=RML1001005635.1.0,Phases=1,Linecode=CABBTG01_4_1,Length=0.017000000,Units=km
new line.RML10056419 bus1=BBT394080.1.2.3.0,bus2=RML1010056419.1.2.3.0,Phases=3,Linecode=CABBTG06_4_3,Length=0.017000000,Units=km
new line.RML1005642 bus1=BBT97142005.3.0,bus2=RML1001005642.3.0,Phases=1,Linecode=CABBTG01_4_1,Length=0.017000000,Units=km
new line.RML10056449 bus1=BBT394080.1.2.3.0,bus2=RML1010056449.1.2.3.0,Phases=3,Linecode=CABBTG06_4_3,Length=0.017000000,Units=km
new line.RML10056485 bus1=BBT382299.2.3.0,bus2=RML1010056485.2.3.0,Phases=2,Linecode=CABBTG05_4_2,Length=0.017000000,Units=km
new line.RML1005649 bus1=BBT97142005.1.2.3.0,bus2=RML1001005649.1.2.3.0,Phases=3,Linecode=CABBTG07_4_3,Length=0.017000000,Units=km
new line.RML1005656 bus1=BBT97142005.2.3.0,bus2=RML1001005656.2.3.0,Phases=2,Linecode=CABBTG05_4_2,Length=0.017000000,Units=km
new line.RML1005663 bus1=BBT97142005.1.3.0,bus2=RML1001005663.1.3.0,Phases=2,Linecode=CABBTG05_4_2,Length=0.017000000,Units=km
new line.RML1005670 bus1=BBT97142005.1.2.3.0,bus2=RML1001005670.1.2.3.0,Phases=3,Linecode=CABBTG07_4_3,Length=0.017000000,Units=km
new line.RML1005677 bus1=BBT97141998.2.0,bus2=RML1001005677.2.0,Phases=1,Linecode=CABBTG01_4_1,Length=0.017000000,Units=km
new line.RML1005684 bus1=BBT97141998.1.3.0,bus2=RML1001005684.1.3.0,Phases=2,Linecode=CABBTG05_4_2,Length=0.017000000,Units=km
new line.RML1005691 bus1=BBT97141998.3.0,bus2=RML1001005691.3.0,Phases=1,Linecode=CABBTG01_4_1,Length=0.017000000,Units=km
new line.RML1005698 bus1=BBT97141998.1.0,bus2=RML1001005698.1.0,Phases=1,Linecode=CABBTG01_4_1,Length=0.017000000,Units=km
new line.RML10056981 bus1=BBT586412.1.2.3.0,bus2=RML1010056981.1.2.3.0,Phases=3,Linecode=CABBTG06_4_3,Length=0.017000000,Units=km
new line.RML10056983 bus1=BBT541885.1.2.3.0,bus2=RML1010056983.1.2.3.0,Phases=3,Linecode=CABBTG12_4_3,Length=0.017000000,Units=km
new line.RML1005705 bus1=BBT97141998.2.0,bus2=RML1001005705.2.0,Phases=1,Linecode=CABBTG01_4_1,Length=0.017000000,Units=km
new line.RML1005712 bus1=BBT97141998.1.3.0,bus2=RML1001005712.1.3.0,Phases=2,Linecode=CABBTG05_4_2,Length=0.017000000,Units=km
new line.RML1005719 bus1=BBT97141991.2.0,bus2=RML1001005719.2.0,Phases=1,Linecode=CABBTG01_4_1,Length=0.017000000,Units=km
new line.RML1005726 bus1=BBT97141991.2.0,bus2=RML1001005726.2.0,Phases=1,Linecode=CABBTG01_4_1,Length=0.017000000,Units=km
new line.RML1005733 bus1=BBT97141991.3.0,bus2=RML1001005733.3.0,Phases=1,Linecode=CABBTG01_4_1,Length=0.017000000,Units=km
new line.RML1005740 bus1=BBT97141991.1.0,bus2=RML1001005740.1.0,Phases=1,Linecode=CABBTG01_4_1,Length=0.017000000,Units=km
new line.RML1005747 bus1=BBT97141991.1.2.0,bus2=RML1001005747.1.2.0,Phases=2,Linecode=CABBTG05_4_2,Length=0.017000000,Units=km
new line.RML1005754 bus1=BBT97141991.2.0,bus2=RML1001005754.2.0,Phases=1,Linecode=CABBTG01_4_1,Length=0.017000000,Units=km
new line.RML1005761 bus1=BBT97141991.3.0,bus2=RML1001005761.3.0,Phases=1,Linecode=CABBTG01_4_1,Length=0.017000000,Units=km
new line.RML1005768 bus1=BBT97141991.1.2.0,bus2=RML1001005768.1.2.0,Phases=2,Linecode=CABBTG04_4_2,Length=0.017000000,Units=km
new line.RML1005775 bus1=BBT97141991.1.0,bus2=RML1001005775.1.0,Phases=1,Linecode=CABBTG01_4_1,Length=0.017000000,Units=km
new line.RML1005782 bus1=BBT97141991.3.0,bus2=RML1001005782.3.0,Phases=1,Linecode=CABBTG01_4_1,Length=0.017000000,Units=km
new line.RML1005789 bus1=BBT474909.1.0,bus2=RML1001005789.1.0,Phases=1,Linecode=CABBTG01_4_1,Length=0.017000000,Units=km
new line.RML1005796 bus1=BBT97141368.3.0,bus2=RML1001005796.3.0,Phases=1,Linecode=CABBTG01_4_1,Length=0.017000000,Units=km
new line.RML1005803 bus1=BBT97141368.1.0,bus2=RML1001005803.1.0,Phases=1,Linecode=CABBTG01_4_1,Length=0.017000000,Units=km
new line.RML1005810 bus1=BBT97141368.3.0,bus2=RML1001005810.3.0,Phases=1,Linecode=CABBTG01_4_1,Length=0.017000000,Units=km
new line.RML1005817 bus1=BBT97141368.3.0,bus2=RML1001005817.3.0,Phases=1,Linecode=CABBTG01_4_1,Length=0.017000000,Units=km
new line.RML1005824 bus1=BBT97141368.2.0,bus2=RML1001005824.2.0,Phases=1,Linecode=CABBTG01_4_1,Length=0.017000000,Units=km
new line.RML1005831 bus1=BBT97141368.2.0,bus2=RML1001005831.2.0,Phases=1,Linecode=CABBTG01_4_1,Length=0.017000000,Units=km
new line.RML10059524 bus1=BBT1692713.1.2.0,bus2=RML1010059524.1.2.0,Phases=2,Linecode=CABBTG05_4_2,Length=0.017000000,Units=km
new line.RML10059525 bus1=BBT1699503.1.2.3.0,bus2=RML1010059525.1.2.3.0,Phases=3,Linecode=CABBTG06_4_3,Length=0.017000000,Units=km
new line.RML10091797 bus1=BBT2818194.1.2.0,bus2=RML1010091797.1.2.0,Phases=2,Linecode=CABBTG05_4_2,Length=0.017000000,Units=km
new line.RML10091802 bus1=BBT587770.1.2.3.0,bus2=RML1010091802.1.2.3.0,Phases=3,Linecode=CABBTG06_4_3,Length=0.017000000,Units=km
new line.RML10092823 bus1=BBT541129.1.2.0,bus2=RML1010092823.1.2.0,Phases=2,Linecode=CABBTG05_4_2,Length=0.017000000,Units=km
new line.RML10092830 bus1=BBT532162.1.2.0,bus2=RML1010092830.1.2.0,Phases=2,Linecode=CABBTG05_4_2,Length=0.017000000,Units=km
new line.RML10092850 bus1=BBT524854.1.2.0,bus2=RML1010092850.1.2.0,Phases=2,Linecode=CABBTG05_4_2,Length=0.017000000,Units=km
new line.RML10094413 bus1=BBT560442.1.2.0,bus2=RML1010094413.1.2.0,Phases=2,Linecode=CABBTG05_4_2,Length=0.017000000,Units=km
new line.RML10094660 bus1=BBT139173449.1.2.3.0,bus2=RML1010094660.1.2.3.0,Phases=3,Linecode=CABBTG06_4_3,Length=0.017000000,Units=km
new line.RML10122147 bus1=BBT1692986.1.2.3.0,bus2=RML1010122147.1.2.3.0,Phases=3,Linecode=CABBTG06_4_3,Length=0.019000000,Units=km
new line.RML1012215 bus1=BBT477569.1.2.3.0,bus2=RML1001012215.1.2.3.0,Phases=3,Linecode=CABBTG06_4_3,Length=0.017000000,Units=km
new line.RML1012222 bus1=BBT477576.1.2.3.0,bus2=RML1001012222.1.2.3.0,Phases=3,Linecode=CABBTG06_4_3,Length=0.017000000,Units=km
new line.RML1012229 bus1=BBT477576.2.0,bus2=RML1001012229.2.0,Phases=1,Linecode=CABBTG01_4_1,Length=0.017000000,Units=km
new line.RML1005201 bus1=BBT474664.1.2.3.0,bus2=RML1001005201.1.2.3.0,Phases=3,Linecode=CABBTG07_4_3,Length=0.017000000,Units=km
new line.RML1005208 bus1=BBT474664.1.2.3.0,bus2=RML1001005208.1.2.3.0,Phases=3,Linecode=CABBTG07_4_3,Length=0.017000000,Units=km
new line.RML1005215 bus1=BBT474664.1.2.3.0,bus2=RML1001005215.1.2.3.0,Phases=3,Linecode=CABBTG07_4_3,Length=0.017000000,Units=km
new line.RML1005222 bus1=BBT474664.1.2.3.0,bus2=RML1001005222.1.2.3.0,Phases=3,Linecode=CABBTG07_4_3,Length=0.017000000,Units=km
new line.RML1005229 bus1=BBT474664.1.2.0,bus2=RML1001005229.1.2.0,Phases=2,Linecode=CABBTG05_4_2,Length=0.017000000,Units=km
new line.RML1005236 bus1=BBT474671.2.3.0,bus2=RML1001005236.2.3.0,Phases=2,Linecode=CABBTG05_4_2,Length=0.017000000,Units=km
new line.RML1005243 bus1=BBT474671.1.0,bus2=RML1001005243.1.0,Phases=1,Linecode=CABBTG01_4_1,Length=0.017000000,Units=km
new line.RML1005250 bus1=BBT474671.1.2.0,bus2=RML1001005250.1.2.0,Phases=2,Linecode=CABBTG05_4_2,Length=0.017000000,Units=km
new line.RML1005257 bus1=BBT474678.1.2.0,bus2=RML1001005257.1.2.0,Phases=2,Linecode=CABBTG05_4_2,Length=0.017000000,Units=km
new line.RML1005264 bus1=BBT474678.1.2.3.0,bus2=RML1001005264.1.2.3.0,Phases=3,Linecode=CABBTG07_4_3,Length=0.017000000,Units=km
new line.RML1005271 bus1=BBT474678.1.2.0,bus2=RML1001005271.1.2.0,Phases=2,Linecode=CABBTG05_4_2,Length=0.017000000,Units=km
new line.RML1005278 bus1=BBT474685.1.2.3.0,bus2=RML1001005278.1.2.3.0,Phases=3,Linecode=CABBTG07_4_3,Length=0.017000000,Units=km
new line.RML1005285 bus1=BBT474685.1.2.3.0,bus2=RML1001005285.1.2.3.0,Phases=3,Linecode=CABBTG07_4_3,Length=0.017000000,Units=km
new line.RML1005292 bus1=BBT474685.1.0,bus2=RML1001005292.1.0,Phases=1,Linecode=CABBTG01_4_1,Length=0.017000000,Units=km
new line.RML1005299 bus1=BBT474685.3.0,bus2=RML1001005299.3.0,Phases=1,Linecode=CABBTG01_4_1,Length=0.017000000,Units=km
new line.RML1005306 bus1=BBT474685.2.0,bus2=RML1001005306.2.0,Phases=1,Linecode=CABBTG02_4_1,Length=0.017000000,Units=km
new line.RML1005313 bus1=BBT474685.1.2.3.0,bus2=RML1001005313.1.2.3.0,Phases=3,Linecode=CABBTG07_4_3,Length=0.017000000,Units=km
new line.RML1005320 bus1=BBT474685.2.3.0,bus2=RML1001005320.2.3.0,Phases=2,Linecode=CABBTG05_4_2,Length=0.017000000,Units=km
new line.RML1005327 bus1=BBT474685.1.0,bus2=RML1001005327.1.0,Phases=1,Linecode=CABBTG01_4_1,Length=0.017000000,Units=km
new line.RML1005390 bus1=BBT474797.1.2.3.0,bus2=RML1001005390.1.2.3.0,Phases=3,Linecode=CABBTG06_4_3,Length=0.017000000,Units=km
new line.RML1005397 bus1=BBT474797.1.2.0,bus2=RML1001005397.1.2.0,Phases=2,Linecode=CABBTG05_4_2,Length=0.017000000,Units=km
new line.RML1005404 bus1=BBT474804.1.2.3.0,bus2=RML1001005404.1.2.3.0,Phases=3,Linecode=CABBTG07_4_3,Length=0.017000000,Units=km
new line.RML1005411 bus1=BBT474811.1.2.3.0,bus2=RML1001005411.1.2.3.0,Phases=3,Linecode=CABBTG07_4_3,Length=0.017000000,Units=km
new line.RML1005418 bus1=BBT474811.1.2.3.0,bus2=RML1001005418.1.2.3.0,Phases=3,Linecode=CABBTG07_4_3,Length=0.017000000,Units=km
new line.RML1005425 bus1=BBT474818.1.2.3.0,bus2=RML1001005425.1.2.3.0,Phases=3,Linecode=CABBTG07_4_3,Length=0.017000000,Units=km
new line.RML1005432 bus1=BBT474825.1.3.0,bus2=RML1001005432.1.3.0,Phases=2,Linecode=CABBTG05_4_2,Length=0.017000000,Units=km
new line.RML1005439 bus1=BBT474825.1.2.3.0,bus2=RML1001005439.1.2.3.0,Phases=3,Linecode=CABBTG06_4_3,Length=0.017000000,Units=km
new line.RML1005446 bus1=BBT5181975.1.2.3.0,bus2=RML1001005446.1.2.3.0,Phases=3,Linecode=CABBTG07_4_3,Length=0.017000000,Units=km
new line.RML1005453 bus1=BBT97142033.1.0,bus2=RML1001005453.1.0,Phases=1,Linecode=CABBTG01_4_1,Length=0.017000000,Units=km
new line.RML1005460 bus1=BBT97142033.2.0,bus2=RML1001005460.2.0,Phases=1,Linecode=CABBTG01_4_1,Length=0.017000000,Units=km
new line.RML1005467 bus1=BBT97142033.2.0,bus2=RML1001005467.2.0,Phases=1,Linecode=CABBTG01_4_1,Length=0.017000000,Units=km
new line.RML1005474 bus1=BBT97142033.1.0,bus2=RML1001005474.1.0,Phases=1,Linecode=CABBTG01_4_1,Length=0.017000000,Units=km
new line.RML1005481 bus1=BBT97142033.3.0,bus2=RML1001005481.3.0,Phases=1,Linecode=CABBTG01_4_1,Length=0.017000000,Units=km
new line.RML1005488 bus1=BBT97142026.3.0,bus2=RML1001005488.3.0,Phases=1,Linecode=CABBTG01_4_1,Length=0.017000000,Units=km
new line.RML1005495 bus1=BBT97142026.3.0,bus2=RML1001005495.3.0,Phases=1,Linecode=CABBTG01_4_1,Length=0.017000000,Units=km
new line.RML1005502 bus1=BBT97142026.1.2.0,bus2=RML1001005502.1.2.0,Phases=2,Linecode=CABBTG05_4_2,Length=0.017000000,Units=km
new line.RML1005509 bus1=BBT97142026.1.2.0,bus2=RML1001005509.1.2.0,Phases=2,Linecode=CABBTG05_4_2,Length=0.017000000,Units=km
new line.RML1005516 bus1=BBT97142026.3.0,bus2=RML1001005516.3.0,Phases=1,Linecode=CABBTG01_4_1,Length=0.017000000,Units=km
new line.RML1005523 bus1=BBT97142019.2.3.0,bus2=RML1001005523.2.3.0,Phases=2,Linecode=CABBTG04_4_2,Length=0.017000000,Units=km
new line.RML1005530 bus1=BBT97142019.3.0,bus2=RML1001005530.3.0,Phases=1,Linecode=CABBTG01_4_1,Length=0.017000000,Units=km
new line.RML1005537 bus1=BBT97142019.2.0,bus2=RML1001005537.2.0,Phases=1,Linecode=CABBTG01_4_1,Length=0.017000000,Units=km
new line.RML1005544 bus1=BBT97142019.1.2.0,bus2=RML1001005544.1.2.0,Phases=2,Linecode=CABBTG05_4_2,Length=0.017000000,Units=km
new line.RML1005551 bus1=BBT97142019.1.2.3.0,bus2=RML1001005551.1.2.3.0,Phases=3,Linecode=CABBTG06_4_3,Length=0.017000000,Units=km
new line.RML1005558 bus1=BBT97142005.3.0,bus2=RML1001005558.3.0,Phases=1,Linecode=CABBTG01_4_1,Length=0.017000000,Units=km
new line.RML1005565 bus1=BBT97142005.1.2.3.0,bus2=RML1001005565.1.2.3.0,Phases=3,Linecode=CABBTG07_4_3,Length=0.017000000,Units=km
new line.RML1005572 bus1=BBT97142005.1.2.3.0,bus2=RML1001005572.1.2.3.0,Phases=3,Linecode=CABBTG07_4_3,Length=0.017000000,Units=km
new line.RML1005579 bus1=BBT97142005.1.2.3.0,bus2=RML1001005579.1.2.3.0,Phases=3,Linecode=CABBTG07_4_3,Length=0.017000000,Units=km
new line.RML1005586 bus1=BBT97142012.1.0,bus2=RML1001005586.1.0,Phases=1,Linecode=CABBTG02_4_1,Length=0.017000000,Units=km
new line.RML10079181 bus1=BBT535032.1.0,bus2=RML1010079181.1.0,Phases=1,Linecode=CABBTG02_4_1,Length=0.017000000,Units=km
new line.RML10079261 bus1=BBT534955.1.2.3.0,bus2=RML1010079261.1.2.3.0,Phases=3,Linecode=CABBTG06_4_3,Length=0.017000000,Units=km
new line.RML10079266 bus1=BBT556473.1.0,bus2=RML1010079266.1.0,Phases=1,Linecode=CABBTG02_4_1,Length=0.017000000,Units=km
new line.RML10079301 bus1=BBT531518.1.2.3.0,bus2=RML1010079301.1.2.3.0,Phases=3,Linecode=CABBTG06_4_3,Length=0.017000000,Units=km
new line.RML10079965 bus1=BBT407436.1.2.0,bus2=RML1010079965.1.2.0,Phases=2,Linecode=CABBTG13_4_2,Length=0.017000000,Units=km
new line.RML10079987 bus1=BBT407436.1.2.0,bus2=RML1010079987.1.2.0,Phases=2,Linecode=CABBTG05_4_2,Length=0.017000000,Units=km
new line.RML10082311 bus1=BBT476589.1.2.3.0,bus2=RML1010082311.1.2.3.0,Phases=3,Linecode=CABBTG06_4_3,Length=0.017000000,Units=km
new line.RML10111135 bus1=BBT595785.1.0,bus2=RML1010111135.1.0,Phases=1,Linecode=CABBTG01_4_1,Length=0.017000000,Units=km
new line.RML10111176 bus1=BBT532134.1.0,bus2=RML1010111176.1.0,Phases=1,Linecode=CABBTG01_4_1,Length=0.017000000,Units=km
new line.RML10111184 bus1=BBT603989.2.3.0,bus2=RML1010111184.2.3.0,Phases=2,Linecode=CABBTG05_4_2,Length=0.020000000,Units=km
new line.RML1004417 bus1=BBT474328.3.0,bus2=RML1001004417.3.0,Phases=1,Linecode=CABBTG01_4_1,Length=0.017000000,Units=km
new line.RML1004424 bus1=BBT474328.1.2.3.0,bus2=RML1001004424.1.2.3.0,Phases=3,Linecode=CABBTG07_4_3,Length=0.017000000,Units=km
new line.RML1004431 bus1=BBT474328.1.2.3.0,bus2=RML1001004431.1.2.3.0,Phases=3,Linecode=CABBTG11_4_3,Length=0.017000000,Units=km
new line.RML1004480 bus1=BBT474377.1.3.0,bus2=RML1001004480.1.3.0,Phases=2,Linecode=CABBTG05_4_2,Length=0.017000000,Units=km
new line.RML10044854 bus1=BBT504442.1.2.3.0,bus2=RML1010044854.1.2.3.0,Phases=3,Linecode=CABBTG06_4_3,Length=0.017000000,Units=km
new line.RML1004487 bus1=BBT474391.1.2.3.0,bus2=RML1001004487.1.2.3.0,Phases=3,Linecode=CABBTG07_4_3,Length=0.017000000,Units=km
new line.RML1004494 bus1=BBT474391.1.2.3.0,bus2=RML1001004494.1.2.3.0,Phases=3,Linecode=CABBTG07_4_3,Length=0.017000000,Units=km
new line.RML10044965 bus1=BBT394115.1.2.3.0,bus2=RML1010044965.1.2.3.0,Phases=3,Linecode=CABBTG06_4_3,Length=0.017000000,Units=km
new line.RML1004501 bus1=BBT474398.1.2.3.0,bus2=RML1001004501.1.2.3.0,Phases=3,Linecode=CABBTG07_4_3,Length=0.017000000,Units=km
new line.RML1004508 bus1=BBT474405.1.2.3.0,bus2=RML1001004508.1.2.3.0,Phases=3,Linecode=CABBTG07_4_3,Length=0.017000000,Units=km
new line.RML1004515 bus1=BBT474405.1.2.0,bus2=RML1001004515.1.2.0,Phases=2,Linecode=CABBTG05_4_2,Length=0.017000000,Units=km
new line.RML1004522 bus1=BBT474405.2.0,bus2=RML1001004522.2.0,Phases=1,Linecode=CABBTG01_4_1,Length=0.017000000,Units=km
new line.RML1004529 bus1=BBT474405.1.2.3.0,bus2=RML1001004529.1.2.3.0,Phases=3,Linecode=CABBTG07_4_3,Length=0.017000000,Units=km
new line.RML1004536 bus1=BBT474412.1.2.3.0,bus2=RML1001004536.1.2.3.0,Phases=3,Linecode=CABBTG07_4_3,Length=0.017000000,Units=km
new line.RML1004543 bus1=BBT474412.2.3.0,bus2=RML1001004543.2.3.0,Phases=2,Linecode=CABBTG05_4_2,Length=0.017000000,Units=km
new line.RML1004550 bus1=BBT474412.1.2.3.0,bus2=RML1001004550.1.2.3.0,Phases=3,Linecode=CABBTG07_4_3,Length=0.017000000,Units=km
new line.RML1004557 bus1=BBT474412.1.2.3.0,bus2=RML1001004557.1.2.3.0,Phases=3,Linecode=CABBTG06_4_3,Length=0.017000000,Units=km
new line.RML1004571 bus1=BBT474419.1.2.3.0,bus2=RML1001004571.1.2.3.0,Phases=3,Linecode=CABBTG07_4_3,Length=0.017000000,Units=km
new line.RML1004578 bus1=BBT474419.1.2.3.0,bus2=RML1001004578.1.2.3.0,Phases=3,Linecode=CABBTG07_4_3,Length=0.017000000,Units=km
new line.RML1004585 bus1=BBT474419.1.2.3.0,bus2=RML1001004585.1.2.3.0,Phases=3,Linecode=CABBTG07_4_3,Length=0.017000000,Units=km
new line.RML1004592 bus1=BBT474426.1.2.3.0,bus2=RML1001004592.1.2.3.0,Phases=3,Linecode=CABBTG07_4_3,Length=0.017000000,Units=km
new line.RML1004599 bus1=BBT474433.1.2.3.0,bus2=RML1001004599.1.2.3.0,Phases=3,Linecode=CABBTG07_4_3,Length=0.017000000,Units=km
new line.RML10046036 bus1=BBT628538.1.2.3.0,bus2=RML1010046036.1.2.3.0,Phases=3,Linecode=CABBTG12_4_3,Length=0.017000000,Units=km
new line.RML1004606 bus1=BBT474433.1.2.3.0,bus2=RML1001004606.1.2.3.0,Phases=3,Linecode=CABBTG07_4_3,Length=0.017000000,Units=km
new line.RML1004613 bus1=BBT474433.1.2.3.0,bus2=RML1001004613.1.2.3.0,Phases=3,Linecode=CABBTG07_4_3,Length=0.017000000,Units=km
new line.RML1004620 bus1=BBT474433.1.2.3.0,bus2=RML1001004620.1.2.3.0,Phases=3,Linecode=CABBTG06_4_3,Length=0.017000000,Units=km
new line.RML1004627 bus1=BBT474440.1.2.0,bus2=RML1001004627.1.2.0,Phases=2,Linecode=CABBTG05_4_2,Length=0.017000000,Units=km
new line.RML1004641 bus1=BBT474468.1.2.3.0,bus2=RML1001004641.1.2.3.0,Phases=3,Linecode=CABBTG07_4_3,Length=0.017000000,Units=km
new line.RML10047422 bus1=BBT580287.1.2.3.0,bus2=RML1010047422.1.2.3.0,Phases=3,Linecode=CABBTG06_4_3,Length=0.017000000,Units=km
new line.RML10047470 bus1=BBT148272381.1.2.3.0,bus2=RML1010047470.1.2.3.0,Phases=3,Linecode=CABBTG09_4_3,Length=0.017000000,Units=km
new line.RML10068700 bus1=BBT579979.1.2.3.0,bus2=RML1010068700.1.2.3.0,Phases=3,Linecode=CABBTG06_4_3,Length=0.017000000,Units=km
new line.RML10095703 bus1=BBT413113.1.2.3.0,bus2=RML1010095703.1.2.3.0,Phases=3,Linecode=CABBTG11_4_3,Length=0.017000000,Units=km
new line.RML10095708 bus1=BBT412700.1.2.3.0,bus2=RML1010095708.1.2.3.0,Phases=3,Linecode=CABBTG06_4_3,Length=0.017000000,Units=km
new line.RML10095714 bus1=BBT568058.1.2.3.0,bus2=RML1010095714.1.2.3.0,Phases=3,Linecode=CABBTG06_4_3,Length=0.017000000,Units=km
new line.RML10096226 bus1=BBT617163.1.2.3.0,bus2=RML1010096226.1.2.3.0,Phases=3,Linecode=CABBTG07_4_3,Length=0.017000000,Units=km
new line.RML10096970 bus1=BBT5109413.1.2.0,bus2=RML1010096970.1.2.0,Phases=2,Linecode=CABBTG05_4_2,Length=0.017000000,Units=km
new line.RML10096977 bus1=BBT627852.1.2.0,bus2=RML1010096977.1.2.0,Phases=2,Linecode=CABBTG05_4_2,Length=0.017000000,Units=km
new line.RML10097027 bus1=BBT608833.1.2.0,bus2=RML1010097027.1.2.0,Phases=2,Linecode=CABBTG05_4_2,Length=0.017000000,Units=km
new line.RML10097028 bus1=BBT607741.1.2.0,bus2=RML1010097028.1.2.0,Phases=2,Linecode=CABBTG05_4_2,Length=0.017000000,Units=km
new line.RML1009772 bus1=BBT476582.1.2.3.0,bus2=RML1001009772.1.2.3.0,Phases=3,Linecode=CABBTG07_4_3,Length=0.017000000,Units=km
new line.RML1009786 bus1=BBT476589.1.0,bus2=RML1001009786.1.0,Phases=1,Linecode=CABBTG01_4_1,Length=0.017000000,Units=km
new line.RML1009793 bus1=BBT476589.3.0,bus2=RML1001009793.3.0,Phases=1,Linecode=CABBTG01_4_1,Length=0.017000000,Units=km
new line.RML1009800 bus1=BBT476589.2.0,bus2=RML1001009800.2.0,Phases=1,Linecode=CABBTG01_4_1,Length=0.017000000,Units=km
new line.RML1009807 bus1=BBT476589.3.0,bus2=RML1001009807.3.0,Phases=1,Linecode=CABBTG01_4_1,Length=0.017000000,Units=km
new line.RML1009814 bus1=BBT476596.1.0,bus2=RML1001009814.1.0,Phases=1,Linecode=CABBTG01_4_1,Length=0.017000000,Units=km
new line.RML1009821 bus1=BBT476617.2.0,bus2=RML1001009821.2.0,Phases=1,Linecode=CABBTG01_4_1,Length=0.017000000,Units=km
new line.RML1009828 bus1=BBT476617.1.0,bus2=RML1001009828.1.0,Phases=1,Linecode=CABBTG01_4_1,Length=0.017000000,Units=km
new line.RML1009835 bus1=BBT479963.1.2.3.0,bus2=RML1001009835.1.2.3.0,Phases=3,Linecode=CABBTG07_4_3,Length=0.017000000,Units=km
new line.RML1009842 bus1=BBT3682974.2.0,bus2=RML1001009842.2.0,Phases=1,Linecode=CABBTG01_4_1,Length=0.017000000,Units=km
new line.RML1013188 bus1=BBT478269.1.3.0,bus2=RML1001013188.1.3.0,Phases=2,Linecode=CABBTG05_4_2,Length=0.017000000,Units=km
new line.RML1013195 bus1=BBT478276.1.0,bus2=RML1001013195.1.0,Phases=1,Linecode=CABBTG01_4_1,Length=0.017000000,Units=km
new line.RML1013202 bus1=BBT478276.1.2.3.0,bus2=RML1001013202.1.2.3.0,Phases=3,Linecode=CABBTG07_4_3,Length=0.017000000,Units=km
new line.RML1013209 bus1=BBT478276.2.3.0,bus2=RML1001013209.2.3.0,Phases=2,Linecode=CABBTG05_4_2,Length=0.017000000,Units=km
new line.RML1013216 bus1=BBT478276.1.2.3.0,bus2=RML1001013216.1.2.3.0,Phases=3,Linecode=CABBTG07_4_3,Length=0.017000000,Units=km
new line.RML1013223 bus1=BBT478283.1.0,bus2=RML1001013223.1.0,Phases=1,Linecode=CABBTG01_4_1,Length=0.017000000,Units=km
new line.RML1013230 bus1=BBT478283.2.0,bus2=RML1001013230.2.0,Phases=1,Linecode=CABBTG01_4_1,Length=0.017000000,Units=km
new line.RML1013237 bus1=BBT478283.1.2.3.0,bus2=RML1001013237.1.2.3.0,Phases=3,Linecode=CABBTG07_4_3,Length=0.017000000,Units=km
new line.RML1013244 bus1=BBT478283.1.2.0,bus2=RML1001013244.1.2.0,Phases=2,Linecode=CABBTG05_4_2,Length=0.017000000,Units=km
new line.RML10001041 bus1=BBT3562707.1.2.3.0,bus2=RML1010001041.1.2.3.0,Phases=3,Linecode=CABBTG12_4_3,Length=0.017000000,Units=km
new line.RML10011793 bus1=BBT601371.1.0,bus2=RML1010011793.1.0,Phases=1,Linecode=CABBTG02_4_1,Length=0.017000000,Units=km
new line.RML10015202 bus1=BBT608441.1.2.0,bus2=RML1010015202.1.2.0,Phases=2,Linecode=CABBTG05_4_2,Length=0.017000000,Units=km
new line.RML10015279 bus1=BBT25327.1.2.3.0,bus2=RML1010015279.1.2.3.0,Phases=3,Linecode=CABBTG06_4_3,Length=0.009000000,Units=km
new line.RML10016413 bus1=BBT137908514.1.2.3.0,bus2=RML1010016413.1.2.3.0,Phases=3,Linecode=CABBTG08_4_3,Length=0.017000000,Units=km