new line.1400169 bus1=BBT433805.1.2.3.0,bus2=BBT433812.1.2.3.0,Phases=3,Linecode=BT311_BT311_7_3_1,Length=0.000511000,Units=km
new line.11027934 bus1=BBT3294663.1.2.3.0,bus2=BBT500361.1.2.3.0,Phases=3,Linecode=BT108_BT108_7_3_1,Length=0.007618000,Units=km
new line.11027941 bus1=BBT3294663.1.2.3.0,bus2=BBT500368.1.2.3.0,Phases=3,Linecode=BT108_BT108_7_3_1,Length=0.031790000,Units=km
new line.11027948 bus1=BBT3282735.1.2.3.0,bus2=BBT3294663.1.2.3.0,Phases=3,Linecode=BT513_BT513_7_3_1,Length=0.000501000,Units=km
new line.1268835 bus1=BBT393401.1.2.0,bus2=BBT393408.1.2.0,Phases=2,Linecode=BT808_BT808_4_2_3,Length=0.031121000,Units=km
new line.1268856 bus1=BBT393408.1.2.0,bus2=BBT393422.1.2.0,Phases=2,Linecode=BT808_BT808_4_2_3,Length=0.035178000,Units=km
new line.1268863 bus1=BBT393415.1.2.0,bus2=BBT393401.1.2.0,Phases=2,Linecode=BT107_BT107_7_2_1,Length=0.046061000,Units=km
new line.1268877 bus1=BBT393422.1.2.0,bus2=BBT393429.1.2.0,Phases=2,Linecode=BT808_BT808_4_2_3,Length=0.034988000,Units=km
new line.1268926 bus1=BBT393436.1.2.0,bus2=BBT393415.1.2.0,Phases=2,Linecode=BT107_BT107_7_2_1,Length=0.046057000,Units=km
new line.1268933 bus1=BBT393394.1.2.0,bus2=BBT393436.1.2.0,Phases=2,Linecode=BT518_BT518_7_2_1,Length=0.000504000,Units=km
new line.1268940 bus1=BBT393436.1.2.0,bus2=BBT393443.1.2.0,Phases=2,Linecode=BT107_BT107_7_2_1,Length=0.031730000,Units=km
new line.1268961 bus1=BBT393443.1.2.0,bus2=BBT393450.1.2.0,Phases=2,Linecode=BT107_BT107_7_2_1,Length=0.033074000,Units=km
new line.1268989 bus1=BBT393450.1.2.0,bus2=BBT393457.1.2.0,Phases=2,Linecode=BT107_BT107_7_2_1,Length=0.034800000,Units=km
new line.1269010 bus1=BBT393457.1.2.0,bus2=BBT393464.1.2.0,Phases=2,Linecode=BT107_BT107_7_2_1,Length=0.030241000,Units=km
new line.1269024 bus1=BBT393464.1.2.0,bus2=BBT393471.1.2.0,Phases=2,Linecode=BT107_BT107_7_2_1,Length=0.030241000,Units=km
new line.1324072 bus1=BBT410635.1.2.3.0,bus2=BBT427400.1.2.3.0,Phases=3,Linecode=BT810_BT810_4_3_4,Length=0.030976000,Units=km
new line.1324107 bus1=BBT427407.1.2.3.0,bus2=BBT410635.1.2.3.0,Phases=3,Linecode=BT805_BT805_4_3_4,Length=0.029156000,Units=km
new line.1324114 bus1=BBT427372.1.2.3.0,bus2=BBT427407.1.2.3.0,Phases=3,Linecode=BT513_BT513_7_3_1,Length=0.000506000,Units=km
new line.1324121 bus1=BBT427407.1.2.3.0,bus2=BBT410642.1.2.3.0,Phases=3,Linecode=BT805_BT805_4_3_4,Length=0.019287000,Units=km
new line.1324149 bus1=BBT410642.1.2.3.0,bus2=BBT4430896.1.2.3.0,Phases=3,Linecode=BT805_BT805_4_3_4,Length=0.018851000,Units=km
new line.1324163 bus1=BBT4430896.1.2.3.0,bus2=BBT4431022.1.2.3.0,Phases=3,Linecode=BT805_BT805_4_3_4,Length=0.031448000,Units=km
new line.1324184 bus1=BBT4431022.1.2.3.0,bus2=BBT4430651.1.2.3.0,Phases=3,Linecode=BT805_BT805_4_3_4,Length=0.007136000,Units=km
new line.1324191 bus1=BBT4431022.1.2.3.0,bus2=BBT410649.1.2.3.0,Phases=3,Linecode=BT803_BT803_4_3_4,Length=0.040193000,Units=km
new line.1324233 bus1=BBT4430651.1.2.3.0,bus2=BBT4431071.1.2.3.0,Phases=3,Linecode=BT803_BT803_4_3_4,Length=0.038126000,Units=km
new line.1324254 bus1=BBT410649.1.2.3.0,bus2=BBT410656.1.2.3.0,Phases=3,Linecode=BT803_BT803_4_3_4,Length=0.036669000,Units=km
new line.1324275 bus1=BBT4431071.1.2.3.0,bus2=BBT4431078.1.2.3.0,Phases=3,Linecode=BT803_BT803_4_3_4,Length=0.038126000,Units=km
new line.1324317 bus1=BBT4431078.1.2.3.0,bus2=BBT4431085.1.2.3.0,Phases=3,Linecode=BT803_BT803_4_3_4,Length=0.021950000,Units=km
new line.1324338 bus1=BBT410656.1.2.3.0,bus2=BBT410663.1.2.3.0,Phases=3,Linecode=BT803_BT803_4_3_4,Length=0.037499000,Units=km
new line.1324401 bus1=BBT410663.1.2.3.0,bus2=BBT4431029.1.2.3.0,Phases=3,Linecode=BT803_BT803_4_3_4,Length=0.038525000,Units=km
new line.13321064 bus1=BBT4163860.1.2.3.0,bus2=BBT4163867.1.2.3.0,Phases=3,Linecode=BT514_BT514_7_3_1,Length=0.000502000,Units=km
new line.1344449 bus1=BBT3508681.1.2.0,bus2=BBT431698.1.2.0,Phases=2,Linecode=BT107_BT107_7_2_1,Length=0.018079000,Units=km
new line.1349139 bus1=BBT418209.1.2.3.0,bus2=BBT418216.1.2.3.0,Phases=3,Linecode=BT314_BT314_7_3_1,Length=0.000510000,Units=km
new line.1378287 bus1=BBT427386.2.3.0,bus2=BBT427379.2.3.0,Phases=2,Linecode=BT107_BT107_7_2_1,Length=0.062074000,Units=km
new line.1378294 bus1=BBT427386.1.2.3.0,bus2=BBT3682169.1.2.3.0,Phases=3,Linecode=BT810_BT810_4_3_4,Length=0.013483000,Units=km
new line.1378315 bus1=BBT427393.1.2.3.0,bus2=BBT427386.1.2.3.0,Phases=3,Linecode=BT810_BT810_4_3_4,Length=0.028263000,Units=km
new line.1378336 bus1=BBT427400.1.2.3.0,bus2=BBT427393.1.2.3.0,Phases=3,Linecode=BT810_BT810_4_3_4,Length=0.038573000,Units=km
new line.1392350 bus1=BBT431691.1.2.0,bus2=BBT431684.1.2.0,Phases=2,Linecode=BT107_BT107_7_2_1,Length=0.030295000,Units=km
new line.1392378 bus1=BBT431698.1.2.0,bus2=BBT431691.1.2.0,Phases=2,Linecode=BT107_BT107_7_2_1,Length=0.030302000,Units=km
new line.1392406 bus1=BBT431677.1.2.0,bus2=BBT431705.1.2.0,Phases=2,Linecode=BT518_BT518_7_2_1,Length=0.000503000,Units=km
new line.1392413 bus1=BBT431705.1.2.0,bus2=BBT431712.1.2.0,Phases=2,Linecode=BT107_BT107_7_2_1,Length=0.030435000,Units=km
new line.1392420 bus1=BBT431705.1.2.0,bus2=BBT3508674.1.2.0,Phases=2,Linecode=BT107_BT107_7_2_1,Length=0.024578000,Units=km
new line.1392455 bus1=BBT431712.1.2.0,bus2=BBT431719.1.2.0,Phases=2,Linecode=BT107_BT107_7_2_1,Length=0.036295000,Units=km
new line.1437094 bus1=BBT3682967.1.2.3.0,bus2=BBT3682974.1.2.3.0,Phases=3,Linecode=BT107_BT107_7_3_1,Length=0.024562000,Units=km
new line.1440657 bus1=BBT446300.1.2.3.0,bus2=BBT446307.1.2.3.0,Phases=3,Linecode=BT514_BT514_7_3_1,Length=0.000502000,Units=km
new line.1450513 bus1=BBT448841.1.2.3.0,bus2=BBT3683401.1.2.3.0,Phases=3,Linecode=BT107_BT107_7_3_1,Length=0.019789000,Units=km
new line.1450541 bus1=BBT448848.1.2.3.0,bus2=BBT448834.1.2.3.0,Phases=3,Linecode=BT803_BT803_4_3_4,Length=0.024219000,Units=km
new line.1450583 bus1=BBT448855.1.2.3.0,bus2=BBT448841.1.2.3.0,Phases=3,Linecode=BT107_BT107_7_3_1,Length=0.022443000,Units=km
new line.1450618 bus1=BBT463898.1.2.3.0,bus2=BBT463884.1.2.3.0,Phases=3,Linecode=BT803_BT803_4_3_4,Length=0.027999000,Units=km
new line.1450660 bus1=BBT448869.1.2.3.0,bus2=BBT448848.1.2.3.0,Phases=3,Linecode=BT803_BT803_4_3_4,Length=0.031420000,Units=km
new line.1450709 bus1=BBT448876.1.2.3.0,bus2=BBT448855.1.2.3.0,Phases=3,Linecode=BT107_BT107_7_3_1,Length=0.022117000,Units=km
new line.1450730 bus1=BBT448883.1.2.3.0,bus2=BBT448862.1.2.3.0,Phases=3,Linecode=BT108_BT108_7_3_1,Length=0.025622000,Units=km
new line.1450737 bus1=BBT448883.1.2.3.0,bus2=BBT448876.1.2.3.0,Phases=3,Linecode=BT107_BT107_7_3_1,Length=0.012872000,Units=km
new line.1450758 bus1=BBT448890.1.2.3.0,bus2=BBT448883.1.2.3.0,Phases=3,Linecode=BT108_BT108_7_3_1,Length=0.006010000,Units=km
new line.1450800 bus1=BBT448897.1.2.3.0,bus2=BBT448890.1.2.3.0,Phases=3,Linecode=BT108_BT108_7_3_1,Length=0.015269000,Units=km
new line.1450807 bus1=BBT448827.1.2.3.0,bus2=BBT448897.1.2.3.0,Phases=3,Linecode=BT313_BT313_7_3_1,Length=0.000502000,Units=km
new line.1450814 bus1=BBT448897.1.2.3.0,bus2=BBT448904.1.2.3.0,Phases=3,Linecode=BT108_BT108_7_3_1,Length=0.013902000,Units=km
new line.1450842 bus1=BBT448904.1.2.3.0,bus2=BBT448869.1.2.3.0,Phases=3,Linecode=BT803_BT803_4_3_4,Length=0.032769000,Units=km
new line.1450849 bus1=BBT448904.1.2.3.0,bus2=BBT448911.1.2.3.0,Phases=3,Linecode=BT108_BT108_7_3_1,Length=0.016656000,Units=km
new line.1455938 bus1=BBT463891.1.2.3.0,bus2=BBT463898.1.2.3.0,Phases=3,Linecode=BT108_BT107_7_3_1,Length=0.020815000,Units=km
new line.1455945 bus1=BBT463891.1.2.3.0,bus2=BBT463870.1.2.3.0,Phases=3,Linecode=BT107_BT107_7_3_1,Length=0.024459000,Units=km
new line.1455980 bus1=BBT450234.1.2.3.0,bus2=BBT450227.1.2.3.0,Phases=3,Linecode=BT108_BT108_7_3_1,Length=0.027834000,Units=km
new line.1456001 bus1=BBT450241.1.2.3.0,bus2=BBT450234.1.2.3.0,Phases=3,Linecode=BT108_BT108_7_3_1,Length=0.026497000,Units=km
new line.1456008 bus1=BBT450220.1.2.3.0,bus2=BBT450241.1.2.3.0,Phases=3,Linecode=BT518_BT518_7_3_1,Length=0.000502000,Units=km
new line.1456015 bus1=BBT450241.1.2.3.0,bus2=BBT450248.1.2.3.0,Phases=3,Linecode=BT108_BT108_7_3_1,Length=0.028738000,Units=km
new line.1456022 bus1=BBT450241.1.2.3.0,bus2=BBT450255.1.2.3.0,Phases=3,Linecode=BT107_BT107_7_3_1,Length=0.017101000,Units=km
new line.1456064 bus1=BBT450255.1.2.3.0,bus2=BBT450262.1.2.3.0,Phases=3,Linecode=BT809_BT809_4_3_4,Length=0.029577000,Units=km
new line.1475216 bus1=BBT455813.1.2.3.0,bus2=BBT455806.1.2.3.0,Phases=3,Linecode=BT106_BT106_7_3_1,Length=0.024002000,Units=km
new line.1475244 bus1=BBT455820.1.2.3.0,bus2=BBT4430973.1.2.3.0,Phases=3,Linecode=BT107_BT107_7_3_1,Length=0.038444000,Units=km
new line.1475265 bus1=BBT455827.1.2.3.0,bus2=BBT455813.1.2.3.0,Phases=3,Linecode=BT106_BT106_7_3_1,Length=0.031954000,Units=km
new line.1475272 bus1=BBT455827.1.2.3.0,bus2=BBT455820.1.2.3.0,Phases=3,Linecode=BT108_BT107_7_3_1,Length=0.022222000,Units=km
new line.1475314 bus1=BBT455834.1.2.3.0,bus2=BBT455827.1.2.3.0,Phases=3,Linecode=BT108_BT107_7_3_1,Length=0.013470000,Units=km
new line.1475342 bus1=BBT455841.1.2.3.0,bus2=BBT455834.1.2.3.0,Phases=3,Linecode=BT108_BT107_7_3_1,Length=0.010645000,Units=km
new line.1475377 bus1=BBT455848.1.2.3.0,bus2=BBT455841.1.2.3.0,Phases=3,Linecode=BT108_BT107_7_3_1,Length=0.016129000,Units=km
new line.1475391 bus1=BBT455855.1.2.3.0,bus2=BBT455848.1.2.3.0,Phases=3,Linecode=BT108_BT107_7_3_1,Length=0.027473000,Units=km
new line.1475398 bus1=BBT455799.1.2.3.0,bus2=BBT455855.1.2.3.0,Phases=3,Linecode=BT313_BT313_7_3_1,Length=0.000503000,Units=km
new line.1485751 bus1=BBT458823.1.2.3.0,bus2=BBT458816.1.2.3.0,Phases=3,Linecode=BT108_BT107_7_3_1,Length=0.012125000,Units=km
new line.1485772 bus1=BBT458830.1.2.3.0,bus2=BBT458823.1.2.3.0,Phases=3,Linecode=BT108_BT107_7_3_1,Length=0.014368000,Units=km
new line.1485807 bus1=BBT458837.1.2.3.0,bus2=BBT458830.1.2.3.0,Phases=3,Linecode=BT108_BT107_7_3_1,Length=0.006733000,Units=km
new line.1485828 bus1=BBT458844.1.2.3.0,bus2=BBT458837.1.2.3.0,Phases=3,Linecode=BT108_BT107_7_3_1,Length=0.026492000,Units=km
new line.1485884 bus1=BBT458851.1.2.3.0,bus2=BBT458844.1.2.3.0,Phases=3,Linecode=BT108_BT107_7_3_1,Length=0.032771000,Units=km
new line.1485891 bus1=BBT458809.1.2.3.0,bus2=BBT458851.1.2.3.0,Phases=3,Linecode=BT518_BT518_7_3_1,Length=0.000503000,Units=km
new line.1485898 bus1=BBT458851.1.2.3.0,bus2=BBT458858.1.2.3.0,Phases=3,Linecode=BT108_BT107_7_3_1,Length=0.030073000,Units=km
new line.1485919 bus1=BBT458858.1.2.3.0,bus2=BBT458872.1.2.3.0,Phases=3,Linecode=BT108_BT107_7_3_1,Length=0.018853000,Units=km
new line.1485968 bus1=BBT479781.1.2.3.0,bus2=BBT479788.1.2.3.0,Phases=3,Linecode=BT307_BT307_7_3_1,Length=0.000503000,Units=km
new line.1485975 bus1=BBT458872.1.2.3.0,bus2=BBT458879.1.2.3.0,Phases=3,Linecode=BT108_BT107_7_3_1,Length=0.020197000,Units=km
new line.1485996 bus1=BBT458879.1.2.3.0,bus2=BBT458893.1.2.3.0,Phases=3,Linecode=BT107_BT107_7_3_1,Length=0.019773000,Units=km
new line.1486024 bus1=BBT458886.1.2.3.0,bus2=BBT458865.1.2.3.0,Phases=3,Linecode=BT106_BT108_7_3_1,Length=0.022379000,Units=km
new line.1486031 bus1=BBT458886.1.2.3.0,bus2=BBT458900.1.2.3.0,Phases=3,Linecode=BT106_BT108_7_3_1,Length=0.030935000,Units=km
new line.1486052 bus1=BBT458893.1.2.3.0,bus2=BBT458886.1.2.3.0,Phases=3,Linecode=BT107_BT107_7_3_1,Length=0.007292000,Units=km
new line.1489111 bus1=BBT459691.1.2.3.0,bus2=BBT459698.1.2.3.0,Phases=3,Linecode=BT311_BT311_7_3_1,Length=0.000503000,Units=km
new line.1505911 bus1=BBT463877.1.2.3.0,bus2=BBT463891.1.2.3.0,Phases=3,Linecode=BT108_BT107_7_3_1,Length=0.039573000,Units=km
new line.1505918 bus1=BBT463877.1.2.3.0,bus2=BBT463863.1.2.3.0,Phases=3,Linecode=BT108_BT107_7_3_1,Length=0.026937000,Units=km
new line.1505925 bus1=BBT463877.1.2.3.0,bus2=BBT463856.1.2.3.0,Phases=3,Linecode=BT107_BT107_7_3_1,Length=0.021599000,Units=km
new line.1505932 bus1=BBT463849.1.2.3.0,bus2=BBT463877.1.2.3.0,Phases=3,Linecode=BT518_BT518_7_3_1,Length=0.000503000,Units=km
new line.1548450 bus1=BBT476582.1.2.3.0,bus2=BBT476575.1.2.3.0,Phases=3,Linecode=BT108_BT107_7_3_1,Length=0.033315000,Units=km
new line.1548485 bus1=BBT476589.1.2.3.0,bus2=BBT476582.1.2.3.0,Phases=3,Linecode=BT108_BT107_7_3_1,Length=0.029166000,Units=km
new line.1548527 bus1=BBT476596.1.2.3.0,bus2=BBT476589.1.2.3.0,Phases=3,Linecode=BT108_BT107_7_3_1,Length=0.028027000,Units=km
new line.1548534 bus1=BBT476568.1.2.3.0,bus2=BBT476596.1.2.3.0,Phases=3,Linecode=BT518_BT518_7_3_1,Length=0.000502000,Units=km
new line.1548541 bus1=BBT476596.1.2.3.0,bus2=BBT476603.1.2.3.0,Phases=3,Linecode=BT108_BT107_7_3_1,Length=0.026636000,Units=km
new line.1548555 bus1=BBT476603.1.2.3.0,bus2=BBT476610.1.2.3.0,Phases=3,Linecode=BT108_BT107_7_3_1,Length=0.025623000,Units=km
new line.1548562 bus1=BBT476603.1.2.3.0,bus2=BBT476617.1.2.3.0,Phases=3,Linecode=BT809_BT809_4_3_4,Length=0.016187000,Units=km
new line.1548569 bus1=BBT476603.1.2.3.0,bus2=BBT476624.1.2.3.0,Phases=3,Linecode=BT809_BT809_4_3_4,Length=0.027921000,Units=km
new line.1548597 bus1=BBT476610.1.2.3.0,bus2=BBT476631.1.2.3.0,Phases=3,Linecode=BT107_BT107_7_3_1,Length=0.034997000,Units=km
new line.1548660 bus1=BBT476624.1.2.3.0,bus2=BBT476638.1.2.3.0,Phases=3,Linecode=BT107_BT107_7_3_1,Length=0.030538000,Units=km
new line.1548702 bus1=BBT476631.1.2.3.0,bus2=BBT476645.1.2.3.0,Phases=3,Linecode=BT107_BT107_7_3_1,Length=0.033309000,Units=km
new line.1548730 bus1=BBT476638.1.2.3.0,bus2=BBT476652.1.2.3.0,Phases=3,Linecode=BT107_BT107_7_3_1,Length=0.022215000,Units=km
new line.1548765 bus1=BBT476645.1.2.3.0,bus2=BBT3682967.1.2.3.0,Phases=3,Linecode=BT107_BT107_7_3_1,Length=0.006099000,Units=km
new line.1548786 bus1=BBT476652.1.2.3.0,bus2=BBT476659.1.2.3.0,Phases=3,Linecode=BT107_BT107_7_3_1,Length=0.017813000,Units=km
new line.1561400 bus1=BBT480320.1.2.3.0,bus2=BBT480327.1.2.3.0,Phases=3,Linecode=BT311_BT311_7_3_1,Length=0.000502000,Units=km
new line.1624344 bus1=BBT500326.1.2.3.0,bus2=BBT500312.1.2.3.0,Phases=3,Linecode=BT108_BT108_7_3_1,Length=0.031790000,Units=km
new line.1624379 bus1=BBT19923241.1.2.3.0,bus2=BBT500326.1.2.3.0,Phases=3,Linecode=BT108_BT108_7_3_1,Length=0.033115000,Units=km
new line.1624407 bus1=BBT500354.1.2.3.0,bus2=BBT19923241.1.2.3.0,Phases=3,Linecode=BT108_BT108_7_3_1,Length=0.038921000,Units=km
new line.1624442 bus1=BBT500361.1.2.3.0,bus2=BBT500354.1.2.3.0,Phases=3,Linecode=BT108_BT108_7_3_1,Length=0.021030000,Units=km
new line.1624456 bus1=BBT500368.1.2.3.0,bus2=BBT500375.1.2.3.0,Phases=3,Linecode=BT107_BT107_7_3_1,Length=0.038024000,Units=km
new line.1625023 bus1=BBT500550.1.2.3.0,bus2=BBT500557.1.2.3.0,Phases=3,Linecode=BT311_BT311_7_3_1,Length=0.000501000,Units=km
new line.16255198 bus1=BBT16812630.1.2.3.0,bus2=BBT16812637.1.2.3.0,Phases=3,Linecode=BT514_BT514_7_3_1,Length=0.000501000,Units=km
new line.16312388 bus1=BBT19924984.1.2.3.0,bus2=BBT19924991.1.2.3.0,Phases=3,Linecode=BT514_BT514_7_3_1,Length=0.000501000,Units=km
new line.1645953 bus1=BBT521060.1.2.3.0,bus2=BBT521067.1.2.3.0,Phases=3,Linecode=BT311_BT311_7_3_1,Length=0.000501000,Units=km
new line.1700609 bus1=BBT525183.1.2.3.0,bus2=BBT525190.1.2.3.0,Phases=3,Linecode=BT310_BT310_7_3_1,Length=0.000501000,Units=km
new line.17764363 bus1=BBT83526417.1.2.3.0,bus2=BBT83526424.1.2.3.0,Phases=3,Linecode=BT514_BT514_7_3_1,Length=0.000502000,Units=km
new line.8853650 bus1=BBT3508674.1.2.0,bus2=BBT3508681.1.2.0,Phases=2,Linecode=BT107_BT107_7_2_1,Length=0.024011000,Units=km
new line.8853671 bus1=BBT3682169.1.2.3.0,bus2=BBT3682176.1.2.3.0,Phases=3,Linecode=BT810_BT810_4_3_4,Length=0.022421000,Units=km
new line.10203383 bus1=BBT2964060.1.2.3.0,bus2=BBT2964067.1.2.3.0,Phases=3,Linecode=BT809_BT809_4_3_4,Length=0.023352000,Units=km
new line.10203446 bus1=BBT2964067.1.2.3.0,bus2=BBT4244353.1.2.3.0,Phases=3,Linecode=BT810_BT810_4_3_4,Length=0.019111000,Units=km
new line.10385796 bus1=BBT3299829.1.2.3.0,bus2=BBT591795.1.2.3.0,Phases=3,Linecode=BT106_BT106_7_3_1,Length=0.014871000,Units=km
new line.10385803 bus1=BBT3034529.1.2.3.0,bus2=BBT3034536.1.2.3.0,Phases=3,Linecode=BT514_BT514_7_3_1,Length=0.000501000,Units=km
new line.10660980 bus1=BBT3136981.1.2.3.0,bus2=BBT398574.1.2.3.0,Phases=3,Linecode=BT108_BT107_7_3_1,Length=0.009295000,Units=km
new line.10660987 bus1=BBT3136981.1.2.3.0,bus2=BBT3136995.1.2.3.0,Phases=3,Linecode=BT108_BT109_7_3_1,Length=0.008547000,Units=km
new line.10660994 bus1=BBT3136981.1.2.3.0,bus2=BBT398588.1.2.3.0,Phases=3,Linecode=BT108_BT107_7_3_1,Length=0.032846000,Units=km
new line.10698395 bus1=BBT3148706.1.2.3.0,bus2=BBT3148713.1.2.3.0,Phases=3,Linecode=BT810_BT810_4_3_4,Length=0.038235000,Units=km
new line.10698451 bus1=BBT3148713.1.2.3.0,bus2=BBT3148720.1.2.3.0,Phases=3,Linecode=BT810_BT810_4_3_4,Length=0.014776000,Units=km
new line.10698507 bus1=BBT3148720.1.2.3.0,bus2=BBT3148727.1.2.3.0,Phases=3,Linecode=BT810_BT810_4_3_4,Length=0.034187000,Units=km
new line.10698584 bus1=BBT3148727.1.2.3.0,bus2=BBT3148734.1.2.3.0,Phases=3,Linecode=BT810_BT810_4_3_4,Length=0.033263000,Units=km
new line.10712171 bus1=BBT3153970.1.2.3.0,bus2=BBT3153977.1.2.3.0,Phases=3,Linecode=BT514_BT514_7_3_1,Length=0.000501000,Units=km
new line.1077938 bus1=BBT333859.1.2.3.0,bus2=BBT333852.1.2.3.0,Phases=3,Linecode=BT108_BT107_7_3_1,Length=0.035537000,Units=km
new line.1077945 bus1=BBT333845.1.2.3.0,bus2=BBT333859.1.2.3.0,Phases=3,Linecode=BT313_BT313_7_3_1,Length=0.000501000,Units=km
new line.1077952 bus1=BBT333859.1.2.3.0,bus2=BBT333866.1.2.3.0,Phases=3,Linecode=BT108_BT107_7_3_1,Length=0.025462000,Units=km
new line.1083034 bus1=BBT345521.1.2.3.0,bus2=BBT24655.1.2.3.0,Phases=3,Linecode=BT107_BT107_7_3_1,Length=0.021101000,Units=km
new line.1083041 bus1=BBT345521.1.2.0,bus2=BBT345535.1.2.0,Phases=2,Linecode=BT107_BT107_7_2_1,Length=0.027026000,Units=km
new line.1115885 bus1=BBT345528.1.2.3.0,bus2=BBT345521.1.2.3.0,Phases=3,Linecode=BT108_BT107_7_3_1,Length=0.029419000,Units=km
new line.1115892 bus1=BBT345535.1.2.0,bus2=BBT345556.1.2.0,Phases=2,Linecode=BT107_BT107_7_2_1,Length=0.028612000,Units=km
new line.1115899 bus1=BBT345542.1.2.3.0,bus2=BBT345528.1.2.3.0,Phases=3,Linecode=BT111_BT108_7_3_1,Length=0.034680000,Units=km
new line.1115906 bus1=BBT345514.1.2.3.0,bus2=BBT345542.1.2.3.0,Phases=3,Linecode=BT514_BT514_7_3_1,Length=0.000501000,Units=km
new line.1115913 bus1=BBT345542.1.2.3.0,bus2=BBT345549.1.2.3.0,Phases=3,Linecode=BT111_BT108_7_3_1,Length=0.031632000,Units=km
new line.1115948 bus1=BBT345549.1.2.3.0,bus2=BBT345563.1.2.3.0,Phases=3,Linecode=BT108_BT108_7_3_1,Length=0.030538000,Units=km
new line.1115969 bus1=BBT345556.1.2.0,bus2=BBT345570.1.2.0,Phases=2,Linecode=BT107_BT107_7_2_1,Length=0.028366000,Units=km
new line.11379782 bus1=BBT3407965.1.2.3.0,bus2=BBT643077.1.2.3.0,Phases=3,Linecode=BT107_BT107_7_3_1,Length=0.006711000,Units=km
new line.11379789 bus1=BBT3407965.1.2.3.0,bus2=BBT643084.1.2.3.0,Phases=3,Linecode=BT108_BT107_7_3_1,Length=0.006327000,Units=km
new line.11379796 bus1=BBT3407965.1.2.3.0,bus2=BBT643105.1.2.3.0,Phases=3,Linecode=BT107_BT107_7_3_1,Length=0.026635000,Units=km
new line.11457986 bus1=BBT3432122.1.2.3.0,bus2=BBT3432129.1.2.3.0,Phases=3,Linecode=BT810_BT810_4_3_4,Length=0.030424000,Units=km
new line.11537135 bus1=BBT3457357.1.2.3.0,bus2=BBT628818.1.2.3.0,Phases=3,Linecode=BT107_BT107_7_3_1,Length=0.003607000,Units=km
new line.11537142 bus1=BBT3457357.1.2.3.0,bus2=BBT628825.1.2.3.0,Phases=3,Linecode=BT107_BT107_7_3_1,Length=0.005387000,Units=km
new line.11537149 bus1=BBT3457357.1.2.3.0,bus2=BBT628832.1.2.3.0,Phases=3,Linecode=BT107_BT107_7_3_1,Length=0.028609000,Units=km
new line.11538402 bus1=BBT3458001.1.2.3.0,bus2=BBT3458008.1.2.3.0,Phases=3,Linecode=BT810_BT810_4_3_4,Length=0.024325000,Units=km
new line.11538437 bus1=BBT3458008.1.2.3.0,bus2=BBT3458015.1.2.3.0,Phases=3,Linecode=BT810_BT810_4_3_4,Length=0.024203000,Units=km
new line.11539620 bus1=BBT3458330.1.2.3.0,bus2=BBT3458337.1.2.3.0,Phases=3,Linecode=BT809_BT809_4_3_4,Length=0.013348000,Units=km
new line.11539634 bus1=BBT3458337.1.2.3.0,bus2=BBT3458344.1.2.3.0,Phases=3,Linecode=BT809_BT809_4_3_4,Length=0.029044000,Units=km
new line.11639069 bus1=BBT3499497.1.2.3.0,bus2=BBT3499504.1.2.3.0,Phases=3,Linecode=BT810_BT810_4_3_4,Length=0.026690000,Units=km
new line.11639111 bus1=BBT3499511.1.2.3.0,bus2=BBT3499518.1.2.3.0,Phases=3,Linecode=BT810_BT810_4_3_4,Length=0.033885000,Units=km
new line.11639132 bus1=BBT3499518.1.2.3.0,bus2=BBT3499525.1.2.3.0,Phases=3,Linecode=BT810_BT810_4_3_4,Length=0.035303000,Units=km
new line.1165984 bus1=BBT361187.1.2.3.0,bus2=BBT361194.1.2.3.0,Phases=3,Linecode=BT314_BT314_7_3_1,Length=0.000501000,Units=km
new line.1210567 bus1=BBT374291.1.2.3.0,bus2=BBT374284.1.2.3.0,Phases=3,Linecode=BT108_BT108_7_3_1,Length=0.033025000,Units=km
new line.1210581 bus1=BBT374298.1.2.3.0,bus2=BBT374277.1.2.3.0,Phases=3,Linecode=BT107_BT107_7_3_1,Length=0.031981000,Units=km
new line.1210595 bus1=BBT374305.1.2.3.0,bus2=BBT3681868.1.2.3.0,Phases=3,Linecode=BT108_BT108_7_3_1,Length=0.008949000,Units=km
new line.1210616 bus1=BBT374312.1.2.3.0,bus2=BBT374333.1.2.3.0,Phases=3,Linecode=BT107_BT107_7_3_1,Length=0.029419000,Units=km
new line.1210644 bus1=BBT374319.1.2.3.0,bus2=BBT374305.1.2.3.0,Phases=3,Linecode=BT108_BT108_7_3_1,Length=0.031276000,Units=km
new line.1210651 bus1=BBT374270.1.2.3.0,bus2=BBT374319.1.2.3.0,Phases=3,Linecode=BT313_BT313_7_3_1,Length=0.000501000,Units=km
new line.1210658 bus1=BBT374319.1.2.3.0,bus2=BBT374340.1.2.3.0,Phases=3,Linecode=BT108_BT108_7_3_1,Length=0.029450000,Units=km
new line.1210707 bus1=BBT374340.1.2.3.0,bus2=BBT3683016.1.2.3.0,Phases=3,Linecode=BT108_BT108_7_3_1,Length=0.004276000,Units=km
new line.1210742 bus1=BBT374354.1.2.3.0,bus2=BBT374361.1.2.3.0,Phases=3,Linecode=BT107_BT107_7_3_1,Length=0.035275000,Units=km
new line.1210770 bus1=BBT374361.1.2.3.0,bus2=BBT374368.1.2.3.0,Phases=3,Linecode=BT107_BT107_7_3_1,Length=0.030553000,Units=km
new line.1213878 bus1=BBT375467.1.2.0,bus2=BBT375460.1.2.0,Phases=2,Linecode=BT807_BT807_4_2_3,Length=0.028026000,Units=km
new line.1213899 bus1=BBT375474.1.2.0,bus2=BBT375467.1.2.0,Phases=2,Linecode=BT807_BT807_4_2_3,Length=0.028026000,Units=km
new line.1213934 bus1=BBT375488.1.2.3.0,bus2=BBT375481.1.2.3.0,Phases=3,Linecode=BT108_BT107_7_3_1,Length=0.026635000,Units=km
new line.1213941 bus1=BBT375488.1.2.3.0,bus2=BBT375502.1.2.3.0,Phases=3,Linecode=BT108_BT107_7_3_1,Length=0.033848000,Units=km
new line.1213962 bus1=BBT375495.1.2.3.0,bus2=BBT375488.1.2.3.0,Phases=3,Linecode=BT108_BT107_7_3_1,Length=0.022810000,Units=km
new line.1213983 bus1=BBT375509.1.2.3.0,bus2=BBT375495.1.2.3.0,Phases=3,Linecode=BT803_BT803_4_3_4,Length=0.040236000,Units=km
new line.1213990 bus1=BBT375453.1.2.3.0,bus2=BBT375509.1.2.3.0,Phases=3,Linecode=BT313_BT313_7_3_1,Length=0.000501000,Units=km
new line.1213997 bus1=BBT375509.1.2.3.0,bus2=BBT375516.1.2.3.0,Phases=3,Linecode=BT803_BT803_4_3_4,Length=0.027793000,Units=km
new line.1214032 bus1=BBT375516.1.2.3.0,bus2=BBT375523.1.2.3.0,Phases=3,Linecode=BT803_BT803_4_3_4,Length=0.028026000,Units=km
new line.1214088 bus1=BBT375523.1.2.3.0,bus2=BBT375530.1.2.3.0,Phases=3,Linecode=BT803_BT803_4_3_4,Length=0.025815000,Units=km
new line.12143797 bus1=BBT3673034.1.2.3.0,bus2=BBT585194.1.2.3.0,Phases=3,Linecode=BT107_BT107_7_3_1,Length=0.007625000,Units=km
new line.12143804 bus1=BBT3673034.1.2.3.0,bus2=BBT585201.1.2.3.0,Phases=3,Linecode=BT107_BT107_7_3_1,Length=0.035010000,Units=km
new line.12143811 bus1=BBT3673034.1.2.3.0,bus2=BBT585208.1.2.3.0,Phases=3,Linecode=BT108_BT107_7_3_1,Length=0.022210000,Units=km
new line.12149516 bus1=BBT3676107.1.2.3.0,bus2=BBT612319.1.2.3.0,Phases=3,Linecode=BT803_BT803_4_3_4,Length=0.024820000,Units=km
new line.12149523 bus1=BBT3676107.1.2.3.0,bus2=BBT612333.1.2.3.0,Phases=3,Linecode=BT803_BT803_4_3_4,Length=0.028232000,Units=km
new line.12149530 bus1=BBT3676107.1.2.3.0,bus2=BBT612347.1.2.3.0,Phases=3,Linecode=BT803_BT803_4_3_4,Length=0.006122000,Units=km
new line.12150160 bus1=BBT3676492.1.2.3.0,bus2=BBT648607.1.2.3.0,Phases=3,Linecode=BT803_BT803_4_3_4,Length=0.010070000,Units=km
new line.12167226 bus1=BBT3681868.1.2.3.0,bus2=BBT374291.1.2.3.0,Phases=3,Linecode=BT108_BT108_7_3_1,Length=0.024705000,Units=km
new line.12167233 bus1=BBT3681868.1.2.3.0,bus2=BBT374298.1.2.3.0,Phases=3,Linecode=BT107_BT107_7_3_1,Length=0.009437000,Units=km
new line.12167240 bus1=BBT3681868.1.2.3.0,bus2=BBT374312.1.2.3.0,Phases=3,Linecode=BT107_BT107_7_3_1,Length=0.017005000,Units=km
new line.12170999 bus1=BBT3683016.1.2.3.0,bus2=BBT374326.1.2.3.0,Phases=3,Linecode=BT107_BT107_7_3_1,Length=0.008504000,Units=km
new line.12171006 bus1=BBT3683016.1.2.3.0,bus2=BBT374347.1.2.3.0,Phases=3,Linecode=BT108_BT108_7_3_1,Length=0.016272000,Units=km
new line.12171013 bus1=BBT3683016.1.2.3.0,bus2=BBT374354.1.2.3.0,Phases=3,Linecode=BT107_BT107_7_3_1,Length=0.032480000,Units=km
new line.1218120 bus1=BBT376762.1.2.3.0,bus2=BBT376769.1.2.3.0,Phases=3,Linecode=BT108_BT107_7_3_1,Length=0.028895000,Units=km
new line.1218169 bus1=BBT376776.1.2.3.0,bus2=BBT376762.1.2.3.0,Phases=3,Linecode=BT108_BT107_7_3_1,Length=0.033571000,Units=km
new line.1218176 bus1=BBT376755.1.2.3.0,bus2=BBT376776.1.2.3.0,Phases=3,Linecode=BT313_BT313_7_3_1,Length=0.000501000,Units=km
new line.1218183 bus1=BBT376776.1.2.3.0,bus2=BBT376783.1.2.3.0,Phases=3,Linecode=BT108_BT107_7_3_1,Length=0.029786000,Units=km
new line.1218211 bus1=BBT376783.1.2.3.0,bus2=BBT376790.1.2.3.0,Phases=3,Linecode=BT108_BT107_7_3_1,Length=0.031012000,Units=km
new line.12257099 bus1=BBT3725366.1.2.0,bus2=BBT513269.1.2.0,Phases=2,Linecode=BT107_BT107_7_2_1,Length=0.008065000,Units=km
new line.12257106 bus1=BBT3725366.1.2.0,bus2=BBT513276.1.2.0,Phases=2,Linecode=BT107_BT107_7_2_1,Length=0.008605000,Units=km
new line.12257113 bus1=BBT3725366.1.2.0,bus2=BBT513290.1.2.0,Phases=2,Linecode=BT107_BT107_7_2_1,Length=0.042214000,Units=km
new line.12291875 bus1=BBT3740542.1.2.3.0,bus2=BBT3740549.1.2.3.0,Phases=3,Linecode=BT514_BT514_7_3_1,Length=0.000503000,Units=km
new line.1231721 bus1=BBT381270.1.2.3.0,bus2=BBT381263.1.2.3.0,Phases=3,Linecode=BT108_BT107_7_3_1,Length=0.033848000,Units=km
new line.1231735 bus1=BBT381277.1.2.3.0,bus2=BBT381270.1.2.3.0,Phases=3,Linecode=BT108_BT107_7_3_1,Length=0.028853000,Units=km
new line.1231742 bus1=BBT381284.1.2.3.0,bus2=BBT381291.1.2.3.0,Phases=3,Linecode=BT108_BT107_7_3_1,Length=0.034215000,Units=km
new line.1231749 bus1=BBT381284.1.2.3.0,bus2=BBT381277.1.2.3.0,Phases=3,Linecode=BT108_BT107_7_3_1,Length=0.025246000,Units=km
new line.1231756 bus1=BBT381256.1.2.3.0,bus2=BBT381284.1.2.3.0,Phases=3,Linecode=BT518_BT518_7_3_1,Length=0.000501000,Units=km
new line.1257929 bus1=BBT389649.1.2.3.0,bus2=BBT389656.1.2.3.0,Phases=3,Linecode=BT514_BT514_7_3_1,Length=0.000501000,Units=km
new line.1265867 bus1=BBT392498.1.2.3.0,bus2=BBT392491.1.2.3.0,Phases=3,Linecode=BT803_BT803_4_3_4,Length=0.026935000,Units=km
new line.1265881 bus1=BBT392505.1.2.3.0,bus2=BBT392498.1.2.3.0,Phases=3,Linecode=BT803_BT803_4_3_4,Length=0.032290000,Units=km
new line.1265888 bus1=BBT392512.1.2.3.0,bus2=BBT392505.1.2.3.0,Phases=3,Linecode=BT803_BT803_4_3_4,Length=0.028872000,Units=km
new line.1265937 bus1=BBT392519.1.2.3.0,bus2=BBT392512.1.2.3.0,Phases=3,Linecode=BT805_BT805_4_3_4,Length=0.032588000,Units=km
new line.1265958 bus1=BBT392526.1.2.3.0,bus2=BBT392519.1.2.3.0,Phases=3,Linecode=BT805_BT805_4_3_4,Length=0.030604000,Units=km
new line.1265972 bus1=BBT392533.1.2.3.0,bus2=BBT392526.1.2.3.0,Phases=3,Linecode=BT805_BT805_4_3_4,Length=0.028174000,Units=km
new line.1265979 bus1=BBT392484.1.2.3.0,bus2=BBT392533.1.2.3.0,Phases=3,Linecode=BT314_BT314_7_3_1,Length=0.000501000,Units=km
new line.1265986 bus1=BBT392533.1.2.3.0,bus2=BBT392540.1.2.3.0,Phases=3,Linecode=BT805_BT805_4_3_4,Length=0.028241000,Units=km
new line.1266007 bus1=BBT392540.1.2.3.0,bus2=BBT392547.1.2.3.0,Phases=3,Linecode=BT805_BT805_4_3_4,Length=0.034067000,Units=km
new line.1266028 bus1=BBT392547.1.2.3.0,bus2=BBT392554.1.2.3.0,Phases=3,Linecode=BT803_BT803_4_3_4,Length=0.024740000,Units=km
new line.1266049 bus1=BBT441295.1.2.3.0,bus2=BBT441302.1.2.3.0,Phases=3,Linecode=BT107_BT107_7_3_1,Length=0.009231000,Units=km
new line.1271740 bus1=BBT416648.1.2.3.0,bus2=BBT416641.1.2.3.0,Phases=3,Linecode=BT810_BT810_4_3_4,Length=0.014518000,Units=km
new line.1271775 bus1=BBT394318.1.2.3.0,bus2=BBT394325.1.2.3.0,Phases=3,Linecode=BT514_BT514_7_3_1,Length=0.000503000,Units=km
new line.1275492 bus1=BBT405056.1.2.3.0,bus2=BBT405049.1.2.3.0,Phases=3,Linecode=BT108_BT108_7_3_1,Length=0.019438000,Units=km
new line.1276521 bus1=BBT395662.1.2.3.0,bus2=BBT395655.1.2.3.0,Phases=3,Linecode=BT803_BT803_4_3_4,Length=0.040236000,Units=km
new line.1276535 bus1=BBT395676.1.2.3.0,bus2=BBT395662.1.2.3.0,Phases=3,Linecode=BT803_BT803_4_3_4,Length=0.041629000,Units=km
new line.1276570 bus1=BBT395683.1.2.3.0,bus2=BBT395669.1.2.3.0,Phases=3,Linecode=BT803_BT803_4_3_4,Length=0.029077000,Units=km
new line.1276598 bus1=BBT395690.1.2.3.0,bus2=BBT395683.1.2.3.0,Phases=3,Linecode=BT803_BT803_4_3_4,Length=0.031916000,Units=km
new line.1276619 bus1=BBT395697.1.2.3.0,bus2=BBT395676.1.2.3.0,Phases=3,Linecode=BT805_BT805_4_3_4,Length=0.043371000,Units=km
new line.1276626 bus1=BBT395697.1.2.3.0,bus2=BBT395690.1.2.3.0,Phases=3,Linecode=BT803_BT803_4_3_4,Length=0.031505000,Units=km
new line.1276647 bus1=BBT395704.1.2.3.0,bus2=BBT395697.1.2.3.0,Phases=3,Linecode=BT805_BT805_4_3_4,Length=0.024643000,Units=km
new line.1276654 bus1=BBT395648.1.2.3.0,bus2=BBT395704.1.2.3.0,Phases=3,Linecode=BT314_BT314_7_3_1,Length=0.000507000,Units=km
new line.1276661 bus1=BBT395704.1.2.3.0,bus2=BBT395711.1.2.3.0,Phases=3,Linecode=BT805_BT805_4_3_4,Length=0.024643000,Units=km
new line.1276682 bus1=BBT395711.1.2.3.0,bus2=BBT395718.1.2.3.0,Phases=3,Linecode=BT803_BT803_4_3_4,Length=0.029686000,Units=km
new line.1276703 bus1=BBT405686.1.2.3.0,bus2=BBT405679.1.2.3.0,Phases=3,Linecode=BT108_BT108_7_3_1,Length=0.035289000,Units=km
new line.1276724 bus1=BBT395718.1.2.3.0,bus2=BBT395725.1.2.3.0,Phases=3,Linecode=BT803_BT803_4_3_4,Length=0.008354000,Units=km