new transformer.TRF_1000414 Phases=3,Windings=2,Buses=[BMT159853206.1.2.3 5693725.1.2.3.0],Conns=[delta,wye],kvs=[13.800000000,0.220000000],kvas=[30.000000000 30.000000000],Taps=[1,1.000000000],XHL=3.640000000,%loadloss=1.670000000,%noloadloss=0.433333000 !152511
new transformer.TRF_1011117A Phases=1,Windings=3,Buses=[BMT177943434.1 5782359.1.0 5782359.0.2],Conns=[wye wye wye],kvs=[7.967 0.12 0.12],kvas=[10.000000000 10.000000000 10.000000000],Taps=[1,1.000000000,1.000000000],XHL=1.735000000,XHT=1.735000000,XLT=1.388000000,%loadloss=1.800000000,%noloadloss=0.450000000 !334855
new transformer.TRF_1012398A Phases=1,Windings=3,Buses=[BMT166296686.2 5820992.1.0 5820992.0.2],Conns=[wye wye wye],kvs=[7.967 0.12 0.12],kvas=[5.000000000 5.000000000 5.000000000],Taps=[1,1.000000000,1.000000000],XHL=1.625000000,XHT=1.625000000,XLT=1.300000000,%loadloss=1.900000000,%noloadloss=0.600000000 !307557
new transformer.TRF_1012405A Phases=1,Windings=3,Buses=[BMT166296689.2 5821006.1.0 5821006.0.2],Conns=[wye wye wye],kvs=[7.967 0.12 0.12],kvas=[5.000000000 5.000000000 5.000000000],Taps=[1,1.000000000,1.000000000],XHL=1.625000000,XHT=1.625000000,XLT=1.300000000,%loadloss=1.900000000,%noloadloss=0.600000000 !307954
new transformer.TRF_1012412A Phases=1,Windings=3,Buses=[BMT166296690.2 5821027.1.0 5821027.0.2],Conns=[wye wye wye],kvs=[7.967 0.12 0.12],kvas=[5.000000000 5.000000000 5.000000000],Taps=[1,1.000000000,1.000000000],XHL=1.625000000,XHT=1.625000000,XLT=1.300000000,%loadloss=1.900000000,%noloadloss=0.600000000 !307929
new transformer.TRF_1012419A Phases=1,Windings=3,Buses=[BMT166296695.2 5821041.1.0 5821041.0.2],Conns=[wye wye wye],kvs=[7.967 0.12 0.12],kvas=[5.000000000 5.000000000 5.000000000],Taps=[1,1.000000000,1.000000000],XHL=1.625000000,XHT=1.625000000,XLT=1.300000000,%loadloss=1.900000000,%noloadloss=0.600000000 !307960
new transformer.TRF_1012426A Phases=1,Windings=3,Buses=[BMT166296697.2 5821076.1.0 5821076.0.2],Conns=[wye wye wye],kvs=[7.967 0.12 0.12],kvas=[5.000000000 5.000000000 5.000000000],Taps=[1,1.000000000,1.000000000],XHL=1.625000000,XHT=1.625000000,XLT=1.300000000,%loadloss=1.900000000,%noloadloss=0.600000000 !307719
new transformer.TRF_1012433A Phases=1,Windings=3,Buses=[BMT166296699.2 5821090.1.0 5821090.0.2],Conns=[wye wye wye],kvs=[7.967 0.12 0.12],kvas=[5.000000000 5.000000000 5.000000000],Taps=[1,1.000000000,1.000000000],XHL=1.625000000,XHT=1.625000000,XLT=1.300000000,%loadloss=1.900000000,%noloadloss=0.600000000 !307787
new transformer.TRF_1012440A Phases=1,Windings=3,Buses=[BMT166296698.2 5821104.1.0 5821104.0.2],Conns=[wye wye wye],kvs=[7.967 0.12 0.12],kvas=[5.000000000 5.000000000 5.000000000],Taps=[1,1.000000000,1.000000000],XHL=1.625000000,XHT=1.625000000,XLT=1.300000000,%loadloss=1.900000000,%noloadloss=0.600000000 !307809
new transformer.TRF_1012447A Phases=1,Windings=3,Buses=[BMT166296691.2 5821118.1.0 5821118.0.2],Conns=[wye wye wye],kvs=[7.967 0.12 0.12],kvas=[5.000000000 5.000000000 5.000000000],Taps=[1,1.000000000,1.000000000],XHL=1.625000000,XHT=1.625000000,XLT=1.300000000,%loadloss=1.900000000,%noloadloss=0.600000000 !307882
new transformer.TRF_1012454A Phases=1,Windings=3,Buses=[BMT166296692.2 5821132.1.0 5821132.0.2],Conns=[wye wye wye],kvs=[7.967 0.12 0.12],kvas=[5.000000000 5.000000000 5.000000000],Taps=[1,1.000000000,1.000000000],XHL=1.625000000,XHT=1.625000000,XLT=1.300000000,%loadloss=1.900000000,%noloadloss=0.600000000 !307946
new transformer.TRF_1012461A Phases=1,Windings=3,Buses=[BMT166296425.2 5821160.1.0 5821160.0.2],Conns=[wye wye wye],kvs=[7.967 0.12 0.12],kvas=[5.000000000 5.000000000 5.000000000],Taps=[1,1.000000000,1.000000000],XHL=1.625000000,XHT=1.625000000,XLT=1.300000000,%loadloss=1.900000000,%noloadloss=0.600000000 !307790
new transformer.TRF_1012468A Phases=1,Windings=3,Buses=[BMT166296424.2 5821223.1.0 5821223.0.2],Conns=[wye wye wye],kvs=[7.967 0.12 0.12],kvas=[5.000000000 5.000000000 5.000000000],Taps=[1,1.000000000,1.000000000],XHL=1.625000000,XHT=1.625000000,XLT=1.300000000,%loadloss=1.900000000,%noloadloss=0.600000000 !307340
new transformer.TRF_1012482A Phases=1,Windings=3,Buses=[BMT166296426.2 5821251.1.0 5821251.0.2],Conns=[wye wye wye],kvs=[7.967 0.12 0.12],kvas=[5.000000000 5.000000000 5.000000000],Taps=[1,1.000000000,1.000000000],XHL=1.625000000,XHT=1.625000000,XLT=1.300000000,%loadloss=1.900000000,%noloadloss=0.600000000 !307944
new transformer.TRF_1012489A Phases=1,Windings=3,Buses=[BMT166296429.2 5821265.1.0 5821265.0.2],Conns=[wye wye wye],kvs=[7.967 0.12 0.12],kvas=[5.000000000 5.000000000 5.000000000],Taps=[1,1.000000000,1.000000000],XHL=1.625000000,XHT=1.625000000,XLT=1.300000000,%loadloss=1.900000000,%noloadloss=0.600000000 !307893
new transformer.TRF_1012496A Phases=1,Windings=3,Buses=[BMT166296431.2 5821293.1.0 5821293.0.2],Conns=[wye wye wye],kvs=[7.967 0.12 0.12],kvas=[5.000000000 5.000000000 5.000000000],Taps=[1,1.000000000,1.000000000],XHL=1.625000000,XHT=1.625000000,XLT=1.300000000,%loadloss=1.900000000,%noloadloss=0.600000000 !307339
new transformer.TRF_1012503A Phases=1,Windings=3,Buses=[BMT166296432.2 5821321.1.0 5821321.0.2],Conns=[wye wye wye],kvs=[7.967 0.12 0.12],kvas=[5.000000000 5.000000000 5.000000000],Taps=[1,1.000000000,1.000000000],XHL=1.625000000,XHT=1.625000000,XLT=1.300000000,%loadloss=1.900000000,%noloadloss=0.600000000 !300832
new transformer.TRF_1012510A Phases=1,Windings=3,Buses=[BMT166296434.2 5821335.1.0 5821335.0.2],Conns=[wye wye wye],kvs=[7.967 0.12 0.12],kvas=[5.000000000 5.000000000 5.000000000],Taps=[1,1.000000000,1.000000000],XHL=1.625000000,XHT=1.625000000,XLT=1.300000000,%loadloss=1.900000000,%noloadloss=0.600000000 !307988
new transformer.TRF_1012517A Phases=1,Windings=3,Buses=[BMT166296437.2 5821356.1.0 5821356.0.2],Conns=[wye wye wye],kvs=[7.967 0.12 0.12],kvas=[10.000000000 10.000000000 10.000000000],Taps=[1,1.000000000,1.000000000],XHL=1.735000000,XHT=1.735000000,XLT=1.388000000,%loadloss=1.800000000,%noloadloss=0.450000000 !290267
new transformer.TRF_1012524A Phases=1,Windings=3,Buses=[BMT166296439.2 5821370.1.0 5821370.0.2],Conns=[wye wye wye],kvs=[7.967 0.12 0.12],kvas=[5.000000000 5.000000000 5.000000000],Taps=[1,1.000000000,1.000000000],XHL=1.625000000,XHT=1.625000000,XLT=1.300000000,%loadloss=1.900000000,%noloadloss=0.600000000 !307921
new transformer.TRF_1012531A Phases=1,Windings=3,Buses=[BMT166296441.2 5821384.1.0 5821384.0.2],Conns=[wye wye wye],kvs=[7.967 0.12 0.12],kvas=[5.000000000 5.000000000 5.000000000],Taps=[1,1.000000000,1.000000000],XHL=1.625000000,XHT=1.625000000,XLT=1.300000000,%loadloss=1.900000000,%noloadloss=0.600000000 !307840
new transformer.TRF_1012538A Phases=1,Windings=3,Buses=[BMT166296440.2 5821405.1.0 5821405.0.2],Conns=[wye wye wye],kvs=[7.967 0.12 0.12],kvas=[5.000000000 5.000000000 5.000000000],Taps=[1,1.000000000,1.000000000],XHL=1.625000000,XHT=1.625000000,XLT=1.300000000,%loadloss=1.900000000,%noloadloss=0.600000000 !307904
new transformer.TRF_1015303A Phases=1,Windings=3,Buses=[BMT179018630.1 5877454.1.0 5877454.0.2],Conns=[wye wye wye],kvs=[7.967 0.12 0.12],kvas=[35.000000000 35.000000000 35.000000000],Taps=[1,1.000000000,1.000000000],XHL=2.139000000,XHT=2.139000000,XLT=1.712000000,%loadloss=1.293000000,%noloadloss=0.342857000 !68686
new transformer.TRF_1020973A Phases=1,Windings=3,Buses=[BMT182147150.1 6265975.1.0 6265975.0.2],Conns=[wye wye wye],kvs=[7.967 0.12 0.12],kvas=[10.000000000 10.000000000 10.000000000],Taps=[1,1.000000000,1.000000000],XHL=1.735000000,XHT=1.735000000,XLT=1.388000000,%loadloss=1.800000000,%noloadloss=0.450000000 !254113
new transformer.TRF_1027714A Phases=1,Windings=3,Buses=[BMT183078834.3 6439687.1.0 6439687.0.2],Conns=[wye wye wye],kvs=[7.967 0.12 0.12],kvas=[10.000000000 10.000000000 10.000000000],Taps=[1,1.000000000,1.000000000],XHL=1.735000000,XHT=1.735000000,XLT=1.388000000,%loadloss=1.800000000,%noloadloss=0.450000000 !335100
new transformer.TRF_1028218A Phases=1,Windings=3,Buses=[BMT136793092.3 6449704.1.0 6449704.0.2],Conns=[wye wye wye],kvs=[7.967 0.12 0.12],kvas=[15.000000000 15.000000000 15.000000000],Taps=[1,1.000000000,1.000000000],XHL=1.921000000,XHT=1.921000000,XLT=1.537000000,%loadloss=1.600000000,%noloadloss=0.400000000 !218523
new transformer.TRF_1036359A Phases=1,Windings=3,Buses=[BMT172361139.2 6668587.1.0 6668587.0.2],Conns=[wye wye wye],kvs=[7.967 0.12 0.12],kvas=[15.000000000 15.000000000 15.000000000],Taps=[1,1.000000000,1.000000000],XHL=1.921000000,XHT=1.921000000,XLT=1.537000000,%loadloss=1.600000000,%noloadloss=0.400000000 !335092
new transformer.TRF_1036506 Phases=3,Windings=2,Buses=[BMT166151822.1.2.3 6673697.1.2.3.0],Conns=[delta,wye],kvs=[13.800000000,0.220000000],kvas=[150.000000000 150.000000000],Taps=[1,1.000000000],XHL=3.840000000,%loadloss=1.130000000,%noloadloss=0.000000000 !185826
new transformer.TRF_1042239A Phases=1,Windings=3,Buses=[BMT166079918.1 7139449.1.0 7139449.0.2],Conns=[wye wye wye],kvs=[7.967 0.12 0.12],kvas=[15.000000000 15.000000000 15.000000000],Taps=[1,1.000000000,1.000000000],XHL=1.921000000,XHT=1.921000000,XLT=1.537000000,%loadloss=1.600000000,%noloadloss=0.400000000 !369885
new transformer.TRF_1055672 Phases=3,Windings=2,Buses=[BMT169993967.1.2.3 8989724.1.2.3.0],Conns=[delta,wye],kvs=[13.800000000,0.220000000],kvas=[75.000000000 75.000000000],Taps=[1,1.000000000],XHL=3.770000000,%loadloss=1.340000000,%noloadloss=0.340000000 !178723
new transformer.TRF_1001926A Phases=1,Windings=3,Buses=[BMT100423507.1 5701852.1.0 5701852.0.2],Conns=[wye wye wye],kvs=[7.967 0.12 0.12],kvas=[5.000000000 5.000000000 5.000000000],Taps=[1,1.000000000,1.000000000],XHL=1.625000000,XHT=1.625000000,XLT=1.300000000,%loadloss=1.900000000,%noloadloss=0.600000000 !327452
new transformer.TRF_1002094A Phases=1,Windings=3,Buses=[BMT177469193.2 5703238.1.0 5703238.0.2],Conns=[wye wye wye],kvs=[7.967 0.12 0.12],kvas=[5.000000000 5.000000000 5.000000000],Taps=[1,1.000000000,1.000000000],XHL=1.625000000,XHT=1.625000000,XLT=1.300000000,%loadloss=1.900000000,%noloadloss=0.600000000 !350756
new transformer.TRF_1002290A Phases=1,Windings=3,Buses=[BMT166149246.2 5704652.1.0 5704652.0.2],Conns=[wye wye wye],kvs=[7.967 0.12 0.12],kvas=[5.000000000 5.000000000 5.000000000],Taps=[1,1.000000000,1.000000000],XHL=1.625000000,XHT=1.625000000,XLT=1.300000000,%loadloss=1.900000000,%noloadloss=0.600000000 !300980
new transformer.TRF_1002304A Phases=1,Windings=3,Buses=[BMT166149247.2 5704680.1.0 5704680.0.2],Conns=[wye wye wye],kvs=[7.967 0.12 0.12],kvas=[15.000000000 15.000000000 15.000000000],Taps=[1,1.000000000,1.000000000],XHL=1.921000000,XHT=1.921000000,XLT=1.537000000,%loadloss=1.600000000,%noloadloss=0.400000000 !377571
new transformer.TRF_1002311A Phases=1,Windings=3,Buses=[BMT166149248.2 5704694.1.0 5704694.0.2],Conns=[wye wye wye],kvs=[7.967 0.12 0.12],kvas=[5.000000000 5.000000000 5.000000000],Taps=[1,1.000000000,1.000000000],XHL=1.625000000,XHT=1.625000000,XLT=1.300000000,%loadloss=1.900000000,%noloadloss=0.600000000 !307576
new transformer.TRF_1002556A Phases=1,Windings=3,Buses=[BMT166149810.1 5705737.1.0 5705737.0.2],Conns=[wye wye wye],kvs=[7.967 0.12 0.12],kvas=[5.000000000 5.000000000 5.000000000],Taps=[1,1.000000000,1.000000000],XHL=1.625000000,XHT=1.625000000,XLT=1.300000000,%loadloss=1.900000000,%noloadloss=0.600000000 !310983
new transformer.TRF_1002563A Phases=1,Windings=3,Buses=[BMT166149798.1 5705751.1.0 5705751.0.2],Conns=[wye wye wye],kvs=[7.967 0.12 0.12],kvas=[10.000000000 10.000000000 10.000000000],Taps=[1,1.000000000,1.000000000],XHL=1.735000000,XHT=1.735000000,XLT=1.388000000,%loadloss=1.800000000,%noloadloss=0.450000000 !334579
new transformer.TRF_1002577A Phases=1,Windings=3,Buses=[BMT166149800.1 5705807.1.0 5705807.0.2],Conns=[wye wye wye],kvs=[7.967 0.12 0.12],kvas=[10.000000000 10.000000000 10.000000000],Taps=[1,1.000000000,1.000000000],XHL=1.735000000,XHT=1.735000000,XLT=1.388000000,%loadloss=1.800000000,%noloadloss=0.450000000 !334598
new transformer.TRF_1002584A Phases=1,Windings=3,Buses=[BMT166149802.1 5705821.1.0 5705821.0.2],Conns=[wye wye wye],kvs=[7.967 0.12 0.12],kvas=[5.000000000 5.000000000 5.000000000],Taps=[1,1.000000000,1.000000000],XHL=1.625000000,XHT=1.625000000,XLT=1.300000000,%loadloss=1.900000000,%noloadloss=0.600000000 !342034
new transformer.TRF_1002591A Phases=1,Windings=3,Buses=[BMT166149804.1 5705835.1.0 5705835.0.2],Conns=[wye wye wye],kvs=[7.967 0.12 0.12],kvas=[5.000000000 5.000000000 5.000000000],Taps=[1,1.000000000,1.000000000],XHL=1.625000000,XHT=1.625000000,XLT=1.300000000,%loadloss=1.900000000,%noloadloss=0.600000000 !311000
new transformer.TRF_1002598A Phases=1,Windings=3,Buses=[BMT166149806.1 5705856.1.0 5705856.0.2],Conns=[wye wye wye],kvs=[7.967 0.12 0.12],kvas=[10.000000000 10.000000000 10.000000000],Taps=[1,1.000000000,1.000000000],XHL=1.735000000,XHT=1.735000000,XLT=1.388000000,%loadloss=1.800000000,%noloadloss=0.450000000 !408643
new transformer.TRF_1002605A Phases=1,Windings=3,Buses=[BMT166149809.1 5705870.1.0 5705870.0.2],Conns=[wye wye wye],kvs=[7.967 0.12 0.12],kvas=[5.000000000 5.000000000 5.000000000],Taps=[1,1.000000000,1.000000000],XHL=1.625000000,XHT=1.625000000,XLT=1.300000000,%loadloss=1.900000000,%noloadloss=0.600000000 !341844
new transformer.TRF_1002612A Phases=1,Windings=3,Buses=[BMT166149808.1 5705884.1.0 5705884.0.2],Conns=[wye wye wye],kvs=[7.967 0.12 0.12],kvas=[5.000000000 5.000000000 5.000000000],Taps=[1,1.000000000,1.000000000],XHL=1.625000000,XHT=1.625000000,XLT=1.300000000,%loadloss=1.900000000,%noloadloss=0.600000000 !311228
new transformer.TRF_1002619A Phases=1,Windings=3,Buses=[BMT166149811.1 5705898.1.0 5705898.0.2],Conns=[wye wye wye],kvs=[7.967 0.12 0.12],kvas=[5.000000000 5.000000000 5.000000000],Taps=[1,1.000000000,1.000000000],XHL=1.625000000,XHT=1.625000000,XLT=1.300000000,%loadloss=1.900000000,%noloadloss=0.600000000 !311092
new transformer.TRF_1016010A Phases=1,Windings=3,Buses=[BMT100427119.1 5904649.1.0 5904649.0.2],Conns=[wye wye wye],kvs=[7.967 0.12 0.12],kvas=[10.000000000 10.000000000 10.000000000],Taps=[1,1.000000000,1.000000000],XHL=1.735000000,XHT=1.735000000,XLT=1.388000000,%loadloss=1.800000000,%noloadloss=0.450000000 !38762
new transformer.TRF_1020266A Phases=1,Windings=3,Buses=[BMT166150208.1 6256049.1.0 6256049.0.2],Conns=[wye wye wye],kvs=[7.967 0.12 0.12],kvas=[5.000000000 5.000000000 5.000000000],Taps=[1,1.000000000,1.000000000],XHL=1.625000000,XHT=1.625000000,XLT=1.300000000,%loadloss=1.900000000,%noloadloss=0.600000000 !311008
new transformer.TRF_1034161A Phases=1,Windings=3,Buses=[BMT182049508.1 6576145.1.0 6576145.0.2],Conns=[wye wye wye],kvs=[7.967 0.12 0.12],kvas=[10.000000000 10.000000000 10.000000000],Taps=[1,1.000000000,1.000000000],XHL=1.735000000,XHT=1.735000000,XLT=1.388000000,%loadloss=1.800000000,%noloadloss=0.450000000 !335379
new transformer.TRF_1044122A Phases=1,Windings=3,Buses=[BMT181140908.1 7233277.1.0 7233277.0.2],Conns=[wye wye wye],kvs=[7.967 0.12 0.12],kvas=[10.000000000 10.000000000 10.000000000],Taps=[1,1.000000000,1.000000000],XHL=1.735000000,XHT=1.735000000,XLT=1.388000000,%loadloss=1.800000000,%noloadloss=0.450000000 !370832
new transformer.TRF_1044437A Phases=1,Windings=3,Buses=[BMT100426685.1 7244414.1.0 7244414.0.2],Conns=[wye wye wye],kvs=[7.967 0.12 0.12],kvas=[10.000000000 10.000000000 10.000000000],Taps=[1,1.000000000,1.000000000],XHL=1.735000000,XHT=1.735000000,XLT=1.388000000,%loadloss=1.800000000,%noloadloss=0.450000000 !400359
new transformer.TRF_1044549A Phases=1,Windings=3,Buses=[BMT166150533.3 7251701.1.0 7251701.0.2],Conns=[wye wye wye],kvs=[7.967 0.12 0.12],kvas=[10.000000000 10.000000000 10.000000000],Taps=[1,1.000000000,1.000000000],XHL=1.735000000,XHT=1.735000000,XLT=1.388000000,%loadloss=1.800000000,%noloadloss=0.450000000 !370198
new transformer.TRF_1044668A Phases=1,Windings=3,Buses=[BMT166151812.2 7264630.1.0 7264630.0.2],Conns=[wye wye wye],kvs=[7.967 0.12 0.12],kvas=[10.000000000 10.000000000 10.000000000],Taps=[1,1.000000000,1.000000000],XHL=1.735000000,XHT=1.735000000,XLT=1.388000000,%loadloss=1.800000000,%noloadloss=0.450000000 !369592
new transformer.TRF_1044899A Phases=1,Windings=3,Buses=[BMT179892461.1 7281290.1.0 7281290.0.2],Conns=[wye wye wye],kvs=[7.967 0.12 0.12],kvas=[5.000000000 5.000000000 5.000000000],Taps=[1,1.000000000,1.000000000],XHL=1.625000000,XHT=1.625000000,XLT=1.300000000,%loadloss=1.900000000,%noloadloss=0.600000000 !101252
new transformer.TRF_1051577 Phases=3,Windings=2,Buses=[BMT175167767.1.2.3 7625648.1.2.3.0],Conns=[delta,wye],kvs=[13.800000000,0.220000000],kvas=[75.000000000 75.000000000],Taps=[1,1.000000000],XHL=3.770000000,%loadloss=1.340000000,%noloadloss=0.340000000 !144243
new transformer.TRF_1052046A Phases=1,Windings=3,Buses=[BMT173564017.2 7662937.1.0 7662937.0.2],Conns=[wye wye wye],kvs=[7.967 0.12 0.12],kvas=[15.000000000 15.000000000 15.000000000],Taps=[1,1.000000000,1.000000000],XHL=1.921000000,XHT=1.921000000,XLT=1.537000000,%loadloss=1.600000000,%noloadloss=0.400000000 !411737
new transformer.TRF_1059641A Phases=1,Windings=3,Buses=[BMT180081695.1 11001069.1.0 11001069.0.2],Conns=[wye wye wye],kvs=[7.967 0.12 0.12],kvas=[10.000000000 10.000000000 10.000000000],Taps=[1,1.000000000,1.000000000],XHL=1.735000000,XHT=1.735000000,XLT=1.388000000,%loadloss=1.800000000,%noloadloss=0.450000000 !377462
new transformer.TRF_1099961A Phases=1,Windings=3,Buses=[BMT176236753.2 23380261.1.0 23380261.0.2],Conns=[wye wye wye],kvs=[7.967 0.12 0.12],kvas=[5.000000000 5.000000000 5.000000000],Taps=[1,1.000000000,1.000000000],XHL=1.625000000,XHT=1.625000000,XLT=1.300000000,%loadloss=1.900000000,%noloadloss=0.600000000 !385550
new transformer.TRF_1100255A Phases=1,Windings=3,Buses=[BMT166149161.2 23420672.1.0 23420672.0.2],Conns=[wye wye wye],kvs=[7.967 0.12 0.12],kvas=[5.000000000 5.000000000 5.000000000],Taps=[1,1.000000000,1.000000000],XHL=1.625000000,XHT=1.625000000,XLT=1.300000000,%loadloss=1.900000000,%noloadloss=0.600000000 !385607
new transformer.TRF_1100269A Phases=1,Windings=3,Buses=[BMT166149132.2 23423010.1.0 23423010.0.2],Conns=[wye wye wye],kvs=[7.967 0.12 0.12],kvas=[5.000000000 5.000000000 5.000000000],Taps=[1,1.000000000,1.000000000],XHL=1.625000000,XHT=1.625000000,XLT=1.300000000,%loadloss=1.900000000,%noloadloss=0.600000000 !385380
new transformer.TRF_1100276A Phases=1,Windings=3,Buses=[BMT166149133.2 23423220.1.0 23423220.0.2],Conns=[wye wye wye],kvs=[7.967 0.12 0.12],kvas=[5.000000000 5.000000000 5.000000000],Taps=[1,1.000000000,1.000000000],XHL=1.625000000,XHT=1.625000000,XLT=1.300000000,%loadloss=1.900000000,%noloadloss=0.600000000 !385750
new transformer.TRF_1100283A Phases=1,Windings=3,Buses=[BMT166149134.2 23423437.1.0 23423437.0.2],Conns=[wye wye wye],kvs=[7.967 0.12 0.12],kvas=[10.000000000 10.000000000 10.000000000],Taps=[1,1.000000000,1.000000000],XHL=1.735000000,XHT=1.735000000,XLT=1.388000000,%loadloss=1.800000000,%noloadloss=0.450000000 !378523
new transformer.TRF_1001513A Phases=1,Windings=3,Buses=[BMT166149259.2 5699206.1.0 5699206.0.2],Conns=[wye wye wye],kvs=[7.967 0.12 0.12],kvas=[5.000000000 5.000000000 5.000000000],Taps=[1,1.000000000,1.000000000],XHL=1.625000000,XHT=1.625000000,XLT=1.300000000,%loadloss=1.900000000,%noloadloss=0.600000000 !343450
new transformer.TRF_1001527A Phases=1,Windings=3,Buses=[BMT166149254.2 5699234.1.0 5699234.0.2],Conns=[wye wye wye],kvs=[7.967 0.12 0.12],kvas=[5.000000000 5.000000000 5.000000000],Taps=[1,1.000000000,1.000000000],XHL=1.625000000,XHT=1.625000000,XLT=1.300000000,%loadloss=1.900000000,%noloadloss=0.600000000 !351673
new transformer.TRF_1001541A Phases=1,Windings=3,Buses=[BMT166149256.2 5699269.1.0 5699269.0.2],Conns=[wye wye wye],kvs=[7.967 0.12 0.12],kvas=[15.000000000 15.000000000 15.000000000],Taps=[1,1.000000000,1.000000000],XHL=1.921000000,XHT=1.921000000,XLT=1.537000000,%loadloss=1.600000000,%noloadloss=0.400000000 !403440
new transformer.TRF_1001548A Phases=1,Windings=3,Buses=[BMT166149258.2 5699297.1.0 5699297.0.2],Conns=[wye wye wye],kvs=[7.967 0.12 0.12],kvas=[5.000000000 5.000000000 5.000000000],Taps=[1,1.000000000,1.000000000],XHL=1.625000000,XHT=1.625000000,XLT=1.300000000,%loadloss=1.900000000,%noloadloss=0.600000000 !288556
new transformer.TRF_1001555A Phases=1,Windings=3,Buses=[BMT166149260.2 5699339.1.0 5699339.0.2],Conns=[wye wye wye],kvs=[7.967 0.12 0.12],kvas=[5.000000000 5.000000000 5.000000000],Taps=[1,1.000000000,1.000000000],XHL=1.625000000,XHT=1.625000000,XLT=1.300000000,%loadloss=1.900000000,%noloadloss=0.600000000 !341711
new transformer.TRF_1001688A Phases=1,Windings=3,Buses=[BMT167284969.3 5699962.1.0 5699962.0.2],Conns=[wye wye wye],kvs=[7.967 0.12 0.12],kvas=[15.000000000 15.000000000 15.000000000],Taps=[1,1.000000000,1.000000000],XHL=1.921000000,XHT=1.921000000,XLT=1.537000000,%loadloss=1.600000000,%noloadloss=0.400000000 !402403
new transformer.TRF_1016402A Phases=1,Windings=3,Buses=[BMT177429670.1 5932110.1.0 5932110.0.2],Conns=[wye wye wye],kvs=[7.967 0.12 0.12],kvas=[10.000000000 10.000000000 10.000000000],Taps=[1,1.000000000,1.000000000],XHL=1.735000000,XHT=1.735000000,XLT=1.388000000,%loadloss=1.800000000,%noloadloss=0.450000000 !334885
new transformer.TRF_1016479A Phases=1,Windings=3,Buses=[BMT180926271.3 5943331.1.0 5943331.0.2],Conns=[wye wye wye],kvs=[7.967 0.12 0.12],kvas=[5.000000000 5.000000000 5.000000000],Taps=[1,1.000000000,1.000000000],XHL=1.625000000,XHT=1.625000000,XLT=1.300000000,%loadloss=1.900000000,%noloadloss=0.600000000 !311379
new transformer.TRF_1016535A Phases=1,Windings=3,Buses=[BMT168520984.1 5943611.1.0 5943611.0.2],Conns=[wye wye wye],kvs=[7.967 0.12 0.12],kvas=[5.000000000 5.000000000 5.000000000],Taps=[1,1.000000000,1.000000000],XHL=1.625000000,XHT=1.625000000,XLT=1.300000000,%loadloss=1.900000000,%noloadloss=0.600000000 !350931
new transformer.TRF_1029982 Phases=3,Windings=2,Buses=[BMT182521815.1.2.3 6486146.1.2.3.0],Conns=[delta,wye],kvs=[13.800000000,0.220000000],kvas=[45.000000000 45.000000000],Taps=[1,1.000000000],XHL=3.700000000,%loadloss=1.520000000,%noloadloss=0.377777000 !154111
new transformer.TRF_1043254 Phases=3,Windings=2,Buses=[BMT100384587.1.2.3 7207580.1.2.3.0],Conns=[delta,wye],kvs=[13.800000000,0.220000000],kvas=[225.000000000 225.000000000],Taps=[1,1.000000000],XHL=4.890000000,%loadloss=1.060000000,%noloadloss=0.000000000 !186558
new transformer.TRF_1043261A Phases=1,Windings=3,Buses=[BMT172243527.2 7207888.1.0 7207888.0.2],Conns=[wye wye wye],kvs=[7.967 0.12 0.12],kvas=[15.000000000 15.000000000 15.000000000],Taps=[1,1.000000000,1.000000000],XHL=1.921000000,XHT=1.921000000,XLT=1.537000000,%loadloss=1.600000000,%noloadloss=0.400000000 !369803
new transformer.TRF_1043891A Phases=1,Windings=3,Buses=[BMT165080102.3 7223036.1.0 7223036.0.2],Conns=[wye wye wye],kvs=[7.967 0.12 0.12],kvas=[10.000000000 10.000000000 10.000000000],Taps=[1,1.000000000,1.000000000],XHL=1.735000000,XHT=1.735000000,XLT=1.388000000,%loadloss=1.800000000,%noloadloss=0.450000000 !370324
new transformer.TRF_1048224A Phases=1,Windings=3,Buses=[BMT181720166.1 7427996.1.0 7427996.0.2],Conns=[wye wye wye],kvs=[7.967 0.12 0.12],kvas=[5.000000000 5.000000000 5.000000000],Taps=[1,1.000000000,1.000000000],XHL=1.625000000,XHT=1.625000000,XLT=1.300000000,%loadloss=1.900000000,%noloadloss=0.600000000 !375693
new transformer.TRF_1056750A Phases=1,Windings=3,Buses=[BMT177542753.1 9582435.1.0 9582435.0.2],Conns=[wye wye wye],kvs=[7.967 0.12 0.12],kvas=[10.000000000 10.000000000 10.000000000],Taps=[1,1.000000000,1.000000000],XHL=1.735000000,XHT=1.735000000,XLT=1.388000000,%loadloss=1.800000000,%noloadloss=0.450000000 !378873
new transformer.TRF_1094683A Phases=1,Windings=3,Buses=[BMT166149284.2 21925794.1.0 21925794.0.2],Conns=[wye wye wye],kvs=[7.967 0.12 0.12],kvas=[5.000000000 5.000000000 5.000000000],Taps=[1,1.000000000,1.000000000],XHL=1.625000000,XHT=1.625000000,XLT=1.300000000,%loadloss=1.900000000,%noloadloss=0.600000000 !385655
new transformer.TRF_1094837A Phases=1,Windings=3,Buses=[BMT181192321.2 21947298.1.0 21947298.0.2],Conns=[wye wye wye],kvs=[7.967 0.12 0.12],kvas=[10.000000000 10.000000000 10.000000000],Taps=[1,1.000000000,1.000000000],XHL=1.735000000,XHT=1.735000000,XLT=1.388000000,%loadloss=1.800000000,%noloadloss=0.450000000 !377879
new transformer.TRF_1094844A Phases=1,Windings=3,Buses=[BMT177018252.3 21948243.1.0 21948243.0.2],Conns=[wye wye wye],kvs=[7.967 0.12 0.12],kvas=[5.000000000 5.000000000 5.000000000],Taps=[1,1.000000000,1.000000000],XHL=1.625000000,XHT=1.625000000,XLT=1.300000000,%loadloss=1.900000000,%noloadloss=0.600000000 !381978
new transformer.TRF_1094851A Phases=1,Windings=3,Buses=[BMT177018263.1 21948817.1.0 21948817.0.2],Conns=[wye wye wye],kvs=[7.967 0.12 0.12],kvas=[5.000000000 5.000000000 5.000000000],Taps=[1,1.000000000,1.000000000],XHL=1.625000000,XHT=1.625000000,XLT=1.300000000,%loadloss=1.900000000,%noloadloss=0.600000000 !382111
new transformer.TRF_110539A Phases=1,Windings=3,Buses=[BMT166150190.3 329100.1.0 329100.0.2],Conns=[wye wye wye],kvs=[7.967 0.12 0.12],kvas=[10.000000000 10.000000000 10.000000000],Taps=[1,1.000000000,1.000000000],XHL=1.735000000,XHT=1.735000000,XLT=1.388000000,%loadloss=1.800000000,%noloadloss=0.450000000 !94068
new transformer.TRF_110546A Phases=1,Windings=3,Buses=[BMT166150189.3 329114.1.0 329114.0.2],Conns=[wye wye wye],kvs=[7.967 0.12 0.12],kvas=[10.000000000 10.000000000 10.000000000],Taps=[1,1.000000000,1.000000000],XHL=1.735000000,XHT=1.735000000,XLT=1.388000000,%loadloss=1.800000000,%noloadloss=0.450000000 !93145
new transformer.TRF_110553A Phases=1,Windings=3,Buses=[BMT180257223.3 329128.1.0 329128.0.2],Conns=[wye wye wye],kvs=[7.967 0.12 0.12],kvas=[10.000000000 10.000000000 10.000000000],Taps=[1,1.000000000,1.000000000],XHL=1.735000000,XHT=1.735000000,XLT=1.388000000,%loadloss=1.800000000,%noloadloss=0.450000000 !70909
new transformer.TRF_110560A Phases=1,Windings=3,Buses=[BMT176128836.3 329142.1.0 329142.0.2],Conns=[wye wye wye],kvs=[7.967 0.12 0.12],kvas=[5.000000000 5.000000000 5.000000000],Taps=[1,1.000000000,1.000000000],XHL=1.625000000,XHT=1.625000000,XLT=1.300000000,%loadloss=1.900000000,%noloadloss=0.600000000 !19017
new transformer.TRF_110567A Phases=1,Windings=3,Buses=[BMT172243525.2 329156.1.0 329156.0.2],Conns=[wye wye wye],kvs=[7.967 0.12 0.12],kvas=[15.000000000 15.000000000 15.000000000],Taps=[1,1.000000000,1.000000000],XHL=1.921000000,XHT=1.921000000,XLT=1.537000000,%loadloss=1.600000000,%noloadloss=0.400000000 !113235
new transformer.TRF_110574A Phases=1,Windings=3,Buses=[BMT182314391.3 329170.1.0 329170.0.2],Conns=[wye wye wye],kvs=[7.967 0.12 0.12],kvas=[5.000000000 5.000000000 5.000000000],Taps=[1,1.000000000,1.000000000],XHL=1.625000000,XHT=1.625000000,XLT=1.300000000,%loadloss=1.900000000,%noloadloss=0.600000000 !15439
new transformer.TRF_110581A Phases=1,Windings=3,Buses=[BMT179213197.3 329184.1.0 329184.0.2],Conns=[wye wye wye],kvs=[7.967 0.12 0.12],kvas=[10.000000000 10.000000000 10.000000000],Taps=[1,1.000000000,1.000000000],XHL=1.735000000,XHT=1.735000000,XLT=1.388000000,%loadloss=1.800000000,%noloadloss=0.450000000 !12761
new transformer.TRF_110588A Phases=1,Windings=3,Buses=[BMT179891687.3 329198.1.0 329198.0.2],Conns=[wye wye wye],kvs=[7.967 0.12 0.12],kvas=[5.000000000 5.000000000 5.000000000],Taps=[1,1.000000000,1.000000000],XHL=1.625000000,XHT=1.625000000,XLT=1.300000000,%loadloss=1.900000000,%noloadloss=0.600000000 !13768
new transformer.TRF_110595A Phases=1,Windings=3,Buses=[BMT182316405.3 329212.1.0 329212.0.2],Conns=[wye wye wye],kvs=[7.967 0.12 0.12],kvas=[10.000000000 10.000000000 10.000000000],Taps=[1,1.000000000,1.000000000],XHL=1.735000000,XHT=1.735000000,XLT=1.388000000,%loadloss=1.800000000,%noloadloss=0.450000000 !24565
new transformer.TRF_110602A Phases=1,Windings=3,Buses=[BMT182316420.3 329226.1.0 329226.0.2],Conns=[wye wye wye],kvs=[7.967 0.12 0.12],kvas=[10.000000000 10.000000000 10.000000000],Taps=[1,1.000000000,1.000000000],XHL=1.735000000,XHT=1.735000000,XLT=1.388000000,%loadloss=1.800000000,%noloadloss=0.450000000 !24566
new transformer.TRF_110616A Phases=1,Windings=3,Buses=[BMT182314369.3 329254.1.0 329254.0.2],Conns=[wye wye wye],kvs=[7.967 0.12 0.12],kvas=[35.000000000 35.000000000 35.000000000],Taps=[1,1.000000000,1.000000000],XHL=2.139000000,XHT=2.139000000,XLT=1.712000000,%loadloss=1.293000000,%noloadloss=0.342857000 !70932
new transformer.TRF_1003718A Phases=1,Windings=3,Buses=[BMT166149381.2 5712352.1.0 5712352.0.2],Conns=[wye wye wye],kvs=[7.967 0.12 0.12],kvas=[5.000000000 5.000000000 5.000000000],Taps=[1,1.000000000,1.000000000],XHL=1.625000000,XHT=1.625000000,XLT=1.300000000,%loadloss=1.900000000,%noloadloss=0.600000000 !295984
new transformer.TRF_1003767A Phases=1,Windings=3,Buses=[BMT160224733.2 5712506.1.0 5712506.0.2],Conns=[wye wye wye],kvs=[7.967 0.12 0.12],kvas=[5.000000000 5.000000000 5.000000000],Taps=[1,1.000000000,1.000000000],XHL=1.625000000,XHT=1.625000000,XLT=1.300000000,%loadloss=1.900000000,%noloadloss=0.600000000 !350705
new transformer.TRF_1004152A Phases=1,Windings=3,Buses=[BMT166151689.3 5715124.1.0 5715124.0.2],Conns=[wye wye wye],kvs=[7.967 0.12 0.12],kvas=[5.000000000 5.000000000 5.000000000],Taps=[1,1.000000000,1.000000000],XHL=1.625000000,XHT=1.625000000,XLT=1.300000000,%loadloss=1.900000000,%noloadloss=0.600000000 !351629
new transformer.TRF_1004369A Phases=1,Windings=3,Buses=[BMT179546552.1 5716986.1.0 5716986.0.2],Conns=[wye wye wye],kvs=[7.967 0.12 0.12],kvas=[15.000000000 15.000000000 15.000000000],Taps=[1,1.000000000,1.000000000],XHL=1.921000000,XHT=1.921000000,XLT=1.537000000,%loadloss=1.600000000,%noloadloss=0.400000000 !413366
new transformer.TRF_1013700A Phases=1,Windings=3,Buses=[BMT182156989.2 5830239.1.0 5830239.0.2],Conns=[wye wye wye],kvs=[7.967 0.12 0.12],kvas=[10.000000000 10.000000000 10.000000000],Taps=[1,1.000000000,1.000000000],XHL=1.735000000,XHT=1.735000000,XLT=1.388000000,%loadloss=1.800000000,%noloadloss=0.450000000 !254575