new loadshape.ccurvaUGBT npts=24,interval=1.0,mult=[0.0001,0.0001,0.0001,0.0001,0.0001,0.0001,0.17,0.47,0.7,0.9,1,1,0.93,0.8,0.53,0.33,0.2,0.13,0.0001,0.0001,0.0001,0.0001,0.0001,0.0001]
new generator.3000619444 bus1=1003121596.1.2.3.0,Phases=3,kv=0.22,kW=4.36169,pf=1,model=1,daily=ccurvaUGBT,status=Variable
new generator.3000619544 bus1=1002936474.1.2.3.0,Phases=3,kv=0.22,kW=5.39255,pf=1,model=1,daily=ccurvaUGBT,status=Variable
new generator.3000619600 bus1=1002937853.2.3.0,Phases=2,kv=0.22,kW=4.10829,pf=1,model=1,daily=ccurvaUGBT,status=Variable
new generator.3000619617 bus1=1003243634.1.0,Phases=1,kv=0.127,kW=1.30791,pf=1,model=1,daily=ccurvaUGBT,status=Variable
new generator.3000619653 bus1=1002938126.1.2.0,Phases=2,kv=0.22,kW=2.3812,pf=1,model=1,daily=ccurvaUGBT,status=Variable
new generator.3000619654 bus1=1002938091.1.2.0,Phases=2,kv=0.22,kW=2.60443,pf=1,model=1,daily=ccurvaUGBT,status=Variable
new generator.3000619665 bus1=1002938406.1.0,Phases=1,kv=0.127,kW=1.69682,pf=1,model=1,daily=ccurvaUGBT,status=Variable
new generator.3000619673 bus1=1002938840.2.3.0,Phases=2,kv=0.22,kW=1.45649,pf=1,model=1,daily=ccurvaUGBT,status=Variable
new generator.3000619708 bus1=1002938889.1.0,Phases=1,kv=0.127,kW=2.10572,pf=1,model=1,daily=ccurvaUGBT,status=Variable
new generator.3000619715 bus1=1002938637.1.2.3.0,Phases=3,kv=0.22,kW=1.46226,pf=1,model=1,daily=ccurvaUGBT,status=Variable
new generator.3000619912 bus1=1002938560.1.0,Phases=1,kv=0.127,kW=1.45971,pf=1,model=1,daily=ccurvaUGBT,status=Variable
new generator.3000620052 bus1=1002935396.1.2.0,Phases=2,kv=0.22,kW=3.93848,pf=1,model=1,daily=ccurvaUGBT,status=Variable
new generator.3000620066 bus1=1002935375.2.3.0,Phases=2,kv=0.22,kW=1.29387,pf=1,model=1,daily=ccurvaUGBT,status=Variable
new generator.3000620076 bus1=1002941017.1.2.3.0,Phases=3,kv=0.22,kW=1.225,pf=1,model=1,daily=ccurvaUGBT,status=Variable
new generator.3000620150 bus1=1004797095.1.2.3.0,Phases=3,kv=0.22,kW=2.58974,pf=1,model=1,daily=ccurvaUGBT,status=Variable
new generator.3000620183 bus1=1003077664.1.2.3.0,Phases=3,kv=0.22,kW=24.77269,pf=1,model=1,daily=ccurvaUGBT,status=Variable
new generator.3000620192 bus1=1003077755.1.2.0,Phases=2,kv=0.22,kW=0.49857,pf=1,model=1,daily=ccurvaUGBT,status=Variable
new generator.3000620226 bus1=1003077979.1.2.0,Phases=2,kv=0.22,kW=1.07259,pf=1,model=1,daily=ccurvaUGBT,status=Variable
new generator.3000620228 bus1=1002934150.1.2.0,Phases=2,kv=0.22,kW=3.99862,pf=1,model=1,daily=ccurvaUGBT,status=Variable
new generator.3001157315 bus1=1002801507.2.0,Phases=1,kv=0.127,kW=3.71955,pf=1,model=1,daily=ccurvaUGBT,status=Variable
new generator.3001157326 bus1=1002809816.3.0,Phases=1,kv=0.127,kW=0.8913,pf=1,model=1,daily=ccurvaUGBT,status=Variable
new generator.3001157579 bus1=1002798952.1.2.3.0,Phases=3,kv=0.22,kW=2.9826,pf=1,model=1,daily=ccurvaUGBT,status=Variable
new generator.3001157613 bus1=1003012557.1.2.0,Phases=2,kv=0.22,kW=2.90942,pf=1,model=1,daily=ccurvaUGBT,status=Variable
new generator.3001157655 bus1=1002924658.1.2.0,Phases=2,kv=0.22,kW=6.66787,pf=1,model=1,daily=ccurvaUGBT,status=Variable
new generator.3001157660 bus1=1002924924.1.2.3.0,Phases=3,kv=0.22,kW=18.98766,pf=1,model=1,daily=ccurvaUGBT,status=Variable
new generator.3001157666 bus1=1003110305.1.2.0,Phases=2,kv=0.22,kW=10.51606,pf=1,model=1,daily=ccurvaUGBT,status=Variable
new generator.3001157668 bus1=1003110270.1.2.0,Phases=2,kv=0.22,kW=6.42802,pf=1,model=1,daily=ccurvaUGBT,status=Variable
new generator.3001157670 bus1=1003110263.1.2.0,Phases=2,kv=0.22,kW=1.63126,pf=1,model=1,daily=ccurvaUGBT,status=Variable
new generator.3000091730 bus1=1004981433.3.1.0,Phases=2,kv=0.22,kW=2.95962,pf=1,model=1,daily=ccurvaUGBT,status=Variable
new generator.3000091782 bus1=1002839293.1.2.3.0,Phases=3,kv=0.22,kW=13.6458,pf=1,model=1,daily=ccurvaUGBT,status=Variable
new generator.3000091788 bus1=1002838971.1.2.3.0,Phases=3,kv=0.22,kW=2.76847,pf=1,model=1,daily=ccurvaUGBT,status=Variable
new generator.3000091915 bus1=1002840469.3.0,Phases=1,kv=0.127,kW=1.76229,pf=1,model=1,daily=ccurvaUGBT,status=Variable
new generator.3000091944 bus1=1002840763.1.2.0,Phases=2,kv=0.22,kW=0.93158,pf=1,model=1,daily=ccurvaUGBT,status=Variable
new generator.3000091953 bus1=1002838593.2.3.0,Phases=2,kv=0.22,kW=6.044,pf=1,model=1,daily=ccurvaUGBT,status=Variable
new generator.3000092007 bus1=1002759472.1.2.3.0,Phases=3,kv=0.22,kW=4.76503,pf=1,model=1,daily=ccurvaUGBT,status=Variable
new generator.3000092245 bus1=1004665908.1.2.3.0,Phases=3,kv=0.22,kW=5.55656,pf=1,model=1,daily=ccurvaUGBT,status=Variable
new generator.3000092255 bus1=1004862328.1.2.0,Phases=2,kv=0.22,kW=2.06278,pf=1,model=1,daily=ccurvaUGBT,status=Variable
new generator.3000092269 bus1=1003094996.1.2.0,Phases=2,kv=0.22,kW=3.97979,pf=1,model=1,daily=ccurvaUGBT,status=Variable
new generator.3000092284 bus1=1004667770.1.2.0,Phases=2,kv=0.22,kW=7.01046,pf=1,model=1,daily=ccurvaUGBT,status=Variable
new generator.3000092287 bus1=1004766512.1.2.0,Phases=2,kv=0.22,kW=2.2917,pf=1,model=1,daily=ccurvaUGBT,status=Variable
new generator.3000095307 bus1=1005614898.1.2.3.0,Phases=3,kv=0.22,kW=4.4035,pf=1,model=1,daily=ccurvaUGBT,status=Variable
new generator.3000095461 bus1=1011028428.1.2.3.0,Phases=3,kv=0.22,kW=3.90245,pf=1,model=1,daily=ccurvaUGBT,status=Variable
new generator.3002421671 bus1=1003041922.1.2.0,Phases=2,kv=0.22,kW=3.9124,pf=1,model=1,daily=ccurvaUGBT,status=Variable
new generator.3002421672 bus1=1003041901.1.2.0,Phases=2,kv=0.22,kW=6.17906,pf=1,model=1,daily=ccurvaUGBT,status=Variable
new generator.3002424140 bus1=1002801080.1.2.0,Phases=2,kv=0.22,kW=13.19307,pf=1,model=1,daily=ccurvaUGBT,status=Variable
new generator.3002424151 bus1=1002801073.1.2.0,Phases=2,kv=0.22,kW=1.87429,pf=1,model=1,daily=ccurvaUGBT,status=Variable
new generator.3002424169 bus1=1002810068.1.2.0,Phases=2,kv=0.22,kW=2.91104,pf=1,model=1,daily=ccurvaUGBT,status=Variable
new generator.3002424198 bus1=1003062159.1.2.0,Phases=2,kv=0.22,kW=1.44395,pf=1,model=1,daily=ccurvaUGBT,status=Variable
new generator.3002424202 bus1=1003061368.1.2.0,Phases=2,kv=0.22,kW=6.12498,pf=1,model=1,daily=ccurvaUGBT,status=Variable
new generator.3002424221 bus1=1002924819.1.2.0,Phases=2,kv=0.22,kW=3.96879,pf=1,model=1,daily=ccurvaUGBT,status=Variable
new generator.3002424234 bus1=1003013145.1.2.0,Phases=2,kv=0.22,kW=0.27595,pf=1,model=1,daily=ccurvaUGBT,status=Variable
new generator.3002424236 bus1=1003013019.1.2.0,Phases=2,kv=0.22,kW=2.55651,pf=1,model=1,daily=ccurvaUGBT,status=Variable
new generator.3002424240 bus1=1003014314.1.2.0,Phases=2,kv=0.22,kW=0.78055,pf=1,model=1,daily=ccurvaUGBT,status=Variable
new generator.3002424241 bus1=1003014335.1.2.0,Phases=2,kv=0.22,kW=1.95334,pf=1,model=1,daily=ccurvaUGBT,status=Variable
new generator.3002424252 bus1=1003013383.1.2.0,Phases=2,kv=0.22,kW=4.97184,pf=1,model=1,daily=ccurvaUGBT,status=Variable
new generator.3002424255 bus1=1003013236.1.2.0,Phases=2,kv=0.22,kW=1.67068,pf=1,model=1,daily=ccurvaUGBT,status=Variable
new generator.3001161298 bus1=1000318516.1.2.3.0,Phases=3,kv=0.22,kW=2.84782,pf=1,model=1,daily=ccurvaUGBT,status=Variable
new generator.3001161317 bus1=1000163494.1.2.3.0,Phases=3,kv=0.22,kW=0.65397,pf=1,model=1,daily=ccurvaUGBT,status=Variable
new generator.3001161325 bus1=1000320826.3.0,Phases=1,kv=0.127,kW=1.31283,pf=1,model=1,daily=ccurvaUGBT,status=Variable
new generator.3001161339 bus1=1000320728.3.0,Phases=1,kv=0.127,kW=28.2176,pf=1,model=1,daily=ccurvaUGBT,status=Variable
new generator.3001161357 bus1=1000320784.1.2.0,Phases=2,kv=0.22,kW=7.13092,pf=1,model=1,daily=ccurvaUGBT,status=Variable
new generator.3001161369 bus1=1000320490.1.2.0,Phases=2,kv=0.22,kW=3.28801,pf=1,model=1,daily=ccurvaUGBT,status=Variable
new generator.3001161381 bus1=1000320525.1.2.0,Phases=2,kv=0.22,kW=2.3127,pf=1,model=1,daily=ccurvaUGBT,status=Variable
new generator.3001161422 bus1=1000320161.1.0,Phases=1,kv=0.127,kW=1.95233,pf=1,model=1,daily=ccurvaUGBT,status=Variable
new generator.3001161425 bus1=1000320273.1.2.3.0,Phases=3,kv=0.22,kW=5.23202,pf=1,model=1,daily=ccurvaUGBT,status=Variable
new generator.3001161441 bus1=1000320000.1.0,Phases=1,kv=0.127,kW=4.18473,pf=1,model=1,daily=ccurvaUGBT,status=Variable
new generator.3001161507 bus1=1000319454.1.2.3.0,Phases=3,kv=0.22,kW=4.28004,pf=1,model=1,daily=ccurvaUGBT,status=Variable
new generator.3001161527 bus1=1010826713.2.3.0,Phases=2,kv=0.22,kW=3.11044,pf=1,model=1,daily=ccurvaUGBT,status=Variable
new generator.3001161558 bus1=1000319601.1.2.3.0,Phases=3,kv=0.22,kW=5.03201,pf=1,model=1,daily=ccurvaUGBT,status=Variable
new generator.3001161621 bus1=1000163445.3.0,Phases=1,kv=0.127,kW=3.7038,pf=1,model=1,daily=ccurvaUGBT,status=Variable
new generator.3001161641 bus1=1000318481.1.2.0,Phases=2,kv=0.22,kW=1.65165,pf=1,model=1,daily=ccurvaUGBT,status=Variable
new generator.3001161654 bus1=1000318642.1.2.3.0,Phases=3,kv=0.22,kW=2.60285,pf=1,model=1,daily=ccurvaUGBT,status=Variable
new generator.3001161664 bus1=1010694297.1.2.3.0,Phases=3,kv=0.22,kW=13.02393,pf=1,model=1,daily=ccurvaUGBT,status=Variable
new generator.3001161681 bus1=1000318327.2.3.0,Phases=2,kv=0.22,kW=2.76955,pf=1,model=1,daily=ccurvaUGBT,status=Variable
new generator.3001161815 bus1=1000317501.1.2.0,Phases=2,kv=0.22,kW=6.51262,pf=1,model=1,daily=ccurvaUGBT,status=Variable
new generator.3001161859 bus1=1000318019.2.0,Phases=1,kv=0.127,kW=2.56409,pf=1,model=1,daily=ccurvaUGBT,status=Variable
new generator.3002796978 bus1=1002832678.1.2.0,Phases=2,kv=0.22,kW=3.48069,pf=1,model=1,daily=ccurvaUGBT,status=Variable
new generator.3002796982 bus1=1002832706.1.2.0,Phases=2,kv=0.22,kW=0.85443,pf=1,model=1,daily=ccurvaUGBT,status=Variable
new generator.3002797057 bus1=1002822388.1.2.0,Phases=2,kv=0.22,kW=4.88906,pf=1,model=1,daily=ccurvaUGBT,status=Variable
new generator.3002797081 bus1=1002759843.1.2.0,Phases=2,kv=0.22,kW=1.91943,pf=1,model=1,daily=ccurvaUGBT,status=Variable
new generator.3002797111 bus1=1002830543.1.2.3.0,Phases=3,kv=0.22,kW=0.88268,pf=1,model=1,daily=ccurvaUGBT,status=Variable
new generator.3002797129 bus1=1002819553.2.3.0,Phases=2,kv=0.22,kW=4.07613,pf=1,model=1,daily=ccurvaUGBT,status=Variable
new generator.3002797131 bus1=1002819567.3.0,Phases=1,kv=0.127,kW=1.69372,pf=1,model=1,daily=ccurvaUGBT,status=Variable
new generator.3002797133 bus1=1002819574.1.2.3.0,Phases=3,kv=0.22,kW=2.03702,pf=1,model=1,daily=ccurvaUGBT,status=Variable
new generator.3002797137 bus1=1002819581.3.1.0,Phases=2,kv=0.22,kW=4.79796,pf=1,model=1,daily=ccurvaUGBT,status=Variable
new generator.3000267541 bus1=1011155939.1.2.3.0,Phases=3,kv=0.22,kW=2.25012,pf=1,model=1,daily=ccurvaUGBT,status=Variable
new generator.3000267800 bus1=1000225164.2.0,Phases=1,kv=0.127,kW=2.35091,pf=1,model=1,daily=ccurvaUGBT,status=Variable
new generator.3000267904 bus1=1000216260.1.2.0,Phases=2,kv=0.22,kW=5.66844,pf=1,model=1,daily=ccurvaUGBT,status=Variable
new generator.3000267959 bus1=1000222574.1.2.3.0,Phases=3,kv=0.22,kW=1.59132,pf=1,model=1,daily=ccurvaUGBT,status=Variable
new generator.3002611949 bus1=1003052387.1.2.0,Phases=2,kv=0.22,kW=6.08771,pf=1,model=1,daily=ccurvaUGBT,status=Variable
new generator.3002611954 bus1=1002949039.1.2.0,Phases=2,kv=0.22,kW=1.19785,pf=1,model=1,daily=ccurvaUGBT,status=Variable
new generator.3002611998 bus1=1003052856.1.2.0,Phases=2,kv=0.22,kW=2.68544,pf=1,model=1,daily=ccurvaUGBT,status=Variable
new generator.3002618155 bus1=1000500481.1.2.3.0,Phases=3,kv=0.22,kW=2.13439,pf=1,model=1,daily=ccurvaUGBT,status=Variable
new generator.3002618169 bus1=1000455527.1.2.0,Phases=2,kv=0.22,kW=0.83276,pf=1,model=1,daily=ccurvaUGBT,status=Variable
new generator.3002618207 bus1=1007873839.1.2.0,Phases=2,kv=0.22,kW=19.59667,pf=1,model=1,daily=ccurvaUGBT,status=Variable
new generator.3002618210 bus1=1000453490.1.2.0,Phases=2,kv=0.22,kW=15.28029,pf=1,model=1,daily=ccurvaUGBT,status=Variable
new generator.3002618213 bus1=1000450718.1.2.0,Phases=2,kv=0.22,kW=2.30456,pf=1,model=1,daily=ccurvaUGBT,status=Variable
new generator.3002618226 bus1=1000452993.1.2.0,Phases=2,kv=0.22,kW=1.36235,pf=1,model=1,daily=ccurvaUGBT,status=Variable
new generator.3002618235 bus1=1000447309.1.2.0,Phases=2,kv=0.22,kW=3.6056,pf=1,model=1,daily=ccurvaUGBT,status=Variable
new generator.3002618249 bus1=1000450914.1.2.0,Phases=2,kv=0.22,kW=8.46629,pf=1,model=1,daily=ccurvaUGBT,status=Variable
new generator.3002618293 bus1=1000451026.1.2.0,Phases=2,kv=0.22,kW=3.17121,pf=1,model=1,daily=ccurvaUGBT,status=Variable
new generator.3002618303 bus1=1000451509.1.2.0,Phases=2,kv=0.22,kW=1.01163,pf=1,model=1,daily=ccurvaUGBT,status=Variable
new generator.3002618305 bus1=1000451530.1.2.0,Phases=2,kv=0.22,kW=1.49173,pf=1,model=1,daily=ccurvaUGBT,status=Variable
new generator.3002618319 bus1=1000450361.1.0,Phases=1,kv=0.127,kW=7.19158,pf=1,model=1,daily=ccurvaUGBT,status=Variable
new generator.3002618344 bus1=1000449626.1.2.0,Phases=2,kv=0.22,kW=1.32654,pf=1,model=1,daily=ccurvaUGBT,status=Variable
new generator.3002618348 bus1=1000450333.1.2.0,Phases=2,kv=0.22,kW=5.01319,pf=1,model=1,daily=ccurvaUGBT,status=Variable
new generator.3002618352 bus1=1000450312.1.2.0,Phases=2,kv=0.22,kW=3.74883,pf=1,model=1,daily=ccurvaUGBT,status=Variable
new generator.3002618382 bus1=1000311852.1.2.3.0,Phases=3,kv=0.22,kW=15.77503,pf=1,model=1,daily=ccurvaUGBT,status=Variable
new generator.3002618399 bus1=1000585580.1.2.3.0,Phases=3,kv=0.22,kW=19.55213,pf=1,model=1,daily=ccurvaUGBT,status=Variable
new generator.3002618408 bus1=1000450550.1.2.3.0,Phases=3,kv=0.22,kW=5.8867,pf=1,model=1,daily=ccurvaUGBT,status=Variable
new generator.3002618414 bus1=1000448387.1.2.0,Phases=2,kv=0.22,kW=20.38092,pf=1,model=1,daily=ccurvaUGBT,status=Variable
new generator.3002618420 bus1=1000448359.1.2.0,Phases=2,kv=0.22,kW=9.31668,pf=1,model=1,daily=ccurvaUGBT,status=Variable
new generator.3002618425 bus1=1000447246.1.2.0,Phases=2,kv=0.22,kW=1.43525,pf=1,model=1,daily=ccurvaUGBT,status=Variable
new generator.3000620249 bus1=1002933688.1.2.0,Phases=2,kv=0.22,kW=6.17937,pf=1,model=1,daily=ccurvaUGBT,status=Variable
new generator.3000620254 bus1=1003077216.1.2.0,Phases=2,kv=0.22,kW=1.52505,pf=1,model=1,daily=ccurvaUGBT,status=Variable
new generator.3000620266 bus1=1003077447.1.2.0,Phases=2,kv=0.22,kW=0.91562,pf=1,model=1,daily=ccurvaUGBT,status=Variable
new generator.3000620275 bus1=1002933765.1.2.0,Phases=2,kv=0.22,kW=2.19214,pf=1,model=1,daily=ccurvaUGBT,status=Variable
new generator.3000620278 bus1=1002933632.1.2.0,Phases=2,kv=0.22,kW=7.27956,pf=1,model=1,daily=ccurvaUGBT,status=Variable
new generator.3000620280 bus1=1002933625.1.2.0,Phases=2,kv=0.22,kW=1.21286,pf=1,model=1,daily=ccurvaUGBT,status=Variable
new generator.3000620284 bus1=1002933870.1.2.0,Phases=2,kv=0.22,kW=2.48033,pf=1,model=1,daily=ccurvaUGBT,status=Variable
new generator.3000620304 bus1=1002933982.1.2.0,Phases=2,kv=0.22,kW=1.06261,pf=1,model=1,daily=ccurvaUGBT,status=Variable
new generator.3000620306 bus1=1003041334.1.2.0,Phases=2,kv=0.22,kW=7.35498,pf=1,model=1,daily=ccurvaUGBT,status=Variable
new generator.3000620317 bus1=1003041481.1.2.0,Phases=2,kv=0.22,kW=4.63136,pf=1,model=1,daily=ccurvaUGBT,status=Variable
new generator.3000620342 bus1=1002934010.1.2.0,Phases=2,kv=0.22,kW=13.81958,pf=1,model=1,daily=ccurvaUGBT,status=Variable
new generator.3001340297 bus1=1002937139.2.0,Phases=1,kv=0.127,kW=4.16255,pf=1,model=1,daily=ccurvaUGBT,status=Variable
new generator.3001340359 bus1=1002946330.2.3.0,Phases=2,kv=0.22,kW=1.16557,pf=1,model=1,daily=ccurvaUGBT,status=Variable
new generator.3001340393 bus1=1002932778.3.1.0,Phases=2,kv=0.22,kW=3.19405,pf=1,model=1,daily=ccurvaUGBT,status=Variable
new generator.3001340427 bus1=1002946428.3.0,Phases=1,kv=0.127,kW=6.05907,pf=1,model=1,daily=ccurvaUGBT,status=Variable
new generator.3001340467 bus1=1002946582.1.2.3.0,Phases=3,kv=0.22,kW=2.97438,pf=1,model=1,daily=ccurvaUGBT,status=Variable
new generator.3001340468 bus1=1002946659.1.2.3.0,Phases=3,kv=0.22,kW=1.55383,pf=1,model=1,daily=ccurvaUGBT,status=Variable
new generator.3001340544 bus1=1002946190.2.3.0,Phases=2,kv=0.22,kW=3.11172,pf=1,model=1,daily=ccurvaUGBT,status=Variable
new generator.3001340602 bus1=1002941794.1.2.3.0,Phases=3,kv=0.22,kW=2.40264,pf=1,model=1,daily=ccurvaUGBT,status=Variable
new generator.3001340687 bus1=1002942025.3.0,Phases=1,kv=0.127,kW=3.9131,pf=1,model=1,daily=ccurvaUGBT,status=Variable
new generator.3001340730 bus1=1002941906.1.0,Phases=1,kv=0.127,kW=1.70812,pf=1,model=1,daily=ccurvaUGBT,status=Variable
new generator.3001340732 bus1=1002941689.1.2.3.0,Phases=3,kv=0.22,kW=2.42124,pf=1,model=1,daily=ccurvaUGBT,status=Variable
new generator.3001340741 bus1=1003041180.1.2.0,Phases=2,kv=0.22,kW=5.33612,pf=1,model=1,daily=ccurvaUGBT,status=Variable
new generator.3001340781 bus1=1003077153.1.2.0,Phases=2,kv=0.22,kW=4.46813,pf=1,model=1,daily=ccurvaUGBT,status=Variable
new generator.3001340841 bus1=1003076558.1.2.0,Phases=2,kv=0.22,kW=2.61718,pf=1,model=1,daily=ccurvaUGBT,status=Variable
new generator.3003398232 bus1=1003075956.1.2.0,Phases=2,kv=0.22,kW=2.11893,pf=1,model=1,daily=ccurvaUGBT,status=Variable
new generator.3003400491 bus1=1000504562.1.2.0,Phases=2,kv=0.22,kW=2.32687,pf=1,model=1,daily=ccurvaUGBT,status=Variable
new generator.3003421046 bus1=1000318565.1.2.3.0,Phases=3,kv=0.22,kW=7.18862,pf=1,model=1,daily=ccurvaUGBT,status=Variable
new generator.3002424256 bus1=1002924833.1.2.3.0,Phases=3,kv=0.22,kW=6.88733,pf=1,model=1,daily=ccurvaUGBT,status=Variable
new generator.3002424266 bus1=1003014384.1.2.0,Phases=2,kv=0.22,kW=6.34174,pf=1,model=1,daily=ccurvaUGBT,status=Variable
new generator.3002424270 bus1=1003066842.1.2.0,Phases=2,kv=0.22,kW=6.73595,pf=1,model=1,daily=ccurvaUGBT,status=Variable
new generator.3002427284 bus1=1000314582.2.3.0,Phases=2,kv=0.22,kW=2.61148,pf=1,model=1,daily=ccurvaUGBT,status=Variable
new generator.3002427295 bus1=1000314568.1.2.0,Phases=2,kv=0.22,kW=2.79791,pf=1,model=1,daily=ccurvaUGBT,status=Variable
new generator.3002427296 bus1=1000314554.1.2.0,Phases=2,kv=0.22,kW=1.95089,pf=1,model=1,daily=ccurvaUGBT,status=Variable
new generator.3002427297 bus1=1000314575.2.3.0,Phases=2,kv=0.22,kW=5.09146,pf=1,model=1,daily=ccurvaUGBT,status=Variable
new generator.3002427345 bus1=1000316199.1.2.3.0,Phases=3,kv=0.22,kW=10.24509,pf=1,model=1,daily=ccurvaUGBT,status=Variable
new generator.3002427477 bus1=1000310725.3.0,Phases=1,kv=0.127,kW=1.59648,pf=1,model=1,daily=ccurvaUGBT,status=Variable
new generator.3002427486 bus1=1010970775.3.1.0,Phases=2,kv=0.22,kW=3.30312,pf=1,model=1,daily=ccurvaUGBT,status=Variable
new generator.3002427505 bus1=1000310921.3.1.0,Phases=2,kv=0.22,kW=1.80271,pf=1,model=1,daily=ccurvaUGBT,status=Variable
new generator.3002427532 bus1=1000311047.1.2.0,Phases=2,kv=0.22,kW=1.24899,pf=1,model=1,daily=ccurvaUGBT,status=Variable
new generator.3002427560 bus1=1000315184.2.0,Phases=1,kv=0.127,kW=7.88576,pf=1,model=1,daily=ccurvaUGBT,status=Variable
new generator.3002427587 bus1=1000314512.1.2.0,Phases=2,kv=0.22,kW=1.83098,pf=1,model=1,daily=ccurvaUGBT,status=Variable
new generator.3002427609 bus1=1000311467.2.0,Phases=1,kv=0.127,kW=1.53326,pf=1,model=1,daily=ccurvaUGBT,status=Variable
new generator.3002427629 bus1=1000311537.1.2.0,Phases=2,kv=0.22,kW=2.38091,pf=1,model=1,daily=ccurvaUGBT,status=Variable
new generator.3002427660 bus1=1011158740.1.2.0,Phases=2,kv=0.22,kW=3.14792,pf=1,model=1,daily=ccurvaUGBT,status=Variable
new generator.3002427670 bus1=1000311992.1.2.3.0,Phases=3,kv=0.22,kW=1.61859,pf=1,model=1,daily=ccurvaUGBT,status=Variable
new generator.3002427674 bus1=1000311936.2.3.0,Phases=2,kv=0.22,kW=3.15789,pf=1,model=1,daily=ccurvaUGBT,status=Variable
new generator.3002427720 bus1=1000315079.1.2.3.0,Phases=3,kv=0.22,kW=8.91181,pf=1,model=1,daily=ccurvaUGBT,status=Variable
new generator.3002427736 bus1=1000317067.2.0,Phases=1,kv=0.127,kW=3.67192,pf=1,model=1,daily=ccurvaUGBT,status=Variable
new generator.3002427794 bus1=1000316262.1.2.0,Phases=2,kv=0.22,kW=4.10693,pf=1,model=1,daily=ccurvaUGBT,status=Variable
new generator.3002427806 bus1=1000316703.1.2.3.0,Phases=3,kv=0.22,kW=11.68619,pf=1,model=1,daily=ccurvaUGBT,status=Variable
new generator.3002427843 bus1=1000312664.1.0,Phases=1,kv=0.127,kW=1.06254,pf=1,model=1,daily=ccurvaUGBT,status=Variable
new generator.3002427848 bus1=1000312797.1.2.0,Phases=2,kv=0.22,kW=1.39162,pf=1,model=1,daily=ccurvaUGBT,status=Variable
new generator.3003472831 bus1=1002972951.1.2.0,Phases=2,kv=0.22,kW=1.36804,pf=1,model=1,daily=ccurvaUGBT,status=Variable
new generator.3003515871 bus1=1000502035.2.0,Phases=1,kv=0.127,kW=1.01711,pf=1,model=1,daily=ccurvaUGBT,status=Variable
new generator.3003529210 bus1=1000163487.1.2.3.0,Phases=3,kv=0.22,kW=6.91791,pf=1,model=1,daily=ccurvaUGBT,status=Variable
new generator.3003534657 bus1=1004861649.1.2.0,Phases=2,kv=0.22,kW=2.21617,pf=1,model=1,daily=ccurvaUGBT,status=Variable
new generator.3002057542 bus1=1002759248.1.2.0,Phases=2,kv=0.22,kW=1.40134,pf=1,model=1,daily=ccurvaUGBT,status=Variable
new generator.3002057599 bus1=1002807471.2.3.0,Phases=2,kv=0.22,kW=1.58513,pf=1,model=1,daily=ccurvaUGBT,status=Variable
new generator.3002057604 bus1=1002759423.1.2.0,Phases=2,kv=0.22,kW=3.00261,pf=1,model=1,daily=ccurvaUGBT,status=Variable
new generator.3002057626 bus1=1002799225.1.2.3.0,Phases=3,kv=0.22,kW=1.78073,pf=1,model=1,daily=ccurvaUGBT,status=Variable
new generator.3002057743 bus1=1002795312.3.0,Phases=1,kv=0.127,kW=1.50731,pf=1,model=1,daily=ccurvaUGBT,status=Variable
new generator.3002057869 bus1=1002800884.1.2.0,Phases=2,kv=0.22,kW=1.35764,pf=1,model=1,daily=ccurvaUGBT,status=Variable
new generator.3002057892 bus1=1002800618.1.2.3.0,Phases=3,kv=0.22,kW=0.96892,pf=1,model=1,daily=ccurvaUGBT,status=Variable
new generator.3002058010 bus1=1002809347.1.2.0,Phases=2,kv=0.22,kW=1.77698,pf=1,model=1,daily=ccurvaUGBT,status=Variable
new generator.3002058022 bus1=1002805672.2.0,Phases=1,kv=0.127,kW=1.45739,pf=1,model=1,daily=ccurvaUGBT,status=Variable
new generator.3003158503 bus1=1004884539.1.2.0,Phases=2,kv=0.22,kW=9.6168,pf=1,model=1,daily=ccurvaUGBT,status=Variable
new generator.3003158505 bus1=1003041985.1.2.0,Phases=2,kv=0.22,kW=2.70406,pf=1,model=1,daily=ccurvaUGBT,status=Variable
new generator.3003158514 bus1=1002972062.1.2.0,Phases=2,kv=0.22,kW=16.09306,pf=1,model=1,daily=ccurvaUGBT,status=Variable
new generator.3003158540 bus1=1004884756.1.2.0,Phases=2,kv=0.22,kW=13.58093,pf=1,model=1,daily=ccurvaUGBT,status=Variable
new generator.3003158550 bus1=1002971964.1.2.0,Phases=2,kv=0.22,kW=1.24841,pf=1,model=1,daily=ccurvaUGBT,status=Variable
new generator.3003158551 bus1=1002971971.1.2.0,Phases=2,kv=0.22,kW=2.90504,pf=1,model=1,daily=ccurvaUGBT,status=Variable
new generator.3003158564 bus1=1002972958.1.2.0,Phases=2,kv=0.22,kW=2.42619,pf=1,model=1,daily=ccurvaUGBT,status=Variable
new generator.3003158582 bus1=1002971943.1.2.0,Phases=2,kv=0.22,kW=8.86188,pf=1,model=1,daily=ccurvaUGBT,status=Variable
new generator.3003158678 bus1=1003077538.1.2.0,Phases=2,kv=0.22,kW=13.39948,pf=1,model=1,daily=ccurvaUGBT,status=Variable
new generator.3003158683 bus1=1004883846.1.2.0,Phases=2,kv=0.22,kW=0.64287,pf=1,model=1,daily=ccurvaUGBT,status=Variable
new generator.3003680461 bus1=1000450669.1.2.0,Phases=2,kv=0.22,kW=2.63459,pf=1,model=1,daily=ccurvaUGBT,status=Variable
new generator.3003680462 bus1=1000564244.1.2.0,Phases=2,kv=0.22,kW=1.07529,pf=1,model=1,daily=ccurvaUGBT,status=Variable
new generator.3003980688 bus1=1002807688.1.2.3.0,Phases=3,kv=0.22,kW=1.79938,pf=1,model=1,daily=ccurvaUGBT,status=Variable
new generator.3004481726 bus1=1002936838.1.2.3.0,Phases=3,kv=0.22,kW=1.27925,pf=1,model=1,daily=ccurvaUGBT,status=Variable
new generator.3004516240 bus1=1000313126.1.2.3.0,Phases=3,kv=0.22,kW=0.59801,pf=1,model=1,daily=ccurvaUGBT,status=Variable
new generator.3004879854 bus1=1002941941.1.2.0,Phases=2,kv=0.22,kW=3.67212,pf=1,model=1,daily=ccurvaUGBT,status=Variable
new generator.3005050244 bus1=1002822535.1.2.0,Phases=2,kv=0.22,kW=1.9577,pf=1,model=1,daily=ccurvaUGBT,status=Variable
new generator.3005369098 bus1=1002962605.3.1.0,Phases=2,kv=0.22,kW=1.53123,pf=1,model=1,daily=ccurvaUGBT,status=Variable
new generator.3005391213 bus1=1000215511.2.0,Phases=1,kv=0.127,kW=2.44304,pf=1,model=1,daily=ccurvaUGBT,status=Variable
new generator.3000805416 bus1=1003101450.1.2.0,Phases=2,kv=0.22,kW=6.24484,pf=1,model=1,daily=ccurvaUGBT,status=Variable
new generator.3000805428 bus1=1010713210.3.0,Phases=1,kv=0.127,kW=0.19795,pf=1,model=1,daily=ccurvaUGBT,status=Variable
new generator.3001699595 bus1=1003016351.1.2.0,Phases=2,kv=0.22,kW=1.36621,pf=1,model=1,daily=ccurvaUGBT,status=Variable
new generator.3001699599 bus1=1003014916.1.2.0,Phases=2,kv=0.22,kW=11.1011,pf=1,model=1,daily=ccurvaUGBT,status=Variable
new generator.3001699617 bus1=1003109724.1.2.0,Phases=2,kv=0.22,kW=7.95659,pf=1,model=1,daily=ccurvaUGBT,status=Variable
new generator.3001699619 bus1=1003068396.1.2.0,Phases=2,kv=0.22,kW=7.32368,pf=1,model=1,daily=ccurvaUGBT,status=Variable
new generator.3001699621 bus1=1003012578.1.2.0,Phases=2,kv=0.22,kW=3.54537,pf=1,model=1,daily=ccurvaUGBT,status=Variable
new generator.3001699622 bus1=1003012508.1.2.0,Phases=2,kv=0.22,kW=1.63033,pf=1,model=1,daily=ccurvaUGBT,status=Variable
new generator.3001699626 bus1=1003066835.1.2.3.0,Phases=3,kv=0.22,kW=11.23688,pf=1,model=1,daily=ccurvaUGBT,status=Variable
new generator.3001699658 bus1=1003018584.1.2.0,Phases=2,kv=0.22,kW=5.69086,pf=1,model=1,daily=ccurvaUGBT,status=Variable
new generator.3001699665 bus1=1003018577.1.2.0,Phases=2,kv=0.22,kW=2.95785,pf=1,model=1,daily=ccurvaUGBT,status=Variable
new generator.3001704568 bus1=1000502112.1.2.3.0,Phases=3,kv=0.22,kW=2.25252,pf=1,model=1,daily=ccurvaUGBT,status=Variable
new generator.3001704793 bus1=1004675582.1.2.0,Phases=2,kv=0.22,kW=1.53777,pf=1,model=1,daily=ccurvaUGBT,status=Variable
new generator.3003426685 bus1=1002821100.3.1.0,Phases=2,kv=0.22,kW=1.59835,pf=1,model=1,daily=ccurvaUGBT,status=Variable
new generator.3003455249 bus1=1000448856.1.2.0,Phases=2,kv=0.22,kW=2.91147,pf=1,model=1,daily=ccurvaUGBT,status=Variable
new generator.3003790127 bus1=1002933373.1.2.0,Phases=2,kv=0.22,kW=3.32054,pf=1,model=1,daily=ccurvaUGBT,status=Variable
new generator.3003792498 bus1=1002808437.2.3.0,Phases=2,kv=0.22,kW=3.90966,pf=1,model=1,daily=ccurvaUGBT,status=Variable
new generator.3004225538 bus1=1002819630.1.2.0,Phases=2,kv=0.22,kW=1.57314,pf=1,model=1,daily=ccurvaUGBT,status=Variable
new generator.3004228370 bus1=1002838817.1.2.3.0,Phases=3,kv=0.22,kW=3.60131,pf=1,model=1,daily=ccurvaUGBT,status=Variable
new generator.3004943272 bus1=1003102640.1.2.0,Phases=2,kv=0.22,kW=5.02333,pf=1,model=1,daily=ccurvaUGBT,status=Variable
new generator.3004945482 bus1=1002938525.1.2.0,Phases=2,kv=0.22,kW=0.82271,pf=1,model=1,daily=ccurvaUGBT,status=Variable
new generator.3004959543 bus1=1000646088.1.2.0,Phases=2,kv=0.22,kW=39.54466,pf=1,model=1,daily=ccurvaUGBT,status=Variable
new generator.3004961990 bus1=1000564405.1.2.0,Phases=2,kv=0.22,kW=5.41975,pf=1,model=1,daily=ccurvaUGBT,status=Variable
new generator.3004978286 bus1=1000163690.1.2.3.0,Phases=3,kv=0.22,kW=1.42718,pf=1,model=1,daily=ccurvaUGBT,status=Variable
new generator.3005117051 bus1=1000585685.1.2.0,Phases=2,kv=0.22,kW=1.58921,pf=1,model=1,daily=ccurvaUGBT,status=Variable
new generator.3005486277 bus1=1002962640.3.0,Phases=1,kv=0.127,kW=1.37688,pf=1,model=1,daily=ccurvaUGBT,status=Variable
new generator.3005714334 bus1=1004766722.1.2.0,Phases=2,kv=0.22,kW=3.23245,pf=1,model=1,daily=ccurvaUGBT,status=Variable
new generator.3005822945 bus1=1005859989.1.2.3.0,Phases=3,kv=0.22,kW=19.7956,pf=1,model=1,daily=ccurvaUGBT,status=Variable
new generator.3002797154 bus1=1002820589.3.0,Phases=1,kv=0.127,kW=1.08435,pf=1,model=1,daily=ccurvaUGBT,status=Variable
new generator.3002797245 bus1=1002822913.1.2.0,Phases=2,kv=0.22,kW=2.0823,pf=1,model=1,daily=ccurvaUGBT,status=Variable
new generator.3002797312 bus1=1003094618.1.2.0,Phases=2,kv=0.22,kW=0.85574,pf=1,model=1,daily=ccurvaUGBT,status=Variable
new generator.3002797332 bus1=1002927136.1.2.3.0,Phases=3,kv=0.22,kW=39.36936,pf=1,model=1,daily=ccurvaUGBT,status=Variable
new generator.3002797337 bus1=1002926982.1.2.0,Phases=2,kv=0.22,kW=4.76111,pf=1,model=1,daily=ccurvaUGBT,status=Variable
new generator.3002797356 bus1=1003095927.1.2.0,Phases=2,kv=0.22,kW=11.78427,pf=1,model=1,daily=ccurvaUGBT,status=Variable
new generator.3002797370 bus1=1003017352.1.2.0,Phases=2,kv=0.22,kW=1.198,pf=1,model=1,daily=ccurvaUGBT,status=Variable
new generator.3002797371 bus1=1004667763.1.2.0,Phases=2,kv=0.22,kW=3.15634,pf=1,model=1,daily=ccurvaUGBT,status=Variable
new generator.3002797376 bus1=1002927045.1.2.0,Phases=2,kv=0.22,kW=7.76214,pf=1,model=1,daily=ccurvaUGBT,status=Variable
new generator.3002801633 bus1=1000385359.1.2.0,Phases=2,kv=0.22,kW=0.95178,pf=1,model=1,daily=ccurvaUGBT,status=Variable
new generator.3002801659 bus1=1000385436.1.2.0,Phases=2,kv=0.22,kW=4.43627,pf=1,model=1,daily=ccurvaUGBT,status=Variable
new generator.3002801665 bus1=1000385184.1.2.0,Phases=2,kv=0.22,kW=1.11036,pf=1,model=1,daily=ccurvaUGBT,status=Variable
new generator.3002801729 bus1=1000385611.1.2.0,Phases=2,kv=0.22,kW=2.55083,pf=1,model=1,daily=ccurvaUGBT,status=Variable
new generator.3002801732 bus1=1000385618.1.2.0,Phases=2,kv=0.22,kW=2.89214,pf=1,model=1,daily=ccurvaUGBT,status=Variable
new generator.3002801764 bus1=1000385849.1.2.0,Phases=2,kv=0.22,kW=1.46731,pf=1,model=1,daily=ccurvaUGBT,status=Variable
new generator.3002801767 bus1=1000385940.1.2.0,Phases=2,kv=0.22,kW=5.91958,pf=1,model=1,daily=ccurvaUGBT,status=Variable
new generator.3003925089 bus1=1000446651.1.2.0,Phases=2,kv=0.22,kW=7.41455,pf=1,model=1,daily=ccurvaUGBT,status=Variable
new generator.3004392865 bus1=1002809886.1.2.3.0,Phases=3,kv=0.22,kW=3.46604,pf=1,model=1,daily=ccurvaUGBT,status=Variable
new generator.3004410446 bus1=1002822843.3.0,Phases=1,kv=0.127,kW=3.68676,pf=1,model=1,daily=ccurvaUGBT,status=Variable