new line.CTR108255 bus1=BMT159075648.3,bus2=BMT159075651.3,Phases=1,LineCode=tieSwitch1,Length=0.001,Units=km,switch=T !numEQ NUMEQ:73738
new line.CTR121080 bus1=BMT152871925.1,bus2=BMT174019867.1,Phases=1,LineCode=tieSwitch1,Length=0.001,Units=km,switch=T !numEQ NUMEQ:91370  - Data de conexão anterior06/2011.
new line.CTR135479 bus1=BMT166152062.1.2.3,bus2=BMT166152338.1.2.3,Phases=3,LineCode=tieSwitch,Length=0.001,Units=km,switch=T !numEQ NUMEQ:109427  - Data de conexão anterior06/2011.
new line.CTR15681 bus1=BMT100409248.1.2.3,bus2=BMT148487274.1.2.3,Phases=3,LineCode=tieSwitch,Length=0.001,Units=km,switch=T !numEQ NUMEQ:19069  - Data de conexão anterior06/2011.
new line.CTR156948 bus1=BMT100420882.1,bus2=BMT180630534.1,Phases=1,LineCode=tieSwitch1,Length=0.001,Units=km,switch=T !numEQ NUMEQ:131750  - Data de conexão anterior06/2011.
new line.CTR157403 bus1=BMT166150358.1.2.3,bus2=BMT182511073.1.2.3,Phases=3,LineCode=tieSwitch,Length=0.001,Units=km,switch=T !numEQ NUMEQ:131899  - Data de conexão anterior06/2011.
new line.CTR157585 bus1=BMT166151884.2,bus2=BMT166151887.2,Phases=1,LineCode=tieSwitch1,Length=0.001,Units=km,switch=T !numEQ NUMEQ:132036  - Data de conexão anterior06/2011.
new line.CTR208846 bus1=BMT100419790.1.2.3,bus2=BMT165905802.1.2.3,Phases=3,LineCode=tieSwitch,Length=0.001,Units=km,switch=T !numEQ NUMEQ:81897  - Data de conexão anterior06/2011.
new line.CTR208874 bus1=BMT173851253.2,bus2=BMT173851256.2,Phases=1,LineCode=tieSwitch1,Length=0.001,Units=km,switch=T !numEQ NUMEQ:81934  - Data de conexão anterior06/2011.
new line.CTR208944 bus1=BMT166152020.1.2.3,bus2=BMT174794166.1.2.3,Phases=3,LineCode=tieSwitch,Length=0.001,Units=km,switch=T !numEQ NUMEQ:81841  - Data de conexão anterior06/2011.
new line.CTR208979 bus1=BMT100426349.3,bus2=BMT162626719.3,Phases=1,LineCode=tieSwitch1,Length=0.001,Units=km,switch=T !numEQ NUMEQ:81847  - Data de conexão anterior06/2011.
new line.CTR209007 bus1=BMT166148372.1.2.3,bus2=BMT166151935.1.2.3,Phases=3,LineCode=tieSwitch,Length=0.001,Units=km,switch=T !numEQ NUMEQ:81851  - Data de conexão anterior06/2011.
new line.CTR209042 bus1=BMT100419937.2,bus2=BMT162322217.2,Phases=1,LineCode=tieSwitch1,Length=0.001,Units=km,switch=T !numEQ NUMEQ:81883  - Data de conexão anterior06/2011.
new line.CTR209364 bus1=BMT129725948.1,bus2=BMT166634055.1,Phases=1,LineCode=tieSwitch1,Length=0.001,Units=km,switch=T !numEQ NUMEQ:81696  - Data de conexão anterior06/2011.
new line.CTR209378 bus1=BMT125643604.2,bus2=BMT126908833.2,Phases=1,LineCode=tieSwitch1,Length=0.001,Units=km,switch=T !numEQ NUMEQ:223903  - Data de conexão anterior06/2011.
new line.CTR209490 bus1=BMT100418418.1.2.3,bus2=BMT177091300.1.2.3,Phases=3,LineCode=tieSwitch,Length=0.001,Units=km,switch=T !numEQ NUMEQ:81642  - Data de conexão anterior06/2011.
new line.CTR209518 bus1=BMT100362061.3,bus2=BMT181751758.3,Phases=1,LineCode=tieSwitch1,Length=0.001,Units=km,switch=T !numEQ NUMEQ:81646  - Data de conexão anterior06/2011.
new line.CTR209532 bus1=BMT100362446.3,bus2=BMT100362614.3,Phases=1,LineCode=tieSwitch1,Length=0.001,Units=km,switch=T !numEQ NUMEQ:81648  - Data de conexão anterior06/2011.
new line.CTR209539 bus1=BMT100418404.1.2.3,bus2=BMT100418481.1.2.3,Phases=3,LineCode=tieSwitch,Length=0.001,Units=km,switch=T !numEQ NUMEQ:81651  - Data de conexão anterior06/2011.
new line.CTR209567 bus1=BMT100414414.1,bus2=BMT168005122.1,Phases=1,LineCode=tieSwitch1,Length=0.001,Units=km,switch=T !numEQ NUMEQ:81656
new line.CTR209609 bus1=BMT100416388.1,bus2=BMT151954129.1,Phases=1,LineCode=tieSwitch1,Length=0.001,Units=km,switch=T !numEQ NUMEQ:81661  - Data de conexão anterior06/2011.
new line.CTR209686 bus1=BMT166151882.2,bus2=BMT166751730.2,Phases=1,LineCode=tieSwitch1,Length=0.001,Units=km,switch=T !numEQ NUMEQ:81603  - Data de conexão anterior06/2011.
new line.CTR209742 bus1=BMT100423598.1,bus2=BMT100423612.1,Phases=1,LineCode=tieSwitch1,Length=0.001,Units=km,switch=T !numEQ NUMEQ:81610  - Data de conexão anterior06/2011.
new line.CTR209840 bus1=BMT100382991.1,bus2=BMT107584745.1,Phases=1,LineCode=tieSwitch1,Length=0.001,Units=km,switch=T !numEQ NUMEQ:81542  - Data de conexão anterior06/2011.
new line.CTR209854 bus1=BMT166151891.2,bus2=BMT166151927.2,Phases=1,LineCode=tieSwitch1,Length=0.001,Units=km,switch=T !numEQ NUMEQ:81544  - Data de conexão anterior06/2011.
new line.CTR209868 bus1=BMT100370545.3,bus2=BMT100371224.3,Phases=1,LineCode=tieSwitch1,Length=0.001,Units=km,switch=T !numEQ NUMEQ:81546  - Data de conexão anterior06/2011.
new line.CTR209882 bus1=BMT100370517.3,bus2=BMT100371238.3,Phases=1,LineCode=tieSwitch1,Length=0.001,Units=km,switch=T !numEQ NUMEQ:81548  - Data de conexão anterior06/2011.
new line.CTR209980 bus1=BMT183625141.1.2.3,bus2=BMT183625171.1.2.3,Phases=3,LineCode=tieSwitch,Length=0.001,Units=km,switch=T !numEQ NUMEQ:81480  - Data de conexão anterior06/2011.
open line.CTR209980 term=1
new line.CTR210204 bus1=BMT100411019.3,bus2=BMT176007824.3,Phases=1,LineCode=tieSwitch1,Length=0.001,Units=km,switch=T !numEQ NUMEQ:81451  - Data de conexão anterior06/2011.
new line.CTR213711 bus1=BMT127242334.1,bus2=BMT151746845.1,Phases=1,LineCode=tieSwitch1,Length=0.001,Units=km,switch=T !numEQ NUMEQ:28393
new line.CTR22240 bus1=BMT166150386.2,bus2=BMT166860067.2,Phases=1,LineCode=tieSwitch1,Length=0.001,Units=km,switch=T !numEQ NUMEQ:180681  - Data de conexão anterior06/2011.
new line.CTR24172 bus1=BMT100360521.3,bus2=BMT150928414.3,Phases=1,LineCode=tieSwitch1,Length=0.001,Units=km,switch=T !numEQ NUMEQ:202641  - Data de conexão anterior06/2011.
new line.CTR242292 bus1=BMT127245638.2,bus2=BMT164588655.2,Phases=1,LineCode=tieSwitch1,Length=0.001,Units=km,switch=T !numEQ NUMEQ:42831  - Data de conexão anterior06/2011.
new line.CTR268885 bus1=BMT100376159.2,bus2=BMT177151462.2,Phases=1,LineCode=tieSwitch1,Length=0.001,Units=km,switch=T !numEQ NUMEQ:19670  - Data de conexão anterior06/2011.
new line.CTR268955 bus1=BMT100384349.1,bus2=BMT159861042.1,Phases=1,LineCode=tieSwitch1,Length=0.001,Units=km,switch=T !numEQ NUMEQ:19597  - Data de conexão anterior06/2011.
new line.CTR268969 bus1=BMT100414498.1,bus2=BMT181200501.1,Phases=1,LineCode=tieSwitch1,Length=0.001,Units=km,switch=T !numEQ NUMEQ:19600  - Data de conexão anterior06/2011.
new line.CTR269333 bus1=BMT100421176.1,bus2=BMT158844102.1,Phases=1,LineCode=tieSwitch1,Length=0.001,Units=km,switch=T !numEQ NUMEQ:19440  - Data de conexão anterior06/2011.
new line.CTR269354 bus1=BMT100423031.1,bus2=BMT172283734.1,Phases=1,LineCode=tieSwitch1,Length=0.001,Units=km,switch=T !numEQ NUMEQ:19442  - Data de conexão anterior06/2011.
new line.CTR269368 bus1=BMT100421491.1,bus2=BMT127611038.1,Phases=1,LineCode=tieSwitch1,Length=0.001,Units=km,switch=T !numEQ NUMEQ:19443  - Data de conexão anterior06/2011.
new line.CTR269396 bus1=BMT125992722.1,bus2=BMT136440845.1,Phases=1,LineCode=tieSwitch1,Length=0.001,Units=km,switch=T !numEQ NUMEQ:19450  - Data de conexão anterior06/2011.
new line.CTR269410 bus1=BMT100383908.1,bus2=BMT107569345.1,Phases=1,LineCode=tieSwitch1,Length=0.001,Units=km,switch=T !numEQ NUMEQ:19452  - Data de conexão anterior06/2011.
new line.CTR269620 bus1=BMT100413049.1.2.3,bus2=BMT172950985.1.2.3,Phases=3,LineCode=tieSwitch,Length=0.001,Units=km,switch=T !numEQ NUMEQ:19306  - Data de conexão anterior06/2011.
new line.CTR26965 bus1=BMT100413714.1.2.3,bus2=BMT171226714.1.2.3,Phases=3,LineCode=tieSwitch,Length=0.001,Units=km,switch=T !numEQ NUMEQ:81667
new line.CTR269725 bus1=BMT105599594.1,bus2=BMT106251280.1,Phases=1,LineCode=tieSwitch1,Length=0.001,Units=km,switch=T !numEQ NUMEQ:19344  - Data de conexão anterior06/2011.
new line.CTR269886 bus1=BMT100409990.3,bus2=BMT180534474.3,Phases=1,LineCode=tieSwitch1,Length=0.001,Units=km,switch=T !numEQ NUMEQ:19302  - Data de conexão anterior06/2011.
new line.CTR26993 bus1=BMT100412944.1.2.3,bus2=BMT100413700.1.2.3,Phases=3,LineCode=tieSwitch,Length=0.001,Units=km,switch=T !numEQ NUMEQ:81668
new line.CTR270033 bus1=BMT100359632.1.2.3,bus2=BMT175676238.1.2.3,Phases=3,LineCode=tieSwitch,Length=0.001,Units=km,switch=T !numEQ NUMEQ:19261  - Data de conexão anterior06/2011.
new line.CTR270194 bus1=BMT109183461.1.2.3,bus2=BMT100409815.1.2.3,Phases=3,LineCode=tieSwitch,Length=0.001,Units=km,switch=T !numEQ NUMEQ:19121  - Data de conexão anterior06/2011.
new line.CTR106275 bus1=BMT127244217.1,bus2=BMT127244238.1,Phases=1,LineCode=tieSwitch1,Length=0.001,Units=km,switch=T !numEQ NUMEQ:167293  - Data de conexão anterior06/2011.
new line.CTR10711 bus1=BMT166150149.3,bus2=BMT167643008.3,Phases=1,LineCode=tieSwitch1,Length=0.001,Units=km,switch=T !numEQ NUMEQ:181051  - Data de conexão anterior06/2011.
new line.CTR13959 bus1=BMT166151490.1,bus2=BMT166151507.1,Phases=1,LineCode=tieSwitch1,Length=0.001,Units=km,switch=T !numEQ NUMEQ:185886  - Data de conexão anterior06/2011.
new line.CTR13987 bus1=BMT166151513.1,bus2=BMT166151521.1,Phases=1,LineCode=tieSwitch1,Length=0.001,Units=km,switch=T !numEQ NUMEQ:185887  - Data de conexão anterior06/2011.
new line.CTR140134 bus1=BMT153531480.1,bus2=BMT177019094.1,Phases=1,LineCode=tieSwitch1,Length=0.001,Units=km,switch=T !numEQ NUMEQ:117684
new line.CTR155121 bus1=BMT177451527.1,bus2=BMT177451670.1,Phases=1,LineCode=tieSwitch1,Length=0.001,Units=km,switch=T !numEQ NUMEQ:135356  - Data de conexão anterior06/2011.
new line.CTR166349 bus1=BMT100422394.1,bus2=BMT166078257.1,Phases=1,LineCode=tieSwitch1,Length=0.001,Units=km,switch=T !numEQ NUMEQ:120141  - Data de conexão anterior06/2011.
new line.CTR166391 bus1=BMT100422212.3,bus2=BMT162047418.3,Phases=1,LineCode=tieSwitch1,Length=0.001,Units=km,switch=T !numEQ NUMEQ:120145  - Data de conexão anterior06/2011.
new line.CTR166629 bus1=BMT100423801.1.2.3,bus2=BMT175762182.1.2.3,Phases=3,LineCode=tieSwitch,Length=0.001,Units=km,switch=T !numEQ NUMEQ:121919  - Data de conexão anterior06/2011.
new line.CTR166888 bus1=BMT100372057.3,bus2=BMT153532348.3,Phases=1,LineCode=tieSwitch1,Length=0.001,Units=km,switch=T !numEQ NUMEQ:117685
new line.CTR166916 bus1=BMT153530474.3,bus2=BMT153530480.3,Phases=1,LineCode=tieSwitch1,Length=0.001,Units=km,switch=T !numEQ NUMEQ:117686
new line.CTR173139 bus1=BMT100369313.2,bus2=BMT100369334.2,Phases=1,LineCode=tieSwitch1,Length=0.001,Units=km,switch=T !numEQ NUMEQ:143026  - Data de conexão anterior06/2011.
new line.CTR210281 bus1=BMT100414267.1,bus2=BMT151954320.1,Phases=1,LineCode=tieSwitch1,Length=0.001,Units=km,switch=T !numEQ NUMEQ:81368  - Data de conexão anterior06/2011.
new line.CTR210442 bus1=BMT100373905.1.2.3,bus2=BMT100374213.1.2.3,Phases=3,LineCode=tieSwitch,Length=0.001,Units=km,switch=T !numEQ NUMEQ:81318  - Data de conexão anterior06/2011.
new line.CTR210456 bus1=BMT158178233.1,bus2=BMT158179135.1,Phases=1,LineCode=tieSwitch1,Length=0.001,Units=km,switch=T !numEQ NUMEQ:81320  - Data de conexão anterior06/2011.
new line.CTR210470 bus1=BMT100359184.3,bus2=BMT182152779.3,Phases=1,LineCode=tieSwitch1,Length=0.001,Units=km,switch=T !numEQ NUMEQ:81324  - Data de conexão anterior06/2011.
new line.CTR210484 bus1=BMT100366121.2,bus2=BMT178594656.2,Phases=1,LineCode=tieSwitch1,Length=0.001,Units=km,switch=T !numEQ NUMEQ:81325
new line.CTR210498 bus1=BMT100369096.2,bus2=BMT100369467.2,Phases=1,LineCode=tieSwitch1,Length=0.001,Units=km,switch=T !numEQ NUMEQ:81327  - Data de conexão anterior06/2011.
new line.CTR210540 bus1=BMT100378686.1,bus2=BMT100384265.1,Phases=1,LineCode=tieSwitch1,Length=0.001,Units=km,switch=T !numEQ NUMEQ:81243  - Data de conexão anterior06/2011.
new line.CTR210673 bus1=BMT166751735.2,bus2=BMT166751746.2,Phases=1,LineCode=tieSwitch1,Length=0.001,Units=km,switch=T !numEQ NUMEQ:81185  - Data de conexão anterior06/2011.
new line.CTR210701 bus1=BMT100366282.3,bus2=BMT126546926.3,Phases=1,LineCode=tieSwitch1,Length=0.001,Units=km,switch=T !numEQ NUMEQ:81190  - Data de conexão anterior06/2011.
new line.CTR210750 bus1=BMT100409171.1,bus2=BMT159856694.1,Phases=1,LineCode=tieSwitch1,Length=0.001,Units=km,switch=T !numEQ NUMEQ:81207  - Data de conexão anterior06/2011.
new line.CTR210771 bus1=BMT100372533.2,bus2=BMT183150402.2,Phases=1,LineCode=tieSwitch1,Length=0.001,Units=km,switch=T !numEQ NUMEQ:81209  - Data de conexão anterior06/2011.
new line.CTR210813 bus1=BMT100409283.1,bus2=BMT100427105.1,Phases=1,LineCode=tieSwitch1,Length=0.001,Units=km,switch=T !numEQ NUMEQ:81215  - Data de conexão anterior06/2011.
new line.CTR211009 bus1=BMT138548552.3,bus2=BMT156500078.3,Phases=1,LineCode=tieSwitch1,Length=0.001,Units=km,switch=T !numEQ NUMEQ:198932  - Data de conexão anterior06/2011.
new line.CTR211205 bus1=BMT100372918.1,bus2=BMT100374969.1,Phases=1,LineCode=tieSwitch1,Length=0.001,Units=km,switch=T !numEQ NUMEQ:81060  - Data de conexão anterior06/2011.
new line.CTR211996 bus1=BMT100426755.1,bus2=BMT100426769.1,Phases=1,LineCode=tieSwitch1,Length=0.001,Units=km,switch=T !numEQ NUMEQ:138527  - Data de conexão anterior06/2011.
new line.CTR225730 bus1=BMT166152066.1,bus2=BMT178790278.1,Phases=1,LineCode=tieSwitch1,Length=0.001,Units=km,switch=T !numEQ NUMEQ:186317  - Data de conexão anterior06/2011.
new line.CTR226493 bus1=BMT100380044.2,bus2=BMT100380051.2,Phases=1,LineCode=tieSwitch1,Length=0.001,Units=km,switch=T !numEQ NUMEQ:186045  - Data de conexão anterior06/2011.
new line.CTR227410 bus1=BMT100409423.1.2.3,bus2=BMT160224722.1.2.3,Phases=3,LineCode=tieSwitch,Length=0.001,Units=km,switch=T !numEQ NUMEQ:64845  - Data de conexão anterior06/2011.
new line.CTR227424 bus1=BMT100358540.1.2.3,bus2=BMT2748734.1.2.3,Phases=3,LineCode=tieSwitch,Length=0.001,Units=km,switch=T !numEQ NUMEQ:64876  - Data de conexão anterior06/2011.
open line.CTR227424 term=1
new line.CTR227480 bus1=BMT100358547.1.2.3,bus2=BMT100358554.1.2.3,Phases=3,LineCode=tieSwitch,Length=0.001,Units=km,switch=T !numEQ NUMEQ:65066  - Data de conexão anterior06/2011.
new line.CTR24557 bus1=BMT127245449.3,bus2=BMT168578176.3,Phases=1,LineCode=tieSwitch1,Length=0.001,Units=km,switch=T !numEQ NUMEQ:166727  - Data de conexão anterior06/2011.
new line.CTR246114 bus1=BMT166149550.2,bus2=BMT179564442.2,Phases=1,LineCode=tieSwitch1,Length=0.001,Units=km,switch=T !numEQ NUMEQ:31030  - Data de conexão anterior06/2011.
new line.CTR246149 bus1=BMT166148840.1,bus2=BMT183193624.1,Phases=1,LineCode=tieSwitch1,Length=0.001,Units=km,switch=T !numEQ NUMEQ:31035  - Data de conexão anterior06/2011.
new line.CTR246177 bus1=BMT166148817.2,bus2=BMT166149521.2,Phases=1,LineCode=tieSwitch1,Length=0.001,Units=km,switch=T !numEQ NUMEQ:31740  - Data de conexão anterior06/2011.
new line.CTR246205 bus1=BMT166150406.3,bus2=BMT179779649.3,Phases=1,LineCode=tieSwitch1,Length=0.001,Units=km,switch=T !numEQ NUMEQ:30978  - Data de conexão anterior06/2011.
new line.CTR246268 bus1=BMT166152161.2,bus2=BMT181451701.2,Phases=1,LineCode=tieSwitch1,Length=0.001,Units=km,switch=T !numEQ NUMEQ:30987  - Data de conexão anterior06/2011.
new line.CTR246296 bus1=BMT167284965.1,bus2=BMT173736407.1,Phases=1,LineCode=tieSwitch1,Length=0.001,Units=km,switch=T !numEQ NUMEQ:30992  - Data de conexão anterior06/2011.
new line.CTR246310 bus1=BMT100381388.3,bus2=BMT157522591.3,Phases=1,LineCode=tieSwitch1,Length=0.001,Units=km,switch=T !numEQ NUMEQ:30994
new line.CTR246562 bus1=BMT100372848.2,bus2=BMT100375046.2,Phases=1,LineCode=tieSwitch1,Length=0.001,Units=km,switch=T !numEQ NUMEQ:142304  - Data de conexão anterior06/2011.
new line.CTR270432 bus1=BMT166151992.1.2.3,bus2=BMT166152007.1.2.3,Phases=3,LineCode=tieSwitch,Length=0.001,Units=km,switch=T !numEQ NUMEQ:19114  - Data de conexão anterior06/2011.
new line.CTR270523 bus1=BMT100424221.2,bus2=BMT158625269.2,Phases=1,LineCode=tieSwitch1,Length=0.001,Units=km,switch=T !numEQ NUMEQ:219478  - Data de conexão anterior06/2011.
new line.CTR270537 bus1=BMT100424095.2,bus2=BMT158625424.2,Phases=1,LineCode=tieSwitch1,Length=0.001,Units=km,switch=T !numEQ NUMEQ:19031  - Data de conexão anterior06/2011.
new line.CTR270558 bus1=BMT100426153.2,bus2=BMT158875273.2,Phases=1,LineCode=tieSwitch1,Length=0.001,Units=km,switch=T !numEQ NUMEQ:19068  - Data de conexão anterior06/2011.
new line.CTR270691 bus1=BMT100359107.1.2.3,bus2=BMT100359114.1.2.3,Phases=3,LineCode=tieSwitch,Length=0.001,Units=km,switch=T !numEQ NUMEQ:17978  - Data de conexão anterior06/2011.
new line.CTR271034 bus1=BMT100376838.1,bus2=BMT156619672.1,Phases=1,LineCode=tieSwitch1,Length=0.001,Units=km,switch=T !numEQ NUMEQ:205184  - Data de conexão anterior06/2011.
new line.CTR27119 bus1=BMT100414211.1,bus2=BMT183409987.1,Phases=1,LineCode=tieSwitch1,Length=0.001,Units=km,switch=T !numEQ NUMEQ:81631  - Data de conexão anterior06/2011.
new line.CTR109674 bus1=BMT161443568.2,bus2=BMT161443569.2,Phases=1,LineCode=tieSwitch1,Length=0.001,Units=km,switch=T !numEQ NUMEQ:77456
new line.CTR126519 bus1=BMT164156453.1.2.3,bus2=BMT164238334.1.2.3,Phases=3,LineCode=tieSwitch,Length=0.001,Units=km,switch=T !numEQ NUMEQ:97386
new line.CTR126645 bus1=BMT166148881.2,bus2=BMT166149263.2,Phases=1,LineCode=tieSwitch1,Length=0.001,Units=km,switch=T !numEQ NUMEQ:213185  - Data de conexão anterior06/2011.
new line.CTR148191 bus1=BMT168059930.1,bus2=BMT127244147.1,Phases=1,LineCode=tieSwitch1,Length=0.001,Units=km,switch=T !numEQ NUMEQ:199389  - Data de conexão anterior06/2011.
new line.CTR178977 bus1=BMT166148915.2,bus2=BMT166148964.2,Phases=1,LineCode=tieSwitch1,Length=0.001,Units=km,switch=T !numEQ NUMEQ:102307  - Data de conexão anterior06/2011.
new line.CTR19027 bus1=BMT100365113.1,bus2=BMT129831214.1,Phases=1,LineCode=tieSwitch1,Length=0.001,Units=km,switch=T !numEQ NUMEQ:81697  - Data de conexão anterior06/2011.
new line.CTR190324 bus1=BMT166149197.2,bus2=BMT166149199.2,Phases=1,LineCode=tieSwitch1,Length=0.001,Units=km,switch=T !numEQ NUMEQ:144642  - Data de conexão anterior06/2011.
new line.CTR190506 bus1=BMT100367423.3,bus2=BMT126470990.3,Phases=1,LineCode=tieSwitch1,Length=0.001,Units=km,switch=T !numEQ NUMEQ:140712  - Data de conexão anterior06/2011.
new line.CTR19083 bus1=BMT100383187.1,bus2=BMT106544454.1,Phases=1,LineCode=tieSwitch1,Length=0.001,Units=km,switch=T !numEQ NUMEQ:81617  - Data de conexão anterior06/2011.
new line.CTR19118 bus1=BMT100366072.2,bus2=BMT174822507.2,Phases=1,LineCode=tieSwitch1,Length=0.001,Units=km,switch=T !numEQ NUMEQ:81637  - Data de conexão anterior06/2011.
new line.CTR19944 bus1=BMT100374570.1,bus2=BMT178926284.1,Phases=1,LineCode=tieSwitch1,Length=0.001,Units=km,switch=T !numEQ NUMEQ:81254  - Data de conexão anterior06/2011.
new line.CTR199900 bus1=BMT166148743.1,bus2=BMT172579014.1,Phases=1,LineCode=tieSwitch1,Length=0.001,Units=km,switch=T !numEQ NUMEQ:179511  - Data de conexão anterior06/2011.
new line.CTR200621 bus1=BMT100425040.2,bus2=BMT158625320.2,Phases=1,LineCode=tieSwitch1,Length=0.001,Units=km,switch=T !numEQ NUMEQ:143288  - Data de conexão anterior06/2011.
new line.CTR201146 bus1=BMT100375109.1,bus2=BMT100375123.1,Phases=1,LineCode=tieSwitch1,Length=0.001,Units=km,switch=T !numEQ NUMEQ:145250  - Data de conexão anterior06/2011.
new line.CTR201174 bus1=BMT166148411.2,bus2=BMT181599592.2,Phases=1,LineCode=tieSwitch1,Length=0.001,Units=km,switch=T !numEQ NUMEQ:145251  - Data de conexão anterior06/2011.
new line.CTR201188 bus1=BMT100378966.1,bus2=BMT182442720.1,Phases=1,LineCode=tieSwitch1,Length=0.001,Units=km,switch=T !numEQ NUMEQ:167077  - Data de conexão anterior06/2011.
new line.CTR201230 bus1=BMT158625682.2,bus2=BMT100423871.2,Phases=1,LineCode=tieSwitch1,Length=0.001,Units=km,switch=T !numEQ NUMEQ:121917  - Data de conexão anterior06/2011.
open line.CTR201230 term=1
new line.CTR234795 bus1=BMT127244840.1,bus2=BMT179737171.1,Phases=1,LineCode=tieSwitch1,Length=0.001,Units=km,switch=T !numEQ NUMEQ:42842  - Data de conexão anterior06/2011.
new line.CTR236391 bus1=BMT181795700.1.2.3,bus2=BMT182602616.1.2.3,Phases=3,LineCode=tieSwitch,Length=0.001,Units=km,switch=T !numEQ NUMEQ:48864  - Data de conexão anterior06/2011.
new line.CTR253933 bus1=BMT160687430.2,bus2=BMT160687712.2,Phases=1,LineCode=tieSwitch1,Length=0.001,Units=km,switch=T !numEQ NUMEQ:28617
new line.CTR254668 bus1=BMT127243335.1.2.3,bus2=BMT174351076.1.2.3,Phases=3,LineCode=tieSwitch,Length=0.001,Units=km,switch=T !numEQ NUMEQ:28395  - Data de conexão anterior06/2011.
new line.CTR254815 bus1=BMT181542795.2,bus2=BMT181551931.2,Phases=1,LineCode=tieSwitch1,Length=0.001,Units=km,switch=T !numEQ NUMEQ:28358  - Data de conexão anterior06/2011.
new line.CTR255564 bus1=BMT127244014.1,bus2=BMT179737120.1,Phases=1,LineCode=tieSwitch1,Length=0.001,Units=km,switch=T !numEQ NUMEQ:28137
new line.CTR255641 bus1=BMT166150093.1,bus2=BMT167604648.1,Phases=1,LineCode=tieSwitch1,Length=0.001,Units=km,switch=T !numEQ NUMEQ:180211  - Data de conexão anterior06/2011.
new line.CTR26251 bus1=BMT100423255.1,bus2=BMT100423262.1,Phases=1,LineCode=tieSwitch1,Length=0.001,Units=km,switch=T !numEQ NUMEQ:81912  - Data de conexão anterior06/2011.
new line.CTR26307 bus1=BMT100420175.2,bus2=BMT181342582.2,Phases=1,LineCode=tieSwitch1,Length=0.001,Units=km,switch=T !numEQ NUMEQ:81920  - Data de conexão anterior06/2011.
new line.CTR26349 bus1=BMT100424347.2,bus2=BMT158625307.2,Phases=1,LineCode=tieSwitch1,Length=0.001,Units=km,switch=T !numEQ NUMEQ:81856  - Data de conexão anterior06/2011.
new line.CTR26377 bus1=BMT100380863.1,bus2=BMT156107985.1,Phases=1,LineCode=tieSwitch1,Length=0.001,Units=km,switch=T !numEQ NUMEQ:81857  - Data de conexão anterior06/2011.
new line.CTR26405 bus1=BMT100423962.2,bus2=BMT159514666.2,Phases=1,LineCode=tieSwitch1,Length=0.001,Units=km,switch=T !numEQ NUMEQ:81859  - Data de conexão anterior06/2011.
new line.CTR280218 bus1=BMT166148371.3,bus2=BMT166152403.3,Phases=1,LineCode=tieSwitch1,Length=0.001,Units=km,switch=T !numEQ NUMEQ:13882  - Data de conexão anterior06/2011.
new line.CTR280407 bus1=BMT100374654.1,bus2=BMT178926293.1,Phases=1,LineCode=tieSwitch1,Length=0.001,Units=km,switch=T !numEQ NUMEQ:13840  - Data de conexão anterior06/2011.
new line.CTR280442 bus1=BMT100423899.2,bus2=BMT168017419.2,Phases=1,LineCode=tieSwitch1,Length=0.001,Units=km,switch=T !numEQ NUMEQ:13847  - Data de conexão anterior06/2011.
new line.CTR293007 bus1=BMT100359051.1.2.3,bus2=BMT177451525.1.2.3,Phases=3,LineCode=tieSwitch,Length=0.001,Units=km,switch=T !numEQ NUMEQ:135643  - Data de conexão anterior06/2011.
new line.CTR293826 bus1=BMT166149074.2,bus2=BMT166149139.2,Phases=1,LineCode=tieSwitch1,Length=0.001,Units=km,switch=T !numEQ NUMEQ:200908  - Data de conexão anterior06/2011.
new line.CTR325683 bus1=BMT100423808.2,bus2=BMT176311811.2,Phases=1,LineCode=tieSwitch1,Length=0.001,Units=km,switch=T !numEQ NUMEQ:121918  - Data de conexão anterior06/2011.
new line.CTR325704 bus1=BMT100381017.1.2.3,bus2=BMT158279568.1.2.3,Phases=3,LineCode=tieSwitch,Length=0.001,Units=km,switch=T !numEQ NUMEQ:121920
new line.CTR325837 bus1=BMT100413973.1,bus2=BMT151953960.1,Phases=1,LineCode=tieSwitch1,Length=0.001,Units=km,switch=T !numEQ NUMEQ:120196  - Data de conexão anterior06/2011.
new line.CTR326453 bus1=BMT127243300.1.2.3,bus2=BMT127247409.1.2.3,Phases=3,LineCode=tieSwitch,Length=0.001,Units=km,switch=T !numEQ NUMEQ:30442  - Data de conexão anterior06/2011.
new line.CTR326880 bus1=BMT100421288.2,bus2=BMT100421323.2,Phases=1,LineCode=tieSwitch1,Length=0.001,Units=km,switch=T !numEQ NUMEQ:124796  - Data de conexão anterior06/2011.
new line.CTR340810 bus1=BMT100382473.1,bus2=BMT167785336.1,Phases=1,LineCode=tieSwitch1,Length=0.001,Units=km,switch=T !numEQ NUMEQ:133218  - Data de conexão anterior06/2011.
new line.CTR340838 bus1=BMT100378861.1,bus2=BMT179053649.1,Phases=1,LineCode=tieSwitch1,Length=0.001,Units=km,switch=T !numEQ NUMEQ:133219  - Data de conexão anterior06/2011.
new line.CTR340852 bus1=BMT100375634.1,bus2=BMT149228911.1,Phases=1,LineCode=tieSwitch1,Length=0.001,Units=km,switch=T !numEQ NUMEQ:133220  - Data de conexão anterior06/2011.
new line.CTR345703 bus1=BMT166151693.3,bus2=BMT166151699.3,Phases=1,LineCode=tieSwitch1,Length=0.001,Units=km,switch=T !numEQ NUMEQ:128731  - Data de conexão anterior06/2011.
new line.CTR345878 bus1=BMT100361137.1,bus2=BMT100361144.1,Phases=1,LineCode=tieSwitch1,Length=0.001,Units=km,switch=T !numEQ NUMEQ:125658  - Data de conexão anterior06/2011.
new line.CTR345892 bus1=BMT100361571.2,bus2=BMT177998118.2,Phases=1,LineCode=tieSwitch1,Length=0.001,Units=km,switch=T !numEQ NUMEQ:125660  - Data de conexão anterior06/2011.
new line.CTR345920 bus1=BMT100361949.2,bus2=BMT100363384.2,Phases=1,LineCode=tieSwitch1,Length=0.001,Units=km,switch=T !numEQ NUMEQ:125696  - Data de conexão anterior06/2011.
new line.CTR345934 bus1=BMT100364357.1,bus2=BMT156774577.1,Phases=1,LineCode=tieSwitch1,Length=0.001,Units=km,switch=T !numEQ NUMEQ:125664  - Data de conexão anterior06/2011.
new line.CTR346438 bus1=BMT100361403.3,bus2=BMT100361410.3,Phases=1,LineCode=tieSwitch1,Length=0.001,Units=km,switch=T !numEQ NUMEQ:125990  - Data de conexão anterior06/2011.
new line.CTR105995 bus1=BMT100377132.1,bus2=BMT100377160.1,Phases=1,LineCode=tieSwitch1,Length=0.001,Units=km,switch=T !numEQ NUMEQ:140710  - Data de conexão anterior06/2011.
new line.CTR125931 bus1=BMT166150424.3,bus2=BMT166150459.3,Phases=1,LineCode=tieSwitch1,Length=0.001,Units=km,switch=T !numEQ NUMEQ:140472  - Data de conexão anterior06/2011.
new line.CTR141121 bus1=BMT100384293.1,bus2=BMT100384405.1,Phases=1,LineCode=tieSwitch1,Length=0.001,Units=km,switch=T !numEQ NUMEQ:113680  - Data de conexão anterior06/2011.
new line.CTR163332 bus1=BMT100364182.3,bus2=BMT183234292.3,Phases=1,LineCode=tieSwitch1,Length=0.001,Units=km,switch=T !numEQ NUMEQ:125694  - Data de conexão anterior06/2011.
new line.CTR163360 bus1=BMT100412629.3,bus2=BMT100412657.3,Phases=1,LineCode=tieSwitch1,Length=0.001,Units=km,switch=T !numEQ NUMEQ:125699  - Data de conexão anterior06/2011.
new line.CTR193166 bus1=BMT166151916.2,bus2=BMT166151923.2,Phases=1,LineCode=tieSwitch1,Length=0.001,Units=km,switch=T !numEQ NUMEQ:41525  - Data de conexão anterior06/2011.
new line.CTR19727 bus1=BMT100414309.1,bus2=BMT151954245.1,Phases=1,LineCode=tieSwitch1,Length=0.001,Units=km,switch=T !numEQ NUMEQ:81416  - Data de conexão anterior06/2011.
new line.CTR19811 bus1=BMT176007829.3,bus2=BMT176007841.3,Phases=1,LineCode=tieSwitch1,Length=0.001,Units=km,switch=T !numEQ NUMEQ:81323  - Data de conexão anterior06/2011.
new line.CTR199235 bus1=BMT100372659.1.2.3,bus2=BMT100377818.1.2.3,Phases=3,LineCode=tieSwitch,Length=0.001,Units=km,switch=T !numEQ NUMEQ:185641  - Data de conexão anterior06/2011.
new line.CTR232324 bus1=BMT166148375.1.2.3,bus2=BMT166151869.1.2.3,Phases=3,LineCode=tieSwitch,Length=0.001,Units=km,switch=T !numEQ NUMEQ:50495  - Data de conexão anterior06/2011.
new line.CTR232366 bus1=BMT100379750.2,bus2=BMT171450669.2,Phases=1,LineCode=tieSwitch1,Length=0.001,Units=km,switch=T !numEQ NUMEQ:50488  - Data de conexão anterior06/2011.
new line.CTR232464 bus1=BMT100375977.2,bus2=BMT182156984.2,Phases=1,LineCode=tieSwitch1,Length=0.001,Units=km,switch=T !numEQ NUMEQ:50220  - Data de conexão anterior06/2011.
new line.CTR232471 bus1=BMT125728108.3,bus2=BMT125738937.3,Phases=1,LineCode=tieSwitch1,Length=0.001,Units=km,switch=T !numEQ NUMEQ:50235  - Data de conexão anterior06/2011.
new line.CTR232485 bus1=BMT100419447.1.2.3,bus2=BMT151270988.1.2.3,Phases=3,LineCode=tieSwitch,Length=0.001,Units=km,switch=T !numEQ NUMEQ:50245  - Data de conexão anterior06/2011.
new line.CTR232520 bus1=BMT100427602.1,bus2=BMT134023542.1,Phases=1,LineCode=tieSwitch1,Length=0.001,Units=km,switch=T !numEQ NUMEQ:50270  - Data de conexão anterior06/2011.
new line.CTR232555 bus1=BMT100382956.1,bus2=BMT107557641.1,Phases=1,LineCode=tieSwitch1,Length=0.001,Units=km,switch=T !numEQ NUMEQ:50288  - Data de conexão anterior06/2011.
new line.CTR232569 bus1=BMT100377909.2,bus2=BMT178704182.2,Phases=1,LineCode=tieSwitch1,Length=0.001,Units=km,switch=T !numEQ NUMEQ:50303  - Data de conexão anterior06/2011.
new line.CTR251966 bus1=BMT166148678.3,bus2=BMT183807055.3,Phases=1,LineCode=tieSwitch1,Length=0.001,Units=km,switch=T !numEQ NUMEQ:29150  - Data de conexão anterior06/2011.
new line.CTR252442 bus1=BMT100370832.3,bus2=BMT156252612.3,Phases=1,LineCode=tieSwitch1,Length=0.001,Units=km,switch=T !numEQ NUMEQ:142303  - Data de conexão anterior06/2011.
new line.CTR252708 bus1=BMT127245092.1,bus2=BMT179737149.1,Phases=1,LineCode=tieSwitch1,Length=0.001,Units=km,switch=T !numEQ NUMEQ:42843  - Data de conexão anterior06/2011.
new line.CTR267744 bus1=BMT105621420.1,bus2=BMT182674466.1,Phases=1,LineCode=tieSwitch1,Length=0.001,Units=km,switch=T !numEQ NUMEQ:19992  - Data de conexão anterior06/2011.
new line.CTR267758 bus1=BMT100368130.1,bus2=BMT100368158.1,Phases=1,LineCode=tieSwitch1,Length=0.001,Units=km,switch=T !numEQ NUMEQ:19993  - Data de conexão anterior06/2011.
new line.CTR268171 bus1=BMT100413378.1.2.3,bus2=BMT100413602.1.2.3,Phases=3,LineCode=tieSwitch,Length=0.001,Units=km,switch=T !numEQ NUMEQ:19845  - Data de conexão anterior06/2011.
new line.CTR268339 bus1=BMT100363867.1,bus2=BMT165072775.1,Phases=1,LineCode=tieSwitch1,Length=0.001,Units=km,switch=T !numEQ NUMEQ:19872  - Data de conexão anterior06/2011.
new line.CTR286399 bus1=BMT100367339.3,bus2=BMT126372633.3,Phases=1,LineCode=tieSwitch1,Length=0.001,Units=km,switch=T !numEQ NUMEQ:10775  - Data de conexão anterior06/2011.
new line.CTR286413 bus1=BMT100359884.1.2.3,bus2=BMT105402719.1.2.3,Phases=3,LineCode=tieSwitch,Length=0.001,Units=km,switch=T !numEQ NUMEQ:10777  - Data de conexão anterior06/2011.
new line.CTR286427 bus1=BMT100414652.1,bus2=BMT151954225.1,Phases=1,LineCode=tieSwitch1,Length=0.001,Units=km,switch=T !numEQ NUMEQ:10779  - Data de conexão anterior06/2011.
new line.CTR286455 bus1=BMT100410571.3,bus2=BMT177059939.3,Phases=1,LineCode=tieSwitch1,Length=0.001,Units=km,switch=T !numEQ NUMEQ:10782  - Data de conexão anterior06/2011.
new line.CTR286469 bus1=BMT100361774.2,bus2=BMT100361823.2,Phases=1,LineCode=tieSwitch1,Length=0.001,Units=km,switch=T !numEQ NUMEQ:10784  - Data de conexão anterior06/2011.