new line.SBT_1012390 bus1=428913.1.2.0,bus2=428920.1.2.0,Phases=2,Linecode=BT518_BT518_7_2_1_2,Length=0.000500000,Units=km
new line.SBT_1012411 bus1=428920.1.2.0,bus2=4099699.1.2.0,Phases=2,Linecode=BT801_BT801_4_2_3_2,Length=0.058264000,Units=km
new line.SBT_1012418 bus1=428920.1.2.0,bus2=4101008.1.2.0,Phases=2,Linecode=BT811_BT811_4_2_3_2,Length=0.114543000,Units=km
new line.SBT_1012453 bus1=428927.1.2.0,bus2=428934.1.2.0,Phases=2,Linecode=BT518_BT518_7_2_1_2,Length=0.000500000,Units=km
new line.SBT_1012460 bus1=428934.2.0,bus2=4091677.2.0,Phases=1,Linecode=BT811_BT811_4_1_3_1,Length=0.045240000,Units=km
new line.SBT_1012481 bus1=428941.1.2.0,bus2=428948.1.2.0,Phases=2,Linecode=BT518_BT518_7_2_1_2,Length=0.000500000,Units=km
new line.SBT_1013566 bus1=429501.1.2.0,bus2=429508.1.2.0,Phases=2,Linecode=BT518_BT518_7_2_1_2,Length=0.000500000,Units=km
new line.SBT_1013580 bus1=429515.1.2.0,bus2=429522.1.2.0,Phases=2,Linecode=BT518_BT518_7_2_1_2,Length=0.000500000,Units=km
new line.SBT_1013685 bus1=429557.1.2.3.0,bus2=176996964.1.2.3.0,Phases=3,Linecode=BT514_BT514_7_3_1_3,Length=0.000500000,Units=km
new line.SBT_1013699 bus1=429571.1.2.0,bus2=429578.1.2.0,Phases=2,Linecode=BT513_BT513_7_2_1_2,Length=0.000500000,Units=km
new line.SBT_1013769 bus1=429613.1.2.0,bus2=429620.1.2.0,Phases=2,Linecode=BT518_BT518_7_2_1_2,Length=0.000500000,Units=km
new line.SBT_1013790 bus1=429627.1.2.0,bus2=429634.1.2.0,Phases=2,Linecode=BT518_BT518_7_2_1_2,Length=0.000500000,Units=km
new line.SBT_1013811 bus1=429641.1.2.0,bus2=429648.1.2.0,Phases=2,Linecode=BT518_BT518_7_2_1_2,Length=0.000500000,Units=km
new line.SBT_1029477 bus1=437138.1.2.0,bus2=437145.1.2.0,Phases=2,Linecode=BT518_BT518_7_2_1_2,Length=0.000500000,Units=km
new line.SBT_1029505 bus1=437152.1.2.0,bus2=437159.1.2.0,Phases=2,Linecode=BT518_BT518_7_2_1_2,Length=0.000500000,Units=km
new line.SBT_1029512 bus1=437159.1.0,bus2=4087078.1.0,Phases=1,Linecode=BT811_BT811_4_1_3_1,Length=0.087253000,Units=km
new line.SBT_1029519 bus1=437159.2.0,bus2=4087071.2.0,Phases=1,Linecode=BT811_BT811_4_1_3_1,Length=0.072054000,Units=km
new line.SBT_1029540 bus1=437166.1.2.0,bus2=437173.1.2.0,Phases=2,Linecode=BT518_BT518_7_2_1_2,Length=0.000500000,Units=km
new line.SBT_1029561 bus1=437180.1.2.0,bus2=437187.1.2.0,Phases=2,Linecode=BT518_BT518_7_2_1_2,Length=0.000500000,Units=km
new line.SBT_1029568 bus1=437187.1.2.0,bus2=4099902.1.2.0,Phases=2,Linecode=BT808_BT808_4_2_3_2,Length=0.031755000,Units=km
new line.SBT_1029575 bus1=437187.1.2.0,bus2=4925566.1.2.0,Phases=2,Linecode=BT808_BT808_4_2_3_2,Length=0.038179000,Units=km
new line.SBT_1029603 bus1=437194.1.2.0,bus2=437201.1.2.0,Phases=2,Linecode=BT518_BT518_7_2_1_2,Length=0.000500000,Units=km
new line.SBT_1029638 bus1=437208.1.2.0,bus2=437215.1.2.0,Phases=2,Linecode=BT518_BT518_7_2_1_2,Length=0.000500000,Units=km
new line.SBT_1029652 bus1=437222.1.2.0,bus2=437229.1.2.0,Phases=2,Linecode=BT518_BT518_7_2_1_2,Length=0.000500000,Units=km
new line.SBT_1029666 bus1=437236.1.2.0,bus2=437243.1.2.0,Phases=2,Linecode=BT518_BT518_7_2_1_2,Length=0.000500000,Units=km
new line.SBT_1029680 bus1=437250.1.2.0,bus2=437257.1.2.0,Phases=2,Linecode=BT518_BT518_7_2_1_2,Length=0.000500000,Units=km
new line.SBT_1029715 bus1=437264.1.2.0,bus2=437271.1.2.0,Phases=2,Linecode=BT518_BT518_7_2_1_2,Length=0.000500000,Units=km
new line.SBT_1029743 bus1=437278.1.2.0,bus2=437285.1.2.0,Phases=2,Linecode=BT518_BT518_7_2_1_2,Length=0.000500000,Units=km
new line.SBT_1029750 bus1=437285.2.0,bus2=4539502.2.0,Phases=1,Linecode=BT811_BT811_4_1_3_1,Length=0.081476000,Units=km
new line.SBT_1029785 bus1=437292.1.2.0,bus2=437299.1.2.0,Phases=2,Linecode=BT518_BT518_7_2_1_2,Length=0.000500000,Units=km
new line.SBT_1029806 bus1=437306.1.2.0,bus2=437313.1.2.0,Phases=2,Linecode=BT518_BT518_7_2_1_2,Length=0.000500000,Units=km
new line.SBT_1029820 bus1=437320.1.2.0,bus2=437327.1.2.0,Phases=2,Linecode=BT518_BT518_7_2_1_2,Length=0.000500000,Units=km
new line.SBT_1029827 bus1=437327.1.0,bus2=4539509.1.0,Phases=1,Linecode=BT811_BT811_4_1_3_1,Length=0.104262000,Units=km
new line.SBT_1029862 bus1=437334.1.2.0,bus2=437341.1.2.0,Phases=2,Linecode=BT518_BT518_7_2_1_2,Length=0.000500000,Units=km
new line.SBT_1030023 bus1=437418.1.2.0,bus2=437425.1.2.0,Phases=2,Linecode=BT508_BT508_7_2_1_2,Length=0.000500000,Units=km
new line.SBT_1030030 bus1=437425.1.2.0,bus2=5330649.1.2.0,Phases=2,Linecode=BT814_BT814_4_2_3_2,Length=0.029993000,Units=km
new line.SBT_1030051 bus1=437432.1.2.0,bus2=437439.1.2.0,Phases=2,Linecode=BT518_BT518_7_2_1_2,Length=0.000500000,Units=km
new line.SBT_1030058 bus1=437446.1.2.0,bus2=437453.1.2.0,Phases=2,Linecode=BT518_BT518_7_2_1_2,Length=0.000500000,Units=km
new line.SBT_1030072 bus1=437460.1.2.0,bus2=437467.1.2.0,Phases=2,Linecode=BT518_BT518_7_2_1_2,Length=0.000500000,Units=km
new line.SBT_1030086 bus1=437474.1.2.0,bus2=437481.1.2.0,Phases=2,Linecode=BT518_BT518_7_2_1_2,Length=0.000500000,Units=km
new line.SBT_1030121 bus1=437488.1.2.0,bus2=437495.1.2.0,Phases=2,Linecode=BT518_BT518_7_2_1_2,Length=0.000500000,Units=km
new line.SBT_1030142 bus1=437502.1.2.0,bus2=437509.1.2.0,Phases=2,Linecode=BT518_BT518_7_2_1_2,Length=0.000500000,Units=km
new line.SBT_1030163 bus1=437516.1.2.0,bus2=437523.1.2.0,Phases=2,Linecode=BT518_BT518_7_2_1_2,Length=0.000500000,Units=km
new line.SBT_1030198 bus1=437544.1.2.0,bus2=437551.1.2.0,Phases=2,Linecode=BT518_BT518_7_2_1_2,Length=0.000500000,Units=km
new line.SBT_1030247 bus1=437558.1.2.0,bus2=437565.1.2.0,Phases=2,Linecode=BT518_BT518_7_2_1_2,Length=0.000500000,Units=km
new line.SBT_1030261 bus1=437572.1.2.0,bus2=437579.1.2.0,Phases=2,Linecode=BT518_BT518_7_2_1_2,Length=0.000500000,Units=km
new line.SBT_1030282 bus1=437586.1.2.0,bus2=437593.1.2.0,Phases=2,Linecode=BT518_BT518_7_2_1_2,Length=0.000500000,Units=km
new line.SBT_1030331 bus1=437600.1.2.0,bus2=437607.1.2.0,Phases=2,Linecode=BT508_BT508_7_2_1_2,Length=0.000500000,Units=km
new line.SBT_10618973 bus1=2806295.1.2.3.0,bus2=2806302.1.2.3.0,Phases=3,Linecode=BT803_BT803_4_3_4_3,Length=0.037982000,Units=km
new line.SBT_10619008 bus1=2806288.1.2.3.0,bus2=2806295.1.2.3.0,Phases=3,Linecode=BT803_BT803_4_3_4_3,Length=0.031974000,Units=km
new line.SBT_10619029 bus1=2806281.1.2.3.0,bus2=2806288.1.2.3.0,Phases=3,Linecode=BT803_BT803_4_3_4_3,Length=0.034971000,Units=km
new line.SBT_10619050 bus1=2806218.1.2.3.0,bus2=2806225.1.2.3.0,Phases=3,Linecode=BT518_BT518_7_3_1_3,Length=0.000500000,Units=km
new line.SBT_10619057 bus1=2806225.1.2.3.0,bus2=2806323.1.2.3.0,Phases=3,Linecode=BT803_BT803_4_3_4_3,Length=0.031990000,Units=km
new line.SBT_10619064 bus1=2806225.1.2.3.0,bus2=10856638.1.2.3.0,Phases=3,Linecode=BT803_BT803_4_3_4_3,Length=0.004996000,Units=km
new line.SBT_10619106 bus1=2806316.1.2.3.0,bus2=10772638.1.2.3.0,Phases=3,Linecode=BT803_BT803_4_3_4_3,Length=0.045973000,Units=km
new line.SBT_10619127 bus1=2806323.1.2.3.0,bus2=2806344.1.2.3.0,Phases=3,Linecode=BT803_BT803_4_3_4_3,Length=0.033972000,Units=km
new line.SBT_10619148 bus1=2806344.1.2.3.0,bus2=2806351.1.2.3.0,Phases=3,Linecode=BT803_BT803_4_3_4_3,Length=0.035971000,Units=km
new line.SBT_10619169 bus1=2806351.1.2.3.0,bus2=2806358.1.2.3.0,Phases=3,Linecode=BT803_BT803_4_3_4_3,Length=0.033987000,Units=km
new line.SBT_10619407 bus1=2806358.1.2.3.0,bus2=3228675.1.2.3.0,Phases=3,Linecode=BT810_BT810_4_3_4_3,Length=0.034986000,Units=km
new line.SBT_10778538 bus1=2830872.1.2.0,bus2=2830879.1.2.0,Phases=2,Linecode=BT518_BT518_7_2_1_2,Length=0.000500000,Units=km
new line.SBT_1004270 bus1=425070.1.2.0,bus2=425077.1.2.0,Phases=2,Linecode=BT518_BT518_7_2_1_2,Length=0.000500000,Units=km
new line.SBT_1004347 bus1=425112.1.2.0,bus2=425119.1.2.0,Phases=2,Linecode=BT518_BT518_7_2_1_2,Length=0.000500000,Units=km
new line.SBT_1004382 bus1=425140.1.2.0,bus2=425147.1.2.0,Phases=2,Linecode=BT513_BT513_7_2_1_2,Length=0.000500000,Units=km
new line.SBT_1004550 bus1=425224.1.2.0,bus2=425231.1.2.0,Phases=2,Linecode=BT508_BT508_7_2_1_2,Length=0.000500000,Units=km
new line.SBT_1004585 bus1=425238.1.2.0,bus2=425245.1.2.0,Phases=2,Linecode=BT508_BT508_7_2_1_2,Length=0.000500000,Units=km
new line.SBT_1004662 bus1=425280.1.2.0,bus2=425287.1.2.0,Phases=2,Linecode=BT518_BT518_7_2_1_2,Length=0.000500000,Units=km
new line.SBT_1016114 bus1=430502.1.2.0,bus2=430509.1.2.0,Phases=2,Linecode=BT518_BT518_7_2_1_2,Length=0.000500000,Units=km
new line.SBT_1016121 bus1=430509.1.2.0,bus2=3913562.1.2.0,Phases=2,Linecode=BT811_BT811_4_2_3_2,Length=0.094275000,Units=km
new line.SBT_1018298 bus1=431384.1.2.0,bus2=431391.1.2.0,Phases=2,Linecode=BT508_BT508_7_2_1_2,Length=0.000500000,Units=km
new line.SBT_10654736 bus1=2811440.1.2.0,bus2=2811447.1.2.0,Phases=2,Linecode=BT518_BT518_7_2_1_2,Length=0.000500000,Units=km
new line.SBT_10654806 bus1=2811454.1.2.0,bus2=2811461.1.2.0,Phases=2,Linecode=BT518_BT518_7_2_1_2,Length=0.000500000,Units=km
new line.SBT_10660770 bus1=2845327.1.2.0,bus2=2845334.1.2.0,Phases=2,Linecode=BT518_BT518_7_2_1_2,Length=0.000500000,Units=km
new line.SBT_10660777 bus1=2845334.1.2.0,bus2=3115240.1.2.0,Phases=2,Linecode=BT814_BT814_4_2_3_2,Length=0.068218000,Units=km
new line.SBT_10661190 bus1=2845369.1.2.0,bus2=2845376.1.2.0,Phases=2,Linecode=BT518_BT518_7_2_1_2,Length=0.000500000,Units=km
new line.SBT_10661316 bus1=3026102.1.2.0,bus2=3026109.1.2.0,Phases=2,Linecode=BT801_BT801_4_2_3_2,Length=0.097915000,Units=km
new line.SBT_10661337 bus1=2845397.1.2.0,bus2=2845404.1.2.0,Phases=2,Linecode=BT518_BT518_7_2_1_2,Length=0.000500000,Units=km
new line.SBT_10663192 bus1=2845446.1.2.0,bus2=2845453.1.2.0,Phases=2,Linecode=BT518_BT518_7_2_1_2,Length=0.000500000,Units=km
new line.SBT_10663493 bus1=2845474.1.2.0,bus2=2845481.1.2.0,Phases=2,Linecode=BT518_BT518_7_2_1_2,Length=0.000500000,Units=km
new line.SBT_10663661 bus1=3115856.1.2.0,bus2=3115863.1.2.0,Phases=2,Linecode=BT518_BT518_7_2_1_2,Length=0.000500000,Units=km
new line.SBT_10663738 bus1=2845516.1.2.0,bus2=2845523.1.2.0,Phases=2,Linecode=BT518_BT518_7_2_1_2,Length=0.000500000,Units=km
new line.SBT_10663801 bus1=2845551.1.2.0,bus2=2845558.1.2.0,Phases=2,Linecode=BT518_BT518_7_2_1_2,Length=0.000500000,Units=km
new line.SBT_10663948 bus1=2845565.1.2.0,bus2=2845572.1.2.0,Phases=2,Linecode=BT518_BT518_7_2_1_2,Length=0.000500000,Units=km
new line.SBT_10664102 bus1=2845579.1.2.0,bus2=2845586.1.2.0,Phases=2,Linecode=BT518_BT518_7_2_1_2,Length=0.000500000,Units=km
new line.SBT_10664214 bus1=2836528.1.2.0,bus2=2836535.1.2.0,Phases=2,Linecode=BT518_BT518_7_2_1_2,Length=0.000500000,Units=km
new line.SBT_10664263 bus1=2836542.1.2.0,bus2=2836549.1.2.0,Phases=2,Linecode=BT518_BT518_7_2_1_2,Length=0.000500000,Units=km
new line.SBT_10664284 bus1=2836577.1.2.0,bus2=2836584.1.2.0,Phases=2,Linecode=BT518_BT518_7_2_1_2,Length=0.000500000,Units=km
new line.SBT_10664711 bus1=2836605.1.2.0,bus2=2836612.1.2.0,Phases=2,Linecode=BT518_BT518_7_2_1_2,Length=0.000500000,Units=km
new line.SBT_10664830 bus1=2836633.1.2.0,bus2=2836640.1.2.0,Phases=2,Linecode=BT518_BT518_7_2_1_2,Length=0.000500000,Units=km
new line.SBT_10664879 bus1=2845607.1.2.0,bus2=2845614.1.2.0,Phases=2,Linecode=BT513_BT509_7_2_1_2,Length=0.000500000,Units=km
new line.SBT_10665208 bus1=2845670.1.2.0,bus2=2845677.1.2.0,Phases=2,Linecode=BT518_BT518_7_2_1_2,Length=0.000500000,Units=km
new line.SBT_10666167 bus1=2836752.1.2.0,bus2=2836759.1.2.0,Phases=2,Linecode=BT518_BT518_7_2_1_2,Length=0.000500000,Units=km
new line.SBT_10666258 bus1=2836780.1.2.0,bus2=2836787.1.2.0,Phases=2,Linecode=BT518_BT518_7_2_1_2,Length=0.000500000,Units=km
new line.SBT_10666356 bus1=1903239.1.2.0,bus2=2823060.1.2.0,Phases=2,Linecode=BT518_BT518_7_2_1_2,Length=0.000500000,Units=km
new line.SBT_10666426 bus1=2836815.1.2.0,bus2=2836822.1.2.0,Phases=2,Linecode=BT518_BT518_7_2_1_2,Length=0.000500000,Units=km
new line.SBT_10666734 bus1=2836843.1.2.0,bus2=2836850.1.2.0,Phases=2,Linecode=BT518_BT518_7_2_1_2,Length=0.000500000,Units=km
new line.SBT_10672229 bus1=2845131.1.2.0,bus2=2845138.1.2.0,Phases=2,Linecode=BT518_BT518_7_2_1_2,Length=0.000500000,Units=km
new line.SBT_10672425 bus1=2845145.1.2.0,bus2=2845152.1.2.0,Phases=2,Linecode=BT518_BT518_7_2_1_2,Length=0.000500000,Units=km
new line.SBT_10672551 bus1=3566194.1.2.0,bus2=3566201.1.2.0,Phases=2,Linecode=BT808_BT808_4_2_3_2,Length=0.065711000,Units=km
new line.SBT_10672656 bus1=2845173.1.2.0,bus2=2845180.1.2.0,Phases=2,Linecode=BT518_BT518_7_2_1_2,Length=0.000500000,Units=km
new line.SBT_10672873 bus1=2835646.1.2.3.0,bus2=2835653.1.2.3.0,Phases=3,Linecode=BT514_BT514_7_3_1_3,Length=0.000500000,Units=km
new line.SBT_10839613 bus1=2848267.1.2.3.0,bus2=2848281.1.2.3.0,Phases=3,Linecode=BT810_BT810_4_3_4_3,Length=0.019092000,Units=km
new line.SBT_10839620 bus1=2848267.1.2.3.0,bus2=2848274.1.2.3.0,Phases=3,Linecode=BT810_BT810_4_3_4_3,Length=0.046657000,Units=km
new line.SBT_10839662 bus1=2848260.1.2.3.0,bus2=2848267.1.2.3.0,Phases=3,Linecode=BT810_BT810_4_3_4_3,Length=0.031868000,Units=km
new line.SBT_10839669 bus1=2848260.1.2.0,bus2=3825229.1.2.0,Phases=2,Linecode=BT808_BT808_4_2_3_2,Length=0.045421000,Units=km
new line.SBT_10839683 bus1=2848246.1.2.3.0,bus2=2848260.1.2.3.0,Phases=3,Linecode=BT810_BT810_4_3_4_3,Length=0.038261000,Units=km
new line.SBT_10839690 bus1=2848246.1.2.3.0,bus2=2906269.1.2.3.0,Phases=3,Linecode=BT803_BT803_4_3_4_3,Length=0.034631000,Units=km
new line.SBT_10839697 bus1=2848246.1.2.0,bus2=5297154.1.2.0,Phases=2,Linecode=BT808_BT808_4_2_3_2,Length=0.044173000,Units=km
new line.SBT_10839718 bus1=2848239.1.2.3.0,bus2=2848246.1.2.3.0,Phases=3,Linecode=BT803_BT803_4_3_4_3,Length=0.024066000,Units=km
new line.SBT_10839725 bus1=2848239.1.2.3.0,bus2=2848253.1.2.3.0,Phases=3,Linecode=BT810_BT810_4_3_4_3,Length=0.035443000,Units=km
new line.SBT_10839760 bus1=2848176.1.2.3.0,bus2=2848239.1.2.3.0,Phases=3,Linecode=BT803_BT803_4_3_4_3,Length=0.015610000,Units=km
new line.SBT_10839767 bus1=2848169.1.2.3.0,bus2=2848176.1.2.3.0,Phases=3,Linecode=BT513_BT513_7_3_1_3,Length=0.000500000,Units=km
new line.SBT_10839774 bus1=2848176.1.2.3.0,bus2=2848288.1.2.3.0,Phases=3,Linecode=BT803_BT803_4_3_4_3,Length=0.016268000,Units=km
new line.SBT_10839851 bus1=2848288.1.2.3.0,bus2=2848295.1.2.3.0,Phases=3,Linecode=BT803_BT803_4_3_4_3,Length=0.015610000,Units=km
new line.SBT_10839858 bus1=2848288.1.2.3.0,bus2=2848302.1.2.3.0,Phases=3,Linecode=BT803_BT803_4_3_4_3,Length=0.035443000,Units=km
new line.SBT_10839865 bus1=2848288.1.2.0,bus2=5296608.1.2.0,Phases=2,Linecode=BT808_BT808_4_2_3_2,Length=0.033947000,Units=km
new line.SBT_10839886 bus1=2848295.1.2.3.0,bus2=2848309.1.2.3.0,Phases=3,Linecode=BT810_BT810_4_3_4_3,Length=0.034804000,Units=km
new line.SBT_10839893 bus1=2848295.1.2.3.0,bus2=2906276.1.2.3.0,Phases=3,Linecode=BT803_BT803_4_3_4_3,Length=0.024822000,Units=km
new line.SBT_10840061 bus1=2848309.1.2.0,bus2=3825271.1.2.0,Phases=2,Linecode=BT808_BT808_4_2_3_2,Length=0.045311000,Units=km
new line.SBT_1010031 bus1=427982.1.2.0,bus2=427989.1.2.0,Phases=2,Linecode=BT518_BT518_7_2_1_2,Length=0.000500000,Units=km
new line.SBT_1010612 bus1=428332.1.2.0,bus2=428339.1.2.0,Phases=2,Linecode=BT518_BT518_7_2_1_2,Length=0.000500000,Units=km
new line.SBT_1011137 bus1=428542.1.2.0,bus2=428549.1.2.0,Phases=2,Linecode=BT518_BT518_7_2_1_2,Length=0.000500000,Units=km
new line.SBT_1028777 bus1=436802.1.2.0,bus2=436809.1.2.0,Phases=2,Linecode=BT518_BT518_7_2_1_2,Length=0.000500000,Units=km
new line.SBT_1028812 bus1=436816.1.2.0,bus2=436823.1.2.0,Phases=2,Linecode=BT518_BT518_7_2_1_2,Length=0.000500000,Units=km
new line.SBT_1028826 bus1=436830.1.2.0,bus2=436837.1.2.0,Phases=2,Linecode=BT518_BT518_7_2_1_2,Length=0.000500000,Units=km
new line.SBT_1028854 bus1=436844.1.2.0,bus2=436851.1.2.0,Phases=2,Linecode=BT518_BT518_7_2_1_2,Length=0.000500000,Units=km
new line.SBT_1028882 bus1=436858.1.2.0,bus2=436865.1.2.0,Phases=2,Linecode=BT518_BT518_7_2_1_2,Length=0.000500000,Units=km
new line.SBT_1028896 bus1=436872.1.2.0,bus2=436879.1.2.0,Phases=2,Linecode=BT518_BT518_7_2_1_2,Length=0.000500000,Units=km
new line.SBT_1028931 bus1=436886.1.2.0,bus2=436893.1.2.0,Phases=2,Linecode=BT518_BT518_7_2_1_2,Length=0.000500000,Units=km
new line.SBT_1028945 bus1=436900.1.2.0,bus2=436907.1.2.0,Phases=2,Linecode=BT518_BT518_7_2_1_2,Length=0.000500000,Units=km
new line.SBT_1028994 bus1=436914.1.2.0,bus2=436921.1.2.0,Phases=2,Linecode=BT518_BT518_7_2_1_2,Length=0.000500000,Units=km
new line.SBT_1029015 bus1=436928.1.2.0,bus2=436935.1.2.0,Phases=2,Linecode=BT518_BT518_7_2_1_2,Length=0.000500000,Units=km
new line.SBT_1029043 bus1=436942.1.2.0,bus2=436949.1.2.0,Phases=2,Linecode=BT518_BT518_7_2_1_2,Length=0.000500000,Units=km
new line.SBT_1029078 bus1=436956.1.2.0,bus2=436963.1.2.0,Phases=2,Linecode=BT518_BT518_7_2_1_2,Length=0.000500000,Units=km
new line.SBT_1029106 bus1=436970.1.2.0,bus2=436977.1.2.0,Phases=2,Linecode=BT518_BT518_7_2_1_2,Length=0.000500000,Units=km
new line.SBT_1029141 bus1=436984.1.2.0,bus2=436991.1.2.0,Phases=2,Linecode=BT518_BT518_7_2_1_2,Length=0.000500000,Units=km
new line.SBT_1029155 bus1=436998.1.2.0,bus2=437005.1.2.0,Phases=2,Linecode=BT518_BT518_7_2_1_2,Length=0.000500000,Units=km
new line.SBT_1029176 bus1=437012.1.2.0,bus2=437019.1.2.0,Phases=2,Linecode=BT518_BT518_7_2_1_2,Length=0.000500000,Units=km
new line.SBT_1029211 bus1=437026.1.2.0,bus2=437033.1.2.0,Phases=2,Linecode=BT518_BT518_7_2_1_2,Length=0.000500000,Units=km
new line.SBT_1029372 bus1=437096.1.2.0,bus2=437103.1.2.0,Phases=2,Linecode=BT518_BT518_7_2_1_2,Length=0.000500000,Units=km
new line.SBT_1029393 bus1=437110.1.2.0,bus2=437117.1.2.0,Phases=2,Linecode=BT518_BT518_7_2_1_2,Length=0.000500000,Units=km
new line.SBT_1029428 bus1=437124.1.2.0,bus2=437131.1.2.0,Phases=2,Linecode=BT518_BT518_7_2_1_2,Length=0.000500000,Units=km
new line.SBT_10595320 bus1=2802263.1.2.0,bus2=2802270.1.2.0,Phases=2,Linecode=BT518_BT518_7_2_1_2,Length=0.000500000,Units=km
new line.SBT_10596237 bus1=2802298.1.2.0,bus2=2802305.1.2.0,Phases=2,Linecode=BT518_BT518_7_2_1_2,Length=0.000500000,Units=km
new line.SBT_10597301 bus1=2802354.1.2.0,bus2=2802361.1.2.0,Phases=2,Linecode=BT508_BT508_7_2_1_2,Length=0.000500000,Units=km
new line.SBT_10598386 bus1=2802417.1.2.0,bus2=2802424.1.2.0,Phases=2,Linecode=BT518_BT518_7_2_1_2,Length=0.000500000,Units=km
new line.SBT_10598561 bus1=2802501.1.2.0,bus2=2802508.1.2.0,Phases=2,Linecode=BT518_BT518_7_2_1_2,Length=0.000500000,Units=km
new line.SBT_10598757 bus1=2802557.1.2.0,bus2=2802564.1.2.0,Phases=2,Linecode=BT518_BT518_7_2_1_2,Length=0.000500000,Units=km
new line.SBT_10599009 bus1=2802606.1.2.0,bus2=2802613.1.2.0,Phases=2,Linecode=BT518_BT518_7_2_1_2,Length=0.000500000,Units=km
new line.SBT_10599072 bus1=2802641.1.2.0,bus2=2802648.1.2.0,Phases=2,Linecode=BT518_BT518_7_2_1_2,Length=0.000500000,Units=km
new line.SBT_10599408 bus1=2802676.1.2.0,bus2=2802683.1.2.0,Phases=2,Linecode=BT518_BT518_7_2_1_2,Length=0.000500000,Units=km
new line.SBT_10599478 bus1=2802711.1.2.0,bus2=2802718.1.2.0,Phases=2,Linecode=BT518_BT518_7_2_1_2,Length=0.000500000,Units=km
new line.SBT_10600472 bus1=2803089.1.2.0,bus2=2803096.1.2.0,Phases=2,Linecode=BT518_BT518_7_2_1_2,Length=0.000500000,Units=km
new line.SBT_10601732 bus1=2803369.1.2.0,bus2=2803376.1.2.0,Phases=2,Linecode=BT518_BT518_7_2_1_2,Length=0.000500000,Units=km
new line.SBT_10602187 bus1=2803460.1.2.0,bus2=2803467.1.2.0,Phases=2,Linecode=BT518_BT518_7_2_1_2,Length=0.000500000,Units=km
new line.SBT_10602649 bus1=2803523.1.2.0,bus2=2803530.1.2.0,Phases=2,Linecode=BT518_BT518_7_2_1_2,Length=0.000500000,Units=km
new line.SBT_10602754 bus1=2803537.1.2.0,bus2=2803544.1.2.0,Phases=2,Linecode=BT518_BT518_7_2_1_2,Length=0.000500000,Units=km
new line.SBT_10602831 bus1=2803621.1.2.0,bus2=2803628.1.2.0,Phases=2,Linecode=BT518_BT518_7_2_1_2,Length=0.000500000,Units=km
new line.SBT_10603384 bus1=2803593.1.2.0,bus2=2803600.1.2.0,Phases=2,Linecode=BT518_BT518_7_2_1_2,Length=0.000500000,Units=km
new line.SBT_10604504 bus1=2997150.1.2.0,bus2=2997157.1.2.0,Phases=2,Linecode=BT518_BT518_7_2_1_2,Length=0.000500000,Units=km
new line.SBT_10607087 bus1=2804293.1.2.3.0,bus2=2804300.1.2.3.0,Phases=3,Linecode=BT518_BT518_7_3_1_3,Length=0.000500000,Units=km
new line.SBT_10756502 bus1=4757832.2.0,bus2=4757839.2.0,Phases=1,Linecode=BT816_BT816_4_1_2_1,Length=0.075136000,Units=km
new line.SBT_10756649 bus1=4757727.2.0,bus2=4757832.2.0,Phases=1,Linecode=BT816_BT816_4_1_2_1,Length=0.036595000,Units=km
new line.SBT_10756684 bus1=2834218.1.0,bus2=4757734.1.0,Phases=1,Linecode=BT816_BT816_4_1_2_1,Length=0.058994000,Units=km
new line.SBT_10756691 bus1=2834218.2.0,bus2=4757727.2.0,Phases=1,Linecode=BT816_BT816_4_1_2_1,Length=0.045423000,Units=km
new line.SBT_10756698 bus1=2834211.1.2.0,bus2=2834218.1.2.0,Phases=2,Linecode=BT518_BT518_7_2_1_2,Length=0.000500000,Units=km
new line.SBT_10757167 bus1=2827197.1.2.0,bus2=2827204.1.2.0,Phases=2,Linecode=BT518_BT518_7_2_1_2,Length=0.000500000,Units=km
new line.SBT_10757328 bus1=2954352.1.2.0,bus2=2954359.1.2.0,Phases=2,Linecode=BT518_BT518_7_2_1_2,Length=0.000500000,Units=km
new line.SBT_10757601 bus1=2827225.1.2.0,bus2=2827232.1.2.0,Phases=2,Linecode=BT518_BT518_7_2_1_2,Length=0.000500000,Units=km
new line.SBT_10758623 bus1=2827442.1.2.0,bus2=2827449.1.2.0,Phases=2,Linecode=BT518_BT518_7_2_1_2,Length=0.000500000,Units=km
new line.SBT_10758679 bus1=2909657.1.2.0,bus2=2909664.1.2.0,Phases=2,Linecode=BT518_BT518_7_2_1_2,Length=0.000500000,Units=km
new line.SBT_10758728 bus1=2827484.1.2.0,bus2=2827491.1.2.0,Phases=2,Linecode=BT518_BT518_7_2_1_2,Length=0.000500000,Units=km
new line.SBT_10758735 bus1=2827491.1.2.0,bus2=5174374.1.2.0,Phases=2,Linecode=BT808_BT808_4_2_3_2,Length=0.031759000,Units=km
new line.SBT_10768290 bus1=2829171.1.2.0,bus2=2829178.1.2.0,Phases=2,Linecode=BT518_BT518_7_2_1_2,Length=0.000500000,Units=km
new line.SBT_10768311 bus1=2829185.1.2.0,bus2=2829192.1.2.0,Phases=2,Linecode=BT518_BT518_7_2_1_2,Length=0.000500000,Units=km
new line.SBT_10899239 bus1=2869232.1.2.0,bus2=2869239.1.2.0,Phases=2,Linecode=BT108_BT108_7_2_1_2,Length=0.024067000,Units=km
new line.SBT_10899302 bus1=2869211.1.2.0,bus2=2869218.1.2.0,Phases=2,Linecode=BT106_BT106_7_2_1_2,Length=0.030212000,Units=km
new line.SBT_10899386 bus1=2869204.1.2.0,bus2=2869211.1.2.0,Phases=2,Linecode=BT106_BT106_7_2_1_2,Length=0.031379000,Units=km
new line.SBT_1006538 bus1=3304786.1.2.0,bus2=3304898.1.2.0,Phases=2,Linecode=BT803_BT803_4_2_4_2,Length=0.025298000,Units=km
new line.SBT_1006559 bus1=426120.1.2.0,bus2=426127.1.2.0,Phases=2,Linecode=BT518_BT518_7_2_1_2,Length=0.000500000,Units=km
new line.SBT_1006587 bus1=426134.1.2.0,bus2=426141.1.2.0,Phases=2,Linecode=BT518_BT518_7_2_1_2,Length=0.000500000,Units=km
new line.SBT_1006643 bus1=426162.1.2.0,bus2=426169.1.2.0,Phases=2,Linecode=BT518_BT518_7_2_1_2,Length=0.000500000,Units=km
new line.SBT_1006650 bus1=426169.2.0,bus2=3922837.2.0,Phases=1,Linecode=BT811_BT811_4_1_3_1,Length=0.028138000,Units=km
new line.SBT_1006678 bus1=426176.1.2.0,bus2=426183.1.2.0,Phases=2,Linecode=BT518_BT518_7_2_1_2,Length=0.000500000,Units=km
new line.SBT_1006685 bus1=426183.1.2.0,bus2=3922788.1.2.0,Phases=2,Linecode=BT811_BT811_4_2_3_2,Length=0.028839000,Units=km
new line.SBT_1006692 bus1=426183.1.2.0,bus2=3922809.1.2.0,Phases=2,Linecode=BT811_BT811_4_2_3_2,Length=0.048880000,Units=km
new line.SBT_1023016 bus1=433820.1.2.0,bus2=433827.1.2.0,Phases=2,Linecode=BT518_BT518_7_2_1_2,Length=0.000500000,Units=km
new line.SBT_10736398 bus1=2834890.1.2.0,bus2=2834897.1.2.0,Phases=2,Linecode=BT518_BT518_7_2_1_2,Length=0.000500000,Units=km
new line.SBT_10745603 bus1=2831516.1.2.0,bus2=2831523.1.2.0,Phases=2,Linecode=BT518_BT518_7_2_1_2,Length=0.000500000,Units=km
new line.SBT_10745806 bus1=2937755.1.2.0,bus2=2937762.1.2.0,Phases=2,Linecode=BT518_BT518_7_2_1_2,Length=0.000500000,Units=km
new line.SBT_10745813 bus1=2937762.1.0,bus2=3115534.1.0,Phases=1,Linecode=BT811_BT811_4_1_3_1,Length=0.041313000,Units=km
new line.SBT_10745820 bus1=2937762.2.0,bus2=3115541.2.0,Phases=1,Linecode=BT811_BT811_4_1_3_1,Length=0.032735000,Units=km
new line.SBT_10745925 bus1=2845299.1.2.0,bus2=2845306.1.2.0,Phases=2,Linecode=BT518_BT518_7_2_1_2,Length=0.000500000,Units=km
new line.SBT_10745953 bus1=3115646.2.0,bus2=3115772.2.0,Phases=1,Linecode=BT811_BT811_4_1_3_1,Length=0.082365000,Units=km
new line.SBT_10745974 bus1=177805806.1.2.0,bus2=3115646.1.2.0,Phases=2,Linecode=BT811_BT811_4_2_3_2,Length=0.034963000,Units=km
new line.SBT_10745981 bus1=2845313.1.2.0,bus2=2845320.1.2.0,Phases=2,Linecode=BT518_BT518_7_2_1_2,Length=0.000500000,Units=km
new line.SBT_10746107 bus1=2845355.1.2.0,bus2=2845362.1.2.0,Phases=2,Linecode=BT518_BT518_7_2_1_2,Length=0.000500000,Units=km
new line.SBT_10937557 bus1=2872683.1.2.0,bus2=2872690.1.2.0,Phases=2,Linecode=BT807_BT807_4_2_3_2,Length=0.032362000,Units=km
new line.SBT_10937585 bus1=2872676.1.2.0,bus2=2872683.1.2.0,Phases=2,Linecode=BT807_BT807_4_2_3_2,Length=0.031232000,Units=km
new line.SBT_10937592 bus1=2872676.1.2.0,bus2=2872669.1.2.0,Phases=2,Linecode=BT807_BT807_4_2_3_2,Length=0.035327000,Units=km
new line.SBT_10937711 bus1=2872711.1.2.0,bus2=2872718.1.2.0,Phases=2,Linecode=BT108_BT108_7_2_1_2,Length=0.039667000,Units=km
new line.SBT_10937746 bus1=2872718.1.2.0,bus2=2872725.1.2.0,Phases=2,Linecode=BT108_BT108_7_2_1_2,Length=0.031755000,Units=km
new line.SBT_10937767 bus1=2872725.1.2.0,bus2=2872732.1.2.0,Phases=2,Linecode=BT108_BT108_7_2_1_2,Length=0.026228000,Units=km
new line.SBT_10937809 bus1=2872746.1.2.0,bus2=2872753.1.2.0,Phases=2,Linecode=BT803_BT803_4_2_4_2,Length=0.035313000,Units=km
new line.SBT_10937837 bus1=2872739.1.2.0,bus2=2872746.1.2.0,Phases=2,Linecode=BT803_BT803_4_2_4_2,Length=0.033589000,Units=km
new line.SBT_10937858 bus1=2872760.1.2.0,bus2=2872767.1.2.0,Phases=2,Linecode=BT803_BT803_4_2_4_2,Length=0.037706000,Units=km
new line.SBT_10937879 bus1=2872767.1.2.0,bus2=2872774.1.2.0,Phases=2,Linecode=BT803_BT803_4_2_4_2,Length=0.034454000,Units=km
new line.SBT_10937900 bus1=2872774.1.2.0,bus2=2872781.1.2.0,Phases=2,Linecode=BT803_BT803_4_2_4_2,Length=0.033260000,Units=km
new line.SBT_10937921 bus1=2872781.1.2.0,bus2=2872788.1.2.0,Phases=2,Linecode=BT803_BT803_4_2_4_2,Length=0.034958000,Units=km
new line.SBT_10937942 bus1=2872788.1.2.0,bus2=2872795.1.2.0,Phases=2,Linecode=BT803_BT803_4_2_4_2,Length=0.034105000,Units=km
new line.SBT_10937949 bus1=2872788.1.2.0,bus2=6011882.1.2.0,Phases=2,Linecode=BT808_BT808_4_2_3_2,Length=0.038179000,Units=km
new line.SBT_10937984 bus1=2872662.1.2.0,bus2=154913755.1.2.0,Phases=2,Linecode=BT807_BT807_4_2_3_2,Length=0.032223000,Units=km
new line.SBT_10937998 bus1=2872662.1.2.0,bus2=2872802.1.2.0,Phases=2,Linecode=BT807_BT807_4_2_3_2,Length=0.038440000,Units=km
new line.SBT_10938019 bus1=149348537.1.2.0,bus2=2872620.1.2.0,Phases=2,Linecode=BT807_BT807_4_2_3_2,Length=0.003997000,Units=km
new line.SBT_10938047 bus1=2872627.1.2.0,bus2=2872634.1.2.0,Phases=2,Linecode=BT801_BT801_4_2_3_2,Length=0.036110000,Units=km
new line.SBT_10938075 bus1=2872634.1.2.0,bus2=2872641.1.2.0,Phases=2,Linecode=BT801_BT801_4_2_3_2,Length=0.038297000,Units=km
new line.SBT_10938103 bus1=2872578.1.2.0,bus2=2872585.1.2.0,Phases=2,Linecode=BT106_BT106_7_2_1_2,Length=0.035143000,Units=km
new line.SBT_10938138 bus1=2872592.1.2.0,bus2=2872599.1.2.0,Phases=2,Linecode=BT106_BT106_7_2_1_2,Length=0.031024000,Units=km
new line.SBT_10938152 bus1=2872585.1.2.0,bus2=2872592.1.2.0,Phases=2,Linecode=BT106_BT106_7_2_1_2,Length=0.032959000,Units=km
new line.SBT_10938173 bus1=2872599.1.2.0,bus2=2872606.1.2.0,Phases=2,Linecode=BT106_BT106_7_2_1_2,Length=0.032959000,Units=km
new line.SBT_10938229 bus1=2872473.1.2.3.0,bus2=2872480.1.2.3.0,Phases=3,Linecode=BT107_BT107_7_3_1_3,Length=0.029404000,Units=km
new line.SBT_10938257 bus1=2872466.1.2.3.0,bus2=2872473.1.2.3.0,Phases=3,Linecode=BT107_BT107_7_3_1_3,Length=0.020599000,Units=km
new line.SBT_10938278 bus1=2872459.1.2.3.0,bus2=2872466.1.2.3.0,Phases=3,Linecode=BT107_BT107_7_3_1_3,Length=0.027181000,Units=km
new line.SBT_10938299 bus1=2872452.1.2.3.0,bus2=2872459.1.2.3.0,Phases=3,Linecode=BT107_BT107_7_3_1_3,Length=0.023069000,Units=km
new line.SBT_10938320 bus1=2872445.1.2.3.0,bus2=2872452.1.2.3.0,Phases=3,Linecode=BT107_BT107_7_3_1_3,Length=0.024147000,Units=km
new line.SBT_10938341 bus1=2872410.1.2.3.0,bus2=2872445.1.2.3.0,Phases=3,Linecode=BT107_BT107_7_3_1_3,Length=0.023688000,Units=km
new line.SBT_10938348 bus1=2872410.1.2.3.0,bus2=2872417.1.2.3.0,Phases=3,Linecode=BT108_BT108_7_3_1_3,Length=0.032254000,Units=km
new line.SBT_10938369 bus1=2872396.1.2.3.0,bus2=2872487.1.2.3.0,Phases=3,Linecode=BT107_BT107_7_3_1_3,Length=0.032670000,Units=km
new line.SBT_10938376 bus1=2872396.1.2.3.0,bus2=2872403.1.2.3.0,Phases=3,Linecode=BT107_BT107_7_3_1_3,Length=0.026380000,Units=km
new line.SBT_10938397 bus1=2872417.1.2.3.0,bus2=2872424.1.2.3.0,Phases=3,Linecode=BT108_BT108_7_3_1_3,Length=0.025787000,Units=km
new line.SBT_10938418 bus1=2872424.1.2.3.0,bus2=2872438.1.2.3.0,Phases=3,Linecode=BT107_BT107_7_3_1_3,Length=0.028822000,Units=km
new line.SBT_10938425 bus1=2872424.1.2.3.0,bus2=2872431.1.2.3.0,Phases=3,Linecode=BT108_BT108_7_3_1_3,Length=0.031376000,Units=km
new line.SBT_10938488 bus1=2872648.1.2.0,bus2=2872655.1.2.0,Phases=2,Linecode=BT807_BT807_4_2_3_2,Length=0.047480000,Units=km
new line.SBT_10938523 bus1=2872263.1.2.3.0,bus2=2872270.1.2.3.0,Phases=3,Linecode=BT810_BT810_4_3_4_3,Length=0.028049000,Units=km
new line.SBT_10938558 bus1=2872235.1.2.3.0,bus2=2872242.1.2.3.0,Phases=3,Linecode=BT810_BT810_4_3_4_3,Length=0.027763000,Units=km
new line.SBT_10938586 bus1=2872242.1.2.3.0,bus2=2872263.1.2.3.0,Phases=3,Linecode=BT810_BT810_4_3_4_3,Length=0.024679000,Units=km
new line.SBT_10899400 bus1=2869120.1.2.0,bus2=2869204.1.2.0,Phases=2,Linecode=BT106_BT106_7_2_1_2,Length=0.031994000,Units=km
new line.SBT_10899442 bus1=2869113.1.2.0,bus2=2869120.1.2.0,Phases=2,Linecode=BT108_BT107_7_2_1_2,Length=0.029391000,Units=km
new line.SBT_10899477 bus1=2869148.1.2.0,bus2=2869155.1.2.0,Phases=2,Linecode=BT108_BT107_7_2_1_2,Length=0.028265000,Units=km
new line.SBT_10899498 bus1=2869155.1.2.0,bus2=2869162.1.2.0,Phases=2,Linecode=BT106_BT106_7_2_1_2,Length=0.027567000,Units=km