new load.3009005575M1 bus1=BMT100427651.1.2.3.0,Phases=3,kv=13.800000000,kW=75.8062,pf=0.92,Vminpu=0.93,Vmaxpu=1.5,model=1,daily=MT3_1,status=variable
new load.3009005580M1 bus1=BMT166151870.1.2.3.0,Phases=3,kv=13.800000000,kW=18.89598,pf=0.92,Vminpu=0.93,Vmaxpu=1.5,model=1,daily=MT3_1,status=variable
new load.3009005582M1 bus1=BMT166152013.1.2.3.0,Phases=3,kv=13.800000000,kW=103.06422,pf=0.92,Vminpu=0.93,Vmaxpu=1.5,model=1,daily=MT4_1,status=variable
new load.3009005584M1 bus1=BMT100425873.1.2.3.0,Phases=3,kv=13.800000000,kW=28.67742,pf=0.92,Vminpu=0.93,Vmaxpu=1.5,model=1,daily=MT3_1,status=variable
new load.3009005585M1 bus1=BMT176953154.1.2.3.0,Phases=3,kv=13.800000000,kW=53.19444,pf=0.92,Vminpu=0.93,Vmaxpu=1.5,model=1,daily=MT4_1,status=variable
new load.3009005587M1 bus1=BMT178548672.1.2.3.0,Phases=3,kv=13.800000000,kW=121.21128,pf=0.92,Vminpu=0.93,Vmaxpu=1.5,model=1,daily=MT4_1,status=variable
new load.3009007862M1 bus1=BMT174722054.1.2.3.0,Phases=3,kv=13.800000000,kW=70.69318,pf=0.92,Vminpu=0.93,Vmaxpu=1.5,model=1,daily=MT3_1,status=variable
new load.3009011631M1 bus1=BMT172669318.1.2.3.0,Phases=3,kv=13.800000000,kW=38.21444,pf=0.92,Vminpu=0.93,Vmaxpu=1.5,model=1,daily=MT1_1,status=variable
new load.3009012741M1 bus1=BMT100380674.1.2.3.0,Phases=3,kv=13.800000000,kW=17.25514,pf=0.92,Vminpu=0.93,Vmaxpu=1.5,model=1,daily=MT5_1,status=variable
new load.3009017723M1 bus1=BMT100413028.1.2.3.0,Phases=3,kv=13.800000000,kW=16.44672,pf=0.92,Vminpu=0.93,Vmaxpu=1.5,model=1,daily=MT1_1,status=variable
new load.3009017871M1 bus1=BMT176997085.1.2.3.0,Phases=3,kv=13.800000000,kW=312.4505,pf=0.92,Vminpu=0.93,Vmaxpu=1.5,model=1,daily=MT3_1,status=variable
new load.3009018356M1 bus1=BMT158598970.1.2.3.0,Phases=3,kv=13.800000000,kW=0.7256,pf=0.92,Vminpu=0.93,Vmaxpu=1.5,model=1,daily=MT1_1,status=variable
new load.3009021915M1 bus1=BMT100426657.1.2.3.0,Phases=3,kv=13.800000000,kW=45.79496,pf=0.92,Vminpu=0.93,Vmaxpu=1.5,model=1,daily=MT3_1,status=variable
new load.3009022287M1 bus1=BMT168868140.1.2.3.0,Phases=3,kv=13.800000000,kW=16.93044,pf=0.92,Vminpu=0.93,Vmaxpu=1.5,model=1,daily=MT1_1,status=variable
new load.3010001983M1 bus1=BMT166151822.1.2.3.0,Phases=3,kv=13.800000000,kW=40.23732,pf=0.92,Vminpu=0.93,Vmaxpu=1.5,model=1,daily=MT3_1,status=variable
new load.3010358880M1 bus1=BMT100384587.1.2.3.0,Phases=3,kv=13.800000000,kW=35.12428,pf=0.92,Vminpu=0.93,Vmaxpu=1.5,model=1,daily=MT3_1,status=variable
new load.3011088899M1 bus1=BMT100372288.1.2.3.0,Phases=3,kv=13.800000000,kW=23.5644,pf=0.92,Vminpu=0.93,Vmaxpu=1.5,model=1,daily=MT3_1,status=variable
new load.3011901375M1 bus1=BMT149695962.1.2.3.0,Phases=3,kv=13.800000000,kW=56.41798,pf=0.92,Vminpu=0.93,Vmaxpu=1.5,model=1,daily=MT2_1,status=variable
new load.3012174225M1 bus1=BMT174722068.1.2.3.0,Phases=3,kv=13.800000000,kW=0.23656,pf=0.92,Vminpu=0.93,Vmaxpu=1.5,model=1,daily=MT2_1,status=variable
new load.3012383949M1 bus1=BMT150924281.1.2.3.0,Phases=3,kv=13.800000000,kW=6.97832,pf=0.92,Vminpu=0.93,Vmaxpu=1.5,model=1,daily=MT2_1,status=variable
new load.3012940332M1 bus1=BMT156642104.1.2.3.0,Phases=3,kv=13.800000000,kW=14.90286,pf=0.92,Vminpu=0.93,Vmaxpu=1.5,model=1,daily=MT2_1,status=variable
new load.3014529787M1 bus1=BMT181083548.1.2.3.0,Phases=3,kv=13.800000000,kW=40.07058,pf=0.92,Vminpu=0.93,Vmaxpu=1.5,model=1,daily=MT3_1,status=variable
