new loadshape.c3009005575 npts=24,interval=1.0,mult=[0.0001,0.0001,0.0001,0.0001,0.0001,0.0001,0.17,0.47,0.7,0.9,1,1,0.93,0.8,0.53,0.33,0.2,0.13,0.0001,0.0001,0.0001,0.0001,0.0001,0.0001]
new generator.3009005575 bus1=BMT100427651.1.2.3,Phases=3,kv=13.800000000,kW=23.42764,pf=1,model=1,daily=c3009005575,status=Variable
new loadshape.c3009005580 npts=24,interval=1.0,mult=[0.0001,0.0001,0.0001,0.0001,0.0001,0.0001,0.17,0.47,0.7,0.9,1,1,0.93,0.8,0.53,0.33,0.2,0.13,0.0001,0.0001,0.0001,0.0001,0.0001,0.0001]
new generator.3009005580 bus1=BMT166151870.1.2.3,Phases=3,kv=13.800000000,kW=65.95783,pf=1,model=1,daily=c3009005580,status=Variable
new loadshape.c3009011631 npts=24,interval=1.0,mult=[0.0001,0.0001,0.0001,0.0001,0.0001,0.0001,0.17,0.47,0.7,0.9,1,1,0.93,0.8,0.53,0.33,0.2,0.13,0.0001,0.0001,0.0001,0.0001,0.0001,0.0001]
new generator.3009011631 bus1=BMT172669318.1.2.3,Phases=3,kv=13.800000000,kW=49.73869,pf=1,model=1,daily=c3009011631,status=Variable
new loadshape.c3011088899 npts=24,interval=1.0,mult=[0.0001,0.0001,0.0001,0.0001,0.0001,0.0001,0.17,0.47,0.7,0.9,1,1,0.93,0.8,0.53,0.33,0.2,0.13,0.0001,0.0001,0.0001,0.0001,0.0001,0.0001]
new generator.3011088899 bus1=BMT100372288.1.2.3,Phases=3,kv=13.800000000,kW=47.93657,pf=1,model=1,daily=c3011088899,status=Variable
new loadshape.c3012383949 npts=24,interval=1.0,mult=[0.0001,0.0001,0.0001,0.0001,0.0001,0.0001,0.17,0.47,0.7,0.9,1,1,0.93,0.8,0.53,0.33,0.2,0.13,0.0001,0.0001,0.0001,0.0001,0.0001,0.0001]
new generator.3012383949 bus1=BMT150924281.1.2.3,Phases=3,kv=13.800000000,kW=37.66444,pf=1,model=1,daily=c3012383949,status=Variable
