new load.3009000218M1 bus1=BMT103329627.1.2.3,Phases=3,kv=13.8,kW=47.4424,pf=0.92,Vminpu=0.93,Vmaxpu=1.5,model=8,zipv=[0.5,0,0.5,1,0,0,0],daily=A4-2,status=variable
new load.3009003915M1 bus1=BMT170847450.1.2.3,Phases=3,kv=13.8,kW=5.87168,pf=0.92,Vminpu=0.93,Vmaxpu=1.5,model=8,zipv=[0.5,0,0.5,1,0,0,0],daily=A4-4,status=variable
new load.3009003925M1 bus1=BMT103316999.1.2.3,Phases=3,kv=13.8,kW=30.25624,pf=0.92,Vminpu=0.93,Vmaxpu=1.5,model=8,zipv=[0.5,0,0.5,1,0,0,0],daily=A4-5,status=variable
new load.3009003935M1 bus1=BMT158481000.1.2.3,Phases=3,kv=13.8,kW=88.0753,pf=0.92,Vminpu=0.93,Vmaxpu=1.5,model=8,zipv=[0.5,0,0.5,1,0,0,0],daily=A4-4,status=variable
new load.3009005616M1 bus1=BMT174910050.1.2.3,Phases=3,kv=13.8,kW=516.37202,pf=0.92,Vminpu=0.93,Vmaxpu=1.5,model=8,zipv=[0.5,0,0.5,1,0,0,0],daily=A4-6,status=variable
new load.3009009123M1 bus1=BMT154511090.1.2.3,Phases=3,kv=13.8,kW=15.16518,pf=0.92,Vminpu=0.93,Vmaxpu=1.5,model=8,zipv=[0.5,0,0.5,1,0,0,0],daily=A4-2,status=variable
new load.3009009377M1 bus1=BMT158480992.1.2.3,Phases=3,kv=13.8,kW=92.99766,pf=0.92,Vminpu=0.93,Vmaxpu=1.5,model=8,zipv=[0.5,0,0.5,1,0,0,0],daily=A4-3,status=variable
new load.3009009514M1 bus1=BMT103318413.1.2.3,Phases=3,kv=13.8,kW=31.08414,pf=0.92,Vminpu=0.93,Vmaxpu=1.5,model=8,zipv=[0.5,0,0.5,1,0,0,0],daily=A4-3,status=variable
new load.3009012320M1 bus1=BMT158481123.1.2.3,Phases=3,kv=13.8,kW=0.1966,pf=0.92,Vminpu=0.93,Vmaxpu=1.5,model=8,zipv=[0.5,0,0.5,1,0,0,0],daily=A4-1,status=variable
new load.3009012325M1 bus1=BMT103341751.1.2.3,Phases=3,kv=13.8,kW=2.17502,pf=0.92,Vminpu=0.93,Vmaxpu=1.5,model=8,zipv=[0.5,0,0.5,1,0,0,0],daily=A4-3,status=variable
new load.3009012952M1 bus1=BMT130421363.1.2.3,Phases=3,kv=13.8,kW=34.57258,pf=0.92,Vminpu=0.93,Vmaxpu=1.5,model=8,zipv=[0.5,0,0.5,1,0,0,0],daily=A4-6,status=variable
new load.3009013464M1 bus1=BMT159292744.1.2.3,Phases=3,kv=13.8,kW=3.01448,pf=0.92,Vminpu=0.93,Vmaxpu=1.5,model=8,zipv=[0.5,0,0.5,1,0,0,0],daily=A4-1,status=variable
new load.3009013504M1 bus1=BMT103385081.1.2.3,Phases=3,kv=13.8,kW=21.8745,pf=0.92,Vminpu=0.93,Vmaxpu=1.5,model=8,zipv=[0.5,0,0.5,1,0,0,0],daily=A4-3,status=variable
new load.3009013505M1 bus1=BMT103316159.1.2.3,Phases=3,kv=13.8,kW=5.27138,pf=0.92,Vminpu=0.93,Vmaxpu=1.5,model=8,zipv=[0.5,0,0.5,1,0,0,0],daily=A4-2,status=variable
new load.3009013843M1 bus1=BMT158481174.1.2.3,Phases=3,kv=13.8,kW=11.53368,pf=0.92,Vminpu=0.93,Vmaxpu=1.5,model=8,zipv=[0.5,0,0.5,1,0,0,0],daily=A4-1,status=variable
new load.3009013885M1 bus1=BMT158481353.1.2.3,Phases=3,kv=13.8,kW=3.4764,pf=0.92,Vminpu=0.93,Vmaxpu=1.5,model=8,zipv=[0.5,0,0.5,1,0,0,0],daily=A4-1,status=variable
new load.3009013927M1 bus1=BMT175276647.1.2.3,Phases=3,kv=13.8,kW=196.79782,pf=0.92,Vminpu=0.93,Vmaxpu=1.5,model=8,zipv=[0.5,0,0.5,1,0,0,0],daily=A4-6,status=variable
new load.3009013928M1 bus1=BMT150826243.1.2.3,Phases=3,kv=13.8,kW=38.86644,pf=0.92,Vminpu=0.93,Vmaxpu=1.5,model=8,zipv=[0.5,0,0.5,1,0,0,0],daily=A4-2,status=variable
new load.3009013929M1 bus1=BMT159292921.1.2.3,Phases=3,kv=13.8,kW=17.43542,pf=0.92,Vminpu=0.93,Vmaxpu=1.5,model=8,zipv=[0.5,0,0.5,1,0,0,0],daily=A4-2,status=variable
new load.3009014014M1 bus1=BMT103328234.1.2.3,Phases=3,kv=13.8,kW=1.24512,pf=0.92,Vminpu=0.93,Vmaxpu=1.5,model=8,zipv=[0.5,0,0.5,1,0,0,0],daily=A4-1,status=variable
new load.3009014017M1 bus1=BMT158495450.1.2.3,Phases=3,kv=13.8,kW=348.31578,pf=0.92,Vminpu=0.93,Vmaxpu=1.5,model=8,zipv=[0.5,0,0.5,1,0,0,0],daily=A4-5,status=variable
new load.3009014107M1 bus1=BMT103385032.1.2.3,Phases=3,kv=13.8,kW=27.00754,pf=0.92,Vminpu=0.93,Vmaxpu=1.5,model=8,zipv=[0.5,0,0.5,1,0,0,0],daily=A4-3,status=variable
new load.3009014127M1 bus1=BMT159294101.1.2.3,Phases=3,kv=13.8,kW=13.3686,pf=0.92,Vminpu=0.93,Vmaxpu=1.5,model=8,zipv=[0.5,0,0.5,1,0,0,0],daily=A4-1,status=variable
new load.3009014128M1 bus1=BMT176761507.1.2.3,Phases=3,kv=13.8,kW=167.1678,pf=0.92,Vminpu=0.93,Vmaxpu=1.5,model=8,zipv=[0.5,0,0.5,1,0,0,0],daily=A4-5,status=variable
new load.3009014489M1 bus1=BMT159292451.1.2.3,Phases=3,kv=13.8,kW=132.86788,pf=0.92,Vminpu=0.93,Vmaxpu=1.5,model=8,zipv=[0.5,0,0.5,1,0,0,0],daily=A4-4,status=variable
new load.3009015217M1 bus1=BMT159292851.1.2.3,Phases=3,kv=13.8,kW=65.68562,pf=0.92,Vminpu=0.93,Vmaxpu=1.5,model=8,zipv=[0.5,0,0.5,1,0,0,0],daily=A4-3,status=variable
new load.3009016021M1 bus1=BMT175041154.1.2.3,Phases=3,kv=13.8,kW=35.77892,pf=0.92,Vminpu=0.93,Vmaxpu=1.5,model=8,zipv=[0.5,0,0.5,1,0,0,0],daily=A4-2,status=variable
new load.3009016257M1 bus1=BMT170582664.1.2.3,Phases=3,kv=13.8,kW=31.89406,pf=0.92,Vminpu=0.93,Vmaxpu=1.5,model=8,zipv=[0.5,0,0.5,1,0,0,0],daily=A4-2,status=variable
new load.3009017448M1 bus1=BMT103318672.1.2.3,Phases=3,kv=13.8,kW=42.63454,pf=0.92,Vminpu=0.93,Vmaxpu=1.5,model=8,zipv=[0.5,0,0.5,1,0,0,0],daily=A4-3,status=variable
new load.3009017980M1 bus1=BMT158481287.1.2.3,Phases=3,kv=13.8,kW=34.96164,pf=0.92,Vminpu=0.93,Vmaxpu=1.5,model=8,zipv=[0.5,0,0.5,1,0,0,0],daily=A4-2,status=variable
new load.3009017994M1 bus1=BMT159292280.1.2.3,Phases=3,kv=13.8,kW=24.70018,pf=0.92,Vminpu=0.93,Vmaxpu=1.5,model=8,zipv=[0.5,0,0.5,1,0,0,0],daily=A4-2,status=variable
new load.3009019515M1 bus1=BMT158480996.1.2.3,Phases=3,kv=13.8,kW=22.33912,pf=0.92,Vminpu=0.93,Vmaxpu=1.5,model=8,zipv=[0.5,0,0.5,1,0,0,0],daily=A4-2,status=variable
new load.3009019518M1 bus1=BMT158495614.1.2.3,Phases=3,kv=13.8,kW=134.81392,pf=0.92,Vminpu=0.93,Vmaxpu=1.5,model=8,zipv=[0.5,0,0.5,1,0,0,0],daily=A4-4,status=variable
new load.3009019723M1 bus1=BMT158481289.1.2.3,Phases=3,kv=13.8,kW=14.16628,pf=0.92,Vminpu=0.93,Vmaxpu=1.5,model=8,zipv=[0.5,0,0.5,1,0,0,0],daily=A4-2,status=variable
new load.3009020284M1 bus1=BMT103321458.1.2.3,Phases=3,kv=13.8,kW=2.80582,pf=0.92,Vminpu=0.93,Vmaxpu=1.5,model=8,zipv=[0.5,0,0.5,1,0,0,0],daily=A4-4,status=variable
new load.3009020561M1 bus1=BMT103328535.1.2.3,Phases=3,kv=13.8,kW=7.33962,pf=0.92,Vminpu=0.93,Vmaxpu=1.5,model=8,zipv=[0.5,0,0.5,1,0,0,0],daily=A4-1,status=variable
new load.3009022235M1 bus1=BMT103331657.1.2.3,Phases=3,kv=13.8,kW=41.78524,pf=0.92,Vminpu=0.93,Vmaxpu=1.5,model=8,zipv=[0.5,0,0.5,1,0,0,0],daily=A4-3,status=variable
new load.3009022277M1 bus1=BMT139495764.1.2.3,Phases=3,kv=13.8,kW=37.70036,pf=0.92,Vminpu=0.93,Vmaxpu=1.5,model=8,zipv=[0.5,0,0.5,1,0,0,0],daily=A4-3,status=variable
new load.3010000528M1 bus1=BMT112735079.1.2.3,Phases=3,kv=13.8,kW=51.29734,pf=0.92,Vminpu=0.93,Vmaxpu=1.5,model=8,zipv=[0.5,0,0.5,1,0,0,0],daily=A4-3,status=variable
new load.3010001314M1 bus1=BMT103321493.1.2.3,Phases=3,kv=13.8,kW=14.71114,pf=0.92,Vminpu=0.93,Vmaxpu=1.5,model=8,zipv=[0.5,0,0.5,1,0,0,0],daily=A4-2,status=variable
new load.3010183310M1 bus1=BMT103385018.1.2.3,Phases=3,kv=13.8,kW=8.80852,pf=0.92,Vminpu=0.93,Vmaxpu=1.5,model=8,zipv=[0.5,0,0.5,1,0,0,0],daily=A4-2,status=variable
new load.3010196187M1 bus1=BMT158481002.1.2.3,Phases=3,kv=13.8,kW=19.43018,pf=0.92,Vminpu=0.93,Vmaxpu=1.5,model=8,zipv=[0.5,0,0.5,1,0,0,0],daily=A4-3,status=variable
new load.3010266657M1 bus1=BMT159378773.1.2.3,Phases=3,kv=13.8,kW=22.88398,pf=0.92,Vminpu=0.93,Vmaxpu=1.5,model=8,zipv=[0.5,0,0.5,1,0,0,0],daily=A4-2,status=variable
new load.3010370715M1 bus1=BMT165199056.1.2.3,Phases=3,kv=13.8,kW=78.45318,pf=0.92,Vminpu=0.93,Vmaxpu=1.5,model=8,zipv=[0.5,0,0.5,1,0,0,0],daily=A4-6,status=variable
new load.3010413076M1 bus1=BMT103338860.1.2.3,Phases=3,kv=13.8,kW=19.87348,pf=0.92,Vminpu=0.93,Vmaxpu=1.5,model=8,zipv=[0.5,0,0.5,1,0,0,0],daily=A4-3,status=variable
new load.3010554702M1 bus1=BMT158481162.1.2.3,Phases=3,kv=13.8,kW=16.52732,pf=0.92,Vminpu=0.93,Vmaxpu=1.5,model=8,zipv=[0.5,0,0.5,1,0,0,0],daily=A4-2,status=variable
new load.3011130416M1 bus1=BMT158481300.1.2.3,Phases=3,kv=13.8,kW=7.73282,pf=0.92,Vminpu=0.93,Vmaxpu=1.5,model=8,zipv=[0.5,0,0.5,1,0,0,0],daily=A4-1,status=variable
new load.3011145103M1 bus1=BMT158480960.1.2.3,Phases=3,kv=13.8,kW=4.26804,pf=0.92,Vminpu=0.93,Vmaxpu=1.5,model=8,zipv=[0.5,0,0.5,1,0,0,0],daily=A4-2,status=variable
new load.3011246618M1 bus1=BMT103317979.1.2.3,Phases=3,kv=13.8,kW=88.45082,pf=0.92,Vminpu=0.93,Vmaxpu=1.5,model=8,zipv=[0.5,0,0.5,1,0,0,0],daily=A4-3,status=variable
new load.3011396906M1 bus1=BMT158481283.1.2.3,Phases=3,kv=13.8,kW=33.35032,pf=0.92,Vminpu=0.93,Vmaxpu=1.5,model=8,zipv=[0.5,0,0.5,1,0,0,0],daily=A4-3,status=variable
new load.3011568943M1 bus1=BMT158495319.1.2.3,Phases=3,kv=13.8,kW=131.82902,pf=0.92,Vminpu=0.93,Vmaxpu=1.5,model=8,zipv=[0.5,0,0.5,1,0,0,0],daily=A4-3,status=variable
new load.3011624972M1 bus1=BMT158481009.1.2.3,Phases=3,kv=13.8,kW=7.83192,pf=0.92,Vminpu=0.93,Vmaxpu=1.5,model=8,zipv=[0.5,0,0.5,1,0,0,0],daily=A4-1,status=variable
new load.3011651505M1 bus1=BMT158495343.1.2.3,Phases=3,kv=13.8,kW=30.38794,pf=0.92,Vminpu=0.93,Vmaxpu=1.5,model=8,zipv=[0.5,0,0.5,1,0,0,0],daily=A4-2,status=variable
new load.3011667226M1 bus1=BMT158480998.1.2.3,Phases=3,kv=13.8,kW=30.07786,pf=0.92,Vminpu=0.93,Vmaxpu=1.5,model=8,zipv=[0.5,0,0.5,1,0,0,0],daily=A4-2,status=variable
new load.3011820540M1 bus1=BMT137047206.1.2.3,Phases=3,kv=13.8,kW=0.45872,pf=0.92,Vminpu=0.93,Vmaxpu=1.5,model=8,zipv=[0.5,0,0.5,1,0,0,0],daily=A4-1,status=variable
new load.3011821527M1 bus1=BMT148258564.1.2.3,Phases=3,kv=13.8,kW=114.26512,pf=0.92,Vminpu=0.93,Vmaxpu=1.5,model=8,zipv=[0.5,0,0.5,1,0,0,0],daily=A4-4,status=variable
new load.3012167397M1 bus1=BMT149433174.1.2.3,Phases=3,kv=13.8,kW=32.6914,pf=0.92,Vminpu=0.93,Vmaxpu=1.5,model=8,zipv=[0.5,0,0.5,1,0,0,0],daily=A4-2,status=variable
new load.3012197186M1 bus1=BMT151650462.1.2.3,Phases=3,kv=13.8,kW=387.6841,pf=0.92,Vminpu=0.93,Vmaxpu=1.5,model=8,zipv=[0.5,0,0.5,1,0,0,0],daily=A4-6,status=variable
new load.3012459745M1 bus1=BMT155938743.1.2.3,Phases=3,kv=13.8,kW=160.00346,pf=0.92,Vminpu=0.93,Vmaxpu=1.5,model=8,zipv=[0.5,0,0.5,1,0,0,0],daily=A4-4,status=variable
new load.3012699754M1 bus1=BMT158481257.1.2.3,Phases=3,kv=13.8,kW=97.57434,pf=0.92,Vminpu=0.93,Vmaxpu=1.5,model=8,zipv=[0.5,0,0.5,1,0,0,0],daily=A4-5,status=variable
new load.3012756115M1 bus1=BMT159292786.1.2.3,Phases=3,kv=13.8,kW=18.1619,pf=0.92,Vminpu=0.93,Vmaxpu=1.5,model=8,zipv=[0.5,0,0.5,1,0,0,0],daily=A4-2,status=variable
new load.3012813423M1 bus1=BMT156431505.1.2.3,Phases=3,kv=13.8,kW=43.6537,pf=0.92,Vminpu=0.93,Vmaxpu=1.5,model=8,zipv=[0.5,0,0.5,1,0,0,0],daily=A4-3,status=variable
new load.3012993068M1 bus1=BMT158610277.1.2.3,Phases=3,kv=13.8,kW=7.75202,pf=0.92,Vminpu=0.93,Vmaxpu=1.5,model=8,zipv=[0.5,0,0.5,1,0,0,0],daily=A4-2,status=variable
new load.3013361375M1 bus1=BMT158481333.1.2.3,Phases=3,kv=13.8,kW=447.34842,pf=0.92,Vminpu=0.93,Vmaxpu=1.5,model=8,zipv=[0.5,0,0.5,1,0,0,0],daily=A4-6,status=variable
new load.3013422703M1 bus1=BMT158481349.1.2.3,Phases=3,kv=13.8,kW=274.05268,pf=0.92,Vminpu=0.93,Vmaxpu=1.5,model=8,zipv=[0.5,0,0.5,1,0,0,0],daily=A4-5,status=variable
new load.3013431090M1 bus1=BMT164394928.1.2.3,Phases=3,kv=13.8,kW=278.81912,pf=0.92,Vminpu=0.93,Vmaxpu=1.5,model=8,zipv=[0.5,0,0.5,1,0,0,0],daily=A4-4,status=variable
new load.3013512419M1 bus1=BMT171236755.1.2.3,Phases=3,kv=13.8,kW=73.49498,pf=0.92,Vminpu=0.93,Vmaxpu=1.5,model=8,zipv=[0.5,0,0.5,1,0,0,0],daily=A4-3,status=variable
new load.3013664435M1 bus1=BMT167944491.1.2.3,Phases=3,kv=13.8,kW=99.18092,pf=0.92,Vminpu=0.93,Vmaxpu=1.5,model=8,zipv=[0.5,0,0.5,1,0,0,0],daily=A4-3,status=variable
new load.3013809799M1 bus1=BMT170591906.1.2.3,Phases=3,kv=13.8,kW=121.17764,pf=0.92,Vminpu=0.93,Vmaxpu=1.5,model=8,zipv=[0.5,0,0.5,1,0,0,0],daily=A4-3,status=variable
