new transformer.TRF_1034641 Phases=3,Windings=2,Buses=[BMT166414440.1.2.3 100912053.1.2.3.0],Conns=[delta,wye],kvs=[13.800000000,0.220000000],kvas=[45.000000000 45.000000000],Taps=[1,1.000000000],XHL=3.700000000,%loadloss=1.520000000,%noloadloss=0.377777000 !906983
new transformer.TRF_1050727 Phases=3,Windings=2,Buses=[BMT124712053.1.2.3 116178017.1.2.3.0],Conns=[delta,wye],kvs=[13.800000000,0.220000000],kvas=[300.000000000 300.000000000],Taps=[1,1.000000000],XHL=4.900000000,%loadloss=0.990000000,%noloadloss=0.000000000 !230790
new transformer.TRF_1050825A Phases=1,Windings=3,Buses=[BMT178548160.1 116243376.1.0 116243376.0.2],Conns=[wye wye wye],kvs=[7.967 0.12 0.12],kvas=[10.000000000 10.000000000 10.000000000],Taps=[1,1.000000000,1.000000000],XHL=1.735000000,XHT=1.735000000,XLT=1.388000000,%loadloss=1.800000000,%noloadloss=0.450000000 !386394
new transformer.TRF_1050860A Phases=1,Windings=3,Buses=[BMT175813526.1 116273637.1.0 116273637.0.2],Conns=[wye wye wye],kvs=[7.967 0.12 0.12],kvas=[15.000000000 15.000000000 15.000000000],Taps=[1,1.020000000,1.020000000],XHL=1.921000000,XHT=1.921000000,XLT=1.537000000,%loadloss=1.600000000,%noloadloss=0.400000000 !383434
new transformer.TRF_1066316A Phases=1,Windings=3,Buses=[BMT178969710.2 131651377.1.0 131651377.0.2],Conns=[wye wye wye],kvs=[7.967 0.12 0.12],kvas=[15.000000000 15.000000000 15.000000000],Taps=[1,1.000000000,1.000000000],XHL=1.921000000,XHT=1.921000000,XLT=1.537000000,%loadloss=1.600000000,%noloadloss=0.400000000 !168228
new transformer.TRF_1066344A Phases=1,Windings=3,Buses=[BMT179899791.1 131668429.1.0 131668429.0.2],Conns=[wye wye wye],kvs=[7.967 0.12 0.12],kvas=[15.000000000 15.000000000 15.000000000],Taps=[1,1.000000000,1.000000000],XHL=1.921000000,XHT=1.921000000,XLT=1.537000000,%loadloss=1.600000000,%noloadloss=0.400000000 !380873
new transformer.TRF_1066624 Phases=3,Windings=2,Buses=[BMT164754259.1.2.3 131758981.1.2.3.0],Conns=[delta,wye],kvs=[13.800000000,0.220000000],kvas=[45.000000000 45.000000000],Taps=[1,1.000000000],XHL=3.700000000,%loadloss=1.520000000,%noloadloss=0.377777000 !376395
new transformer.TRF_1066631A Phases=1,Windings=3,Buses=[BMT167091006.2 131760374.1.0 131760374.0.2],Conns=[wye wye wye],kvs=[7.967 0.12 0.12],kvas=[15.000000000 15.000000000 15.000000000],Taps=[1,1.000000000,1.000000000],XHL=1.921000000,XHT=1.921000000,XLT=1.537000000,%loadloss=1.600000000,%noloadloss=0.400000000 !380554
new transformer.TRF_1066638 Phases=3,Windings=2,Buses=[BMT177667502.1.2.3 131762586.1.2.3.0],Conns=[delta,wye],kvs=[13.800000000,0.220000000],kvas=[30.000000000 30.000000000],Taps=[1,1.000000000],XHL=3.640000000,%loadloss=1.670000000,%noloadloss=0.433333000 !155475
new transformer.TRF_1066785A Phases=1,Windings=3,Buses=[BMT175389151.2 131839782.1.0 131839782.0.2],Conns=[wye wye wye],kvs=[7.967 0.12 0.12],kvas=[15.000000000 15.000000000 15.000000000],Taps=[1,1.000000000,1.000000000],XHL=1.921000000,XHT=1.921000000,XLT=1.537000000,%loadloss=1.600000000,%noloadloss=0.400000000 !377640
new transformer.TRF_1067205 Phases=3,Windings=2,Buses=[BMT177634435.1.2.3 132050160.1.2.3.0],Conns=[delta,wye],kvs=[13.800000000,0.220000000],kvas=[45.000000000 45.000000000],Taps=[1,1.000000000],XHL=3.700000000,%loadloss=1.520000000,%noloadloss=0.377777000 !155707
new transformer.TRF_1067226A Phases=1,Windings=3,Buses=[BMT164552488.2 132065238.1.0 132065238.0.2],Conns=[wye wye wye],kvs=[7.967 0.12 0.12],kvas=[5.000000000 5.000000000 5.000000000],Taps=[1,1.000000000,1.000000000],XHL=1.625000000,XHT=1.625000000,XLT=1.300000000,%loadloss=1.900000000,%noloadloss=0.600000000 !422463
new transformer.TRF_1080820A Phases=1,Windings=3,Buses=[BMT163387408.1 136289822.1.0 136289822.0.2],Conns=[wye wye wye],kvs=[7.967 0.12 0.12],kvas=[15.000000000 15.000000000 15.000000000],Taps=[1,1.020000000,1.020000000],XHL=1.921000000,XHT=1.921000000,XLT=1.537000000,%loadloss=1.600000000,%noloadloss=0.400000000 !380568
new transformer.TRF_1080946A Phases=1,Windings=3,Buses=[BMT136348055.1 136347649.1.0 136347649.0.2],Conns=[wye wye wye],kvs=[7.967 0.12 0.12],kvas=[15.000000000 15.000000000 15.000000000],Taps=[1,1.030000000,1.030000000],XHL=1.921000000,XHT=1.921000000,XLT=1.537000000,%loadloss=1.600000000,%noloadloss=0.400000000 !908510
new transformer.TRF_1090011 Phases=3,Windings=2,Buses=[BMT138844479.1.2.3 138844220.1.2.3.0],Conns=[delta,wye],kvs=[13.800000000,0.220000000],kvas=[150.000000000 150.000000000],Taps=[1,1.000000000],XHL=3.840000000,%loadloss=1.130000000,%noloadloss=0.280000000 !253922
new transformer.TRF_1090683A Phases=1,Windings=3,Buses=[BMT139046611.1 139045995.1.0 139045995.0.2],Conns=[wye wye wye],kvs=[7.967 0.12 0.12],kvas=[15.000000000 15.000000000 15.000000000],Taps=[1,1.000000000,1.000000000],XHL=1.921000000,XHT=1.921000000,XLT=1.537000000,%loadloss=1.600000000,%noloadloss=0.400000000 !384751
new transformer.TRF_1090753A Phases=1,Windings=3,Buses=[BMT165181798.3 139063411.1.0 139063411.0.2],Conns=[wye wye wye],kvs=[7.967 0.12 0.12],kvas=[15.000000000 15.000000000 15.000000000],Taps=[1,1.000000000,1.000000000],XHL=1.921000000,XHT=1.921000000,XLT=1.537000000,%loadloss=1.600000000,%noloadloss=0.400000000 !384747
new transformer.TRF_1090760A Phases=1,Windings=3,Buses=[BMT165433272.1 139063782.1.0 139063782.0.2],Conns=[wye wye wye],kvs=[7.967 0.12 0.12],kvas=[10.000000000 10.000000000 10.000000000],Taps=[1,1.030000000,1.030000000],XHL=1.735000000,XHT=1.735000000,XLT=1.388000000,%loadloss=1.800000000,%noloadloss=0.450000000 !388504
new transformer.TRF_1090767A Phases=1,Windings=3,Buses=[BMT163753910.1 139064671.1.0 139064671.0.2],Conns=[wye wye wye],kvs=[7.967 0.12 0.12],kvas=[5.000000000 5.000000000 5.000000000],Taps=[1,1.000000000,1.000000000],XHL=1.625000000,XHT=1.625000000,XLT=1.300000000,%loadloss=1.900000000,%noloadloss=0.600000000 !428125
new transformer.TRF_1106622A Phases=1,Windings=3,Buses=[BMT167047538.2 143399624.1.0 143399624.0.2],Conns=[wye wye wye],kvs=[7.967 0.12 0.12],kvas=[10.000000000 10.000000000 10.000000000],Taps=[1,1.000000000,1.000000000],XHL=1.735000000,XHT=1.735000000,XLT=1.388000000,%loadloss=1.800000000,%noloadloss=0.450000000 !386203
new transformer.TRF_1106671 Phases=3,Windings=2,Buses=[BMT143414359.1.2.3 143413841.1.2.3.0],Conns=[delta,wye],kvs=[13.800000000,0.220000000],kvas=[45.000000000 45.000000000],Taps=[1,1.000000000],XHL=3.700000000,%loadloss=1.520000000,%noloadloss=0.377777000 !908648
new transformer.TRF_1107231 Phases=3,Windings=2,Buses=[BMT162622733.1.2.3 143586825.1.2.3.0],Conns=[delta,wye],kvs=[13.800000000,0.220000000],kvas=[45.000000000 45.000000000],Taps=[1,1.000000000],XHL=3.700000000,%loadloss=1.520000000,%noloadloss=0.377777000 !374412
new transformer.TRF_1107560 Phases=3,Windings=2,Buses=[BMT162314114.1.2.3 143666177.1.2.3.0],Conns=[delta,wye],kvs=[13.800000000,0.220000000],kvas=[45.000000000 45.000000000],Taps=[1,1.000000000],XHL=3.700000000,%loadloss=1.520000000,%noloadloss=0.377777000 !379320
new transformer.TRF_1123198A Phases=1,Windings=3,Buses=[BMT174010838.1 147664010.1.0 147664010.0.2],Conns=[wye wye wye],kvs=[7.967 0.12 0.12],kvas=[15.000000000 15.000000000 15.000000000],Taps=[1,1.000000000,1.000000000],XHL=1.921000000,XHT=1.921000000,XLT=1.537000000,%loadloss=1.600000000,%noloadloss=0.400000000 !385307
new transformer.TRF_1123373A Phases=1,Windings=3,Buses=[BMT147742459.3 147693074.1.0 147693074.0.2],Conns=[wye wye wye],kvs=[7.967 0.12 0.12],kvas=[10.000000000 10.000000000 10.000000000],Taps=[1,1.000000000,1.000000000],XHL=1.735000000,XHT=1.735000000,XLT=1.388000000,%loadloss=1.800000000,%noloadloss=0.450000000 !389219
new transformer.TRF_1123387A Phases=1,Windings=3,Buses=[BMT147742466.3 147693466.1.0 147693466.0.2],Conns=[wye wye wye],kvs=[7.967 0.12 0.12],kvas=[10.000000000 10.000000000 10.000000000],Taps=[1,1.000000000,1.000000000],XHL=1.735000000,XHT=1.735000000,XLT=1.388000000,%loadloss=1.800000000,%noloadloss=0.450000000 !389220
new transformer.TRF_1123429 Phases=3,Windings=2,Buses=[BMT179387486.1.2.3 147706017.1.2.3.0],Conns=[delta,wye],kvs=[13.800000000,0.220000000],kvas=[45.000000000 45.000000000],Taps=[1,1.000000000],XHL=3.700000000,%loadloss=1.520000000,%noloadloss=0.377777000 !67082
new transformer.TRF_1123443A Phases=1,Windings=3,Buses=[BMT147714886.2 147707774.1.0 147707774.0.2],Conns=[wye wye wye],kvs=[7.967 0.12 0.12],kvas=[35.000000000 35.000000000 35.000000000],Taps=[1,1.000000000,1.000000000],XHL=2.139000000,XHT=2.139000000,XLT=1.712000000,%loadloss=1.293000000,%noloadloss=0.342857000 !61828
new transformer.TRF_1123464 Phases=3,Windings=2,Buses=[BMT167050007.1.2.3 147713185.1.2.3.0],Conns=[delta,wye],kvs=[13.800000000,0.220000000],kvas=[30.000000000 30.000000000],Taps=[1,1.000000000],XHL=3.640000000,%loadloss=1.670000000,%noloadloss=0.433333000 !908708
new transformer.TRF_1015272A Phases=1,Windings=3,Buses=[BMT178275144.1 88700112.1.0 88700112.0.2],Conns=[wye wye wye],kvs=[7.967 0.12 0.12],kvas=[10.000000000 10.000000000 10.000000000],Taps=[1,1.000000000,1.000000000],XHL=1.735000000,XHT=1.735000000,XLT=1.388000000,%loadloss=1.800000000,%noloadloss=0.450000000 !428706
new transformer.TRF_1015447A Phases=1,Windings=3,Buses=[BMT174939751.2 93056569.1.0 93056569.0.2],Conns=[wye wye wye],kvs=[7.967 0.12 0.12],kvas=[10.000000000 10.000000000 10.000000000],Taps=[1,1.000000000,1.000000000],XHL=1.735000000,XHT=1.735000000,XLT=1.388000000,%loadloss=1.800000000,%noloadloss=0.450000000 !493068
new transformer.TRF_1037273 Phases=3,Windings=2,Buses=[BMT176821274.1.2.3 102997640.1.2.3.0],Conns=[delta,wye],kvs=[13.800000000,0.220000000],kvas=[75.000000000 75.000000000],Taps=[1,1.000000000],XHL=3.770000000,%loadloss=1.340000000,%noloadloss=0.340000000 !19714
new transformer.TRF_1054871 Phases=3,Windings=2,Buses=[BMT161053334.1.2.3 119476536.1.2.3.0],Conns=[delta,wye],kvs=[13.800000000,0.220000000],kvas=[45.000000000 45.000000000],Taps=[1,1.000000000],XHL=3.700000000,%loadloss=1.520000000,%noloadloss=0.377777000 !402897
new transformer.TRF_1075227 Phases=3,Windings=2,Buses=[BMT165209505.1.2.3 134594541.1.2.3.0],Conns=[delta,wye],kvs=[13.800000000,0.220000000],kvas=[45.000000000 45.000000000],Taps=[1,1.000000000],XHL=3.700000000,%loadloss=1.520000000,%noloadloss=0.377777000 !376394
new transformer.TRF_1075346 Phases=3,Windings=2,Buses=[BMT169604054.1.2.3 134639152.1.2.3.0],Conns=[delta,wye],kvs=[13.800000000,0.220000000],kvas=[30.000000000 30.000000000],Taps=[1,1.000000000],XHL=3.640000000,%loadloss=1.670000000,%noloadloss=0.433333000 !152751
new transformer.TRF_1075381 Phases=3,Windings=2,Buses=[BMT179016396.1.2.3 134650751.1.2.3.0],Conns=[delta,wye],kvs=[13.800000000,0.220000000],kvas=[75.000000000 75.000000000],Taps=[1,1.000000000],XHL=3.770000000,%loadloss=1.340000000,%noloadloss=0.340000000 !32606
new transformer.TRF_1075388A Phases=1,Windings=3,Buses=[BMT167038830.3 134651682.1.0 134651682.0.2],Conns=[wye wye wye],kvs=[7.967 0.12 0.12],kvas=[5.000000000 5.000000000 5.000000000],Taps=[1,1.000000000,1.000000000],XHL=1.625000000,XHT=1.625000000,XLT=1.300000000,%loadloss=1.900000000,%noloadloss=0.600000000 !425900
new transformer.TRF_1075409 Phases=3,Windings=2,Buses=[BMT168828678.1.2.3 134653810.1.2.3.0],Conns=[delta,wye],kvs=[13.800000000,0.220000000],kvas=[75.000000000 75.000000000],Taps=[1,1.000000000],XHL=3.770000000,%loadloss=1.340000000,%noloadloss=0.340000000 !165605
new transformer.TRF_1075423A Phases=1,Windings=3,Buses=[BMT160664492.1 134662119.1.0 134662119.0.2],Conns=[wye wye wye],kvs=[7.967 0.12 0.12],kvas=[15.000000000 15.000000000 15.000000000],Taps=[1,1.000000000,1.000000000],XHL=1.921000000,XHT=1.921000000,XLT=1.537000000,%loadloss=1.600000000,%noloadloss=0.400000000 !411270
new transformer.TRF_1075444A Phases=1,Windings=3,Buses=[BMT176163975.2 134667789.1.0 134667789.0.2],Conns=[wye wye wye],kvs=[7.967 0.12 0.12],kvas=[15.000000000 15.000000000 15.000000000],Taps=[1,1.000000000,1.000000000],XHL=1.921000000,XHT=1.921000000,XLT=1.537000000,%loadloss=1.600000000,%noloadloss=0.400000000 !377675
new transformer.TRF_1075458A Phases=1,Windings=3,Buses=[BMT167056181.1 134668650.1.0 134668650.0.2],Conns=[wye wye wye],kvs=[7.967 0.12 0.12],kvas=[5.000000000 5.000000000 5.000000000],Taps=[1,1.000000000,1.000000000],XHL=1.625000000,XHT=1.625000000,XLT=1.300000000,%loadloss=1.900000000,%noloadloss=0.600000000 !171004
new transformer.TRF_1075472A Phases=1,Windings=3,Buses=[BMT171434764.2 134670057.1.0 134670057.0.2],Conns=[wye wye wye],kvs=[7.967 0.12 0.12],kvas=[5.000000000 5.000000000 5.000000000],Taps=[1,1.000000000,1.000000000],XHL=1.625000000,XHT=1.625000000,XLT=1.300000000,%loadloss=1.900000000,%noloadloss=0.600000000 !426784
new transformer.TRF_1093952A Phases=1,Windings=3,Buses=[BMT173312665.1 140063340.1.0 140063340.0.2],Conns=[wye wye wye],kvs=[7.967 0.12 0.12],kvas=[10.000000000 10.000000000 10.000000000],Taps=[1,1.000000000,1.000000000],XHL=1.735000000,XHT=1.735000000,XLT=1.388000000,%loadloss=1.800000000,%noloadloss=0.450000000 !387328
new transformer.TRF_1093966A Phases=1,Windings=3,Buses=[BMT173312666.1 140068562.1.0 140068562.0.2],Conns=[wye wye wye],kvs=[7.967 0.12 0.12],kvas=[35.000000000 35.000000000 35.000000000],Taps=[1,1.000000000,1.000000000],XHL=2.139000000,XHT=2.139000000,XLT=1.712000000,%loadloss=1.293000000,%noloadloss=0.342857000 !295387
new transformer.TRF_1094022A Phases=1,Windings=3,Buses=[BMT163671345.2 140071397.1.0 140071397.0.2],Conns=[wye wye wye],kvs=[7.967 0.12 0.12],kvas=[10.000000000 10.000000000 10.000000000],Taps=[1,1.000000000,1.000000000],XHL=1.735000000,XHT=1.735000000,XLT=1.388000000,%loadloss=1.800000000,%noloadloss=0.450000000 !388468
new transformer.TRF_1094792 Phases=3,Windings=2,Buses=[BMT140193022.1.2.3 140193029.1.2.3.0],Conns=[delta,wye],kvs=[13.800000000,0.220000000],kvas=[75.000000000 75.000000000],Taps=[1,1.000000000],XHL=3.770000000,%loadloss=1.340000000,%noloadloss=0.340000000 !172544
new transformer.TRF_1109366A Phases=1,Windings=3,Buses=[BMT144159418.1 144159257.1.0 144159257.0.2],Conns=[wye wye wye],kvs=[7.967 0.12 0.12],kvas=[5.000000000 5.000000000 5.000000000],Taps=[1,1.000000000,1.000000000],XHL=1.625000000,XHT=1.625000000,XLT=1.300000000,%loadloss=1.900000000,%noloadloss=0.600000000 !399648
new transformer.TRF_1109555 Phases=3,Windings=2,Buses=[BMT163489701.1.2.3 144235613.1.2.3.0],Conns=[delta,wye],kvs=[13.800000000,0.220000000],kvas=[45.000000000 45.000000000],Taps=[1,1.000000000],XHL=3.700000000,%loadloss=1.520000000,%noloadloss=0.377777000 !379170
new transformer.TRF_1109611 Phases=3,Windings=2,Buses=[BMT163489708.1.2.3 144249158.1.2.3.0],Conns=[delta,wye],kvs=[13.800000000,0.220000000],kvas=[45.000000000 45.000000000],Taps=[1,1.000000000],XHL=3.700000000,%loadloss=1.520000000,%noloadloss=0.377777000 !379169
new transformer.TRF_1109653 Phases=3,Windings=2,Buses=[BMT163489702.1.2.3 144262745.1.2.3.0],Conns=[delta,wye],kvs=[13.800000000,0.220000000],kvas=[45.000000000 45.000000000],Taps=[1,1.000000000],XHL=3.700000000,%loadloss=1.520000000,%noloadloss=0.377777000 !379171
new transformer.TRF_1109681 Phases=3,Windings=2,Buses=[BMT163489704.1.2.3 144276073.1.2.3.0],Conns=[delta,wye],kvs=[13.800000000,0.220000000],kvas=[45.000000000 45.000000000],Taps=[1,1.000000000],XHL=3.700000000,%loadloss=1.520000000,%noloadloss=0.377777000 !379172
new transformer.TRF_1109695 Phases=3,Windings=2,Buses=[BMT163489706.1.2.3 144277186.1.2.3.0],Conns=[delta,wye],kvs=[13.800000000,0.220000000],kvas=[45.000000000 45.000000000],Taps=[1,1.000000000],XHL=3.700000000,%loadloss=1.520000000,%noloadloss=0.377777000 !379174
new transformer.TRF_1109709 Phases=3,Windings=2,Buses=[BMT163489707.1.2.3 144282254.1.2.3.0],Conns=[delta,wye],kvs=[13.800000000,0.220000000],kvas=[45.000000000 45.000000000],Taps=[1,1.000000000],XHL=3.700000000,%loadloss=1.520000000,%noloadloss=0.377777000 !379173
new transformer.TRF_1124577A Phases=1,Windings=3,Buses=[BMT179948817.3 147935176.1.0 147935176.0.2],Conns=[wye wye wye],kvs=[7.967 0.12 0.12],kvas=[5.000000000 5.000000000 5.000000000],Taps=[1,1.000000000,1.000000000],XHL=1.625000000,XHT=1.625000000,XLT=1.300000000,%loadloss=1.900000000,%noloadloss=0.600000000 !429175
new transformer.TRF_1124584A Phases=1,Windings=3,Buses=[BMT179948840.3 147935554.1.0 147935554.0.2],Conns=[wye wye wye],kvs=[7.967 0.12 0.12],kvas=[10.000000000 10.000000000 10.000000000],Taps=[1,1.000000000,1.000000000],XHL=1.735000000,XHT=1.735000000,XLT=1.388000000,%loadloss=1.800000000,%noloadloss=0.450000000 !452149
new transformer.TRF_1124633A Phases=1,Windings=3,Buses=[BMT174797751.1 147938739.1.0 147938739.0.2],Conns=[wye wye wye],kvs=[7.967 0.12 0.12],kvas=[15.000000000 15.000000000 15.000000000],Taps=[1,1.020000000,1.020000000],XHL=1.921000000,XHT=1.921000000,XLT=1.537000000,%loadloss=1.600000000,%noloadloss=0.400000000 !385308
new transformer.TRF_1124640A Phases=1,Windings=3,Buses=[BMT168053185.1 147940321.1.0 147940321.0.2],Conns=[wye wye wye],kvs=[7.967 0.12 0.12],kvas=[10.000000000 10.000000000 10.000000000],Taps=[1,1.020000000,1.020000000],XHL=1.735000000,XHT=1.735000000,XLT=1.388000000,%loadloss=1.800000000,%noloadloss=0.450000000 !389216
new transformer.TRF_1124654A Phases=1,Windings=3,Buses=[BMT174797750.1 147944500.1.0 147944500.0.2],Conns=[wye wye wye],kvs=[7.967 0.12 0.12],kvas=[10.000000000 10.000000000 10.000000000],Taps=[1,1.020000000,1.020000000],XHL=1.735000000,XHT=1.735000000,XLT=1.388000000,%loadloss=1.800000000,%noloadloss=0.450000000 !462420
new transformer.TRF_1014201 Phases=3,Windings=2,Buses=[BMT138844500.1.2.3 87989794.1.2.3.0],Conns=[delta,wye],kvs=[13.800000000,0.220000000],kvas=[75.000000000 75.000000000],Taps=[1,1.000000000],XHL=3.770000000,%loadloss=1.340000000,%noloadloss=0.340000000 !32394
new transformer.TRF_1045505A Phases=1,Windings=3,Buses=[BMT124742650.2 111246349.1.0 111246349.0.2],Conns=[wye wye wye],kvs=[7.967 0.12 0.12],kvas=[5.000000000 5.000000000 5.000000000],Taps=[1,1.000000000,1.000000000],XHL=1.625000000,XHT=1.625000000,XLT=1.300000000,%loadloss=1.900000000,%noloadloss=0.600000000 !425471
new transformer.TRF_1046065 Phases=3,Windings=2,Buses=[BMT124747606.1.2.3 111663906.1.2.3.0],Conns=[delta,wye],kvs=[13.800000000,0.220000000],kvas=[225.000000000 225.000000000],Taps=[1,1.000000000],XHL=4.890000000,%loadloss=1.060000000,%noloadloss=0.000000000 !281363
new transformer.TRF_1046121 Phases=3,Windings=2,Buses=[BMT151446872.1.2.3 111727186.1.2.3.0],Conns=[delta,wye],kvs=[13.800000000,0.220000000],kvas=[300.000000000 300.000000000],Taps=[1,1.000000000],XHL=4.900000000,%loadloss=0.990000000,%noloadloss=0.000000000 !288816
new transformer.TRF_1046156A Phases=1,Windings=3,Buses=[BMT124763916.1 111790606.1.0 111790606.0.2],Conns=[wye wye wye],kvs=[7.967 0.12 0.12],kvas=[15.000000000 15.000000000 15.000000000],Taps=[1,1.000000000,1.000000000],XHL=1.921000000,XHT=1.921000000,XLT=1.537000000,%loadloss=1.600000000,%noloadloss=0.400000000 !403548
new transformer.TRF_1046184A Phases=1,Windings=3,Buses=[BMT124744967.3 111801603.1.0 111801603.0.2],Conns=[wye wye wye],kvs=[7.967 0.12 0.12],kvas=[15.000000000 15.000000000 15.000000000],Taps=[1,1.000000000,1.000000000],XHL=1.921000000,XHT=1.921000000,XLT=1.537000000,%loadloss=1.600000000,%noloadloss=0.400000000 !382846
new transformer.TRF_1046212A Phases=1,Windings=3,Buses=[BMT179378291.3 111825816.1.0 111825816.0.2],Conns=[wye wye wye],kvs=[7.967 0.12 0.12],kvas=[10.000000000 10.000000000 10.000000000],Taps=[1,1.000000000,1.000000000],XHL=1.735000000,XHT=1.735000000,XLT=1.388000000,%loadloss=1.800000000,%noloadloss=0.450000000 !386366
new transformer.TRF_1046219A Phases=1,Windings=3,Buses=[BMT179378293.3 111827314.1.0 111827314.0.2],Conns=[wye wye wye],kvs=[7.967 0.12 0.12],kvas=[10.000000000 10.000000000 10.000000000],Taps=[1,1.000000000,1.000000000],XHL=1.735000000,XHT=1.735000000,XLT=1.388000000,%loadloss=1.800000000,%noloadloss=0.450000000 !386367
new transformer.TRF_1046240A Phases=1,Windings=3,Buses=[BMT164213712.3 111842791.1.0 111842791.0.2],Conns=[wye wye wye],kvs=[7.967 0.12 0.12],kvas=[10.000000000 10.000000000 10.000000000],Taps=[1,1.000000000,1.000000000],XHL=1.735000000,XHT=1.735000000,XLT=1.388000000,%loadloss=1.800000000,%noloadloss=0.450000000 !386551
new transformer.TRF_1046324A Phases=1,Windings=3,Buses=[BMT167550574.3 111885904.1.0 111885904.0.2],Conns=[wye wye wye],kvs=[7.967 0.12 0.12],kvas=[10.000000000 10.000000000 10.000000000],Taps=[1,1.000000000,1.000000000],XHL=1.735000000,XHT=1.735000000,XLT=1.388000000,%loadloss=1.800000000,%noloadloss=0.450000000 !386555
new transformer.TRF_1059652A Phases=1,Windings=3,Buses=[BMT128790568.2 128790575.1.0 128790575.0.2],Conns=[wye wye wye],kvs=[7.967 0.12 0.12],kvas=[10.000000000 10.000000000 10.000000000],Taps=[1,1.000000000,1.000000000],XHL=1.735000000,XHT=1.735000000,XLT=1.388000000,%loadloss=1.800000000,%noloadloss=0.450000000 !387281
new transformer.TRF_1061115A Phases=1,Windings=3,Buses=[BMT163039044.1 129433868.1.0 129433868.0.2],Conns=[wye wye wye],kvs=[7.967 0.12 0.12],kvas=[10.000000000 10.000000000 10.000000000],Taps=[1,1.000000000,1.000000000],XHL=1.735000000,XHT=1.735000000,XLT=1.388000000,%loadloss=1.800000000,%noloadloss=0.450000000 !387282
new transformer.TRF_1074863A Phases=1,Windings=3,Buses=[BMT179235663.2 134461373.1.0 134461373.0.2],Conns=[wye wye wye],kvs=[7.967 0.12 0.12],kvas=[35.000000000 35.000000000 35.000000000],Taps=[1,1.000000000,1.000000000],XHL=2.139000000,XHT=2.139000000,XLT=1.712000000,%loadloss=1.293000000,%noloadloss=0.342857000 !292101
new transformer.TRF_1088093A Phases=1,Windings=3,Buses=[BMT167056177.3 138410731.1.0 138410731.0.2],Conns=[wye wye wye],kvs=[7.967 0.12 0.12],kvas=[5.000000000 5.000000000 5.000000000],Taps=[1,1.000000000,1.000000000],XHL=1.625000000,XHT=1.625000000,XLT=1.300000000,%loadloss=1.900000000,%noloadloss=0.600000000 !426051
new transformer.TRF_1088170 Phases=3,Windings=2,Buses=[BMT138427440.1.2.3 138427447.1.2.3.0],Conns=[delta,wye],kvs=[13.800000000,0.220000000],kvas=[75.000000000 75.000000000],Taps=[1,1.000000000],XHL=3.770000000,%loadloss=1.340000000,%noloadloss=0.000000000 !301256
new transformer.TRF_1102898A Phases=1,Windings=3,Buses=[BMT151247370.2 142326860.1.0 142326860.0.2],Conns=[wye wye wye],kvs=[7.967 0.12 0.12],kvas=[10.000000000 10.000000000 10.000000000],Taps=[1,1.000000000,1.000000000],XHL=1.735000000,XHT=1.735000000,XLT=1.388000000,%loadloss=1.800000000,%noloadloss=0.450000000 !450913
new transformer.TRF_1102996 Phases=3,Windings=2,Buses=[BMT177034007.1.2.3 142367621.1.2.3.0],Conns=[delta,wye],kvs=[13.800000000,0.220000000],kvas=[45.000000000 45.000000000],Taps=[1,1.000000000],XHL=3.700000000,%loadloss=1.520000000,%noloadloss=0.377777000 !370812
new transformer.TRF_1103045A Phases=1,Windings=3,Buses=[BMT179713354.1 142399023.1.0 142399023.0.2],Conns=[wye wye wye],kvs=[7.967 0.12 0.12],kvas=[35.000000000 35.000000000 35.000000000],Taps=[1,1.010000000,1.010000000],XHL=2.139000000,XHT=2.139000000,XLT=1.712000000,%loadloss=1.293000000,%noloadloss=0.342857000 !294788
new transformer.TRF_1104116A Phases=1,Windings=3,Buses=[BMT162854638.2 142688088.1.0 142688088.0.2],Conns=[wye wye wye],kvs=[7.967 0.12 0.12],kvas=[5.000000000 5.000000000 5.000000000],Taps=[1,1.000000000,1.000000000],XHL=1.625000000,XHT=1.625000000,XLT=1.300000000,%loadloss=1.900000000,%noloadloss=0.600000000 !908629
new transformer.TRF_1104158A Phases=1,Windings=3,Buses=[BMT142690580.2 142690587.1.0 142690587.0.2],Conns=[wye wye wye],kvs=[7.967 0.12 0.12],kvas=[35.000000000 35.000000000 35.000000000],Taps=[1,1.010000000,1.010000000],XHL=2.139000000,XHT=2.139000000,XLT=1.712000000,%loadloss=1.293000000,%noloadloss=0.342857000 !308148
new transformer.TRF_1112418 Phases=3,Windings=2,Buses=[BMT144955199.1.2.3 144955213.1.2.3.0],Conns=[delta,wye],kvs=[13.800000000,0.220000000],kvas=[75.000000000 75.000000000],Taps=[1,1.000000000],XHL=3.770000000,%loadloss=1.340000000,%noloadloss=0.340000000 !186106
new transformer.TRF_1112460A Phases=1,Windings=3,Buses=[BMT171001307.1 144958846.1.0 144958846.0.2],Conns=[wye wye wye],kvs=[7.967 0.12 0.12],kvas=[15.000000000 15.000000000 15.000000000],Taps=[1,1.030000000,1.030000000],XHL=1.921000000,XHT=1.921000000,XLT=1.537000000,%loadloss=1.600000000,%noloadloss=0.400000000 !144413
new transformer.TRF_1112474A Phases=1,Windings=3,Buses=[BMT168019400.1 144961093.1.0 144961093.0.2],Conns=[wye wye wye],kvs=[7.967 0.12 0.12],kvas=[10.000000000 10.000000000 10.000000000],Taps=[1,1.020000000,1.020000000],XHL=1.735000000,XHT=1.735000000,XLT=1.388000000,%loadloss=1.800000000,%noloadloss=0.450000000 !391162
new transformer.TRF_1112502 Phases=3,Windings=2,Buses=[BMT179456140.1.2.3 144965972.1.2.3.0],Conns=[delta,wye],kvs=[13.800000000,0.220000000],kvas=[45.000000000 45.000000000],Taps=[1,1.000000000],XHL=3.700000000,%loadloss=1.520000000,%noloadloss=0.377777000 !402891
new transformer.TRF_1112509 Phases=3,Windings=2,Buses=[BMT179456138.1.2.3 144966938.1.2.3.0],Conns=[delta,wye],kvs=[13.800000000,0.220000000],kvas=[75.000000000 75.000000000],Taps=[1,1.000000000],XHL=3.770000000,%loadloss=1.340000000,%noloadloss=0.340000000 !182141
new transformer.TRF_1112537A Phases=1,Windings=3,Buses=[BMT160759771.1 144973917.1.0 144973917.0.2],Conns=[wye wye wye],kvs=[7.967 0.12 0.12],kvas=[10.000000000 10.000000000 10.000000000],Taps=[1,1.000000000,1.000000000],XHL=1.735000000,XHT=1.735000000,XLT=1.388000000,%loadloss=1.800000000,%noloadloss=0.450000000 !390933
new transformer.TRF_1112929 Phases=3,Windings=2,Buses=[BMT161617619.1.2.3 145046759.1.2.3.0],Conns=[delta,wye],kvs=[13.800000000,0.220000000],kvas=[30.000000000 30.000000000],Taps=[1,1.000000000],XHL=3.640000000,%loadloss=1.670000000,%noloadloss=0.433333000 !157430
new transformer.TRF_1393212A Phases=1,Windings=3,Buses=[BMT174796979.1 148778971.1.0 148778971.0.2],Conns=[wye wye wye],kvs=[7.967 0.12 0.12],kvas=[35.000000000 35.000000000 35.000000000],Taps=[1,1.020000000,1.020000000],XHL=2.139000000,XHT=2.139000000,XLT=1.712000000,%loadloss=1.293000000,%noloadloss=0.342857000 !297504
new transformer.TRF_1393253A Phases=1,Windings=3,Buses=[BMT164490707.3 148786596.1.0 148786596.0.2],Conns=[wye wye wye],kvs=[7.967 0.12 0.12],kvas=[10.000000000 10.000000000 10.000000000],Taps=[1,1.000000000,1.000000000],XHL=1.735000000,XHT=1.735000000,XLT=1.388000000,%loadloss=1.800000000,%noloadloss=0.450000000 !908775
new transformer.TRF_1069165 Phases=3,Windings=2,Buses=[BMT179953892.1.2.3 132913533.1.2.3.0],Conns=[delta,wye],kvs=[13.800000000,0.220000000],kvas=[75.000000000 75.000000000],Taps=[1,1.000000000],XHL=3.770000000,%loadloss=1.340000000,%noloadloss=0.340000000 !180605
new transformer.TRF_1084635A Phases=1,Windings=3,Buses=[BMT162419208.2 137664496.1.0 137664496.0.2],Conns=[wye wye wye],kvs=[7.967 0.12 0.12],kvas=[5.000000000 5.000000000 5.000000000],Taps=[1,1.010000000,1.010000000],XHL=1.625000000,XHT=1.625000000,XLT=1.300000000,%loadloss=1.900000000,%noloadloss=0.600000000 !395982
new transformer.TRF_1100266A Phases=1,Windings=3,Buses=[BMT141502022.3 141502029.1.0 141502029.0.2],Conns=[wye wye wye],kvs=[7.967 0.12 0.12],kvas=[5.000000000 5.000000000 5.000000000],Taps=[1,1.000000000,1.000000000],XHL=1.625000000,XHT=1.625000000,XLT=1.300000000,%loadloss=1.900000000,%noloadloss=0.600000000 !427004
new transformer.TRF_1100406A Phases=1,Windings=3,Buses=[BMT172264875.1 141528608.1.0 141528608.0.2],Conns=[wye wye wye],kvs=[7.967 0.12 0.12],kvas=[10.000000000 10.000000000 10.000000000],Taps=[1,1.020000000,1.020000000],XHL=1.735000000,XHT=1.735000000,XLT=1.388000000,%loadloss=1.800000000,%noloadloss=0.450000000 !389005
new transformer.TRF_1100483A Phases=1,Windings=3,Buses=[BMT179899852.3 141545394.1.0 141545394.0.2],Conns=[wye wye wye],kvs=[7.967 0.12 0.12],kvas=[15.000000000 15.000000000 15.000000000],Taps=[1,1.000000000,1.000000000],XHL=1.921000000,XHT=1.921000000,XLT=1.537000000,%loadloss=1.600000000,%noloadloss=0.400000000 !385300
new transformer.TRF_1117234 Phases=3,Windings=2,Buses=[BMT175424772.1.2.3 146034109.1.2.3.0],Conns=[delta,wye],kvs=[13.800000000,0.220000000],kvas=[30.000000000 30.000000000],Taps=[1,1.000000000],XHL=3.640000000,%loadloss=1.670000000,%noloadloss=0.433333000 !152747
new transformer.TRF_1117416 Phases=3,Windings=2,Buses=[BMT177589193.1.2.3 146080029.1.2.3.0],Conns=[delta,wye],kvs=[13.800000000,0.220000000],kvas=[30.000000000 30.000000000],Taps=[1,1.000000000],XHL=3.640000000,%loadloss=1.670000000,%noloadloss=0.433333000 !161220
new transformer.TRF_1117577 Phases=3,Windings=2,Buses=[BMT146174767.1.2.3 146171337.1.2.3.0],Conns=[delta,wye],kvs=[13.800000000,0.220000000],kvas=[45.000000000 45.000000000],Taps=[1,1.000000000],XHL=3.700000000,%loadloss=1.520000000,%noloadloss=0.377777000 !380756
new transformer.TRF_1117591 Phases=3,Windings=2,Buses=[BMT146174781.1.2.3 146174788.1.2.3.0],Conns=[delta,wye],kvs=[13.800000000,0.220000000],kvas=[30.000000000 30.000000000],Taps=[1,1.000000000],XHL=3.640000000,%loadloss=1.670000000,%noloadloss=0.433333000 !157431
new transformer.TRF_1117612 Phases=3,Windings=2,Buses=[BMT146177175.1.2.3 146177182.1.2.3.0],Conns=[delta,wye],kvs=[13.800000000,0.220000000],kvas=[45.000000000 45.000000000],Taps=[1,1.000000000],XHL=3.700000000,%loadloss=1.520000000,%noloadloss=0.377777000 !380771
new transformer.TRF_1117815A Phases=1,Windings=3,Buses=[BMT177968159.3 146284366.1.0 146284366.0.2],Conns=[wye wye wye],kvs=[7.967 0.12 0.12],kvas=[5.000000000 5.000000000 5.000000000],Taps=[1,1.000000000,1.000000000],XHL=1.625000000,XHT=1.625000000,XLT=1.300000000,%loadloss=1.900000000,%noloadloss=0.600000000 !429863
new transformer.TRF_1117934A Phases=1,Windings=3,Buses=[BMT146338637.3 146334556.1.0 146334556.0.2],Conns=[wye wye wye],kvs=[7.967 0.12 0.12],kvas=[10.000000000 10.000000000 10.000000000],Taps=[1,1.000000000,1.000000000],XHL=1.735000000,XHT=1.735000000,XLT=1.388000000,%loadloss=1.800000000,%noloadloss=0.450000000 !389849