new line.SBT_1008531 bus1=1081814.1.2.3.0,bus2=1081821.1.2.3.0,Phases=3,Linecode=BT518_BT518_7_3_1_3,Length=0.000510000,Units=km
new line.SBT_1008538 bus1=1081821.1.2.3.0,bus2=1081828.1.2.3.0,Phases=3,Linecode=BT803_BT803_4_3_4_3,Length=0.034269960,Units=km
new line.SBT_1008545 bus1=1081821.1.2.3.0,bus2=1081842.1.2.3.0,Phases=3,Linecode=BT803_BT803_4_3_4_3,Length=0.034647360,Units=km
new line.SBT_1008552 bus1=1081828.1.2.3.0,bus2=1081835.1.2.3.0,Phases=3,Linecode=BT803_BT803_4_3_4_3,Length=0.030427620,Units=km
new line.SBT_1008559 bus1=1081835.1.2.3.0,bus2=1081877.1.2.3.0,Phases=3,Linecode=BT809_BT809_4_3_4_3,Length=0.033456000,Units=km
new line.SBT_1008566 bus1=1081842.1.2.3.0,bus2=1081849.1.2.3.0,Phases=3,Linecode=BT803_BT803_4_3_4_3,Length=0.033903780,Units=km
new line.SBT_1008573 bus1=1081849.1.2.3.0,bus2=1081856.1.2.3.0,Phases=3,Linecode=BT803_BT803_4_3_4_3,Length=0.034617780,Units=km
new line.SBT_1008580 bus1=1081856.1.2.3.0,bus2=1081863.1.2.3.0,Phases=3,Linecode=BT803_BT803_4_3_4_3,Length=0.038771220,Units=km
new line.SBT_1008587 bus1=1081856.1.2.3.0,bus2=1081870.1.2.3.0,Phases=3,Linecode=BT803_BT803_4_3_4_3,Length=0.026926980,Units=km
new line.SBT_1008594 bus1=5056722.1.2.3.0,bus2=165943359.1.2.3.0,Phases=3,Linecode=BT803_BT803_4_3_4_3,Length=0.041050920,Units=km
new line.SBT_1008601 bus1=1081863.1.2.3.0,bus2=1081884.1.2.3.0,Phases=3,Linecode=BT810_BT810_4_3_4_3,Length=0.030273600,Units=km
new line.SBT_10087447 bus1=147516499.1.2.3.0,bus2=1044175.1.2.3.0,Phases=3,Linecode=BT518_BT518_7_3_1_3,Length=0.000510000,Units=km
new line.SBT_10088056 bus1=3265114.1.2.3.0,bus2=147553116.1.2.3.0,Phases=3,Linecode=BT803_BT803_4_3_4_3,Length=0.040796940,Units=km
new line.SBT_10088070 bus1=147553116.1.2.3.0,bus2=147553165.1.2.3.0,Phases=3,Linecode=BT803_BT803_4_3_4_3,Length=0.034087380,Units=km
new line.SBT_1008811 bus1=1082129.1.2.3.0,bus2=1082122.1.2.3.0,Phases=3,Linecode=BT809_BT809_4_3_4_3,Length=0.027707280,Units=km
new line.SBT_1008818 bus1=1082129.1.2.3.0,bus2=1082143.1.2.3.0,Phases=3,Linecode=BT809_BT809_4_3_4_3,Length=0.034194480,Units=km
new line.SBT_1008825 bus1=1082136.1.2.3.0,bus2=1082129.1.2.3.0,Phases=3,Linecode=BT803_BT803_4_3_4_3,Length=0.007355220,Units=km
new line.SBT_1008832 bus1=1082143.1.2.3.0,bus2=1082185.1.2.3.0,Phases=3,Linecode=BT809_BT809_4_3_4_3,Length=0.037613520,Units=km
new line.SBT_1008839 bus1=1082150.1.2.3.0,bus2=1082136.1.2.3.0,Phases=3,Linecode=BT803_BT803_4_3_4_3,Length=0.034857480,Units=km
new line.SBT_1008846 bus1=1082157.1.2.3.0,bus2=1082150.1.2.3.0,Phases=3,Linecode=BT803_BT803_4_3_4_3,Length=0.034209780,Units=km
new line.SBT_1008853 bus1=1082115.1.2.3.0,bus2=1082157.1.2.3.0,Phases=3,Linecode=BT518_BT518_7_3_1_3,Length=0.000510000,Units=km
new line.SBT_1008860 bus1=1082157.1.2.3.0,bus2=1082164.1.2.3.0,Phases=3,Linecode=BT803_BT803_4_3_4_3,Length=0.036045780,Units=km
new line.SBT_1008867 bus1=1082164.1.2.3.0,bus2=1082171.1.2.3.0,Phases=3,Linecode=BT803_BT803_4_3_4_3,Length=0.028283580,Units=km
new line.SBT_1008874 bus1=1082171.1.2.3.0,bus2=1082178.1.2.3.0,Phases=3,Linecode=BT803_BT803_4_3_4_3,Length=0.039237360,Units=km
new line.SBT_10090730 bus1=147664010.1.2.0,bus2=147664017.1.2.0,Phases=2,Linecode=BT521_BT521_7_2_1_2,Length=0.000510000,Units=km
new line.SBT_1009196 bus1=1082528.1.2.3.0,bus2=1082521.1.2.3.0,Phases=3,Linecode=BT803_BT803_4_3_4_3,Length=0.030597960,Units=km
new line.SBT_1009203 bus1=1082514.1.2.3.0,bus2=1082528.1.2.3.0,Phases=3,Linecode=BT509_BT509_7_3_1_3,Length=0.000510000,Units=km
new line.SBT_1009210 bus1=1082528.1.2.3.0,bus2=1082535.1.2.3.0,Phases=3,Linecode=BT803_BT803_4_3_4_3,Length=0.019405500,Units=km
new line.SBT_1009217 bus1=1082535.1.2.3.0,bus2=1082549.1.2.3.0,Phases=3,Linecode=BT803_BT803_4_3_4_3,Length=0.007140000,Units=km
new line.SBT_10092221 bus1=147693074.1.2.0,bus2=147693081.1.2.0,Phases=2,Linecode=BT521_BT521_7_2_1_2,Length=0.000510000,Units=km
new line.SBT_10092235 bus1=147693466.1.2.0,bus2=147693473.1.2.0,Phases=2,Linecode=BT521_BT521_7_2_1_2,Length=0.000510000,Units=km
new line.SBT_1009224 bus1=1082549.1.2.3.0,bus2=1082542.1.2.3.0,Phases=3,Linecode=BT810_BT810_4_3_4_3,Length=0.035712240,Units=km
new line.SBT_1009231 bus1=1082549.1.2.3.0,bus2=1082563.1.2.3.0,Phases=3,Linecode=BT810_BT810_4_3_4_3,Length=0.006204660,Units=km
new line.SBT_1009238 bus1=1082549.1.2.3.0,bus2=1082556.1.2.3.0,Phases=3,Linecode=BT803_BT803_4_3_4_3,Length=0.032653260,Units=km
new line.SBT_1009252 bus1=1082584.1.2.0,bus2=1082591.1.2.0,Phases=2,Linecode=BT509_BT509_7_2_1_2,Length=0.000510000,Units=km
new line.SBT_1009259 bus1=1082591.1.2.0,bus2=1082598.1.2.0,Phases=2,Linecode=BT807_BT807_4_2_3_2,Length=0.029700360,Units=km
new line.SBT_1009266 bus1=1082591.1.2.0,bus2=1082654.1.2.0,Phases=2,Linecode=BT807_BT807_4_2_3_2,Length=0.028630380,Units=km
new line.SBT_1009273 bus1=1082598.1.2.0,bus2=1082605.1.2.0,Phases=2,Linecode=BT807_BT807_4_2_3_2,Length=0.037902180,Units=km
new line.SBT_1009280 bus1=1082605.1.2.0,bus2=1082612.1.2.0,Phases=2,Linecode=BT808_BT808_4_2_3_2,Length=0.030834600,Units=km
new line.SBT_1009287 bus1=1082612.1.2.0,bus2=1082619.1.2.0,Phases=2,Linecode=BT808_BT808_4_2_3_2,Length=0.031732200,Units=km
new line.SBT_1009294 bus1=1082619.1.2.0,bus2=1082626.1.2.0,Phases=2,Linecode=BT808_BT808_4_2_3_2,Length=0.035522520,Units=km
new line.SBT_1009301 bus1=1082626.1.2.0,bus2=1082633.1.2.0,Phases=2,Linecode=BT808_BT808_4_2_3_2,Length=0.039986040,Units=km
new line.SBT_10093047 bus1=147706017.1.2.3.0,bus2=147706024.1.2.3.0,Phases=3,Linecode=BT521_BT521_7_3_1_3,Length=0.000510000,Units=km
new line.SBT_1009308 bus1=1082633.1.2.0,bus2=3263602.1.2.0,Phases=2,Linecode=BT808_BT808_4_2_3_2,Length=0.041266140,Units=km
new line.SBT_1009315 bus1=1082640.1.2.0,bus2=1082661.1.2.0,Phases=2,Linecode=BT808_BT808_4_2_3_2,Length=0.031617960,Units=km
new line.SBT_10093201 bus1=147707774.1.2.0,bus2=147707781.1.2.0,Phases=2,Linecode=BT513_BT513_7_2_1_2,Length=0.000510000,Units=km
new line.SBT_1009322 bus1=1082647.1.2.0,bus2=1082640.1.2.0,Phases=2,Linecode=BT808_BT808_4_2_3_2,Length=0.032701200,Units=km
new line.SBT_10093271 bus1=147713185.1.2.3.0,bus2=147713192.1.2.3.0,Phases=3,Linecode=BT521_BT521_7_3_1_3,Length=0.000510000,Units=km
new line.SBT_1009329 bus1=1082654.1.2.0,bus2=1082647.1.2.0,Phases=2,Linecode=BT803_BT803_4_2_4_2,Length=0.027707280,Units=km
new line.SBT_1009336 bus1=1082661.1.2.0,bus2=1082668.1.2.0,Phases=2,Linecode=BT808_BT808_4_2_3_2,Length=0.033657960,Units=km
new line.SBT_1009343 bus1=1082675.1.2.0,bus2=1082682.1.2.0,Phases=2,Linecode=BT306_BT306_7_2_1_2,Length=0.000510000,Units=km
new line.SBT_10093726 bus1=147717847.1.2.0,bus2=147717854.1.2.0,Phases=2,Linecode=BT521_BT521_7_2_1_2,Length=0.000510000,Units=km
new line.SBT_1009399 bus1=1082731.1.2.3.0,bus2=1082738.1.2.3.0,Phases=3,Linecode=BT518_BT518_7_3_1_3,Length=0.000510000,Units=km
new line.SBT_1009406 bus1=1082738.1.2.3.0,bus2=1082745.1.2.3.0,Phases=3,Linecode=BT803_BT803_4_3_4_3,Length=0.024837000,Units=km
new line.SBT_1009413 bus1=1082738.1.2.3.0,bus2=1082794.1.2.3.0,Phases=3,Linecode=BT803_BT803_4_3_4_3,Length=0.024837000,Units=km
new line.SBT_1009420 bus1=1082745.1.2.3.0,bus2=1082752.1.2.3.0,Phases=3,Linecode=BT803_BT803_4_3_4_3,Length=0.035227740,Units=km
new line.SBT_1009427 bus1=1082745.1.2.3.0,bus2=1082773.1.2.3.0,Phases=3,Linecode=BT809_BT809_4_3_4_3,Length=0.030834600,Units=km
new line.SBT_10056633 bus1=146727179.1.2.3.0,bus2=1085601.1.2.3.0,Phases=3,Linecode=BT809_BT809_4_3_4_3,Length=0.022368600,Units=km
new line.SBT_10056654 bus1=146727179.1.2.3.0,bus2=146727676.1.2.3.0,Phases=3,Linecode=BT803_BT803_4_3_4_3,Length=0.038447880,Units=km
new line.SBT_10056661 bus1=146727676.1.2.3.0,bus2=146727900.1.2.3.0,Phases=3,Linecode=BT803_BT803_4_3_4_3,Length=0.029365800,Units=km
new line.SBT_10056668 bus1=146727900.1.2.3.0,bus2=146727907.1.2.3.0,Phases=3,Linecode=BT803_BT803_4_3_4_3,Length=0.029365800,Units=km
new line.SBT_10056759 bus1=2905146.1.2.3.0,bus2=146731456.1.2.3.0,Phases=3,Linecode=BT803_BT803_4_3_4_3,Length=0.041115180,Units=km
new line.SBT_10056766 bus1=146731456.1.2.3.0,bus2=146731582.1.2.3.0,Phases=3,Linecode=BT803_BT803_4_3_4_3,Length=0.040963200,Units=km
new line.SBT_10056773 bus1=146731582.1.2.3.0,bus2=146731589.1.2.3.0,Phases=3,Linecode=BT803_BT803_4_3_4_3,Length=0.040963200,Units=km
new line.SBT_10056780 bus1=146731589.1.2.3.0,bus2=146731659.1.2.3.0,Phases=3,Linecode=BT803_BT803_4_3_4_3,Length=0.040963200,Units=km
new line.SBT_10056787 bus1=146731659.1.2.3.0,bus2=146731673.1.2.3.0,Phases=3,Linecode=BT803_BT803_4_3_4_3,Length=0.029028180,Units=km
new line.SBT_10056794 bus1=146731673.1.2.3.0,bus2=146731680.1.2.3.0,Phases=3,Linecode=BT803_BT803_4_3_4_3,Length=0.028062240,Units=km
new line.SBT_10057466 bus1=3265184.1.2.0,bus2=146755844.1.2.0,Phases=2,Linecode=BT810_BT810_4_2_4_2,Length=0.042127020,Units=km
new line.SBT_10057473 bus1=146755844.1.2.0,bus2=146755914.1.2.0,Phases=2,Linecode=BT810_BT810_4_2_4_2,Length=0.042262680,Units=km
new line.SBT_10057480 bus1=146755914.1.2.0,bus2=146756054.1.2.0,Phases=2,Linecode=BT810_BT810_4_2_4_2,Length=0.039986040,Units=km
new line.SBT_10058089 bus1=999410.1.2.3.0,bus2=146782171.1.2.3.0,Phases=3,Linecode=BT803_BT803_4_3_4_3,Length=0.021898380,Units=km
new line.SBT_10058159 bus1=997842.1.2.3.0,bus2=146783039.1.2.3.0,Phases=3,Linecode=BT803_BT803_4_3_4_3,Length=0.027462480,Units=km
new line.SBT_1020529 bus1=1094624.1.2.0,bus2=1094631.1.2.0,Phases=2,Linecode=BT304_BT304_7_2_1_2,Length=0.000510000,Units=km
new line.SBT_1020599 bus1=1094715.1.2.0,bus2=1094764.1.2.0,Phases=2,Linecode=BT801_BT801_4_2_3_2,Length=0.043295940,Units=km
new line.SBT_1020606 bus1=1094715.1.2.0,bus2=1094736.1.2.0,Phases=2,Linecode=BT107_BT107_7_2_1_2,Length=0.037418700,Units=km
new line.SBT_1020613 bus1=1094715.1.2.0,bus2=1094771.1.2.0,Phases=2,Linecode=BT801_BT801_4_2_3_2,Length=0.027100380,Units=km
new line.SBT_1020620 bus1=1094722.1.2.0,bus2=1094715.1.2.0,Phases=2,Linecode=BT807_BT807_4_2_3_2,Length=0.037612500,Units=km
new line.SBT_1020627 bus1=1094708.1.2.0,bus2=1094722.1.2.0,Phases=2,Linecode=BT513_BT513_7_2_1_2,Length=0.000510000,Units=km
new line.SBT_1020634 bus1=1094722.1.2.0,bus2=1094729.1.2.0,Phases=2,Linecode=BT807_BT807_4_2_3_2,Length=0.037847100,Units=km
new line.SBT_1020641 bus1=1094729.1.2.0,bus2=1094757.1.2.0,Phases=2,Linecode=BT801_BT801_4_2_3_2,Length=0.040643940,Units=km
new line.SBT_1020648 bus1=1094729.1.2.0,bus2=1094750.1.2.0,Phases=2,Linecode=BT801_BT801_4_2_3_2,Length=0.042593160,Units=km
new line.SBT_1020655 bus1=1094743.1.2.0,bus2=2552570.1.2.0,Phases=2,Linecode=BT808_BT808_4_2_3_2,Length=0.039091500,Units=km
new line.SBT_1020662 bus1=1094771.1.2.0,bus2=1094778.1.2.0,Phases=2,Linecode=BT801_BT801_4_2_3_2,Length=0.030969240,Units=km
new line.SBT_1020683 bus1=1094820.1.2.0,bus2=1094827.1.2.0,Phases=2,Linecode=BT304_BT304_7_2_1_2,Length=0.000510000,Units=km
new line.SBT_1020781 bus1=1094960.1.2.0,bus2=1094953.1.2.0,Phases=2,Linecode=BT807_BT807_4_2_3_2,Length=0.032461500,Units=km
new line.SBT_1020788 bus1=1094967.1.2.0,bus2=1094960.1.2.0,Phases=2,Linecode=BT807_BT807_4_2_3_2,Length=0.040193100,Units=km
new line.SBT_1020795 bus1=1094974.1.2.0,bus2=1094967.1.2.0,Phases=2,Linecode=BT807_BT807_4_2_3_2,Length=0.036218160,Units=km
new line.SBT_1020802 bus1=1094981.1.2.0,bus2=1095002.1.2.0,Phases=2,Linecode=BT807_BT807_4_2_3_2,Length=0.042507480,Units=km
new line.SBT_1020809 bus1=1094981.1.2.0,bus2=1094974.1.2.0,Phases=2,Linecode=BT807_BT807_4_2_3_2,Length=0.031929060,Units=km
new line.SBT_1020816 bus1=1094946.1.2.0,bus2=1094981.1.2.0,Phases=2,Linecode=BT513_BT513_7_2_1_2,Length=0.000510000,Units=km
new line.SBT_1020823 bus1=1094995.1.2.3.0,bus2=5727392.1.2.3.0,Phases=3,Linecode=BT803_BT803_4_3_4_3,Length=0.032891940,Units=km
new line.SBT_1020830 bus1=1095009.1.2.3.0,bus2=1094995.1.2.3.0,Phases=3,Linecode=BT803_BT803_4_3_4_3,Length=0.036060060,Units=km
new line.SBT_1020837 bus1=5727357.1.2.3.0,bus2=1095009.1.2.3.0,Phases=3,Linecode=BT513_BT513_7_3_1_3,Length=0.000510000,Units=km
new line.SBT_1020865 bus1=1095044.1.2.3.0,bus2=1095051.1.2.3.0,Phases=3,Linecode=BT518_BT518_7_3_1_3,Length=0.000510000,Units=km
new line.SBT_1020991 bus1=1095212.1.2.0,bus2=1095205.1.2.0,Phases=2,Linecode=BT807_BT807_4_2_3_2,Length=0.033096960,Units=km
new line.SBT_1020998 bus1=1095219.1.2.0,bus2=1095212.1.2.0,Phases=2,Linecode=BT807_BT807_4_2_3_2,Length=0.035929500,Units=km
new line.SBT_1021005 bus1=1095240.1.2.0,bus2=1095233.1.2.0,Phases=2,Linecode=BT807_BT807_4_2_3_2,Length=0.033719160,Units=km
new line.SBT_1021012 bus1=1095247.1.2.0,bus2=1095240.1.2.0,Phases=2,Linecode=BT807_BT807_4_2_3_2,Length=0.032653260,Units=km
new line.SBT_1021019 bus1=1095254.1.2.0,bus2=1095247.1.2.0,Phases=2,Linecode=BT807_BT807_4_2_3_2,Length=0.037861380,Units=km
new line.SBT_1021026 bus1=1095198.1.2.0,bus2=1095254.1.2.0,Phases=2,Linecode=BT513_BT513_7_2_1_2,Length=0.000510000,Units=km
new line.SBT_1021033 bus1=1095254.1.2.0,bus2=1095261.1.2.0,Phases=2,Linecode=BT807_BT807_4_2_3_2,Length=0.029595300,Units=km
new line.SBT_1021040 bus1=1095261.1.2.0,bus2=1095226.1.2.0,Phases=2,Linecode=BT807_BT807_4_2_3_2,Length=0.032844000,Units=km
new line.SBT_1021047 bus1=1095261.1.2.0,bus2=1095268.1.2.0,Phases=2,Linecode=BT807_BT807_4_2_3_2,Length=0.024563640,Units=km
new line.SBT_1021271 bus1=1019675.1.2.3.0,bus2=1095653.1.2.3.0,Phases=3,Linecode=BT803_BT803_4_3_4_3,Length=0.007212420,Units=km
new line.SBT_1021278 bus1=1095653.1.2.3.0,bus2=1095660.1.2.3.0,Phases=3,Linecode=BT803_BT803_4_3_4_3,Length=0.027004500,Units=km
new line.SBT_1021285 bus1=1095674.1.2.3.0,bus2=1095681.1.2.3.0,Phases=3,Linecode=BT805_BT805_4_3_4_3,Length=0.005492700,Units=km
new line.SBT_1021292 bus1=1095681.1.2.3.0,bus2=1095667.1.2.3.0,Phases=3,Linecode=BT803_BT803_4_3_4_3,Length=0.020116440,Units=km
new line.SBT_1021299 bus1=1095681.1.2.3.0,bus2=1095688.1.2.3.0,Phases=3,Linecode=BT803_BT803_4_3_4_3,Length=0.013684320,Units=km
new line.SBT_1021306 bus1=1095681.1.2.3.0,bus2=1095695.1.2.3.0,Phases=3,Linecode=BT805_BT805_4_3_4_3,Length=0.024668700,Units=km
new line.SBT_1021313 bus1=1095688.1.2.3.0,bus2=1095709.1.2.3.0,Phases=3,Linecode=BT803_BT803_4_3_4_3,Length=0.029736060,Units=km
new line.SBT_1021320 bus1=1095695.1.2.3.0,bus2=1095702.1.2.3.0,Phases=3,Linecode=BT805_BT805_4_3_4_3,Length=0.013415040,Units=km
new line.SBT_1021327 bus1=1095716.1.2.3.0,bus2=1095723.1.2.3.0,Phases=3,Linecode=BT805_BT805_4_3_4_3,Length=0.032844000,Units=km
new line.SBT_1021341 bus1=1095723.1.2.3.0,bus2=6179634.1.2.3.0,Phases=3,Linecode=BT805_BT805_4_3_4_3,Length=0.025334760,Units=km
new line.SBT_1021348 bus1=1095730.1.2.3.0,bus2=1095758.1.2.3.0,Phases=3,Linecode=BT803_BT803_4_3_4_3,Length=0.017812260,Units=km
new line.SBT_1021355 bus1=1095737.1.2.3.0,bus2=1095730.1.2.3.0,Phases=3,Linecode=BT803_BT803_4_3_4_3,Length=0.023723160,Units=km
new line.SBT_10041247 bus1=146171337.1.2.3.0,bus2=146171344.1.2.3.0,Phases=3,Linecode=BT518_BT518_7_3_1_3,Length=0.000511020,Units=km
new line.SBT_10041331 bus1=146174788.1.2.3.0,bus2=146174795.1.2.3.0,Phases=3,Linecode=BT518_BT518_7_3_1_3,Length=0.000511020,Units=km
new line.SBT_10041513 bus1=146177182.1.2.3.0,bus2=146177189.1.2.3.0,Phases=3,Linecode=BT518_BT518_7_3_1_3,Length=0.000511020,Units=km
new line.SBT_10043256 bus1=146284366.1.2.0,bus2=146284373.1.2.0,Phases=2,Linecode=BT521_BT521_7_2_1_2,Length=0.000510000,Units=km
new line.SBT_10044187 bus1=146334556.1.2.0,bus2=146334563.1.2.0,Phases=2,Linecode=BT521_BT521_7_2_1_2,Length=0.000510000,Units=km
new line.SBT_10044411 bus1=146338644.1.2.0,bus2=146338651.1.2.0,Phases=2,Linecode=BT521_BT521_7_2_1_2,Length=0.000510000,Units=km
new line.SBT_10047827 bus1=146417163.1.2.3.0,bus2=5737605.1.2.3.0,Phases=3,Linecode=BT803_BT803_4_3_4_3,Length=0.046179480,Units=km
new line.SBT_10047834 bus1=146417170.1.2.3.0,bus2=146417163.1.2.3.0,Phases=3,Linecode=BT803_BT803_4_3_4_3,Length=0.042849180,Units=km
new line.SBT_10047841 bus1=157587221.1.2.3.0,bus2=146417177.1.2.3.0,Phases=3,Linecode=BT803_BT803_4_3_4_3,Length=0.026926980,Units=km
new line.SBT_10047848 bus1=146417177.1.2.3.0,bus2=146417184.1.2.3.0,Phases=3,Linecode=BT803_BT803_4_3_4_3,Length=0.037957260,Units=km
new line.SBT_10047855 bus1=146417184.1.2.3.0,bus2=146417191.1.2.3.0,Phases=3,Linecode=BT803_BT803_4_3_4_3,Length=0.046960800,Units=km
new line.SBT_10047862 bus1=146417191.1.2.3.0,bus2=146417198.1.2.3.0,Phases=3,Linecode=BT803_BT803_4_3_4_3,Length=0.040412400,Units=km
new line.SBT_10047897 bus1=146418913.1.2.0,bus2=146418920.1.2.0,Phases=2,Linecode=BT521_BT521_7_2_1_2,Length=0.000510000,Units=km
new line.SBT_10047911 bus1=146419529.1.2.0,bus2=146419536.1.2.0,Phases=2,Linecode=BT521_BT521_7_2_1_2,Length=0.000510000,Units=km
new line.SBT_10048310 bus1=146441740.1.2.0,bus2=146441747.1.2.0,Phases=2,Linecode=BT521_BT521_7_2_1_2,Length=0.000510000,Units=km
new line.SBT_10048569 bus1=146450861.1.2.3.0,bus2=146450868.1.2.3.0,Phases=3,Linecode=BT518_BT518_7_3_1_3,Length=0.000510000,Units=km
new line.SBT_10048576 bus1=146450868.1.2.3.0,bus2=146451127.1.2.3.0,Phases=3,Linecode=BT803_BT803_4_3_4_3,Length=0.025822320,Units=km
new line.SBT_10048583 bus1=146451127.1.2.3.0,bus2=146451134.1.2.3.0,Phases=3,Linecode=BT803_BT803_4_3_4_3,Length=0.026693400,Units=km
new line.SBT_10048590 bus1=146451134.1.2.3.0,bus2=146451141.1.2.3.0,Phases=3,Linecode=BT803_BT803_4_3_4_3,Length=0.029857440,Units=km
new line.SBT_10048597 bus1=146451141.1.2.3.0,bus2=146451148.1.2.3.0,Phases=3,Linecode=BT803_BT803_4_3_4_3,Length=0.028721160,Units=km
new line.SBT_10048604 bus1=146450868.1.2.3.0,bus2=146451232.1.2.3.0,Phases=3,Linecode=BT803_BT803_4_3_4_3,Length=0.027707280,Units=km
new line.SBT_10048611 bus1=146451232.1.2.3.0,bus2=146451316.1.2.3.0,Phases=3,Linecode=BT803_BT803_4_3_4_3,Length=0.028721160,Units=km
new line.SBT_10048618 bus1=146451316.1.2.3.0,bus2=146451323.1.2.3.0,Phases=3,Linecode=BT803_BT803_4_3_4_3,Length=0.029857440,Units=km
new line.SBT_10048625 bus1=146451323.1.2.3.0,bus2=146451330.1.2.3.0,Phases=3,Linecode=BT803_BT803_4_3_4_3,Length=0.029008800,Units=km
new line.SBT_10048667 bus1=146452800.1.2.0,bus2=146452807.1.2.0,Phases=2,Linecode=BT521_BT521_7_2_1_2,Length=0.000510000,Units=km
new line.SBT_1016056 bus1=1089675.1.2.3.0,bus2=1089731.1.2.3.0,Phases=3,Linecode=BT803_BT803_4_3_4_3,Length=0.029997180,Units=km
new line.SBT_1016063 bus1=170190132.1.2.3.0,bus2=1089675.1.2.3.0,Phases=3,Linecode=BT803_BT803_4_3_4_3,Length=0.035813220,Units=km
new line.SBT_1016077 bus1=1089689.1.2.3.0,bus2=170190132.1.2.3.0,Phases=3,Linecode=BT803_BT803_4_3_4_3,Length=0.028793580,Units=km
new line.SBT_1016084 bus1=1089696.1.2.3.0,bus2=1089689.1.2.3.0,Phases=3,Linecode=BT803_BT803_4_3_4_3,Length=0.029365800,Units=km
new line.SBT_1016091 bus1=1089703.1.2.3.0,bus2=1089696.1.2.3.0,Phases=3,Linecode=BT803_BT803_4_3_4_3,Length=0.032955180,Units=km
new line.SBT_1016105 bus1=1089703.1.2.3.0,bus2=1089710.1.2.3.0,Phases=3,Linecode=BT803_BT803_4_3_4_3,Length=0.030969240,Units=km
new line.SBT_1016112 bus1=1089710.1.2.3.0,bus2=1089717.1.2.3.0,Phases=3,Linecode=BT803_BT803_4_3_4_3,Length=0.028006140,Units=km
new line.SBT_1016119 bus1=1089717.1.2.3.0,bus2=1089724.1.2.3.0,Phases=3,Linecode=BT803_BT803_4_3_4_3,Length=0.033409080,Units=km
new line.SBT_1016616 bus1=1090221.1.2.3.0,bus2=1090214.1.2.3.0,Phases=3,Linecode=BT810_BT810_4_3_4_3,Length=0.035871360,Units=km
new line.SBT_1016623 bus1=1090228.1.2.3.0,bus2=1090221.1.2.3.0,Phases=3,Linecode=BT810_BT810_4_3_4_3,Length=0.035477640,Units=km
new line.SBT_1016630 bus1=1090235.1.2.3.0,bus2=1090228.1.2.3.0,Phases=3,Linecode=BT803_BT803_4_3_4_3,Length=0.035871360,Units=km
new line.SBT_1016637 bus1=1090242.1.2.3.0,bus2=1090291.1.2.3.0,Phases=3,Linecode=BT810_BT810_4_3_4_3,Length=0.028447800,Units=km
new line.SBT_1016644 bus1=1090242.1.2.3.0,bus2=1090235.1.2.3.0,Phases=3,Linecode=BT803_BT803_4_3_4_3,Length=0.037418700,Units=km
new line.SBT_1016651 bus1=1090242.1.2.3.0,bus2=1090249.1.2.3.0,Phases=3,Linecode=BT810_BT810_4_3_4_3,Length=0.027745020,Units=km
new line.SBT_1016658 bus1=1090256.1.2.3.0,bus2=1090242.1.2.3.0,Phases=3,Linecode=BT803_BT803_4_3_4_3,Length=0.033903780,Units=km
new line.SBT_1016665 bus1=1090207.1.2.3.0,bus2=1090256.1.2.3.0,Phases=3,Linecode=BT109_BT109_7_3_1_3,Length=0.000510000,Units=km
new line.SBT_1016672 bus1=1090256.1.2.3.0,bus2=1090263.1.2.3.0,Phases=3,Linecode=BT803_BT803_4_3_4_3,Length=0.030682620,Units=km
new line.SBT_1016679 bus1=1090263.1.2.3.0,bus2=1090270.1.2.3.0,Phases=3,Linecode=BT803_BT803_4_3_4_3,Length=0.033903780,Units=km
new line.SBT_1016686 bus1=1090270.1.2.3.0,bus2=1090284.1.2.3.0,Phases=3,Linecode=BT803_BT803_4_3_4_3,Length=0.035168580,Units=km
new line.SBT_1016693 bus1=1090284.1.2.3.0,bus2=1090277.1.2.3.0,Phases=3,Linecode=BT803_BT803_4_3_4_3,Length=0.036446640,Units=km
new line.SBT_1016700 bus1=1090298.1.2.3.0,bus2=1090305.1.2.3.0,Phases=3,Linecode=BT508_BT508_7_3_1_3,Length=0.000510000,Units=km
new line.SBT_1016707 bus1=1090305.1.2.3.0,bus2=1090312.1.2.3.0,Phases=3,Linecode=BT108_BT107_7_3_1_3,Length=0.041115180,Units=km
new line.SBT_1016714 bus1=1090305.1.2.3.0,bus2=138010268.1.2.3.0,Phases=3,Linecode=BT108_BT107_7_3_1_3,Length=0.037126980,Units=km
new line.SBT_1016721 bus1=1090312.1.2.0,bus2=1090319.1.2.0,Phases=2,Linecode=BT107_BT106_7_2_1_2,Length=0.041418120,Units=km
new line.SBT_1016728 bus1=1090319.1.2.0,bus2=138010730.1.2.0,Phases=2,Linecode=BT107_BT106_7_2_1_2,Length=0.035405220,Units=km
new line.SBT_1016735 bus1=1090326.1.2.0,bus2=138011899.1.2.0,Phases=2,Linecode=BT808_BT808_4_2_3_2,Length=0.027444120,Units=km
new line.SBT_1016742 bus1=1090333.1.2.0,bus2=138012123.1.2.0,Phases=2,Linecode=BT808_BT808_4_2_3_2,Length=0.036089640,Units=km
new line.SBT_1016749 bus1=1090347.1.2.3.0,bus2=138009288.1.2.3.0,Phases=3,Linecode=BT107_BT106_7_3_1_3,Length=0.028576320,Units=km
new line.SBT_1016756 bus1=1090354.1.2.3.0,bus2=1090361.1.2.3.0,Phases=3,Linecode=BT107_BT106_7_3_1_3,Length=0.037627800,Units=km
new line.SBT_1016770 bus1=1090592.1.2.3.0,bus2=1090599.1.2.3.0,Phases=3,Linecode=BT809_BT809_4_3_4_3,Length=0.043869180,Units=km
new line.SBT_1016791 bus1=1090417.1.2.3.0,bus2=1090466.1.2.3.0,Phases=3,Linecode=BT803_BT803_4_3_4_3,Length=0.026123220,Units=km
new line.SBT_1016798 bus1=1090410.1.2.3.0,bus2=1090431.1.2.3.0,Phases=3,Linecode=BT518_BT518_7_3_1_3,Length=0.000510000,Units=km
new line.SBT_1016805 bus1=1090431.1.2.3.0,bus2=1090438.1.2.3.0,Phases=3,Linecode=BT803_BT803_4_3_4_3,Length=0.031683240,Units=km
new line.SBT_1016812 bus1=1090431.1.2.3.0,bus2=1090480.1.2.3.0,Phases=3,Linecode=BT803_BT803_4_3_4_3,Length=0.032253420,Units=km
new line.SBT_1016819 bus1=1090438.1.2.3.0,bus2=1090445.1.2.3.0,Phases=3,Linecode=BT803_BT803_4_3_4_3,Length=0.026596500,Units=km
new line.SBT_1016826 bus1=1090445.1.2.3.0,bus2=1090452.1.2.3.0,Phases=3,Linecode=BT803_BT803_4_3_4_3,Length=0.027462480,Units=km
new line.SBT_1016833 bus1=1090452.1.2.3.0,bus2=1090459.1.2.3.0,Phases=3,Linecode=BT803_BT803_4_3_4_3,Length=0.026596500,Units=km
new line.SBT_1016840 bus1=1090473.1.2.3.0,bus2=1090424.1.2.3.0,Phases=3,Linecode=BT803_BT803_4_3_4_3,Length=0.037502340,Units=km
new line.SBT_1016847 bus1=1090480.1.2.3.0,bus2=1090487.1.2.3.0,Phases=3,Linecode=BT803_BT803_4_3_4_3,Length=0.028576320,Units=km
new line.SBT_1016854 bus1=1090487.1.2.3.0,bus2=1090494.1.2.3.0,Phases=3,Linecode=BT803_BT803_4_3_4_3,Length=0.033673260,Units=km
new line.SBT_1016861 bus1=1090494.1.2.3.0,bus2=1090501.1.2.3.0,Phases=3,Linecode=BT803_BT803_4_3_4_3,Length=0.027157500,Units=km
new line.SBT_1016868 bus1=1090501.1.2.3.0,bus2=1090508.1.2.3.0,Phases=3,Linecode=BT803_BT803_4_3_4_3,Length=0.032253420,Units=km
new line.SBT_1016896 bus1=1090557.1.2.3.0,bus2=1090564.1.2.3.0,Phases=3,Linecode=BT508_BT508_7_3_1_3,Length=0.000510000,Units=km
new line.SBT_1016903 bus1=1090564.1.2.3.0,bus2=1090571.1.2.3.0,Phases=3,Linecode=BT803_BT803_4_3_4_3,Length=0.039895260,Units=km
new line.SBT_1016910 bus1=1090564.1.2.3.0,bus2=1090620.1.2.3.0,Phases=3,Linecode=BT803_BT803_4_3_4_3,Length=0.038488680,Units=km
new line.SBT_1016917 bus1=1090571.1.2.3.0,bus2=1090578.1.2.3.0,Phases=3,Linecode=BT809_BT809_4_3_4_3,Length=0.039607620,Units=km
new line.SBT_1016924 bus1=1090578.1.2.3.0,bus2=1090585.1.2.3.0,Phases=3,Linecode=BT809_BT809_4_3_4_3,Length=0.041026440,Units=km
new line.SBT_1016931 bus1=1090585.1.2.3.0,bus2=1090592.1.2.3.0,Phases=3,Linecode=BT809_BT809_4_3_4_3,Length=0.048487740,Units=km
new line.SBT_1016938 bus1=1090599.1.2.3.0,bus2=1090606.1.2.3.0,Phases=3,Linecode=BT809_BT809_4_3_4_3,Length=0.043031760,Units=km
new line.SBT_1016945 bus1=1090606.1.2.3.0,bus2=1090613.1.2.3.0,Phases=3,Linecode=BT809_BT809_4_3_4_3,Length=0.043964040,Units=km
new line.SBT_1016952 bus1=1090620.1.2.3.0,bus2=1090627.1.2.3.0,Phases=3,Linecode=BT809_BT809_4_3_4_3,Length=0.039091500,Units=km
new line.SBT_1016966 bus1=1090627.1.2.3.0,bus2=1090634.1.2.3.0,Phases=3,Linecode=BT809_BT809_4_3_4_3,Length=0.023876160,Units=km
new line.SBT_1016973 bus1=1090627.1.2.3.0,bus2=1090641.1.2.3.0,Phases=3,Linecode=BT809_BT809_4_3_4_3,Length=0.033966000,Units=km
new line.SBT_1016980 bus1=1090788.1.2.3.0,bus2=168895578.1.2.3.0,Phases=3,Linecode=BT803_BT803_4_3_4_3,Length=0.039986040,Units=km
new line.SBT_1016987 bus1=1090641.1.2.3.0,bus2=1090648.1.2.3.0,Phases=3,Linecode=BT809_BT809_4_3_4_3,Length=0.037350360,Units=km
new line.SBT_1016994 bus1=1090648.1.2.3.0,bus2=1090655.1.2.3.0,Phases=3,Linecode=BT809_BT809_4_3_4_3,Length=0.037751220,Units=km
new line.SBT_1017001 bus1=1090655.1.2.3.0,bus2=1090662.1.2.3.0,Phases=3,Linecode=BT809_BT809_4_3_4_3,Length=0.038488680,Units=km
new line.SBT_1017043 bus1=1090711.1.2.3.0,bus2=1090718.1.2.3.0,Phases=3,Linecode=BT314_BT314_7_3_1_3,Length=0.000510000,Units=km
new line.SBT_1017071 bus1=1090774.1.2.3.0,bus2=1090781.1.2.3.0,Phases=3,Linecode=BT803_BT803_4_3_4_3,Length=0.028062240,Units=km
new line.SBT_1017078 bus1=1090767.1.2.3.0,bus2=1090774.1.2.3.0,Phases=3,Linecode=BT509_BT509_7_3_1_3,Length=0.000510000,Units=km
new line.SBT_1017085 bus1=1090774.1.2.3.0,bus2=1090809.1.2.3.0,Phases=3,Linecode=BT803_BT803_4_3_4_3,Length=0.029366820,Units=km
new line.SBT_1017092 bus1=1090795.1.2.3.0,bus2=1090788.1.2.3.0,Phases=3,Linecode=BT803_BT803_4_3_4_3,Length=0.042225960,Units=km
new line.SBT_1017099 bus1=1090802.1.2.3.0,bus2=1090795.1.2.3.0,Phases=3,Linecode=BT803_BT803_4_3_4_3,Length=0.043572360,Units=km
new line.SBT_1017106 bus1=1090802.1.2.3.0,bus2=2902556.1.2.3.0,Phases=3,Linecode=BT803_BT803_4_3_4_3,Length=0.031020240,Units=km
new line.SBT_1017113 bus1=1090809.1.2.3.0,bus2=1090816.1.2.3.0,Phases=3,Linecode=BT803_BT803_4_3_4_3,Length=0.030970260,Units=km
new line.SBT_1017120 bus1=1090816.1.2.3.0,bus2=1090823.1.2.3.0,Phases=3,Linecode=BT809_BT809_4_3_4_3,Length=0.034286280,Units=km
new line.SBT_1017127 bus1=1090816.1.2.0,bus2=4346026.1.2.0,Phases=2,Linecode=BT808_BT808_4_2_3_2,Length=0.010096980,Units=km
new line.SBT_1017134 bus1=1090823.1.2.3.0,bus2=1090830.1.2.3.0,Phases=3,Linecode=BT809_BT809_4_3_4_3,Length=0.038838540,Units=km
new line.SBT_1017141 bus1=1090830.1.2.3.0,bus2=1090837.1.2.3.0,Phases=3,Linecode=BT809_BT809_4_3_4_3,Length=0.042995040,Units=km
new line.SBT_1017288 bus1=1090998.1.2.3.0,bus2=1091005.1.2.3.0,Phases=3,Linecode=BT518_BT518_7_3_1_3,Length=0.000510000,Units=km
new line.SBT_1017295 bus1=1091005.1.2.3.0,bus2=1091012.1.2.3.0,Phases=3,Linecode=BT803_BT803_4_3_4_3,Length=0.030834600,Units=km
new line.SBT_1017302 bus1=1091005.1.2.3.0,bus2=1091047.1.2.3.0,Phases=3,Linecode=BT803_BT803_4_3_4_3,Length=0.028006140,Units=km
new line.SBT_1017309 bus1=1091012.1.2.3.0,bus2=1091019.1.2.3.0,Phases=3,Linecode=BT803_BT803_4_3_4_3,Length=0.030834600,Units=km
new line.SBT_1017316 bus1=1091019.1.2.3.0,bus2=1091026.1.2.3.0,Phases=3,Linecode=BT803_BT803_4_3_4_3,Length=0.029997180,Units=km
new line.SBT_1017323 bus1=1091026.1.2.3.0,bus2=1091033.1.2.3.0,Phases=3,Linecode=BT803_BT803_4_3_4_3,Length=0.030834600,Units=km
new line.SBT_1017330 bus1=1091033.1.2.3.0,bus2=1091040.1.2.3.0,Phases=3,Linecode=BT803_BT803_4_3_4_3,Length=0.030834600,Units=km
new line.SBT_1017337 bus1=1091047.1.2.3.0,bus2=1091054.1.2.3.0,Phases=3,Linecode=BT803_BT803_4_3_4_3,Length=0.029997180,Units=km
new line.SBT_1017344 bus1=1091054.1.2.3.0,bus2=1091061.1.2.3.0,Phases=3,Linecode=BT803_BT803_4_3_4_3,Length=0.030273600,Units=km
new line.SBT_1017351 bus1=1091061.1.2.3.0,bus2=1091068.1.2.3.0,Phases=3,Linecode=BT803_BT803_4_3_4_3,Length=0.029419860,Units=km
new line.SBT_1017358 bus1=1091068.1.2.3.0,bus2=1091075.1.2.3.0,Phases=3,Linecode=BT803_BT803_4_3_4_3,Length=0.033096960,Units=km
new line.SBT_1017365 bus1=1091075.1.2.3.0,bus2=1091082.1.2.3.0,Phases=3,Linecode=BT803_BT803_4_3_4_3,Length=0.033175500,Units=km
new line.SBT_1017393 bus1=1091131.1.2.3.0,bus2=1091138.1.2.3.0,Phases=3,Linecode=BT521_BT521_7_3_1_3,Length=0.000510000,Units=km
new line.SBT_1017400 bus1=1091138.1.2.3.0,bus2=1091145.1.2.3.0,Phases=3,Linecode=BT803_BT803_4_3_4_3,Length=0.039829980,Units=km
new line.SBT_1017407 bus1=1091138.1.2.3.0,bus2=1091194.1.2.3.0,Phases=3,Linecode=BT803_BT803_4_3_4_3,Length=0.038838540,Units=km
new line.SBT_1017414 bus1=1091145.1.2.3.0,bus2=1091152.1.2.3.0,Phases=3,Linecode=BT108_BT107_7_3_1_3,Length=0.037793040,Units=km
new line.SBT_1017421 bus1=1091152.1.2.3.0,bus2=1091159.1.2.3.0,Phases=3,Linecode=BT108_BT107_7_3_1_3,Length=0.029648340,Units=km
new line.SBT_1017428 bus1=1091159.1.2.3.0,bus2=1091166.1.2.3.0,Phases=3,Linecode=BT106_BT106_7_3_1_3,Length=0.030666300,Units=km
new line.SBT_1017435 bus1=1091166.1.2.3.0,bus2=1091173.1.2.3.0,Phases=3,Linecode=BT106_BT106_7_3_1_3,Length=0.036060060,Units=km
new line.SBT_1017442 bus1=1091173.1.2.3.0,bus2=1091180.1.2.3.0,Phases=3,Linecode=BT106_BT106_7_3_1_3,Length=0.040349160,Units=km
new line.SBT_10076989 bus1=147303671.1.2.3.0,bus2=147303678.1.2.3.0,Phases=3,Linecode=BT518_BT518_7_3_1_3,Length=0.000510000,Units=km
new line.SBT_10077010 bus1=147303678.1.2.3.0,bus2=147303769.1.2.3.0,Phases=3,Linecode=BT803_BT803_4_3_4_3,Length=0.018751680,Units=km
new line.SBT_10077017 bus1=147303678.1.2.3.0,bus2=147303776.1.2.3.0,Phases=3,Linecode=BT803_BT803_4_3_4_3,Length=0.046077480,Units=km