new loadshape.ccurvaUGBT npts=24,interval=1.0,mult=[0.0001,0.0001,0.0001,0.0001,0.0001,0.0001,0.17,0.47,0.7,0.9,1,1,0.93,0.8,0.53,0.33,0.2,0.13,0.0001,0.0001,0.0001,0.0001,0.0001,0.0001]
new generator.3000120727 bus1=1001001390997.2.3.0,Phases=2,kv=0.22,kW=1.31121,pf=1,model=1,daily=ccurvaUGBT,status=Variable
new generator.3000120749 bus1=1001001396541.3.0,Phases=1,kv=0.127,kW=1.17444,pf=1,model=1,daily=ccurvaUGBT,status=Variable
new generator.3000120786 bus1=1001001386475.1.2.0,Phases=2,kv=0.22,kW=1.52618,pf=1,model=1,daily=ccurvaUGBT,status=Variable
new generator.3000120825 bus1=1001001400755.1.2.0,Phases=2,kv=0.22,kW=0.31505,pf=1,model=1,daily=ccurvaUGBT,status=Variable
new generator.3000120989 bus1=1001001727501.1.2.0,Phases=2,kv=0.22,kW=3.86846,pf=1,model=1,daily=ccurvaUGBT,status=Variable
new generator.3000121007 bus1=100164552362.1.2.0,Phases=2,kv=0.22,kW=3.5708,pf=1,model=1,daily=ccurvaUGBT,status=Variable
new generator.3000121021 bus1=1001001728922.1.2.0,Phases=2,kv=0.22,kW=5.6203,pf=1,model=1,daily=ccurvaUGBT,status=Variable
new generator.3000121034 bus1=1001001725128.1.2.0,Phases=2,kv=0.22,kW=1.76013,pf=1,model=1,daily=ccurvaUGBT,status=Variable
new generator.3000121035 bus1=1001001725170.1.2.0,Phases=2,kv=0.22,kW=1.76111,pf=1,model=1,daily=ccurvaUGBT,status=Variable
new generator.3000121065 bus1=1001001728117.1.2.0,Phases=2,kv=0.22,kW=10.11584,pf=1,model=1,daily=ccurvaUGBT,status=Variable
new generator.3000644923 bus1=1001001364285.1.2.3.0,Phases=3,kv=0.22,kW=8.38493,pf=1,model=1,daily=ccurvaUGBT,status=Variable
new generator.3000645214 bus1=1001001380175.1.2.3.0,Phases=3,kv=0.22,kW=3.6713,pf=1,model=1,daily=ccurvaUGBT,status=Variable
new generator.3000645217 bus1=1001001380196.1.2.0,Phases=2,kv=0.22,kW=1.97027,pf=1,model=1,daily=ccurvaUGBT,status=Variable
new generator.3000645280 bus1=1001001380147.2.3.0,Phases=2,kv=0.22,kW=0.77186,pf=1,model=1,daily=ccurvaUGBT,status=Variable
new generator.3000645408 bus1=1001001371362.2.3.0,Phases=2,kv=0.22,kW=3.57442,pf=1,model=1,daily=ccurvaUGBT,status=Variable
new generator.3000645454 bus1=1001001335473.2.3.0,Phases=2,kv=0.22,kW=1.76059,pf=1,model=1,daily=ccurvaUGBT,status=Variable
new generator.3001004341 bus1=1001001341906.1.2.0,Phases=2,kv=0.22,kW=3.17796,pf=1,model=1,daily=ccurvaUGBT,status=Variable
new generator.3001004524 bus1=1001001351433.1.2.3.0,Phases=3,kv=0.22,kW=3.59835,pf=1,model=1,daily=ccurvaUGBT,status=Variable
new generator.3001004547 bus1=1001001350446.3.1.0,Phases=2,kv=0.22,kW=1.83941,pf=1,model=1,daily=ccurvaUGBT,status=Variable
new generator.3001004635 bus1=1001001353491.1.2.0,Phases=2,kv=0.22,kW=0.86963,pf=1,model=1,daily=ccurvaUGBT,status=Variable
new generator.3001004671 bus1=1001001351923.1.0,Phases=1,kv=0.127,kW=1.07501,pf=1,model=1,daily=ccurvaUGBT,status=Variable
new generator.3001004691 bus1=1001001360757.2.3.0,Phases=2,kv=0.22,kW=1.12426,pf=1,model=1,daily=ccurvaUGBT,status=Variable
new generator.3001004830 bus1=1001001357369.1.0,Phases=1,kv=0.127,kW=1.51161,pf=1,model=1,daily=ccurvaUGBT,status=Variable
new generator.3001004974 bus1=1001001356207.3.0,Phases=1,kv=0.127,kW=2.05555,pf=1,model=1,daily=ccurvaUGBT,status=Variable
new generator.3001005036 bus1=1001001347863.1.2.3.0,Phases=3,kv=0.22,kW=2.34866,pf=1,model=1,daily=ccurvaUGBT,status=Variable
new generator.3001005057 bus1=1001001348010.2.0,Phases=1,kv=0.127,kW=1.38351,pf=1,model=1,daily=ccurvaUGBT,status=Variable
new generator.3002447985 bus1=1001001403058.3.1.0,Phases=2,kv=0.22,kW=1.13389,pf=1,model=1,daily=ccurvaUGBT,status=Variable
new generator.3002448062 bus1=1001010151208.1.2.3.0,Phases=3,kv=0.22,kW=0.22404,pf=1,model=1,daily=ccurvaUGBT,status=Variable
new generator.3000286781 bus1=1001001373364.2.3.0,Phases=2,kv=0.22,kW=1.42349,pf=1,model=1,daily=ccurvaUGBT,status=Variable
new generator.3000287014 bus1=1001001398676.3.1.0,Phases=2,kv=0.22,kW=2.78609,pf=1,model=1,daily=ccurvaUGBT,status=Variable
new generator.3000287067 bus1=1001001373182.1.2.0,Phases=2,kv=0.22,kW=1.67282,pf=1,model=1,daily=ccurvaUGBT,status=Variable
new generator.3000287170 bus1=1001001525698.1.2.3.0,Phases=3,kv=0.22,kW=5.05282,pf=1,model=1,daily=ccurvaUGBT,status=Variable
new generator.3000287196 bus1=1001001365650.1.2.0,Phases=2,kv=0.22,kW=0.61897,pf=1,model=1,daily=ccurvaUGBT,status=Variable
new generator.3000287219 bus1=1001001716994.1.2.3.0,Phases=3,kv=0.22,kW=3.35331,pf=1,model=1,daily=ccurvaUGBT,status=Variable
new generator.3000287326 bus1=1001001365272.1.2.3.0,Phases=3,kv=0.22,kW=6.02796,pf=1,model=1,daily=ccurvaUGBT,status=Variable
new generator.3000287330 bus1=1001011204712.1.2.3.0,Phases=3,kv=0.22,kW=8.12647,pf=1,model=1,daily=ccurvaUGBT,status=Variable
new generator.3000829994 bus1=1001010074782.1.2.3.0,Phases=3,kv=0.22,kW=3.06315,pf=1,model=1,daily=ccurvaUGBT,status=Variable
new generator.3002264256 bus1=1001001388785.1.0,Phases=1,kv=0.127,kW=1.37348,pf=1,model=1,daily=ccurvaUGBT,status=Variable
new generator.3002264319 bus1=1001001387707.1.0,Phases=1,kv=0.127,kW=1.70156,pf=1,model=1,daily=ccurvaUGBT,status=Variable
new generator.3002264333 bus1=1001010183531.1.0,Phases=1,kv=0.127,kW=2.47101,pf=1,model=1,daily=ccurvaUGBT,status=Variable
new generator.3002264347 bus1=1001001387021.2.0,Phases=1,kv=0.127,kW=0.67226,pf=1,model=1,daily=ccurvaUGBT,status=Variable
new generator.3002264366 bus1=1001001387126.1.2.3.0,Phases=3,kv=0.22,kW=4.25205,pf=1,model=1,daily=ccurvaUGBT,status=Variable
new generator.3002264400 bus1=1001001385698.1.2.3.0,Phases=3,kv=0.22,kW=13.88796,pf=1,model=1,daily=ccurvaUGBT,status=Variable
new generator.3002264409 bus1=1001001394266.2.3.0,Phases=2,kv=0.22,kW=1.07653,pf=1,model=1,daily=ccurvaUGBT,status=Variable
new generator.3002264427 bus1=1001001413488.1.2.0,Phases=2,kv=0.22,kW=2.33202,pf=1,model=1,daily=ccurvaUGBT,status=Variable
new generator.3002264432 bus1=1001001413453.3.1.0,Phases=2,kv=0.22,kW=1.91983,pf=1,model=1,daily=ccurvaUGBT,status=Variable
new generator.3002264487 bus1=1001001393811.3.0,Phases=1,kv=0.127,kW=0.97637,pf=1,model=1,daily=ccurvaUGBT,status=Variable
new generator.3002264520 bus1=1001001414503.1.2.3.0,Phases=3,kv=0.22,kW=0.93928,pf=1,model=1,daily=ccurvaUGBT,status=Variable
new generator.3002264536 bus1=1001001407377.2.0,Phases=1,kv=0.127,kW=1.00179,pf=1,model=1,daily=ccurvaUGBT,status=Variable
new generator.3002264545 bus1=1001001407489.2.0,Phases=1,kv=0.127,kW=1.29556,pf=1,model=1,daily=ccurvaUGBT,status=Variable
new generator.3002264681 bus1=1001001385502.1.0,Phases=1,kv=0.127,kW=1.79456,pf=1,model=1,daily=ccurvaUGBT,status=Variable
new generator.3002264713 bus1=1001001384816.3.0,Phases=1,kv=0.127,kW=0.8273,pf=1,model=1,daily=ccurvaUGBT,status=Variable
new generator.3003636991 bus1=1001001376087.2.3.0,Phases=2,kv=0.22,kW=0.51768,pf=1,model=1,daily=ccurvaUGBT,status=Variable
new generator.3003653593 bus1=1001001397801.1.2.3.0,Phases=3,kv=0.22,kW=0.89345,pf=1,model=1,daily=ccurvaUGBT,status=Variable
new generator.3003663089 bus1=1001001408973.1.2.0,Phases=2,kv=0.22,kW=1.56447,pf=1,model=1,daily=ccurvaUGBT,status=Variable
new generator.3003663994 bus1=1001001390521.2.0,Phases=1,kv=0.127,kW=0.00451,pf=1,model=1,daily=ccurvaUGBT,status=Variable
new generator.3001366229 bus1=1001010342781.1.0,Phases=1,kv=0.127,kW=1.29392,pf=1,model=1,daily=ccurvaUGBT,status=Variable
new generator.3001366260 bus1=1001001379937.1.2.0,Phases=2,kv=0.22,kW=0.46306,pf=1,model=1,daily=ccurvaUGBT,status=Variable
new generator.3001366420 bus1=1001001379888.1.2.3.0,Phases=3,kv=0.22,kW=1.409,pf=1,model=1,daily=ccurvaUGBT,status=Variable
new generator.3001366518 bus1=1001001347261.1.2.3.0,Phases=3,kv=0.22,kW=4.40689,pf=1,model=1,daily=ccurvaUGBT,status=Variable
new generator.3001366667 bus1=1001001375555.1.2.3.0,Phases=3,kv=0.22,kW=1.88817,pf=1,model=1,daily=ccurvaUGBT,status=Variable
new generator.3001366732 bus1=1001001374890.1.2.3.0,Phases=3,kv=0.22,kW=0.33746,pf=1,model=1,daily=ccurvaUGBT,status=Variable
new generator.3001366739 bus1=1001001352161.2.3.0,Phases=2,kv=0.22,kW=1.21674,pf=1,model=1,daily=ccurvaUGBT,status=Variable
new generator.3001366785 bus1=1001001378446.3.0,Phases=1,kv=0.127,kW=1.30688,pf=1,model=1,daily=ccurvaUGBT,status=Variable
new generator.3002819586 bus1=1001001377459.2.0,Phases=1,kv=0.127,kW=1.19927,pf=1,model=1,daily=ccurvaUGBT,status=Variable
new generator.3002819587 bus1=1001001377480.2.0,Phases=1,kv=0.127,kW=0.80345,pf=1,model=1,daily=ccurvaUGBT,status=Variable
new generator.3002819626 bus1=1001001381995.2.0,Phases=1,kv=0.127,kW=4.78448,pf=1,model=1,daily=ccurvaUGBT,status=Variable
new generator.3002819646 bus1=1001001377746.1.2.3.0,Phases=3,kv=0.22,kW=1.66884,pf=1,model=1,daily=ccurvaUGBT,status=Variable
new generator.3002819651 bus1=1001001381799.3.0,Phases=1,kv=0.127,kW=2.00808,pf=1,model=1,daily=ccurvaUGBT,status=Variable
new generator.3002819715 bus1=1001001362563.2.0,Phases=1,kv=0.127,kW=1.39128,pf=1,model=1,daily=ccurvaUGBT,status=Variable
new generator.3002819741 bus1=1001001362626.1.2.3.0,Phases=3,kv=0.22,kW=0.77529,pf=1,model=1,daily=ccurvaUGBT,status=Variable
new generator.3002819886 bus1=1001001382023.2.3.0,Phases=2,kv=0.22,kW=3.35217,pf=1,model=1,daily=ccurvaUGBT,status=Variable
new generator.3002819925 bus1=1001001372552.1.2.0,Phases=2,kv=0.22,kW=3.21942,pf=1,model=1,daily=ccurvaUGBT,status=Variable
new generator.3002820130 bus1=1001001370830.3.1.0,Phases=2,kv=0.22,kW=0.97186,pf=1,model=1,daily=ccurvaUGBT,status=Variable
new generator.3002820174 bus1=1001003372039.1.2.0,Phases=2,kv=0.22,kW=1.05473,pf=1,model=1,daily=ccurvaUGBT,status=Variable
new generator.3002820305 bus1=1001001370788.2.0,Phases=1,kv=0.127,kW=0.93593,pf=1,model=1,daily=ccurvaUGBT,status=Variable
new generator.3003349736 bus1=1001011030583.1.2.0,Phases=2,kv=0.22,kW=2.05008,pf=1,model=1,daily=ccurvaUGBT,status=Variable
new generator.3003386744 bus1=1001001343978.2.3.0,Phases=2,kv=0.22,kW=1.01695,pf=1,model=1,daily=ccurvaUGBT,status=Variable
new generator.3003399021 bus1=1001001400412.3.1.0,Phases=2,kv=0.22,kW=2.04702,pf=1,model=1,daily=ccurvaUGBT,status=Variable
new generator.3003399026 bus1=1001001394399.1.2.3.0,Phases=3,kv=0.22,kW=7.47253,pf=1,model=1,daily=ccurvaUGBT,status=Variable
new generator.3003812131 bus1=1001001517746.1.0,Phases=1,kv=0.127,kW=1.0174,pf=1,model=1,daily=ccurvaUGBT,status=Variable
new generator.3003822767 bus1=1001001372251.1.2.3.0,Phases=3,kv=0.22,kW=2.04754,pf=1,model=1,daily=ccurvaUGBT,status=Variable
new generator.3003829897 bus1=1001001525187.1.2.0,Phases=2,kv=0.22,kW=1.42875,pf=1,model=1,daily=ccurvaUGBT,status=Variable
new generator.3003833029 bus1=1001001724484.1.2.0,Phases=2,kv=0.22,kW=4.13935,pf=1,model=1,daily=ccurvaUGBT,status=Variable
new generator.3002448075 bus1=1001001398571.3.0,Phases=1,kv=0.127,kW=1.92873,pf=1,model=1,daily=ccurvaUGBT,status=Variable
new generator.3002448115 bus1=1001001398592.3.1.0,Phases=2,kv=0.22,kW=1.95312,pf=1,model=1,daily=ccurvaUGBT,status=Variable
new generator.3002448313 bus1=1001001392481.1.0,Phases=1,kv=0.127,kW=7.63017,pf=1,model=1,daily=ccurvaUGBT,status=Variable
new generator.3002448660 bus1=1001001416526.1.0,Phases=1,kv=0.127,kW=0.74252,pf=1,model=1,daily=ccurvaUGBT,status=Variable
new generator.3002448773 bus1=1001001406138.1.2.0,Phases=2,kv=0.22,kW=13.36389,pf=1,model=1,daily=ccurvaUGBT,status=Variable
new generator.3002448846 bus1=1001001421370.1.2.0,Phases=2,kv=0.22,kW=1.51169,pf=1,model=1,daily=ccurvaUGBT,status=Variable
new generator.3002449097 bus1=1001001408154.3.1.0,Phases=2,kv=0.22,kW=1.62994,pf=1,model=1,daily=ccurvaUGBT,status=Variable
new generator.3002994608 bus1=1001001526475.1.2.3.0,Phases=3,kv=0.22,kW=2.00229,pf=1,model=1,daily=ccurvaUGBT,status=Variable
new generator.3002994639 bus1=1001001347016.1.2.3.0,Phases=3,kv=0.22,kW=9.18666,pf=1,model=1,daily=ccurvaUGBT,status=Variable
new generator.3002994747 bus1=1001001530346.2.0,Phases=1,kv=0.127,kW=0.41445,pf=1,model=1,daily=ccurvaUGBT,status=Variable
new generator.3002994832 bus1=1001001376339.1.0,Phases=1,kv=0.127,kW=2.13447,pf=1,model=1,daily=ccurvaUGBT,status=Variable
new generator.3002994909 bus1=1001003173113.1.2.0,Phases=2,kv=0.22,kW=2.27154,pf=1,model=1,daily=ccurvaUGBT,status=Variable
new generator.3002994944 bus1=1001001364936.1.2.3.0,Phases=3,kv=0.22,kW=5.20042,pf=1,model=1,daily=ccurvaUGBT,status=Variable
new generator.3002994972 bus1=1001001527329.3.0,Phases=1,kv=0.127,kW=2.22193,pf=1,model=1,daily=ccurvaUGBT,status=Variable
new generator.3002994975 bus1=1001001526587.1.2.0,Phases=2,kv=0.22,kW=0.71602,pf=1,model=1,daily=ccurvaUGBT,status=Variable
new generator.3002994995 bus1=1001001368254.1.0,Phases=1,kv=0.127,kW=1.2927,pf=1,model=1,daily=ccurvaUGBT,status=Variable
new generator.3002995009 bus1=1001001368296.1.2.3.0,Phases=3,kv=0.22,kW=2.32989,pf=1,model=1,daily=ccurvaUGBT,status=Variable
new generator.3002995023 bus1=1001001368002.2.0,Phases=1,kv=0.127,kW=0.9495,pf=1,model=1,daily=ccurvaUGBT,status=Variable
new generator.3002995150 bus1=1001001744819.1.2.0,Phases=2,kv=0.22,kW=1.56827,pf=1,model=1,daily=ccurvaUGBT,status=Variable
new generator.3002995196 bus1=1001001745652.1.2.0,Phases=2,kv=0.22,kW=7.90929,pf=1,model=1,daily=ccurvaUGBT,status=Variable
new generator.3002995236 bus1=1001108141.1.2.0,Phases=2,kv=0.22,kW=1.36241,pf=1,model=1,daily=ccurvaUGBT,status=Variable
new generator.3002995248 bus1=1001001272592.1.2.0,Phases=2,kv=0.22,kW=1.66052,pf=1,model=1,daily=ccurvaUGBT,status=Variable
new generator.3002995259 bus1=1001001272550.1.2.0,Phases=2,kv=0.22,kW=1.776,pf=1,model=1,daily=ccurvaUGBT,status=Variable
new generator.3003506415 bus1=1001001319807.1.2.0,Phases=2,kv=0.22,kW=4.41384,pf=1,model=1,daily=ccurvaUGBT,status=Variable
new generator.3004011466 bus1=1001001516969.1.2.0,Phases=2,kv=0.22,kW=1.6748,pf=1,model=1,daily=ccurvaUGBT,status=Variable
new generator.3004030605 bus1=1001001355934.2.0,Phases=1,kv=0.127,kW=1.2167,pf=1,model=1,daily=ccurvaUGBT,status=Variable
new generator.3004030606 bus1=1001001328900.1.2.0,Phases=2,kv=0.22,kW=3.37438,pf=1,model=1,daily=ccurvaUGBT,status=Variable
new generator.3004198422 bus1=1001001423512.1.2.3.0,Phases=3,kv=0.22,kW=1.48732,pf=1,model=1,daily=ccurvaUGBT,status=Variable
new generator.3001544447 bus1=1001001577708.1.2.0,Phases=2,kv=0.22,kW=1.41264,pf=1,model=1,daily=ccurvaUGBT,status=Variable
new generator.3001544462 bus1=1001001576994.1.2.0,Phases=2,kv=0.22,kW=1.99193,pf=1,model=1,daily=ccurvaUGBT,status=Variable
new generator.3001544523 bus1=1001001519027.3.1.0,Phases=2,kv=0.22,kW=2.39225,pf=1,model=1,daily=ccurvaUGBT,status=Variable
new generator.3001727599 bus1=1001001338770.1.0,Phases=1,kv=0.127,kW=3.37116,pf=1,model=1,daily=ccurvaUGBT,status=Variable
new generator.3001727715 bus1=1001001351727.1.0,Phases=1,kv=0.127,kW=0.70457,pf=1,model=1,daily=ccurvaUGBT,status=Variable
new generator.3001727858 bus1=1001001745344.1.2.0,Phases=2,kv=0.22,kW=4.31348,pf=1,model=1,daily=ccurvaUGBT,status=Variable
new generator.3002083969 bus1=1001001358986.2.0,Phases=1,kv=0.127,kW=1.21018,pf=1,model=1,daily=ccurvaUGBT,status=Variable
new generator.3002083972 bus1=1001004853211.1.2.3.0,Phases=3,kv=0.22,kW=1.13597,pf=1,model=1,daily=ccurvaUGBT,status=Variable
new generator.3002084050 bus1=1001001343796.3.0,Phases=1,kv=0.127,kW=1.81298,pf=1,model=1,daily=ccurvaUGBT,status=Variable
new generator.3002084084 bus1=1001001358958.1.2.3.0,Phases=3,kv=0.22,kW=2.07241,pf=1,model=1,daily=ccurvaUGBT,status=Variable
new generator.3002084116 bus1=1001001343733.1.2.3.0,Phases=3,kv=0.22,kW=0.77926,pf=1,model=1,daily=ccurvaUGBT,status=Variable
new generator.3002084260 bus1=1001001325008.1.2.0,Phases=2,kv=0.22,kW=1.45883,pf=1,model=1,daily=ccurvaUGBT,status=Variable
new generator.3002084283 bus1=1001001344321.2.3.0,Phases=2,kv=0.22,kW=1.47366,pf=1,model=1,daily=ccurvaUGBT,status=Variable
new generator.3002084288 bus1=1001001345119.1.2.3.0,Phases=3,kv=0.22,kW=1.7582,pf=1,model=1,daily=ccurvaUGBT,status=Variable
new generator.3002084363 bus1=1001001358769.1.2.3.0,Phases=3,kv=0.22,kW=5.93127,pf=1,model=1,daily=ccurvaUGBT,status=Variable
new generator.3002084369 bus1=1001001358762.3.1.0,Phases=2,kv=0.22,kW=1.34248,pf=1,model=1,daily=ccurvaUGBT,status=Variable
new generator.3002084396 bus1=1001001344384.1.2.0,Phases=2,kv=0.22,kW=1.61743,pf=1,model=1,daily=ccurvaUGBT,status=Variable
new generator.3002084677 bus1=1001011273790.1.2.3.0,Phases=3,kv=0.22,kW=28.02825,pf=1,model=1,daily=ccurvaUGBT,status=Variable
new generator.3003546393 bus1=1001001364040.2.3.0,Phases=2,kv=0.22,kW=15.18666,pf=1,model=1,daily=ccurvaUGBT,status=Variable
new generator.3003565558 bus1=1001001725471.1.2.0,Phases=2,kv=0.22,kW=5.69528,pf=1,model=1,daily=ccurvaUGBT,status=Variable
new generator.3003565586 bus1=1001001412200.1.2.3.0,Phases=3,kv=0.22,kW=0.50347,pf=1,model=1,daily=ccurvaUGBT,status=Variable
new generator.3003565654 bus1=1001001412613.3.1.0,Phases=2,kv=0.22,kW=2.0464,pf=1,model=1,daily=ccurvaUGBT,status=Variable
new generator.3003568010 bus1=1001001528337.2.3.0,Phases=2,kv=0.22,kW=1.03687,pf=1,model=1,daily=ccurvaUGBT,status=Variable
new generator.3003569669 bus1=1001001396275.1.2.3.0,Phases=3,kv=0.22,kW=1.91154,pf=1,model=1,daily=ccurvaUGBT,status=Variable
new generator.3003937557 bus1=1001001373896.2.0,Phases=1,kv=0.127,kW=0.48105,pf=1,model=1,daily=ccurvaUGBT,status=Variable
new generator.3003973506 bus1=1001011031467.1.0,Phases=1,kv=0.127,kW=0.48299,pf=1,model=1,daily=ccurvaUGBT,status=Variable
new generator.3004136168 bus1=1001001355521.1.2.0,Phases=2,kv=0.22,kW=2.79485,pf=1,model=1,daily=ccurvaUGBT,status=Variable
new generator.3004731433 bus1=1001001322348.1.0,Phases=1,kv=0.127,kW=4.25347,pf=1,model=1,daily=ccurvaUGBT,status=Variable
new generator.3003610007 bus1=1001001347226.3.0,Phases=1,kv=0.127,kW=1.46391,pf=1,model=1,daily=ccurvaUGBT,status=Variable
new generator.3003615918 bus1=1001001330202.2.0,Phases=1,kv=0.127,kW=1.70441,pf=1,model=1,daily=ccurvaUGBT,status=Variable
new generator.3003615925 bus1=1001001330181.1.2.3.0,Phases=3,kv=0.22,kW=1.08578,pf=1,model=1,daily=ccurvaUGBT,status=Variable
new generator.3003615932 bus1=1001011123382.1.2.3.0,Phases=3,kv=0.22,kW=1.78504,pf=1,model=1,daily=ccurvaUGBT,status=Variable
new generator.3003615934 bus1=1001001331721.2.3.0,Phases=2,kv=0.22,kW=1.99492,pf=1,model=1,daily=ccurvaUGBT,status=Variable
new generator.3003615939 bus1=1001001331770.1.2.0,Phases=2,kv=0.22,kW=1.11639,pf=1,model=1,daily=ccurvaUGBT,status=Variable
new generator.3003615959 bus1=1001001326709.3.0,Phases=1,kv=0.127,kW=0.93245,pf=1,model=1,daily=ccurvaUGBT,status=Variable
new generator.3003615961 bus1=1001001326702.2.0,Phases=1,kv=0.127,kW=2.31418,pf=1,model=1,daily=ccurvaUGBT,status=Variable
new generator.3003615962 bus1=1001001326695.2.3.0,Phases=2,kv=0.22,kW=3.52316,pf=1,model=1,daily=ccurvaUGBT,status=Variable
new generator.3003624762 bus1=1001001662478.2.3.0,Phases=2,kv=0.22,kW=2.80343,pf=1,model=1,daily=ccurvaUGBT,status=Variable
new generator.3004092310 bus1=1001001404038.3.0,Phases=1,kv=0.127,kW=0.61031,pf=1,model=1,daily=ccurvaUGBT,status=Variable
new generator.3004269234 bus1=1001001652573.1.2.0,Phases=2,kv=0.22,kW=0.5569,pf=1,model=1,daily=ccurvaUGBT,status=Variable
new generator.3004283632 bus1=1001001388918.1.0,Phases=1,kv=0.127,kW=1.53567,pf=1,model=1,daily=ccurvaUGBT,status=Variable
new generator.3004294395 bus1=1001001389338.2.3.0,Phases=2,kv=0.22,kW=2.75932,pf=1,model=1,daily=ccurvaUGBT,status=Variable
new generator.3004306969 bus1=1001001403408.2.3.0,Phases=2,kv=0.22,kW=2.71854,pf=1,model=1,daily=ccurvaUGBT,status=Variable
new generator.3004323892 bus1=1001001402316.1.2.3.0,Phases=3,kv=0.22,kW=4.35902,pf=1,model=1,daily=ccurvaUGBT,status=Variable
new generator.3004845329 bus1=1001001396786.3.1.0,Phases=2,kv=0.22,kW=2.51735,pf=1,model=1,daily=ccurvaUGBT,status=Variable
new generator.3004845872 bus1=1001001420705.2.0,Phases=1,kv=0.127,kW=1.43691,pf=1,model=1,daily=ccurvaUGBT,status=Variable
new generator.3004856045 bus1=1001001370284.1.2.3.0,Phases=3,kv=0.22,kW=12.41295,pf=1,model=1,daily=ccurvaUGBT,status=Variable
new generator.3004875053 bus1=1001001369199.1.2.3.0,Phases=3,kv=0.22,kW=1.35776,pf=1,model=1,daily=ccurvaUGBT,status=Variable
new generator.3004876393 bus1=1001001368758.1.2.3.0,Phases=3,kv=0.22,kW=0.96703,pf=1,model=1,daily=ccurvaUGBT,status=Variable
new generator.3004880695 bus1=1001001319702.1.2.3.0,Phases=3,kv=0.22,kW=1.05704,pf=1,model=1,daily=ccurvaUGBT,status=Variable
new generator.3005144676 bus1=1001001341409.1.2.0,Phases=2,kv=0.22,kW=0.37062,pf=1,model=1,daily=ccurvaUGBT,status=Variable
new generator.3005799138 bus1=1001001374715.2.3.0,Phases=2,kv=0.22,kW=1.66712,pf=1,model=1,daily=ccurvaUGBT,status=Variable
new generator.3006228829 bus1=1001010720971.1.2.3.0,Phases=3,kv=0.22,kW=3.81243,pf=1,model=1,daily=ccurvaUGBT,status=Variable
new generator.3006248351 bus1=1001003220076.1.2.3.0,Phases=3,kv=0.22,kW=11.74747,pf=1,model=1,daily=ccurvaUGBT,status=Variable
new generator.3006255222 bus1=1001003235833.1.2.0,Phases=2,kv=0.22,kW=4.50796,pf=1,model=1,daily=ccurvaUGBT,status=Variable
new generator.3006718217 bus1=1001003621694.1.0,Phases=1,kv=0.127,kW=1.24161,pf=1,model=1,daily=ccurvaUGBT,status=Variable
new generator.3000466239 bus1=1001001348668.1.2.0,Phases=2,kv=0.22,kW=5.21791,pf=1,model=1,daily=ccurvaUGBT,status=Variable
new generator.3001898528 bus1=1001001339323.3.0,Phases=1,kv=0.127,kW=1.36419,pf=1,model=1,daily=ccurvaUGBT,status=Variable
new generator.3001899068 bus1=1001001731036.1.2.0,Phases=2,kv=0.22,kW=4.82712,pf=1,model=1,daily=ccurvaUGBT,status=Variable
new generator.3003183001 bus1=1001001361583.2.0,Phases=1,kv=0.127,kW=19.80623,pf=1,model=1,daily=ccurvaUGBT,status=Variable
new generator.3003183274 bus1=1001001329138.1.0,Phases=1,kv=0.127,kW=0.93661,pf=1,model=1,daily=ccurvaUGBT,status=Variable
new generator.3003183395 bus1=1001001350796.3.0,Phases=1,kv=0.127,kW=1.24337,pf=1,model=1,daily=ccurvaUGBT,status=Variable
new generator.3003183637 bus1=1001001339505.3.0,Phases=1,kv=0.127,kW=3.7555,pf=1,model=1,daily=ccurvaUGBT,status=Variable
new generator.3003183744 bus1=1001001360393.1.0,Phases=1,kv=0.127,kW=0.85488,pf=1,model=1,daily=ccurvaUGBT,status=Variable
new generator.3003698562 bus1=1001010342922.1.0,Phases=1,kv=0.127,kW=2.54306,pf=1,model=1,daily=ccurvaUGBT,status=Variable
new generator.3004391350 bus1=1001001341703.1.0,Phases=1,kv=0.127,kW=1.49354,pf=1,model=1,daily=ccurvaUGBT,status=Variable
new generator.3004422721 bus1=1001001390290.1.2.3.0,Phases=3,kv=0.22,kW=1.9921,pf=1,model=1,daily=ccurvaUGBT,status=Variable
new generator.3004423100 bus1=1001001401413.2.0,Phases=1,kv=0.127,kW=0.97783,pf=1,model=1,daily=ccurvaUGBT,status=Variable
new generator.3004423286 bus1=1001001321704.2.3.0,Phases=2,kv=0.22,kW=2.10373,pf=1,model=1,daily=ccurvaUGBT,status=Variable
new generator.3004439961 bus1=1001001329117.2.3.0,Phases=2,kv=0.22,kW=3.84272,pf=1,model=1,daily=ccurvaUGBT,status=Variable
new generator.3004440015 bus1=1001001662415.1.2.0,Phases=2,kv=0.22,kW=4.36066,pf=1,model=1,daily=ccurvaUGBT,status=Variable
new generator.3005053507 bus1=1001001327360.1.0,Phases=1,kv=0.127,kW=0.80989,pf=1,model=1,daily=ccurvaUGBT,status=Variable
new generator.3005056323 bus1=1001001511047.1.2.3.0,Phases=3,kv=0.22,kW=2.33762,pf=1,model=1,daily=ccurvaUGBT,status=Variable
new generator.3005700077 bus1=1001001327920.3.0,Phases=1,kv=0.127,kW=1.4765,pf=1,model=1,daily=ccurvaUGBT,status=Variable
new generator.3005708613 bus1=1001001389331.2.0,Phases=1,kv=0.127,kW=1.41455,pf=1,model=1,daily=ccurvaUGBT,status=Variable
new generator.3005750877 bus1=1001001520175.1.2.3.0,Phases=3,kv=0.22,kW=7.22082,pf=1,model=1,daily=ccurvaUGBT,status=Variable
new generator.3006315335 bus1=1001003303768.1.2.3.0,Phases=3,kv=0.22,kW=2.55653,pf=1,model=1,daily=ccurvaUGBT,status=Variable
new generator.3006736587 bus1=1001003634882.3.0,Phases=1,kv=0.127,kW=2.47653,pf=1,model=1,daily=ccurvaUGBT,status=Variable
new generator.3006748466 bus1=1001003640713.1.2.3.0,Phases=3,kv=0.22,kW=3.27622,pf=1,model=1,daily=ccurvaUGBT,status=Variable
new generator.3007364978 bus1=1001003899153.1.2.0,Phases=2,kv=0.22,kW=1.04309,pf=1,model=1,daily=ccurvaUGBT,status=Variable
new generator.3007403490 bus1=1001010911799.3.0,Phases=1,kv=0.127,kW=1.5955,pf=1,model=1,daily=ccurvaUGBT,status=Variable
new generator.3007412260 bus1=1001003939529.1.2.3.0,Phases=3,kv=0.22,kW=2.11462,pf=1,model=1,daily=ccurvaUGBT,status=Variable
new generator.3007564546 bus1=1001004061679.1.2.3.0,Phases=3,kv=0.22,kW=4.18917,pf=1,model=1,daily=ccurvaUGBT,status=Variable
new generator.3007567795 bus1=1001001355444.2.3.0,Phases=2,kv=0.22,kW=2.69681,pf=1,model=1,daily=ccurvaUGBT,status=Variable
new generator.3004204273 bus1=1001001359770.1.2.3.0,Phases=3,kv=0.22,kW=3.24269,pf=1,model=1,daily=ccurvaUGBT,status=Variable
new generator.3004237977 bus1=1001001378761.1.2.3.0,Phases=3,kv=0.22,kW=3.31223,pf=1,model=1,daily=ccurvaUGBT,status=Variable
new generator.3004791966 bus1=1001001526573.1.2.0,Phases=2,kv=0.22,kW=1.72505,pf=1,model=1,daily=ccurvaUGBT,status=Variable
new generator.3005248404 bus1=1001001367673.1.2.3.0,Phases=3,kv=0.22,kW=1.28348,pf=1,model=1,daily=ccurvaUGBT,status=Variable
new generator.3005248654 bus1=1001001403912.1.2.3.0,Phases=3,kv=0.22,kW=1.59125,pf=1,model=1,daily=ccurvaUGBT,status=Variable
new generator.3005256035 bus1=1001001388701.1.2.3.0,Phases=3,kv=0.22,kW=0.84523,pf=1,model=1,daily=ccurvaUGBT,status=Variable
new generator.3005271672 bus1=1001001394756.1.2.3.0,Phases=3,kv=0.22,kW=0.81787,pf=1,model=1,daily=ccurvaUGBT,status=Variable
new generator.3005899686 bus1=1001001396639.1.2.3.0,Phases=3,kv=0.22,kW=4.97483,pf=1,model=1,daily=ccurvaUGBT,status=Variable
new generator.3005917063 bus1=1001003250771.1.2.3.0,Phases=3,kv=0.22,kW=2.45532,pf=1,model=1,daily=ccurvaUGBT,status=Variable
new generator.3005934241 bus1=1001003330263.1.2.3.0,Phases=3,kv=0.22,kW=4.56974,pf=1,model=1,daily=ccurvaUGBT,status=Variable
new generator.3005936224 bus1=1001001327941.2.0,Phases=1,kv=0.127,kW=1.52637,pf=1,model=1,daily=ccurvaUGBT,status=Variable
new generator.3005945623 bus1=1001001320297.1.2.3.0,Phases=3,kv=0.22,kW=2.65037,pf=1,model=1,daily=ccurvaUGBT,status=Variable
new generator.3006415533 bus1=1001003373453.1.2.0,Phases=2,kv=0.22,kW=2.35493,pf=1,model=1,daily=ccurvaUGBT,status=Variable
new generator.3006429805 bus1=1001003383869.3.0,Phases=1,kv=0.127,kW=1.35872,pf=1,model=1,daily=ccurvaUGBT,status=Variable
new generator.3006433974 bus1=1001003383715.1.2.3.0,Phases=3,kv=0.22,kW=1.58351,pf=1,model=1,daily=ccurvaUGBT,status=Variable
new generator.3007615422 bus1=1001001394546.2.3.0,Phases=2,kv=0.22,kW=3.74786,pf=1,model=1,daily=ccurvaUGBT,status=Variable
new generator.3007639716 bus1=1001004167176.1.2.0,Phases=2,kv=0.22,kW=0.92064,pf=1,model=1,daily=ccurvaUGBT,status=Variable
new generator.3007650197 bus1=1001004169297.1.2.0,Phases=2,kv=0.22,kW=0.67633,pf=1,model=1,daily=ccurvaUGBT,status=Variable
new generator.3010249079 bus1=1001004607329.1.2.3.0,Phases=3,kv=0.22,kW=7.13689,pf=1,model=1,daily=ccurvaUGBT,status=Variable
new generator.3010249650 bus1=1001041431.1.2.3.0,Phases=3,kv=0.22,kW=2.11389,pf=1,model=1,daily=ccurvaUGBT,status=Variable
new generator.3010251691 bus1=1001010414378.1.2.3.0,Phases=3,kv=0.22,kW=3.67931,pf=1,model=1,daily=ccurvaUGBT,status=Variable
new generator.3010256494 bus1=1001004551161.2.0,Phases=1,kv=0.127,kW=8.1584,pf=1,model=1,daily=ccurvaUGBT,status=Variable
new generator.3010258652 bus1=1001004566799.2.3.0,Phases=2,kv=0.22,kW=0.47275,pf=1,model=1,daily=ccurvaUGBT,status=Variable
new generator.3010265705 bus1=1001004554759.1.2.3.0,Phases=3,kv=0.22,kW=1.10246,pf=1,model=1,daily=ccurvaUGBT,status=Variable
new generator.3010292981 bus1=1001004573932.3.1.0,Phases=2,kv=0.22,kW=2.11102,pf=1,model=1,daily=ccurvaUGBT,status=Variable
new generator.3010303797 bus1=1001004607063.3.1.0,Phases=2,kv=0.22,kW=1.9929,pf=1,model=1,daily=ccurvaUGBT,status=Variable
new generator.3010538388 bus1=1001004719574.1.2.0,Phases=2,kv=0.22,kW=1.34187,pf=1,model=1,daily=ccurvaUGBT,status=Variable
new generator.3010550333 bus1=1001004726259.1.0,Phases=1,kv=0.127,kW=2.06017,pf=1,model=1,daily=ccurvaUGBT,status=Variable
new generator.3002639116 bus1=1001001390101.1.2.0,Phases=2,kv=0.22,kW=0.88628,pf=1,model=1,daily=ccurvaUGBT,status=Variable
new generator.3002639269 bus1=1001001386839.1.2.3.0,Phases=3,kv=0.22,kW=4.07892,pf=1,model=1,daily=ccurvaUGBT,status=Variable
new generator.3002639273 bus1=1001001386895.1.2.3.0,Phases=3,kv=0.22,kW=3.74347,pf=1,model=1,daily=ccurvaUGBT,status=Variable
new generator.3002639671 bus1=1001001386727.1.0,Phases=1,kv=0.127,kW=0.09558,pf=1,model=1,daily=ccurvaUGBT,status=Variable
new generator.3003321423 bus1=1001001353463.1.2.0,Phases=2,kv=0.22,kW=2.49776,pf=1,model=1,daily=ccurvaUGBT,status=Variable
new generator.3003327530 bus1=1001001413411.2.0,Phases=1,kv=0.127,kW=1.50638,pf=1,model=1,daily=ccurvaUGBT,status=Variable
new generator.3003753387 bus1=1001001320178.2.3.0,Phases=2,kv=0.22,kW=0.65229,pf=1,model=1,daily=ccurvaUGBT,status=Variable
new generator.3003768529 bus1=1001001416813.1.0,Phases=1,kv=0.127,kW=1.71166,pf=1,model=1,daily=ccurvaUGBT,status=Variable
new generator.3003768530 bus1=1005327125.1.2.3.0,Phases=3,kv=0.22,kW=12.23901,pf=1,model=1,daily=ccurvaUGBT,status=Variable
new generator.3003789286 bus1=1001001726122.1.2.0,Phases=2,kv=0.22,kW=3.72388,pf=1,model=1,daily=ccurvaUGBT,status=Variable
new generator.3003789484 bus1=1001001528442.3.0,Phases=1,kv=0.127,kW=0.53495,pf=1,model=1,daily=ccurvaUGBT,status=Variable
new generator.3003798900 bus1=1001001406502.2.3.0,Phases=2,kv=0.22,kW=0.47517,pf=1,model=1,daily=ccurvaUGBT,status=Variable
new generator.3004962277 bus1=1001001400132.1.2.0,Phases=2,kv=0.22,kW=3.09081,pf=1,model=1,daily=ccurvaUGBT,status=Variable
new generator.3005512979 bus1=1001001330314.2.0,Phases=1,kv=0.127,kW=1.83755,pf=1,model=1,daily=ccurvaUGBT,status=Variable
new generator.3005534007 bus1=1001001369626.1.2.0,Phases=2,kv=0.22,kW=0.49359,pf=1,model=1,daily=ccurvaUGBT,status=Variable
new generator.3005534773 bus1=1001003110407.1.2.0,Phases=2,kv=0.22,kW=29.19445,pf=1,model=1,daily=ccurvaUGBT,status=Variable