new load.3001366427M1 bus1=BMT177947167.1.2.3.0,Phases=3,kv=13.800000000,kW=74.29746,pf=0.92,Vminpu=0.93,Vmaxpu=1.5,model=8,zipv=[0.5,0,0.5,1,0,0,0],daily=MT2_1,status=variable
new load.3002448436M1 bus1=BMT161942504.1.2.3.0,Phases=3,kv=13.800000000,kW=32.28524,pf=0.92,Vminpu=0.93,Vmaxpu=1.5,model=8,zipv=[0.5,0,0.5,1,0,0,0],daily=MT2_1,status=variable
new load.3007643170M1 bus1=BMT124750385.1.2.3.0,Phases=3,kv=13.800000000,kW=35.36004,pf=0.92,Vminpu=0.93,Vmaxpu=1.5,model=8,zipv=[0.5,0,0.5,1,0,0,0],daily=MT2_1,status=variable
new load.3009000426M1 bus1=BMT148715210.1.2.3.0,Phases=3,kv=13.800000000,kW=3.44832,pf=0.92,Vminpu=0.93,Vmaxpu=1.5,model=8,zipv=[0.5,0,0.5,1,0,0,0],daily=MT1_1,status=variable
new load.3009002278M1 bus1=BMT147925250.1.2.3.0,Phases=3,kv=13.800000000,kW=0.22142,pf=0.92,Vminpu=0.93,Vmaxpu=1.5,model=8,zipv=[0.5,0,0.5,1,0,0,0],daily=MT4_1,status=variable
new load.3009002281M1 bus1=BMT172190482.1.2.3.0,Phases=3,kv=13.800000000,kW=0.77498,pf=0.92,Vminpu=0.93,Vmaxpu=1.5,model=8,zipv=[0.5,0,0.5,1,0,0,0],daily=MT4_1,status=variable
new load.3009002288M1 bus1=BMT124730561.1.2.3.0,Phases=3,kv=13.800000000,kW=0.05552,pf=0.92,Vminpu=0.93,Vmaxpu=1.5,model=8,zipv=[0.5,0,0.5,1,0,0,0],daily=MT3_1,status=variable
new load.3009004020M1 bus1=BMT167933641.1.2.3.0,Phases=3,kv=13.800000000,kW=6.53368,pf=0.92,Vminpu=0.93,Vmaxpu=1.5,model=8,zipv=[0.5,0,0.5,1,0,0,0],daily=MT1_1,status=variable
new load.3009004021M1 bus1=BMT167924956.1.2.3.0,Phases=3,kv=13.800000000,kW=0.11072,pf=0.92,Vminpu=0.93,Vmaxpu=1.5,model=8,zipv=[0.5,0,0.5,1,0,0,0],daily=MT4_1,status=variable
new load.3009004022M1 bus1=BMT167938318.1.2.3.0,Phases=3,kv=13.800000000,kW=31.16566,pf=0.92,Vminpu=0.93,Vmaxpu=1.5,model=8,zipv=[0.5,0,0.5,1,0,0,0],daily=MT4_1,status=variable
new load.3009004023M1 bus1=BMT167938464.1.2.3.0,Phases=3,kv=13.800000000,kW=14.69518,pf=0.92,Vminpu=0.93,Vmaxpu=1.5,model=8,zipv=[0.5,0,0.5,1,0,0,0],daily=MT5_1,status=variable
new load.3009004025M1 bus1=BMT167918594.1.2.3.0,Phases=3,kv=13.800000000,kW=0.4441,pf=0.92,Vminpu=0.93,Vmaxpu=1.5,model=8,zipv=[0.5,0,0.5,1,0,0,0],daily=MT3_1,status=variable
new load.3009004026M1 bus1=BMT167937035.1.2.3.0,Phases=3,kv=13.800000000,kW=0.29566,pf=0.92,Vminpu=0.93,Vmaxpu=1.5,model=8,zipv=[0.5,0,0.5,1,0,0,0],daily=MT2_1,status=variable
new load.3009004030M1 bus1=BMT124746948.1.2.3.0,Phases=3,kv=13.800000000,kW=0.23652,pf=0.92,Vminpu=0.93,Vmaxpu=1.5,model=8,zipv=[0.5,0,0.5,1,0,0,0],daily=MT2_1,status=variable
new load.3009007234M1 bus1=BMT124727236.1.2.3.0,Phases=3,kv=13.800000000,kW=11.61542,pf=0.92,Vminpu=0.93,Vmaxpu=1.5,model=8,zipv=[0.5,0,0.5,1,0,0,0],daily=MT1_1,status=variable
new load.3009007237M1 bus1=BMT179068581.1.2.3.0,Phases=3,kv=13.800000000,kW=101.88658,pf=0.92,Vminpu=0.93,Vmaxpu=1.5,model=8,zipv=[0.5,0,0.5,1,0,0,0],daily=MT5_1,status=variable
new load.3009007238M1 bus1=BMT124726403.1.2.3.0,Phases=3,kv=13.800000000,kW=15.1984,pf=0.92,Vminpu=0.93,Vmaxpu=1.5,model=8,zipv=[0.5,0,0.5,1,0,0,0],daily=MT1_1,status=variable
new load.3009007239M1 bus1=BMT151847952.1.2.3.0,Phases=3,kv=13.800000000,kW=27.32352,pf=0.92,Vminpu=0.93,Vmaxpu=1.5,model=8,zipv=[0.5,0,0.5,1,0,0,0],daily=MT1_1,status=variable
new load.3009008124M1 bus1=BMT124727222.1.2.3.0,Phases=3,kv=13.800000000,kW=213.3769,pf=0.92,Vminpu=0.93,Vmaxpu=1.5,model=8,zipv=[0.5,0,0.5,1,0,0,0],daily=MT3_1,status=variable
new load.3009008225M1 bus1=BMT150345212.1.2.3.0,Phases=3,kv=13.800000000,kW=242.2674,pf=0.92,Vminpu=0.93,Vmaxpu=1.5,model=8,zipv=[0.5,0,0.5,1,0,0,0],daily=MT4_1,status=variable
new load.3009008614M1 bus1=BMT151847985.1.2.3.0,Phases=3,kv=13.800000000,kW=21.40524,pf=0.92,Vminpu=0.93,Vmaxpu=1.5,model=8,zipv=[0.5,0,0.5,1,0,0,0],daily=MT2_1,status=variable
new load.3009008770M1 bus1=BMT173730929.1.2.3.0,Phases=3,kv=13.800000000,kW=7.62262,pf=0.92,Vminpu=0.93,Vmaxpu=1.5,model=8,zipv=[0.5,0,0.5,1,0,0,0],daily=MT1_1,status=variable
new load.3009009217M1 bus1=BMT150345215.1.2.3.0,Phases=3,kv=13.800000000,kW=128.51272,pf=0.92,Vminpu=0.93,Vmaxpu=1.5,model=8,zipv=[0.5,0,0.5,1,0,0,0],daily=MT4_1,status=variable
new load.3009009218M1 bus1=BMT150348457.1.2.3.0,Phases=3,kv=13.800000000,kW=150.1543,pf=0.92,Vminpu=0.93,Vmaxpu=1.5,model=8,zipv=[0.5,0,0.5,1,0,0,0],daily=MT4_1,status=variable
new load.3009009253M1 bus1=BMT167916735.1.2.3.0,Phases=3,kv=13.800000000,kW=0.33306,pf=0.92,Vminpu=0.93,Vmaxpu=1.5,model=8,zipv=[0.5,0,0.5,1,0,0,0],daily=MT3_1,status=variable
new load.3009010096M1 bus1=BMT167918502.1.2.3.0,Phases=3,kv=13.800000000,kW=0.27756,pf=0.92,Vminpu=0.93,Vmaxpu=1.5,model=8,zipv=[0.5,0,0.5,1,0,0,0],daily=MT3_1,status=variable
new load.3009010412M1 bus1=BMT172549197.1.2.3.0,Phases=3,kv=13.800000000,kW=2.78286,pf=0.92,Vminpu=0.93,Vmaxpu=1.5,model=8,zipv=[0.5,0,0.5,1,0,0,0],daily=MT1_1,status=variable
new load.3009010735M1 bus1=BMT179361114.1.2.3.0,Phases=3,kv=13.800000000,kW=0.16654,pf=0.92,Vminpu=0.93,Vmaxpu=1.5,model=8,zipv=[0.5,0,0.5,1,0,0,0],daily=MT3_1,status=variable
new load.3009011087M1 bus1=BMT151897121.1.2.3.0,Phases=3,kv=13.800000000,kW=12.2061,pf=0.92,Vminpu=0.93,Vmaxpu=1.5,model=8,zipv=[0.5,0,0.5,1,0,0,0],daily=MT4_1,status=variable
new load.3009011179M1 bus1=BMT148044787.1.2.3.0,Phases=3,kv=13.800000000,kW=0.5913,pf=0.92,Vminpu=0.93,Vmaxpu=1.5,model=8,zipv=[0.5,0,0.5,1,0,0,0],daily=MT2_1,status=variable
new load.3009011216M1 bus1=BMT160933912.1.2.3.0,Phases=3,kv=13.800000000,kW=14.19132,pf=0.92,Vminpu=0.93,Vmaxpu=1.5,model=8,zipv=[0.5,0,0.5,1,0,0,0],daily=MT2_1,status=variable
new load.3009011543M1 bus1=BMT150417193.1.2.3.0,Phases=3,kv=13.800000000,kW=0.00152,pf=0.92,Vminpu=0.93,Vmaxpu=1.5,model=8,zipv=[0.5,0,0.5,1,0,0,0],daily=MT1_1,status=variable
new load.3009011863M1 bus1=BMT147956547.1.2.3.0,Phases=3,kv=13.800000000,kW=10.40696,pf=0.92,Vminpu=0.93,Vmaxpu=1.5,model=8,zipv=[0.5,0,0.5,1,0,0,0],daily=MT2_1,status=variable
new load.3009011968M1 bus1=BMT177938142.1.2.3.0,Phases=3,kv=13.800000000,kW=0.05914,pf=0.92,Vminpu=0.93,Vmaxpu=1.5,model=8,zipv=[0.5,0,0.5,1,0,0,0],daily=MT2_1,status=variable
new load.3009011969M1 bus1=BMT124744603.1.2.3.0,Phases=3,kv=13.800000000,kW=9.93392,pf=0.92,Vminpu=0.93,Vmaxpu=1.5,model=8,zipv=[0.5,0,0.5,1,0,0,0],daily=MT2_1,status=variable
new load.3009012002M1 bus1=BMT124764469.1.2.3.0,Phases=3,kv=13.800000000,kW=2.16496,pf=0.92,Vminpu=0.93,Vmaxpu=1.5,model=8,zipv=[0.5,0,0.5,1,0,0,0],daily=MT3_1,status=variable
new load.3009012198M1 bus1=BMT149486816.1.2.3.0,Phases=3,kv=13.800000000,kW=0.72166,pf=0.92,Vminpu=0.93,Vmaxpu=1.5,model=8,zipv=[0.5,0,0.5,1,0,0,0],daily=MT3_1,status=variable
new load.3009012465M1 bus1=BMT151847918.1.2.3.0,Phases=3,kv=13.800000000,kW=28.76698,pf=0.92,Vminpu=0.93,Vmaxpu=1.5,model=8,zipv=[0.5,0,0.5,1,0,0,0],daily=MT2_1,status=variable
new load.3009012562M1 bus1=BMT124753220.1.2.3.0,Phases=3,kv=13.800000000,kW=95.20008,pf=0.92,Vminpu=0.93,Vmaxpu=1.5,model=8,zipv=[0.5,0,0.5,1,0,0,0],daily=MT2_1,status=variable
new load.3009012696M1 bus1=BMT124764154.1.2.3.0,Phases=3,kv=13.800000000,kW=102.37642,pf=0.92,Vminpu=0.93,Vmaxpu=1.5,model=8,zipv=[0.5,0,0.5,1,0,0,0],daily=MT5_1,status=variable
new load.3009012924M1 bus1=BMT174352272.1.2.3.0,Phases=3,kv=13.800000000,kW=541.52424,pf=0.92,Vminpu=0.93,Vmaxpu=1.5,model=8,zipv=[0.5,0,0.5,1,0,0,0],daily=MT4_1,status=variable
new load.3009012955M1 bus1=BMT124745163.1.2.3.0,Phases=3,kv=13.800000000,kW=13.60034,pf=0.92,Vminpu=0.93,Vmaxpu=1.5,model=8,zipv=[0.5,0,0.5,1,0,0,0],daily=MT3_1,status=variable
new load.3009013009M1 bus1=BMT178069987.1.2.3.0,Phases=3,kv=13.800000000,kW=218.71574,pf=0.92,Vminpu=0.93,Vmaxpu=1.5,model=8,zipv=[0.5,0,0.5,1,0,0,0],daily=MT3_1,status=variable
new load.3009013022M1 bus1=BMT124712088.1.2.3.0,Phases=3,kv=13.800000000,kW=0.05914,pf=0.92,Vminpu=0.93,Vmaxpu=1.5,model=8,zipv=[0.5,0,0.5,1,0,0,0],daily=MT2_1,status=variable
new load.3009013236M1 bus1=BMT124731093.1.2.3.0,Phases=3,kv=13.800000000,kW=0.00152,pf=0.92,Vminpu=0.93,Vmaxpu=1.5,model=8,zipv=[0.5,0,0.5,1,0,0,0],daily=MT1_1,status=variable
new load.3009013849M1 bus1=BMT166595513.1.2.3.0,Phases=3,kv=13.800000000,kW=1.06434,pf=0.92,Vminpu=0.93,Vmaxpu=1.5,model=8,zipv=[0.5,0,0.5,1,0,0,0],daily=MT2_1,status=variable
new load.3009014137M1 bus1=BMT170269596.1.2.3.0,Phases=3,kv=13.800000000,kW=3.26684,pf=0.92,Vminpu=0.93,Vmaxpu=1.5,model=8,zipv=[0.5,0,0.5,1,0,0,0],daily=MT1_1,status=variable
new load.3009014190M1 bus1=BMT127888947.1.2.3.0,Phases=3,kv=13.800000000,kW=1.83304,pf=0.92,Vminpu=0.93,Vmaxpu=1.5,model=8,zipv=[0.5,0,0.5,1,0,0,0],daily=MT2_1,status=variable
new load.3009015008M1 bus1=BMT152382484.1.2.3.0,Phases=3,kv=13.800000000,kW=14.51928,pf=0.92,Vminpu=0.93,Vmaxpu=1.5,model=8,zipv=[0.5,0,0.5,1,0,0,0],daily=MT1_1,status=variable
new load.3009015901M1 bus1=BMT124725675.1.2.3.0,Phases=3,kv=13.800000000,kW=24.95306,pf=0.92,Vminpu=0.93,Vmaxpu=1.5,model=8,zipv=[0.5,0,0.5,1,0,0,0],daily=MT2_1,status=variable
new load.3009016527M1 bus1=BMT124732661.1.2.3.0,Phases=3,kv=13.800000000,kW=10.52522,pf=0.92,Vminpu=0.93,Vmaxpu=1.5,model=8,zipv=[0.5,0,0.5,1,0,0,0],daily=MT2_1,status=variable
new load.3009016650M1 bus1=BMT124719774.1.2.3.0,Phases=3,kv=13.800000000,kW=0.1774,pf=0.92,Vminpu=0.93,Vmaxpu=1.5,model=8,zipv=[0.5,0,0.5,1,0,0,0],daily=MT2_1,status=variable
new load.3009017048M1 bus1=BMT170326214.1.2.3.0,Phases=3,kv=13.800000000,kW=0.29566,pf=0.92,Vminpu=0.93,Vmaxpu=1.5,model=8,zipv=[0.5,0,0.5,1,0,0,0],daily=MT2_1,status=variable
new load.3009017256M1 bus1=BMT173965122.1.2.3.0,Phases=3,kv=13.800000000,kW=20.81394,pf=0.92,Vminpu=0.93,Vmaxpu=1.5,model=8,zipv=[0.5,0,0.5,1,0,0,0],daily=MT2_1,status=variable
new load.3009017534M1 bus1=BMT151847807.1.2.3.0,Phases=3,kv=13.800000000,kW=62.4418,pf=0.92,Vminpu=0.93,Vmaxpu=1.5,model=8,zipv=[0.5,0,0.5,1,0,0,0],daily=MT2_1,status=variable
new load.3009018175M1 bus1=BMT124744680.1.2.3.0,Phases=3,kv=13.800000000,kW=0.60892,pf=0.92,Vminpu=0.93,Vmaxpu=1.5,model=8,zipv=[0.5,0,0.5,1,0,0,0],daily=MT4_1,status=variable
new load.3009018395M1 bus1=BMT175442774.1.2.3.0,Phases=3,kv=13.800000000,kW=22.2922,pf=0.92,Vminpu=0.93,Vmaxpu=1.5,model=8,zipv=[0.5,0,0.5,1,0,0,0],daily=MT2_1,status=variable
new load.3009018546M1 bus1=BMT151847983.1.2.3.0,Phases=3,kv=13.800000000,kW=10.88946,pf=0.92,Vminpu=0.93,Vmaxpu=1.5,model=8,zipv=[0.5,0,0.5,1,0,0,0],daily=MT1_1,status=variable
new load.3009018930M1 bus1=BMT124734173.1.2.3.0,Phases=3,kv=13.800000000,kW=7.37854,pf=0.92,Vminpu=0.93,Vmaxpu=1.5,model=8,zipv=[0.5,0,0.5,1,0,0,0],daily=MT1_1,status=variable
new load.3009019363M1 bus1=BMT124734453.1.2.3.0,Phases=3,kv=13.800000000,kW=74.8019,pf=0.92,Vminpu=0.93,Vmaxpu=1.5,model=8,zipv=[0.5,0,0.5,1,0,0,0],daily=MT3_1,status=variable
new load.3009019575M1 bus1=BMT170510935.1.2.3.0,Phases=3,kv=13.800000000,kW=0.05552,pf=0.92,Vminpu=0.93,Vmaxpu=1.5,model=8,zipv=[0.5,0,0.5,1,0,0,0],daily=MT3_1,status=variable
new load.3009019696M1 bus1=BMT124719529.1.2.3.0,Phases=3,kv=13.800000000,kW=0.05552,pf=0.92,Vminpu=0.93,Vmaxpu=1.5,model=8,zipv=[0.5,0,0.5,1,0,0,0],daily=MT3_1,status=variable
new load.3009020242M1 bus1=BMT168523606.1.2.3.0,Phases=3,kv=13.800000000,kW=10.58698,pf=0.92,Vminpu=0.93,Vmaxpu=1.5,model=8,zipv=[0.5,0,0.5,1,0,0,0],daily=MT1_1,status=variable
new load.3009020244M1 bus1=BMT174530403.1.2.3.0,Phases=3,kv=13.800000000,kW=8.98784,pf=0.92,Vminpu=0.93,Vmaxpu=1.5,model=8,zipv=[0.5,0,0.5,1,0,0,0],daily=MT2_1,status=variable
new load.3009020512M1 bus1=BMT124746297.1.2.3.0,Phases=3,kv=13.800000000,kW=0.00138,pf=0.92,Vminpu=0.93,Vmaxpu=1.5,model=8,zipv=[0.5,0,0.5,1,0,0,0],daily=MT3_1,status=variable
new load.3009020615M1 bus1=BMT124746458.1.2.3.0,Phases=3,kv=13.800000000,kW=22.1419,pf=0.92,Vminpu=0.93,Vmaxpu=1.5,model=8,zipv=[0.5,0,0.5,1,0,0,0],daily=MT1_1,status=variable
new load.3009020621M1 bus1=BMT124746472.1.2.3.0,Phases=3,kv=13.800000000,kW=0.4996,pf=0.92,Vminpu=0.93,Vmaxpu=1.5,model=8,zipv=[0.5,0,0.5,1,0,0,0],daily=MT3_1,status=variable
new load.3009020731M1 bus1=BMT124740795.1.2.3.0,Phases=3,kv=13.800000000,kW=0.11102,pf=0.92,Vminpu=0.93,Vmaxpu=1.5,model=8,zipv=[0.5,0,0.5,1,0,0,0],daily=MT3_1,status=variable
new load.3009020944M1 bus1=BMT175441040.1.2.3.0,Phases=3,kv=13.800000000,kW=546.6607,pf=0.92,Vminpu=0.93,Vmaxpu=1.5,model=8,zipv=[0.5,0,0.5,1,0,0,0],daily=MT5_1,status=variable
new load.3009021243M1 bus1=BMT151847779.1.2.3.0,Phases=3,kv=13.800000000,kW=61.97872,pf=0.92,Vminpu=0.93,Vmaxpu=1.5,model=8,zipv=[0.5,0,0.5,1,0,0,0],daily=MT3_1,status=variable
new load.3009022169M1 bus1=BMT170618897.1.2.3.0,Phases=3,kv=13.800000000,kW=0.48398,pf=0.92,Vminpu=0.93,Vmaxpu=1.5,model=8,zipv=[0.5,0,0.5,1,0,0,0],daily=MT1_1,status=variable
new load.3010000278M1 bus1=BMT124746388.1.2.3.0,Phases=3,kv=13.800000000,kW=0.00138,pf=0.92,Vminpu=0.93,Vmaxpu=1.5,model=8,zipv=[0.5,0,0.5,1,0,0,0],daily=MT4_1,status=variable
new load.3010000293M1 bus1=BMT124746346.1.2.3.0,Phases=3,kv=13.800000000,kW=0.11826,pf=0.92,Vminpu=0.93,Vmaxpu=1.5,model=8,zipv=[0.5,0,0.5,1,0,0,0],daily=MT2_1,status=variable
new load.3010000483M1 bus1=BMT124763769.1.2.3.0,Phases=3,kv=13.800000000,kW=0.72596,pf=0.92,Vminpu=0.93,Vmaxpu=1.5,model=8,zipv=[0.5,0,0.5,1,0,0,0],daily=MT1_1,status=variable
new load.3010000982M1 bus1=BMT124722105.1.2.3.0,Phases=3,kv=13.800000000,kW=0.65044,pf=0.92,Vminpu=0.93,Vmaxpu=1.5,model=8,zipv=[0.5,0,0.5,1,0,0,0],daily=MT2_1,status=variable
new load.3010001856M1 bus1=BMT150345202.1.2.3.0,Phases=3,kv=13.800000000,kW=1.27044,pf=0.92,Vminpu=0.93,Vmaxpu=1.5,model=8,zipv=[0.5,0,0.5,1,0,0,0],daily=MT1_1,status=variable
new load.3010121084M1 bus1=BMT124722231.1.2.3.0,Phases=3,kv=13.800000000,kW=0.41392,pf=0.92,Vminpu=0.93,Vmaxpu=1.5,model=8,zipv=[0.5,0,0.5,1,0,0,0],daily=MT2_1,status=variable
new load.3010128041M1 bus1=BMT149488797.1.2.3.0,Phases=3,kv=13.800000000,kW=0.11102,pf=0.92,Vminpu=0.93,Vmaxpu=1.5,model=8,zipv=[0.5,0,0.5,1,0,0,0],daily=MT3_1,status=variable
new load.3010166035M1 bus1=BMT124718787.1.2.3.0,Phases=3,kv=13.800000000,kW=0.00152,pf=0.92,Vminpu=0.93,Vmaxpu=1.5,model=8,zipv=[0.5,0,0.5,1,0,0,0],daily=MT1_1,status=variable
new load.3010178472M1 bus1=BMT147764285.1.2.3.0,Phases=3,kv=13.800000000,kW=10.70262,pf=0.92,Vminpu=0.93,Vmaxpu=1.5,model=8,zipv=[0.5,0,0.5,1,0,0,0],daily=MT2_1,status=variable
new load.3010222444M1 bus1=BMT124750833.1.2.3.0,Phases=3,kv=13.800000000,kW=20.89052,pf=0.92,Vminpu=0.93,Vmaxpu=1.5,model=8,zipv=[0.5,0,0.5,1,0,0,0],daily=MT1_1,status=variable
new load.3010270834M1 bus1=BMT151847987.1.2.3.0,Phases=3,kv=13.800000000,kW=81.04424,pf=0.92,Vminpu=0.93,Vmaxpu=1.5,model=8,zipv=[0.5,0,0.5,1,0,0,0],daily=MT2_1,status=variable
new load.3010325172M1 bus1=BMT148406048.1.2.3.0,Phases=3,kv=13.800000000,kW=2.07358,pf=0.92,Vminpu=0.93,Vmaxpu=1.5,model=8,zipv=[0.5,0,0.5,1,0,0,0],daily=MT1_1,status=variable
new load.3010409070M1 bus1=BMT124730064.1.2.3.0,Phases=3,kv=13.800000000,kW=73.62404,pf=0.92,Vminpu=0.93,Vmaxpu=1.5,model=8,zipv=[0.5,0,0.5,1,0,0,0],daily=MT4_1,status=variable
new load.3010546145M1 bus1=BMT124732976.1.2.3.0,Phases=3,kv=13.800000000,kW=7.9856,pf=0.92,Vminpu=0.93,Vmaxpu=1.5,model=8,zipv=[0.5,0,0.5,1,0,0,0],daily=MT1_1,status=variable
new load.3010579864M1 bus1=BMT124735153.1.2.3.0,Phases=3,kv=13.800000000,kW=4.94054,pf=0.92,Vminpu=0.93,Vmaxpu=1.5,model=8,zipv=[0.5,0,0.5,1,0,0,0],daily=MT3_1,status=variable
new load.3010582148M1 bus1=BMT150345206.1.2.3.0,Phases=3,kv=13.800000000,kW=0.00152,pf=0.92,Vminpu=0.93,Vmaxpu=1.5,model=8,zipv=[0.5,0,0.5,1,0,0,0],daily=MT1_1,status=variable
new load.3010722449M1 bus1=BMT177667509.1.2.3.0,Phases=3,kv=13.800000000,kW=4.83976,pf=0.92,Vminpu=0.93,Vmaxpu=1.5,model=8,zipv=[0.5,0,0.5,1,0,0,0],daily=MT1_1,status=variable
new load.3010729756M1 bus1=BMT124733543.1.2.3.0,Phases=3,kv=13.800000000,kW=4.66288,pf=0.92,Vminpu=0.93,Vmaxpu=1.5,model=8,zipv=[0.5,0,0.5,1,0,0,0],daily=MT1_1,status=variable
new load.3010811968M1 bus1=BMT124765582.1.2.3.0,Phases=3,kv=13.800000000,kW=10.05218,pf=0.92,Vminpu=0.93,Vmaxpu=1.5,model=8,zipv=[0.5,0,0.5,1,0,0,0],daily=MT2_1,status=variable
new load.3010829783M1 bus1=BMT124763629.1.2.3.0,Phases=3,kv=13.800000000,kW=0.66614,pf=0.92,Vminpu=0.93,Vmaxpu=1.5,model=8,zipv=[0.5,0,0.5,1,0,0,0],daily=MT3_1,status=variable
new load.3010836540M1 bus1=BMT124711899.1.2.3.0,Phases=3,kv=13.800000000,kW=0.22204,pf=0.92,Vminpu=0.93,Vmaxpu=1.5,model=8,zipv=[0.5,0,0.5,1,0,0,0],daily=MT3_1,status=variable
new load.3010891226M1 bus1=BMT124712025.1.2.3.0,Phases=3,kv=13.800000000,kW=46.96282,pf=0.92,Vminpu=0.93,Vmaxpu=1.5,model=8,zipv=[0.5,0,0.5,1,0,0,0],daily=MT3_1,status=variable
new load.3010891247M1 bus1=BMT124711983.1.2.3.0,Phases=3,kv=13.800000000,kW=17.2712,pf=0.92,Vminpu=0.93,Vmaxpu=1.5,model=8,zipv=[0.5,0,0.5,1,0,0,0],daily=MT4_1,status=variable
new load.3011173967M1 bus1=BMT165341708.1.2.3.0,Phases=3,kv=13.800000000,kW=36.21742,pf=0.92,Vminpu=0.93,Vmaxpu=1.5,model=8,zipv=[0.5,0,0.5,1,0,0,0],daily=MT2_1,status=variable
new load.3011176131M1 bus1=BMT124740249.1.2.3.0,Phases=3,kv=13.800000000,kW=0.22142,pf=0.92,Vminpu=0.93,Vmaxpu=1.5,model=8,zipv=[0.5,0,0.5,1,0,0,0],daily=MT4_1,status=variable
new load.3011418535M1 bus1=BMT124743231.1.2.3.0,Phases=3,kv=13.800000000,kW=0.55512,pf=0.92,Vminpu=0.93,Vmaxpu=1.5,model=8,zipv=[0.5,0,0.5,1,0,0,0],daily=MT3_1,status=variable
new load.3011418677M1 bus1=BMT124743301.1.2.3.0,Phases=3,kv=13.800000000,kW=0.41392,pf=0.92,Vminpu=0.93,Vmaxpu=1.5,model=8,zipv=[0.5,0,0.5,1,0,0,0],daily=MT2_1,status=variable
new load.3011418744M1 bus1=BMT124743245.1.2.3.0,Phases=3,kv=13.800000000,kW=7.5687,pf=0.92,Vminpu=0.93,Vmaxpu=1.5,model=8,zipv=[0.5,0,0.5,1,0,0,0],daily=MT2_1,status=variable
new load.3011434717M1 bus1=BMT124747606.1.2.3.0,Phases=3,kv=13.800000000,kW=0.66428,pf=0.92,Vminpu=0.93,Vmaxpu=1.5,model=8,zipv=[0.5,0,0.5,1,0,0,0],daily=MT4_1,status=variable
new load.3011441065M1 bus1=BMT151446872.1.2.3.0,Phases=3,kv=13.800000000,kW=117.21724,pf=0.92,Vminpu=0.93,Vmaxpu=1.5,model=8,zipv=[0.5,0,0.5,1,0,0,0],daily=MT4_1,status=variable
new load.3011597384M1 bus1=BMT146326464.1.2.3.0,Phases=3,kv=13.800000000,kW=2.70786,pf=0.92,Vminpu=0.93,Vmaxpu=1.5,model=8,zipv=[0.5,0,0.5,1,0,0,0],daily=MT1_1,status=variable
new load.3011605157M1 bus1=BMT124712053.1.2.3.0,Phases=3,kv=13.800000000,kW=0.00138,pf=0.92,Vminpu=0.93,Vmaxpu=1.5,model=8,zipv=[0.5,0,0.5,1,0,0,0],daily=MT4_1,status=variable
new load.3011637446M1 bus1=BMT129781992.1.2.3.0,Phases=3,kv=13.800000000,kW=1.4433,pf=0.92,Vminpu=0.93,Vmaxpu=1.5,model=8,zipv=[0.5,0,0.5,1,0,0,0],daily=MT3_1,status=variable
new load.3011774614M1 bus1=BMT165241736.1.2.3.0,Phases=3,kv=13.800000000,kW=10.72796,pf=0.92,Vminpu=0.93,Vmaxpu=1.5,model=8,zipv=[0.5,0,0.5,1,0,0,0],daily=MT1_1,status=variable
new load.3011800646M1 bus1=BMT138427440.1.2.3.0,Phases=3,kv=13.800000000,kW=0.11826,pf=0.92,Vminpu=0.93,Vmaxpu=1.5,model=8,zipv=[0.5,0,0.5,1,0,0,0],daily=MT2_1,status=variable
new load.3011800680M1 bus1=BMT161327038.1.2.3.0,Phases=3,kv=13.800000000,kW=0.00148,pf=0.92,Vminpu=0.93,Vmaxpu=1.5,model=8,zipv=[0.5,0,0.5,1,0,0,0],daily=MT2_1,status=variable
new load.3012173040M1 bus1=BMT158527300.1.2.3.0,Phases=3,kv=13.800000000,kW=30.85988,pf=0.92,Vminpu=0.93,Vmaxpu=1.5,model=8,zipv=[0.5,0,0.5,1,0,0,0],daily=MT5_1,status=variable
new load.3012233142M1 bus1=BMT161053897.1.2.3.0,Phases=3,kv=13.800000000,kW=6.44522,pf=0.92,Vminpu=0.93,Vmaxpu=1.5,model=8,zipv=[0.5,0,0.5,1,0,0,0],daily=MT2_1,status=variable
new load.3012241628M1 bus1=BMT150281132.1.2.3.0,Phases=3,kv=13.800000000,kW=0.11102,pf=0.92,Vminpu=0.93,Vmaxpu=1.5,model=8,zipv=[0.5,0,0.5,1,0,0,0],daily=MT3_1,status=variable
new load.3012281434M1 bus1=BMT163344158.1.2.3.0,Phases=3,kv=13.800000000,kW=0.84696,pf=0.92,Vminpu=0.93,Vmaxpu=1.5,model=8,zipv=[0.5,0,0.5,1,0,0,0],daily=MT1_1,status=variable
new load.3012439275M1 bus1=BMT151616522.1.2.3.0,Phases=3,kv=13.800000000,kW=10.70262,pf=0.92,Vminpu=0.93,Vmaxpu=1.5,model=8,zipv=[0.5,0,0.5,1,0,0,0],daily=MT2_1,status=variable
new load.3012488446M1 bus1=BMT151619501.1.2.3.0,Phases=3,kv=13.800000000,kW=0.5913,pf=0.92,Vminpu=0.93,Vmaxpu=1.5,model=8,zipv=[0.5,0,0.5,1,0,0,0],daily=MT2_1,status=variable
new load.3012583905M1 bus1=BMT152288593.1.2.3.0,Phases=3,kv=13.800000000,kW=6.3861,pf=0.92,Vminpu=0.93,Vmaxpu=1.5,model=8,zipv=[0.5,0,0.5,1,0,0,0],daily=MT2_1,status=variable
new load.3012624935M1 bus1=BMT154115972.1.2.3.0,Phases=3,kv=13.800000000,kW=1.43926,pf=0.92,Vminpu=0.93,Vmaxpu=1.5,model=8,zipv=[0.5,0,0.5,1,0,0,0],daily=MT4_1,status=variable
new load.3012625010M1 bus1=BMT153592341.1.2.3.0,Phases=3,kv=13.800000000,kW=1.1826,pf=0.92,Vminpu=0.93,Vmaxpu=1.5,model=8,zipv=[0.5,0,0.5,1,0,0,0],daily=MT2_1,status=variable
new load.3012627484M1 bus1=BMT170619267.1.2.3.0,Phases=3,kv=13.800000000,kW=0.24198,pf=0.92,Vminpu=0.93,Vmaxpu=1.5,model=8,zipv=[0.5,0,0.5,1,0,0,0],daily=MT1_1,status=variable
new load.3012678768M1 bus1=BMT166417974.1.2.3.0,Phases=3,kv=13.800000000,kW=971.84124,pf=0.92,Vminpu=0.93,Vmaxpu=1.5,model=8,zipv=[0.5,0,0.5,1,0,0,0],daily=MT5_1,status=variable
new load.3012721890M1 bus1=BMT154341515.1.2.3.0,Phases=3,kv=13.800000000,kW=25.9532,pf=0.92,Vminpu=0.93,Vmaxpu=1.5,model=8,zipv=[0.5,0,0.5,1,0,0,0],daily=MT1_1,status=variable
new load.3012725035M1 bus1=BMT163337324.1.2.3.0,Phases=3,kv=13.800000000,kW=11.35614,pf=0.92,Vminpu=0.93,Vmaxpu=1.5,model=8,zipv=[0.5,0,0.5,1,0,0,0],daily=MT1_1,status=variable
new load.3013023380M1 bus1=BMT165304219.1.2.3.0,Phases=3,kv=13.800000000,kW=1.27676,pf=0.92,Vminpu=0.93,Vmaxpu=1.5,model=8,zipv=[0.5,0,0.5,1,0,0,0],daily=MT3_1,status=variable
new load.3013040541M1 bus1=BMT150345206.1.2.3.0,Phases=3,kv=13.800000000,kW=142.64956,pf=0.92,Vminpu=0.93,Vmaxpu=1.5,model=8,zipv=[0.5,0,0.5,1,0,0,0],daily=MT3_1,status=variable
new load.3013040573M1 bus1=BMT150345206.1.2.3.0,Phases=3,kv=13.800000000,kW=0.00152,pf=0.92,Vminpu=0.93,Vmaxpu=1.5,model=8,zipv=[0.5,0,0.5,1,0,0,0],daily=MT1_1,status=variable
new load.3013065939M1 bus1=BMT157936959.1.2.3.0,Phases=3,kv=13.800000000,kW=30.03828,pf=0.92,Vminpu=0.93,Vmaxpu=1.5,model=8,zipv=[0.5,0,0.5,1,0,0,0],daily=MT2_1,status=variable
new load.3013253257M1 bus1=BMT167092283.1.2.3.0,Phases=3,kv=13.800000000,kW=85.68216,pf=0.92,Vminpu=0.93,Vmaxpu=1.5,model=8,zipv=[0.5,0,0.5,1,0,0,0],daily=MT3_1,status=variable
new load.3013261533M1 bus1=BMT150417193.1.2.3.0,Phases=3,kv=13.800000000,kW=2080.34904,pf=0.92,Vminpu=0.93,Vmaxpu=1.5,model=8,zipv=[0.5,0,0.5,1,0,0,0],daily=MT5_1,status=variable
new load.3013382370M1 bus1=BMT162679276.1.2.3.0,Phases=3,kv=13.800000000,kW=7.41088,pf=0.92,Vminpu=0.93,Vmaxpu=1.5,model=8,zipv=[0.5,0,0.5,1,0,0,0],daily=MT1_1,status=variable
new load.3013391048M1 bus1=BMT173115113.1.2.3.0,Phases=3,kv=13.800000000,kW=0.5174,pf=0.92,Vminpu=0.93,Vmaxpu=1.5,model=8,zipv=[0.5,0,0.5,1,0,0,0],daily=MT2_1,status=variable
new load.3013586559M1 bus1=BMT169357687.1.2.3.0,Phases=3,kv=13.800000000,kW=0.00152,pf=0.92,Vminpu=0.93,Vmaxpu=1.5,model=8,zipv=[0.5,0,0.5,1,0,0,0],daily=MT1_1,status=variable
new load.3013684715M1 bus1=BMT167940084.1.2.3.0,Phases=3,kv=13.800000000,kW=16.9529,pf=0.92,Vminpu=0.93,Vmaxpu=1.5,model=8,zipv=[0.5,0,0.5,1,0,0,0],daily=MT4_1,status=variable
new load.3013936291M1 bus1=BMT178060112.1.2.3.0,Phases=3,kv=13.800000000,kW=1.58804,pf=0.92,Vminpu=0.93,Vmaxpu=1.5,model=8,zipv=[0.5,0,0.5,1,0,0,0],daily=MT1_1,status=variable
new load.3013936302M1 bus1=BMT178060112.1.2.3.0,Phases=3,kv=13.800000000,kW=2.1174,pf=0.92,Vminpu=0.93,Vmaxpu=1.5,model=8,zipv=[0.5,0,0.5,1,0,0,0],daily=MT1_1,status=variable
new load.3013936312M1 bus1=BMT178060112.1.2.3.0,Phases=3,kv=13.800000000,kW=2.1174,pf=0.92,Vminpu=0.93,Vmaxpu=1.5,model=8,zipv=[0.5,0,0.5,1,0,0,0],daily=MT1_1,status=variable
new load.3014234628M1 bus1=BMT150345215.1.2.3.0,Phases=3,kv=13.800000000,kW=0.00152,pf=0.92,Vminpu=0.93,Vmaxpu=1.5,model=8,zipv=[0.5,0,0.5,1,0,0,0],daily=MT1_1,status=variable
new load.3014234629M1 bus1=BMT150345212.1.2.3.0,Phases=3,kv=13.800000000,kW=0.00152,pf=0.92,Vminpu=0.93,Vmaxpu=1.5,model=8,zipv=[0.5,0,0.5,1,0,0,0],daily=MT1_1,status=variable
new load.3014470133M1 bus1=BMT178475157.1.2.3.0,Phases=3,kv=13.800000000,kW=150.54054,pf=0.92,Vminpu=0.93,Vmaxpu=1.5,model=8,zipv=[0.5,0,0.5,1,0,0,0],daily=MT3_1,status=variable
new load.3014727363M1 bus1=BMT151847987.1.2.3.0,Phases=3,kv=13.800000000,kW=0.00152,pf=0.92,Vminpu=0.93,Vmaxpu=1.5,model=8,zipv=[0.5,0,0.5,1,0,0,0],daily=MT1_1,status=variable
new load.3014761080M1 bus1=BMT178475157.1.2.3.0,Phases=3,kv=13.800000000,kW=0.00152,pf=0.92,Vminpu=0.93,Vmaxpu=1.5,model=8,zipv=[0.5,0,0.5,1,0,0,0],daily=MT1_1,status=variable
