new line.SMT_1150148 bus1=BMT3379305B.1.2.3,bus2=BMT124744841.1.2.3,Phases=3,Linecode=CAB204_3_3_3,Length=0.108999200,Units=km
new line.SMT_1150155 bus1=BMT1846774B.3,bus2=BMT178527506.3,Phases=1,Linecode=CAB202_3_1_1,Length=0.071536280,Units=km
new line.SMT_1150162 bus1=BMT178527632.2,bus2=BMT178527634.2,Phases=1,Linecode=CAB103_3_1_1,Length=0.016439770,Units=km
new line.SMT_1150169 bus1=BMT178527631.1.2.3,bus2=BMT178527632.1.2.3,Phases=3,Linecode=CAB204_3_3_3,Length=0.132430190,Units=km
new line.SMT_1150183 bus1=BMT3379277B.1.2.3,bus2=BMT178527631.1.2.3,Phases=3,Linecode=CAB204_3_3_3,Length=0.082270560,Units=km
new line.SMT_1150190 bus1=BMT3379235B.1.2.3,bus2=BMT1846795B.1.2.3,Phases=3,Linecode=CAB204_3_3_3,Length=0.159317400,Units=km
new line.SMT_1150204 bus1=BMT178527629.1.2.3,bus2=BMT124744799.1.2.3,Phases=3,Linecode=CAB204_3_3_3,Length=0.114005770,Units=km
new line.SMT_1150211 bus1=BMT1846809B.3,bus2=BMT163528669.3,Phases=1,Linecode=CAB202_3_1_1,Length=0.066940780,Units=km
new line.SMT_1150225 bus1=BMT3379221B.1.2.3,bus2=BMT178527629.1.2.3,Phases=3,Linecode=CAB204_3_3_3,Length=0.103813860,Units=km
new line.SMT_1150232 bus1=BMT124744785.1.2.3,bus2=BMT1846823B.1.2.3,Phases=3,Linecode=CAB204_3_3_3,Length=0.120718230,Units=km
new line.SMT_1150253 bus1=BMT179029466.1.2.3,bus2=BMT1846865B.1.2.3,Phases=3,Linecode=CAB203_3_3_3,Length=0.055108630,Units=km
new line.SMT_1150260 bus1=BMT2974341B.1.2.3,bus2=BMT124744764.1.2.3,Phases=3,Linecode=CAB204_3_3_3,Length=0.125952050,Units=km
new line.SMT_1150267 bus1=BMT124744764.1.2.3,bus2=BMT178527627.1.2.3,Phases=3,Linecode=CAB204_3_3_3,Length=0.088059880,Units=km
new line.SMT_1150288 bus1=BMT167046748.1,bus2=BMT167046749.1,Phases=1,Linecode=CAB202_3_1_1,Length=0.054654130,Units=km
new line.SMT_1150295 bus1=BMT167046749.1,bus2=BMT167046751.1,Phases=1,Linecode=CAB102_3_1_1,Length=0.076994320,Units=km
new line.SMT_1150302 bus1=BMT1846865B.1.2.3,bus2=BMT1846872B.1.2.3,Phases=3,Linecode=CAB203_3_3_3,Length=0.188398330,Units=km
new line.SMT_1150309 bus1=BMT1846872B.1.2.3,bus2=BMT1846879B.1.2.3,Phases=3,Linecode=CAB203_3_3_3,Length=0.110963650,Units=km
new line.SMT_1150330 bus1=BMT179029467.3,bus2=BMT179029468.3,Phases=1,Linecode=CAB103_3_1_1,Length=0.048556760,Units=km
new line.SMT_1150337 bus1=BMT179029467.1.2.3,bus2=BMT1846900B.1.2.3,Phases=3,Linecode=CAB203_3_3_3,Length=0.141414140,Units=km
new line.SMT_1150344 bus1=BMT1846900B.1.2.3,bus2=BMT1846907B.1.2.3,Phases=3,Linecode=CAB203_3_3_3,Length=0.129394130,Units=km
new line.SMT_1150351 bus1=BMT1846907B.1.2.3,bus2=BMT1846914B.1.2.3,Phases=3,Linecode=CAB203_3_3_3,Length=0.109850630,Units=km
new line.SMT_1150358 bus1=BMT1846914B.1.2.3,bus2=BMT141854815.1.2.3,Phases=3,Linecode=CAB203_3_3_3,Length=0.114865280,Units=km
new line.SMT_1150365 bus1=BMT141854815.1.2.3,bus2=BMT1846928B.1.2.3,Phases=3,Linecode=CAB203_3_3_3,Length=0.120251610,Units=km
new line.SMT_1150372 bus1=BMT141854976.2,bus2=BMT141854983.2,Phases=1,Linecode=CAB202_3_1_1,Length=0.128171020,Units=km
new line.SMT_1150379 bus1=BMT1846928B.1.2.3,bus2=BMT1846942B.1.2.3,Phases=3,Linecode=CAB203_3_3_3,Length=0.153954300,Units=km
new line.SMT_1150386 bus1=BMT141854983.2,bus2=BMT141854990.2,Phases=1,Linecode=CAB202_3_1_1,Length=0.127835700,Units=km
new line.SMT_1150393 bus1=BMT1846942B.1.2.3,bus2=BMT1846949B.1.2.3,Phases=3,Linecode=CAB203_3_3_3,Length=0.122893770,Units=km
new line.SMT_1150407 bus1=BMT178527506.3,bus2=BMT178527507.3,Phases=1,Linecode=CAB202_3_1_1,Length=0.026660970,Units=km
new line.SMT_1150414 bus1=BMT178527506.3,bus2=BMT1846963B.3,Phases=1,Linecode=CAB202_3_1_1,Length=0.021423110,Units=km
new line.SMT_1150421 bus1=BMT1846963B.3,bus2=BMT178527508.3,Phases=1,Linecode=CAB202_3_1_1,Length=0.110078890,Units=km
new line.SMT_1150435 bus1=BMT178527508.3,bus2=BMT1846984B.3,Phases=1,Linecode=CAB202_3_1_1,Length=0.070906040,Units=km
new line.SMT_1150456 bus1=BMT178527509.3,bus2=BMT178527514.3,Phases=1,Linecode=CAB103_3_1_1,Length=0.076709500,Units=km
new line.SMT_1168061 bus1=BMT124740676.1,bus2=BMT124740683.1,Phases=1,Linecode=CAB102_3_1_1,Length=0.014028900,Units=km
new line.SMT_1168082 bus1=BMT180200421.2,bus2=BMT180200422.2,Phases=1,Linecode=CAB103_3_1_1,Length=0.017664900,Units=km
new line.SMT_1168089 bus1=BMT180200421.1.2.3,bus2=BMT2979724B.1.2.3,Phases=3,Linecode=CAB207_3_3_3,Length=0.080917160,Units=km
new line.SMT_1168096 bus1=BMT1859052B.1.2.3,bus2=BMT124740844.1.2.3,Phases=3,Linecode=CAB207_3_3_3,Length=0.086284300,Units=km
new line.SMT_1168103 bus1=BMT124742321.1.2.3,bus2=BMT124742328.1.2.3,Phases=3,Linecode=CAB202_3_3_3,Length=0.137737740,Units=km
new line.SMT_1168110 bus1=BMT124740844.1.2.3,bus2=BMT2979773B.1.2.3,Phases=3,Linecode=CAB207_3_3_3,Length=0.082644260,Units=km
new line.SMT_1168117 bus1=BMT124742328.1,bus2=BMT124742335.1,Phases=1,Linecode=CAB103_3_1_1,Length=0.039986910,Units=km
new line.SMT_1168131 bus1=BMT180200423.1,bus2=BMT180200424.1,Phases=1,Linecode=CAB202_3_1_1,Length=0.112610960,Units=km
new line.SMT_1168138 bus1=BMT180200423.1.2.3,bus2=BMT180200425.1.2.3,Phases=3,Linecode=CAB207_3_3_3,Length=0.126326760,Units=km
new line.SMT_1168145 bus1=BMT180200425.3,bus2=BMT180200426.3,Phases=1,Linecode=CAB202_3_1_1,Length=0.127484220,Units=km
new line.SMT_1168152 bus1=BMT180200425.1.2.3,bus2=BMT124740879.1.2.3,Phases=3,Linecode=CAB207_3_3_3,Length=0.116810540,Units=km
new line.SMT_1168159 bus1=BMT124740879.2,bus2=BMT124740886.2,Phases=1,Linecode=CAB202_3_1_1,Length=0.127300400,Units=km
new line.SMT_1160935 bus1=BMT174797749.1,bus2=BMT124717065.1,Phases=1,Linecode=CAB103_3_1_1,Length=0.037469990,Units=km
new line.SMT_1160942 bus1=BMT174797749.1,bus2=BMT5411272B.1,Phases=1,Linecode=CAB202_3_1_1,Length=0.071521130,Units=km
new line.SMT_1160970 bus1=BMT168053182.1,bus2=BMT5406400B.1,Phases=1,Linecode=CAB103_3_1_1,Length=0.077144810,Units=km
new line.SMT_1160977 bus1=BMT168053183.1,bus2=BMT168053184.1,Phases=1,Linecode=CAB203_3_1_1,Length=0.101944350,Units=km
new line.SMT_1161068 bus1=BMT156450515.3,bus2=BMT156450516.3,Phases=1,Linecode=CAB103_3_1_1,Length=0.013585510,Units=km
new line.SMT_1161075 bus1=BMT156450515.3,bus2=BMT156450517.3,Phases=1,Linecode=CAB202_3_1_1,Length=0.025324740,Units=km
new line.SMT_1161082 bus1=BMT156450517.3,bus2=BMT156450518.3,Phases=1,Linecode=CAB102_3_1_1,Length=0.025803480,Units=km
new line.SMT_1161089 bus1=BMT156450517.3,bus2=BMT156450519.3,Phases=1,Linecode=CAB202_3_1_1,Length=0.100264720,Units=km
new line.SMT_1161103 bus1=BMT1854376B.1.2.3,bus2=BMT1854383B.1.2.3,Phases=3,Linecode=CAB202_3_3_3,Length=0.124900640,Units=km
new line.SMT_1161110 bus1=BMT1854383B.1.2.3,bus2=BMT2228449B.1.2.3,Phases=3,Linecode=CAB202_3_3_3,Length=0.139891060,Units=km
new line.SMT_1161117 bus1=BMT1854390B.1.2.3,bus2=BMT124718997.1.2.3,Phases=3,Linecode=CAB202_3_3_3,Length=0.016438760,Units=km
new line.SMT_1161124 bus1=BMT124718955.1,bus2=BMT1854404B.1,Phases=1,Linecode=CAB202_3_1_1,Length=0.334334240,Units=km
new line.SMT_1161131 bus1=BMT124718815.1.2.3,bus2=BMT5406246B.1.2.3,Phases=3,Linecode=CAB203_3_3_3,Length=0.067359930,Units=km
new line.SMT_1161138 bus1=BMT1854404B.1,bus2=BMT5406302B.1,Phases=1,Linecode=CAB202_3_1_1,Length=0.079058760,Units=km
new line.SMT_1161145 bus1=BMT1854411B.1.2.3,bus2=BMT5409907B.1.2.3,Phases=3,Linecode=CAB203_3_3_3,Length=0.086162090,Units=km
new line.SMT_1161152 bus1=BMT124718822.1.2.3,bus2=BMT174796964.1.2.3,Phases=3,Linecode=CAB203_3_3_3,Length=0.212696910,Units=km
new line.SMT_1161159 bus1=BMT168124414.3,bus2=BMT5410152B.3,Phases=1,Linecode=CAB202_3_1_1,Length=0.131872670,Units=km
new line.SMT_1161166 bus1=BMT1854425B.3,bus2=BMT5410215B.3,Phases=1,Linecode=CAB202_3_1_1,Length=0.132832170,Units=km
new line.SMT_1161173 bus1=BMT1854432B.3,bus2=BMT5410285B.3,Phases=1,Linecode=CAB202_3_1_1,Length=0.147386270,Units=km
new line.SMT_1161180 bus1=BMT168124416.3,bus2=BMT166558975.3,Phases=1,Linecode=CAB202_3_1_1,Length=0.111732260,Units=km
new line.SMT_1161201 bus1=BMT1854453B.1,bus2=BMT5400695B.1,Phases=1,Linecode=CAB202_3_1_1,Length=0.135153150,Units=km
new line.SMT_1161208 bus1=BMT1854460B.1,bus2=BMT5400702B.1,Phases=1,Linecode=CAB202_3_1_1,Length=0.125944980,Units=km
new line.SMT_1161215 bus1=BMT124719102.1,bus2=BMT124719109.1,Phases=1,Linecode=CAB202_3_1_1,Length=0.077543760,Units=km
new line.SMT_1161222 bus1=BMT124719102.1,bus2=BMT5402298B.1,Phases=1,Linecode=CAB202_3_1_1,Length=0.134544120,Units=km
new line.SMT_1161229 bus1=BMT1854474B.1,bus2=BMT5402305B.1,Phases=1,Linecode=CAB202_3_1_1,Length=0.116195450,Units=km
new line.SMT_1161236 bus1=BMT124719116.1,bus2=BMT124719123.1,Phases=1,Linecode=CAB102_3_1_1,Length=0.055620700,Units=km
new line.SMT_1161243 bus1=BMT141502001.3,bus2=BMT1854495B.3,Phases=1,Linecode=CAB203_3_1_1,Length=0.048228510,Units=km
new line.SMT_1161250 bus1=BMT124719172.3,bus2=BMT5402648B.3,Phases=1,Linecode=CAB202_3_1_1,Length=0.143039230,Units=km
new line.SMT_1161257 bus1=BMT1854495B.3,bus2=BMT1854502B.3,Phases=1,Linecode=CAB203_3_1_1,Length=0.065481330,Units=km
new line.SMT_1161264 bus1=BMT1854502B.3,bus2=BMT1854509B.3,Phases=1,Linecode=CAB203_3_1_1,Length=0.127830650,Units=km
new line.SMT_1161271 bus1=BMT1854509B.3,bus2=BMT1854516B.3,Phases=1,Linecode=CAB203_3_1_1,Length=0.122015070,Units=km
new line.SMT_1161278 bus1=BMT1854516B.3,bus2=BMT1854523B.3,Phases=1,Linecode=CAB203_3_1_1,Length=0.133297780,Units=km
new line.SMT_1161285 bus1=BMT1854523B.3,bus2=BMT1854530B.3,Phases=1,Linecode=CAB203_3_1_1,Length=0.140453630,Units=km
new line.SMT_1161292 bus1=BMT1854530B.3,bus2=BMT1854537B.3,Phases=1,Linecode=CAB203_3_1_1,Length=0.132776620,Units=km
new line.SMT_1161299 bus1=BMT1854537B.3,bus2=BMT1854544B.3,Phases=1,Linecode=CAB203_3_1_1,Length=0.135479380,Units=km
new line.SMT_1161306 bus1=BMT1854544B.3,bus2=BMT1854551B.3,Phases=1,Linecode=CAB203_3_1_1,Length=0.142707950,Units=km
new line.SMT_1161313 bus1=BMT1854551B.3,bus2=BMT1854558B.3,Phases=1,Linecode=CAB203_3_1_1,Length=0.121482800,Units=km
new line.SMT_1161320 bus1=BMT1854558B.3,bus2=BMT1854565B.3,Phases=1,Linecode=CAB203_3_1_1,Length=0.115864170,Units=km
new line.SMT_1161327 bus1=BMT1854565B.3,bus2=BMT1854572B.3,Phases=1,Linecode=CAB203_3_1_1,Length=0.139283040,Units=km
new line.SMT_1161334 bus1=BMT1854572B.3,bus2=BMT1854579B.3,Phases=1,Linecode=CAB203_3_1_1,Length=0.128149810,Units=km
new line.SMT_1161341 bus1=BMT1854579B.3,bus2=BMT1854586B.3,Phases=1,Linecode=CAB203_3_1_1,Length=0.123022040,Units=km
new line.SMT_1161348 bus1=BMT1854586B.3,bus2=BMT1854593B.3,Phases=1,Linecode=CAB203_3_1_1,Length=0.126548960,Units=km
new line.SMT_1161355 bus1=BMT1854593B.3,bus2=BMT141502008.3,Phases=1,Linecode=CAB203_3_1_1,Length=0.125743990,Units=km
new line.SMT_1161362 bus1=BMT141502008.3,bus2=BMT141502015.3,Phases=1,Linecode=CAB203_3_1_1,Length=0.147518580,Units=km
new line.SMT_1161369 bus1=BMT178477277.3,bus2=BMT5402690B.3,Phases=1,Linecode=CAB203_3_1_1,Length=0.130361710,Units=km
new line.SMT_1161376 bus1=BMT1854614B.3,bus2=BMT5402753B.3,Phases=1,Linecode=CAB203_3_1_1,Length=0.114107780,Units=km
new line.SMT_1161383 bus1=BMT1854621B.3,bus2=BMT5402774B.3,Phases=1,Linecode=CAB203_3_1_1,Length=0.115227870,Units=km
new line.SMT_1161390 bus1=BMT178477278.3,bus2=BMT178477279.3,Phases=1,Linecode=CAB103_3_1_1,Length=0.007068990,Units=km
new line.SMT_1161397 bus1=BMT178477278.3,bus2=BMT5402830B.3,Phases=1,Linecode=CAB203_3_1_1,Length=0.059782910,Units=km
new line.SMT_1161404 bus1=BMT1854635B.3,bus2=BMT5402837B.3,Phases=1,Linecode=CAB203_3_1_1,Length=0.144995600,Units=km
new line.SMT_1161411 bus1=BMT178477280.3,bus2=BMT178477281.3,Phases=1,Linecode=CAB202_3_1_1,Length=0.099560750,Units=km
new line.SMT_1161418 bus1=BMT178477280.3,bus2=BMT156691550.3,Phases=1,Linecode=CAB203_3_1_1,Length=0.102592770,Units=km
new line.SMT_1161425 bus1=BMT173312290.3,bus2=BMT173312291.3,Phases=1,Linecode=CAB203_3_1_1,Length=0.316901640,Units=km
new line.SMT_1161432 bus1=BMT156691550.3,bus2=BMT178477282.3,Phases=1,Linecode=CAB103_3_1_1,Length=0.020818120,Units=km
new line.SMT_1161439 bus1=BMT156691550.3,bus2=BMT5400156B.3,Phases=1,Linecode=CAB203_3_1_1,Length=0.159086110,Units=km
new line.SMT_1161446 bus1=BMT173312291.3,bus2=BMT5402851B.3,Phases=1,Linecode=CAB202_3_1_1,Length=0.132494830,Units=km
new line.SMT_1161453 bus1=BMT173312291.3,bus2=BMT5402865B.3,Phases=1,Linecode=CAB203_3_1_1,Length=0.096396420,Units=km
new line.SMT_1161460 bus1=BMT178477283.3,bus2=BMT178477284.3,Phases=1,Linecode=CAB103_3_1_1,Length=0.032091740,Units=km
new line.SMT_1161467 bus1=BMT178477283.3,bus2=BMT178477285.3,Phases=1,Linecode=CAB203_3_1_1,Length=0.057203370,Units=km
new line.SMT_1161474 bus1=BMT178477285.3,bus2=BMT178477286.3,Phases=1,Linecode=CAB203_3_1_1,Length=0.104746090,Units=km
new line.SMT_1161481 bus1=BMT178477285.3,bus2=BMT5400380B.3,Phases=1,Linecode=CAB203_3_1_1,Length=0.121594910,Units=km
new line.SMT_1161488 bus1=BMT1854677B.3,bus2=BMT5400345B.3,Phases=1,Linecode=CAB203_3_1_1,Length=0.099442580,Units=km
new line.SMT_1161495 bus1=BMT178477286.3,bus2=BMT178477288.3,Phases=1,Linecode=CAB203_3_1_1,Length=0.384147440,Units=km
new line.SMT_1161502 bus1=BMT178477286.3,bus2=BMT178477289.3,Phases=1,Linecode=CAB202_3_1_1,Length=0.093970400,Units=km
new line.SMT_1161509 bus1=BMT178477286.3,bus2=BMT124719291.3,Phases=1,Linecode=CAB202_3_1_1,Length=0.143394750,Units=km
new line.SMT_1161516 bus1=BMT178477288.3,bus2=BMT178477291.3,Phases=1,Linecode=CAB103_3_1_1,Length=0.024423820,Units=km
new line.SMT_1161523 bus1=BMT178477288.3,bus2=BMT5402977B.3,Phases=1,Linecode=CAB203_3_1_1,Length=0.095290470,Units=km
new line.SMT_1161530 bus1=BMT178477297.3,bus2=BMT178477299.3,Phases=1,Linecode=CAB203_3_1_1,Length=0.149453740,Units=km
new line.SMT_1161537 bus1=BMT178477297.3,bus2=BMT5400765B.3,Phases=1,Linecode=CAB202_3_1_1,Length=0.142471610,Units=km
new line.SMT_1161544 bus1=BMT178477299.3,bus2=BMT178477301.3,Phases=1,Linecode=CAB103_3_1_1,Length=0.047073070,Units=km
new line.SMT_1161551 bus1=BMT178477299.3,bus2=BMT178477302.3,Phases=1,Linecode=CAB203_3_1_1,Length=0.138195270,Units=km
new line.SMT_1161558 bus1=BMT178477302.3,bus2=BMT178477303.3,Phases=1,Linecode=CAB103_3_1_1,Length=0.019607130,Units=km
new line.SMT_1161565 bus1=BMT178477302.3,bus2=BMT5402858B.3,Phases=1,Linecode=CAB203_3_1_1,Length=0.129671880,Units=km
new line.SMT_1161572 bus1=BMT156690852.3,bus2=BMT5402914B.3,Phases=1,Linecode=CAB203_3_1_1,Length=0.108122520,Units=km
new line.SMT_1161579 bus1=BMT173312293.3,bus2=BMT173312294.3,Phases=1,Linecode=CAB103_3_1_1,Length=0.032219000,Units=km
new line.SMT_1161586 bus1=BMT1854733B.1.2.3,bus2=BMT5396096B.1.2.3,Phases=3,Linecode=CAB207_3_3_3,Length=0.047030650,Units=km
new line.SMT_1161593 bus1=BMT1854740B.1.2.3,bus2=BMT5396397B.1.2.3,Phases=3,Linecode=CAB207_3_3_3,Length=0.094060290,Units=km
new line.SMT_1161600 bus1=BMT163112987.1.2.3,bus2=BMT2927973B.1.2.3,Phases=3,Linecode=CAB204_3_3_3,Length=0.061525160,Units=km
new line.SMT_1161607 bus1=BMT124719480.1.2.3,bus2=BMT5396530B.1.2.3,Phases=3,Linecode=CAB207_3_3_3,Length=0.097514490,Units=km
new line.SMT_1161614 bus1=BMT1854754B.1.2.3,bus2=BMT2928064B.1.2.3,Phases=3,Linecode=CAB204_3_3_3,Length=0.063047230,Units=km
new line.SMT_1161621 bus1=BMT1854761B.1.2.3,bus2=BMT5110286B.1.2.3,Phases=3,Linecode=CAB207_3_3_3,Length=0.075439930,Units=km
new line.SMT_1161656 bus1=BMT1854789B.1.2.3,bus2=BMT1854796B.1.2.3,Phases=3,Linecode=CAB203_3_3_3,Length=0.096123720,Units=km
new line.SMT_1161663 bus1=BMT1854796B.1.2.3,bus2=BMT5387080B.1.2.3,Phases=3,Linecode=CAB203_3_3_3,Length=0.107140800,Units=km
new line.SMT_1161670 bus1=BMT1854803B.1.2.3,bus2=BMT5387108B.1.2.3,Phases=3,Linecode=CAB203_3_3_3,Length=0.084878380,Units=km
new line.SMT_1161677 bus1=BMT124719522.1.2.3,bus2=BMT124719529.1.2.3,Phases=3,Linecode=CAB103_3_3_3,Length=0.051192860,Units=km
new line.SMT_1161698 bus1=BMT172190705.1.2.3,bus2=BMT172190706.1.2.3,Phases=3,Linecode=CAB202_3_3_3,Length=0.068697170,Units=km
new line.SMT_1161705 bus1=BMT172190705.1.2.3,bus2=BMT1856147B.1.2.3,Phases=3,Linecode=CAB202_3_3_3,Length=0.144163360,Units=km
new line.SMT_1161733 bus1=BMT1854845B.1.2.3,bus2=BMT5397510B.1.2.3,Phases=3,Linecode=CAB202_3_3_3,Length=0.097345820,Units=km
new line.SMT_1168173 bus1=BMT124740879.1.2.3,bus2=BMT2979815B.1.2.3,Phases=3,Linecode=CAB207_3_3_3,Length=0.139959740,Units=km
new line.SMT_1168194 bus1=BMT180200427.1.2.3,bus2=BMT151614245.1.2.3,Phases=3,Linecode=CAB207_3_3_3,Length=0.082810910,Units=km
new line.SMT_1168201 bus1=BMT162727016.1,bus2=BMT162727018.1,Phases=1,Linecode=CAB102_3_1_1,Length=0.037377070,Units=km
new line.SMT_1168208 bus1=BMT162727016.1.2.3,bus2=BMT162727019.1.2.3,Phases=3,Linecode=CAB202_3_3_3,Length=0.141805010,Units=km
new line.SMT_1168236 bus1=BMT162727020.1.2.3,bus2=BMT162727022.1.2.3,Phases=3,Linecode=CAB202_3_3_3,Length=0.108839620,Units=km
new line.SMT_1168243 bus1=BMT162727022.1.2.3,bus2=BMT162727024.1.2.3,Phases=3,Linecode=CAB102_3_3_3,Length=0.048774920,Units=km
new line.SMT_1168250 bus1=BMT162727022.1.2.3,bus2=BMT1859136B.1.2.3,Phases=3,Linecode=CAB202_3_3_3,Length=0.145891470,Units=km
new line.SMT_1168278 bus1=BMT124742307.2,bus2=BMT124742314.2,Phases=1,Linecode=CAB103_3_1_1,Length=0.061928150,Units=km
new line.SMT_1168285 bus1=BMT179249855.2,bus2=BMT179249856.2,Phases=1,Linecode=CAB102_3_1_1,Length=0.051747350,Units=km
new line.SMT_1168327 bus1=BMT1859178B.2,bus2=BMT1859185B.2,Phases=1,Linecode=CAB202_3_1_1,Length=0.137958930,Units=km
new line.SMT_1168334 bus1=BMT1859178B.2,bus2=BMT124741229.2,Phases=1,Linecode=CAB202_3_1_1,Length=0.138427570,Units=km
new line.SMT_1168376 bus1=BMT158845249.2,bus2=BMT158845250.2,Phases=1,Linecode=CAB102_3_1_1,Length=0.065045010,Units=km
new line.SMT_1168383 bus1=BMT158845249.2,bus2=BMT124741264.2,Phases=1,Linecode=CAB202_3_1_1,Length=0.141376770,Units=km
new line.SMT_1168425 bus1=BMT158845254.2,bus2=BMT158845256.2,Phases=1,Linecode=CAB202_3_1_1,Length=0.146590390,Units=km
new line.SMT_1168432 bus1=BMT124741313.2,bus2=BMT2831338B.2,Phases=1,Linecode=CAB202_3_1_1,Length=0.088137650,Units=km
new line.SMT_1168460 bus1=BMT124741628.2,bus2=BMT2618615B.2,Phases=1,Linecode=CAB202_3_1_1,Length=0.123780550,Units=km
new line.SMT_1168467 bus1=BMT124741628.2,bus2=BMT124741642.2,Phases=1,Linecode=CAB202_3_1_1,Length=0.002258360,Units=km
new line.SMT_1168495 bus1=BMT124742055.2,bus2=BMT124742062.2,Phases=1,Linecode=CAB202_3_1_1,Length=0.087161990,Units=km
new line.SMT_1168593 bus1=BMT124741754.2,bus2=BMT124741761.2,Phases=1,Linecode=CAB202_3_1_1,Length=0.057948750,Units=km
new line.SMT_1168600 bus1=BMT124741768.2,bus2=BMT124741775.2,Phases=1,Linecode=CAB102_3_1_1,Length=0.067726560,Units=km
new line.SMT_1168614 bus1=BMT124741789.2,bus2=BMT124741796.2,Phases=1,Linecode=CAB202_3_1_1,Length=0.248229720,Units=km
new line.SMT_1168628 bus1=BMT124741796.2,bus2=BMT124741824.2,Phases=1,Linecode=CAB102_3_1_1,Length=0.070035420,Units=km
new line.SMT_1168649 bus1=BMT124741803.2,bus2=BMT2862495B.2,Phases=1,Linecode=CAB202_3_1_1,Length=0.037076090,Units=km
new line.SMT_1168670 bus1=BMT124742069.2,bus2=BMT124742076.2,Phases=1,Linecode=CAB102_3_1_1,Length=0.077763940,Units=km
new line.SMT_1168712 bus1=BMT161147598.2,bus2=BMT124741369.2,Phases=1,Linecode=CAB103_3_1_1,Length=0.033446150,Units=km
new line.SMT_1168719 bus1=BMT161147599.2,bus2=BMT161147600.2,Phases=1,Linecode=CAB202_3_1_1,Length=0.146686340,Units=km
new line.SMT_1168733 bus1=BMT124741439.2,bus2=BMT1859416B.2,Phases=1,Linecode=CAB203_3_1_1,Length=0.141848440,Units=km
new line.SMT_1168740 bus1=BMT1859416B.2,bus2=BMT1859423B.2,Phases=1,Linecode=CAB203_3_1_1,Length=0.142326170,Units=km
new line.SMT_1168747 bus1=BMT1859423B.2,bus2=BMT1859430B.2,Phases=1,Linecode=CAB203_3_1_1,Length=0.140068820,Units=km
new line.SMT_1168754 bus1=BMT1859430B.2,bus2=BMT1859437B.2,Phases=1,Linecode=CAB203_3_1_1,Length=0.131453520,Units=km
new line.SMT_1168761 bus1=BMT1859437B.2,bus2=BMT1859444B.2,Phases=1,Linecode=CAB203_3_1_1,Length=0.141924190,Units=km
new line.SMT_1168768 bus1=BMT1859444B.2,bus2=BMT1859451B.2,Phases=1,Linecode=CAB203_3_1_1,Length=0.147729670,Units=km
new line.SMT_1168775 bus1=BMT1859451B.2,bus2=BMT1859458B.2,Phases=1,Linecode=CAB203_3_1_1,Length=0.138701280,Units=km
new line.SMT_1168782 bus1=BMT1859458B.2,bus2=BMT1859465B.2,Phases=1,Linecode=CAB203_3_1_1,Length=0.141438380,Units=km
new line.SMT_1168789 bus1=BMT1859465B.2,bus2=BMT1859472B.2,Phases=1,Linecode=CAB203_3_1_1,Length=0.150877840,Units=km
new line.SMT_1168796 bus1=BMT1859472B.2,bus2=BMT1859479B.2,Phases=1,Linecode=CAB203_3_1_1,Length=0.145952070,Units=km
new line.SMT_1168803 bus1=BMT1859479B.2,bus2=BMT1859486B.2,Phases=1,Linecode=CAB203_3_1_1,Length=0.153693720,Units=km
new line.SMT_1168810 bus1=BMT1859486B.2,bus2=BMT1859493B.2,Phases=1,Linecode=CAB203_3_1_1,Length=0.133299800,Units=km
new line.SMT_1168817 bus1=BMT1859493B.2,bus2=BMT1859500B.2,Phases=1,Linecode=CAB203_3_1_1,Length=0.132347370,Units=km
new line.SMT_1168824 bus1=BMT1859500B.2,bus2=BMT124741446.2,Phases=1,Linecode=CAB203_3_1_1,Length=0.118874980,Units=km
new line.SMT_1168831 bus1=BMT124741446.2,bus2=BMT124741453.2,Phases=1,Linecode=CAB103_3_1_1,Length=0.050581810,Units=km
new line.SMT_1168845 bus1=BMT124741586.2,bus2=BMT2218887B.2,Phases=1,Linecode=CAB202_3_1_1,Length=0.129573910,Units=km
new line.SMT_1168852 bus1=BMT161147601.2,bus2=BMT161147602.2,Phases=1,Linecode=CAB202_3_1_1,Length=0.120182930,Units=km
new line.SMT_1168880 bus1=BMT164088321.2,bus2=BMT164088322.2,Phases=1,Linecode=CAB202_3_1_1,Length=0.119694090,Units=km
new line.SMT_1158576 bus1=BMT148405964.1.2.3,bus2=BMT148405965.1.2.3,Phases=3,Linecode=CAB202_3_3_3,Length=0.058827450,Units=km
new line.SMT_1158583 bus1=BMT148405964.1.2.3,bus2=BMT1852605B.1.2.3,Phases=3,Linecode=CAB207_3_3_3,Length=0.050506060,Units=km
new line.SMT_1158590 bus1=BMT1852605B.1.2.3,bus2=BMT148405966.1.2.3,Phases=3,Linecode=CAB207_3_3_3,Length=0.259078130,Units=km
new line.SMT_1158597 bus1=BMT148405966.1.2.3,bus2=BMT903867B.1.2.3,Phases=3,Linecode=CAB207_3_3_3,Length=0.188634670,Units=km
new line.SMT_1158604 bus1=BMT148405966.1,bus2=BMT148405968.1,Phases=1,Linecode=CAB202_3_1_1,Length=0.079630420,Units=km
new line.SMT_1158611 bus1=BMT148405968.1,bus2=BMT148405969.1,Phases=1,Linecode=CAB102_3_1_1,Length=0.020598950,Units=km
new line.SMT_1158695 bus1=BMT1852696B.1.2.3,bus2=BMT1852689B.1.2.3,Phases=3,Linecode=CAB207_3_3_3,Length=0.105232910,Units=km
new line.SMT_1158702 bus1=BMT163753906.1.2.3,bus2=BMT1852696B.1.2.3,Phases=3,Linecode=CAB207_3_3_3,Length=0.059103180,Units=km
new line.SMT_1158709 bus1=BMT163753906.1,bus2=BMT163753913.1,Phases=1,Linecode=CAB202_3_1_1,Length=0.150758660,Units=km
new line.SMT_1158716 bus1=BMT5357771B.1.2.3,bus2=BMT124716225.1.2.3,Phases=3,Linecode=CAB207_3_3_3,Length=0.044994490,Units=km
new line.SMT_1158723 bus1=BMT124716232.1.2.3,bus2=BMT5357799B.1.2.3,Phases=3,Linecode=CAB207_3_3_3,Length=0.007352800,Units=km
new line.SMT_1158730 bus1=BMT124716232.1.2.3,bus2=BMT5358219B.1.2.3,Phases=3,Linecode=CAB207_3_3_3,Length=0.179171980,Units=km
new line.SMT_1158737 bus1=BMT1852717B.1.2.3,bus2=BMT5156220B.1.2.3,Phases=3,Linecode=CAB207_3_3_3,Length=0.038389090,Units=km
new line.SMT_1158751 bus1=BMT1852724B.1.2.3,bus2=BMT5358793B.1.2.3,Phases=3,Linecode=CAB207_3_3_3,Length=0.083093710,Units=km
new line.SMT_1158765 bus1=BMT1852738B.1.2.3,bus2=BMT5358891B.1.2.3,Phases=3,Linecode=CAB207_3_3_3,Length=0.085483370,Units=km
new line.SMT_1158772 bus1=BMT163753908.1.2.3,bus2=BMT163753911.1.2.3,Phases=3,Linecode=CAB102_3_3_3,Length=0.073277520,Units=km
new line.SMT_1158779 bus1=BMT163753908.1.2.3,bus2=BMT124716351.1.2.3,Phases=3,Linecode=CAB207_3_3_3,Length=0.126659050,Units=km
new line.SMT_1158786 bus1=BMT124716351.1,bus2=BMT124716358.1,Phases=1,Linecode=CAB202_3_1_1,Length=0.004164230,Units=km
new line.SMT_1158793 bus1=BMT124716393.1.2.3,bus2=BMT5156073B.1.2.3,Phases=3,Linecode=CAB207_3_3_3,Length=0.015013650,Units=km
new line.SMT_1158800 bus1=BMT124716379.1,bus2=BMT5359059B.1,Phases=1,Linecode=CAB202_3_1_1,Length=0.069359730,Units=km
new line.SMT_1158807 bus1=BMT127890046.1.2.3,bus2=BMT127890053.1.2.3,Phases=3,Linecode=CAB202_3_3_3,Length=0.103314920,Units=km
new line.SMT_1158821 bus1=BMT127889934.1.2.3,bus2=BMT5360753B.1.2.3,Phases=3,Linecode=CAB207_3_3_3,Length=0.135674310,Units=km
new line.SMT_1158828 bus1=BMT1852773B.1.2.3,bus2=BMT5360781B.1.2.3,Phases=3,Linecode=CAB207_3_3_3,Length=0.135041040,Units=km
new line.SMT_1158835 bus1=BMT171159457.1.2.3,bus2=BMT171159459.1.2.3,Phases=3,Linecode=CAB102_3_3_3,Length=0.041589780,Units=km
new line.SMT_1158842 bus1=BMT171159457.1.2.3,bus2=BMT5361110B.1.2.3,Phases=3,Linecode=CAB207_3_3_3,Length=0.136905500,Units=km
new line.SMT_1158849 bus1=BMT1852787B.1.2.3,bus2=BMT5361159B.1.2.3,Phases=3,Linecode=CAB207_3_3_3,Length=0.136942870,Units=km
new line.SMT_1158856 bus1=BMT1852794B.1.2.3,bus2=BMT5361579B.1.2.3,Phases=3,Linecode=CAB207_3_3_3,Length=0.143680580,Units=km
new line.SMT_1158863 bus1=BMT124716470.1.2.3,bus2=BMT1852815B.1.2.3,Phases=3,Linecode=CAB207_3_3_3,Length=0.149329510,Units=km
new line.SMT_1158870 bus1=BMT124724590.3,bus2=BMT5361971B.3,Phases=1,Linecode=CAB202_3_1_1,Length=0.062006930,Units=km
new line.SMT_1158877 bus1=BMT124724604.3,bus2=BMT124724611.3,Phases=1,Linecode=CAB103_3_1_1,Length=0.024447050,Units=km
new line.SMT_1158884 bus1=BMT124724604.3,bus2=BMT124724618.3,Phases=1,Linecode=CAB103_3_1_1,Length=0.053016920,Units=km
new line.SMT_1158891 bus1=BMT1852815B.1.2.3,bus2=BMT5362230B.1.2.3,Phases=3,Linecode=CAB207_3_3_3,Length=0.113596720,Units=km
new line.SMT_1158898 bus1=BMT171159462.2,bus2=BMT3528167B.2,Phases=1,Linecode=CAB202_3_1_1,Length=0.128841660,Units=km
new line.SMT_1158905 bus1=BMT171159462.3,bus2=BMT5362363B.3,Phases=1,Linecode=CAB202_3_1_1,Length=0.049277900,Units=km
new line.SMT_1158912 bus1=BMT171159462.1.2.3,bus2=BMT5362510B.1.2.3,Phases=3,Linecode=CAB207_3_3_3,Length=0.124260300,Units=km
new line.SMT_1158919 bus1=BMT1852829B.1.2.3,bus2=BMT5362538B.1.2.3,Phases=3,Linecode=CAB207_3_3_3,Length=0.149523430,Units=km
new line.SMT_1158926 bus1=BMT171159465.1.2.3,bus2=BMT5362762B.1.2.3,Phases=3,Linecode=CAB202_3_3_3,Length=0.075814640,Units=km
new line.SMT_1158933 bus1=BMT171159465.1.2.3,bus2=BMT5362846B.1.2.3,Phases=3,Linecode=CAB207_3_3_3,Length=0.147404450,Units=km
new line.SMT_1158940 bus1=BMT124724576.1,bus2=BMT5363042B.1,Phases=1,Linecode=CAB202_3_1_1,Length=0.111786800,Units=km
new line.SMT_1158947 bus1=BMT124716512.1.2.3,bus2=BMT5363126B.1.2.3,Phases=3,Linecode=CAB207_3_3_3,Length=0.144585540,Units=km
new line.SMT_1158954 bus1=BMT1852850B.1,bus2=BMT124724583.1,Phases=1,Linecode=CAB202_3_1_1,Length=0.193740220,Units=km
new line.SMT_1158961 bus1=BMT1852857B.1.2.3,bus2=BMT171159467.1.2.3,Phases=3,Linecode=CAB207_3_3_3,Length=0.275771410,Units=km
new line.SMT_1158968 bus1=BMT171159467.1.2.3,bus2=BMT171159468.1.2.3,Phases=3,Linecode=CAB207_3_3_3,Length=0.090691940,Units=km
new line.SMT_1158975 bus1=BMT171159467.1.2.3,bus2=BMT124716533.1.2.3,Phases=3,Linecode=CAB103_3_3_3,Length=0.048777950,Units=km
new line.SMT_1168887 bus1=BMT164088321.2,bus2=BMT1859598B.2,Phases=1,Linecode=CAB202_3_1_1,Length=0.114766300,Units=km
new line.SMT_1168894 bus1=BMT124741425.2,bus2=BMT161147606.2,Phases=1,Linecode=CAB202_3_1_1,Length=0.110192010,Units=km
new line.SMT_1168901 bus1=BMT124741460.2,bus2=BMT1859549B.2,Phases=1,Linecode=CAB203_3_1_1,Length=0.082048360,Units=km
new line.SMT_1168908 bus1=BMT1859549B.2,bus2=BMT124741467.2,Phases=1,Linecode=CAB203_3_1_1,Length=0.132974580,Units=km
new line.SMT_1168922 bus1=BMT124741488.2,bus2=BMT1859563B.2,Phases=1,Linecode=CAB202_3_1_1,Length=0.120587940,Units=km
new line.SMT_1168929 bus1=BMT1859563B.2,bus2=BMT124741495.2,Phases=1,Linecode=CAB202_3_1_1,Length=0.094942020,Units=km
new line.SMT_1168964 bus1=BMT1859598B.2,bus2=BMT1859605B.2,Phases=1,Linecode=CAB202_3_1_1,Length=0.093959290,Units=km
new line.SMT_1168971 bus1=BMT1859605B.2,bus2=BMT1859612B.2,Phases=1,Linecode=CAB202_3_1_1,Length=0.230950640,Units=km
new line.SMT_1168978 bus1=BMT1859612B.2,bus2=BMT164088323.2,Phases=1,Linecode=CAB202_3_1_1,Length=0.337323840,Units=km
new line.SMT_1168985 bus1=BMT164088323.2,bus2=BMT164088324.2,Phases=1,Linecode=CAB202_3_1_1,Length=0.145724820,Units=km
new line.SMT_1168992 bus1=BMT164088323.2,bus2=BMT164088325.2,Phases=1,Linecode=CAB202_3_1_1,Length=0.181453570,Units=km
new line.SMT_1168999 bus1=BMT164088325.2,bus2=BMT164088326.2,Phases=1,Linecode=CAB103_3_1_1,Length=0.061423150,Units=km
new line.SMT_1169006 bus1=BMT124742118.2,bus2=BMT124742125.2,Phases=1,Linecode=CAB103_3_1_1,Length=0.037418480,Units=km
new line.SMT_1169013 bus1=BMT161825888.2,bus2=BMT161825890.2,Phases=1,Linecode=CAB102_3_1_1,Length=0.050500000,Units=km
new line.SMT_1169020 bus1=BMT161825888.2,bus2=BMT3125184B.2,Phases=1,Linecode=CAB203_3_1_1,Length=0.237429790,Units=km
new line.SMT_1169027 bus1=BMT151614245.1.2.3,bus2=BMT2979850B.1.2.3,Phases=3,Linecode=CAB207_3_3_3,Length=0.080290960,Units=km
new line.SMT_1169041 bus1=BMT180200429.3,bus2=BMT180200430.3,Phases=1,Linecode=CAB103_3_1_1,Length=0.081315100,Units=km
new line.SMT_1169055 bus1=BMT1859668B.1.2.3,bus2=BMT2980116B.1.2.3,Phases=3,Linecode=CAB207_3_3_3,Length=0.118877000,Units=km
new line.SMT_1169062 bus1=BMT124740991.1.2.3,bus2=BMT124740998.1.2.3,Phases=3,Linecode=CAB203_3_3_3,Length=0.075548000,Units=km
new line.SMT_1169076 bus1=BMT168584344.2,bus2=BMT168584345.2,Phases=1,Linecode=CAB103_3_1_1,Length=0.009310180,Units=km
new line.SMT_1169083 bus1=BMT1859696B.2,bus2=BMT124740942.2,Phases=1,Linecode=CAB202_3_1_1,Length=0.110296040,Units=km
new line.SMT_1169139 bus1=BMT128584600.1.2.3,bus2=BMT124742734.1.2.3,Phases=3,Linecode=CAB203_3_3_3,Length=0.309178170,Units=km
new line.SMT_1169146 bus1=BMT128584698.1,bus2=BMT128584705.1,Phases=1,Linecode=CAB202_3_1_1,Length=0.057991170,Units=km
new line.SMT_1169167 bus1=BMT128584705.1,bus2=BMT128584712.1,Phases=1,Linecode=CAB103_3_1_1,Length=0.021798830,Units=km
new line.SMT_1169181 bus1=BMT124744029.1,bus2=BMT124744036.1,Phases=1,Linecode=CAB203_3_1_1,Length=0.075059160,Units=km
new line.SMT_1169195 bus1=BMT124742762.1.2.3,bus2=BMT1859780B.1.2.3,Phases=3,Linecode=CAB203_3_3_3,Length=0.182114110,Units=km