new loadshape.c3009020242 npts=24,interval=1.0,mult=[0.0001,0.0001,0.0001,0.0001,0.0001,0.0001,0.17,0.47,0.7,0.9,1,1,0.93,0.8,0.53,0.33,0.2,0.13,0.0001,0.0001,0.0001,0.0001,0.0001,0.0001]
new generator.3009020242 bus1=BMT157459229.1.2.3,Phases=3,kv=13.800000000,kW=498.28798,pf=1,model=1,daily=c3009020242,status=Variable
new loadshape.c3013936302 npts=24,interval=1.0,mult=[0.0001,0.0001,0.0001,0.0001,0.0001,0.0001,0.17,0.47,0.7,0.9,1,1,0.93,0.8,0.53,0.33,0.2,0.13,0.0001,0.0001,0.0001,0.0001,0.0001,0.0001]
new generator.3013936302 bus1=BMT175440843.1.2.3,Phases=3,kv=13.800000000,kW=826.275,pf=1,model=1,daily=c3013936302,status=Variable
new loadshape.c3013936312 npts=24,interval=1.0,mult=[0.0001,0.0001,0.0001,0.0001,0.0001,0.0001,0.17,0.47,0.7,0.9,1,1,0.93,0.8,0.53,0.33,0.2,0.13,0.0001,0.0001,0.0001,0.0001,0.0001,0.0001]
new generator.3013936312 bus1=BMT175440843.1.2.3,Phases=3,kv=13.800000000,kW=829.42873,pf=1,model=1,daily=c3013936312,status=Variable
