new line.CTR143961 bus1=BMT124760395.1,bus2=BMT124761914.1,Phases=1,LineCode=tieSwitch1,Length=0.001,Units=km,switch=T !numEQ NUMEQ:53798  - Data de conexão anterior06/2011.
new line.CTR144038 bus1=BMT172645350.1.2.3,bus2=BMT124752751.1.2.3,Phases=3,LineCode=tieSwitch,Length=0.001,Units=km,switch=T !numEQ NUMEQ:53812  - Data de conexão anterior06/2011.
open line.CTR144038 term=1
new line.CTR144045 bus1=BMT124752821.1.2.3,bus2=BMT124752849.1.2.3,Phases=3,LineCode=tieSwitch,Length=0.001,Units=km,switch=T !numEQ NUMEQ:53813  - Data de conexão anterior06/2011.
new line.CTR144101 bus1=BMT148405977.1.2.3,bus2=BMT169604050.1.2.3,Phases=3,LineCode=tieSwitch,Length=0.001,Units=km,switch=T !numEQ NUMEQ:53820  - Data de conexão anterior06/2011.
new line.CTR144150 bus1=BMT124746710.2,bus2=BMT124748768.2,Phases=1,LineCode=tieSwitch1,Length=0.001,Units=km,switch=T !numEQ NUMEQ:53830  - Data de conexão anterior06/2011.
new line.CTR144339 bus1=BMT124733592.2,bus2=BMT124733781.2,Phases=1,LineCode=tieSwitch1,Length=0.001,Units=km,switch=T !numEQ NUMEQ:280645  - Data de conexão anterior06/2011.
new line.CTR144346 bus1=BMT124733585.1,bus2=BMT124733802.1,Phases=1,LineCode=tieSwitch1,Length=0.001,Units=km,switch=T !numEQ NUMEQ:280646  - Data de conexão anterior06/2011.
new line.CTR144367 bus1=BMT124760619.2,bus2=BMT174277828.2,Phases=1,LineCode=tieSwitch1,Length=0.001,Units=km,switch=T !numEQ NUMEQ:53660  - Data de conexão anterior06/2011.
new line.CTR144479 bus1=BMT124753661.1.2.3,bus2=BMT174939788.1.2.3,Phases=3,LineCode=tieSwitch,Length=0.001,Units=km,switch=T !numEQ NUMEQ:53635  - Data de conexão anterior06/2011.
new line.CTR144500 bus1=BMT124733186.1.2.3,bus2=BMT167769064.1.2.3,Phases=3,LineCode=tieSwitch,Length=0.001,Units=km,switch=T !numEQ NUMEQ:268068  - Data de conexão anterior06/2011.
new line.CTR144577 bus1=BMT124741411.2,bus2=BMT164088320.2,Phases=1,LineCode=tieSwitch1,Length=0.001,Units=km,switch=T !numEQ NUMEQ:53672  - Data de conexão anterior06/2011.
new line.CTR144619 bus1=BMT124747697.2,bus2=BMT124747760.2,Phases=1,LineCode=tieSwitch1,Length=0.001,Units=km,switch=T !numEQ NUMEQ:53680  - Data de conexão anterior06/2011.
new line.CTR144717 bus1=BMT148406007.1.2.3,bus2=BMT175389150.1.2.3,Phases=3,LineCode=tieSwitch,Length=0.001,Units=km,switch=T !numEQ NUMEQ:53693  - Data de conexão anterior06/2011.
new line.CTR144752 bus1=BMT124753752.1.2.3,bus2=BMT176297779.1.2.3,Phases=3,LineCode=tieSwitch,Length=0.001,Units=km,switch=T !numEQ NUMEQ:53698  - Data de conexão anterior06/2011.
new line.CTR144801 bus1=BMT124752933.1.2.3,bus2=BMT173036350.1.2.3,Phases=3,LineCode=tieSwitch,Length=0.001,Units=km,switch=T !numEQ NUMEQ:53706  - Data de conexão anterior06/2011.
new line.CTR144822 bus1=BMT151847830.1.2.3,bus2=BMT2546984.1.2.3,Phases=3,LineCode=tieSwitch,Length=0.001,Units=km,switch=T !numEQ NUMEQ:280637  - Data de conexão anterior06/2011.
open line.CTR144822 term=1
new line.CTR144885 bus1=BMT124734964.1.2.3,bus2=BMT178069986.1.2.3,Phases=3,LineCode=tieSwitch,Length=0.001,Units=km,switch=T !numEQ NUMEQ:53722  - Data de conexão anterior06/2011.
new line.CTR144948 bus1=BMT151847698.1.2.3,bus2=BMT152984748.1.2.3,Phases=3,LineCode=tieSwitch,Length=0.001,Units=km,switch=T !numEQ NUMEQ:320912  - Data de conexão anterior06/2011.
new line.CTR144997 bus1=BMT176801088.1.2.3,bus2=BMT2087693.1.2.3,Phases=3,LineCode=tieSwitch,Length=0.001,Units=km,switch=T !numEQ NUMEQ:156403  - Data de conexão anterior06/2011.
open line.CTR144997 term=1
new line.CTR145137 bus1=BMT124753703.1.2.3,bus2=BMT157076798.1.2.3,Phases=3,LineCode=tieSwitch,Length=0.001,Units=km,switch=T !numEQ NUMEQ:53527  - Data de conexão anterior06/2011.
new line.CTR145144 bus1=BMT124734299.2,bus2=BMT142690552.2,Phases=1,LineCode=tieSwitch1,Length=0.001,Units=km,switch=T !numEQ NUMEQ:53528  - Data de conexão anterior06/2011.
new line.CTR145151 bus1=BMT124717793.1.2.3,bus2=BMT164869192.1.2.3,Phases=3,LineCode=tieSwitch,Length=0.001,Units=km,switch=T !numEQ NUMEQ:53529  - Data de conexão anterior06/2011.
new line.CTR145165 bus1=BMT151847791.1.2.3,bus2=BMT151847792.1.2.3,Phases=3,LineCode=tieSwitch,Length=0.001,Units=km,switch=T !numEQ NUMEQ:53532  - Data de conexão anterior06/2011.
new line.CTR145179 bus1=BMT151847794.1.2.3,bus2=BMT151847795.1.2.3,Phases=3,LineCode=tieSwitch,Length=0.001,Units=km,switch=T !numEQ NUMEQ:53534  - Data de conexão anterior06/2011.
new line.CTR145186 bus1=BMT155827784.1.2.3,bus2=BMT2089093.1.2.3,Phases=3,LineCode=tieSwitch,Length=0.001,Units=km,switch=T !numEQ NUMEQ:53535  - Data de conexão anterior06/2011.
open line.CTR145186 term=1
new line.CTR145193 bus1=BMT124726704.1.2.3,bus2=BMT124727229.1.2.3,Phases=3,LineCode=tieSwitch,Length=0.001,Units=km,switch=T !numEQ NUMEQ:53536  - Data de conexão anterior06/2011.
new line.CTR145200 bus1=BMT171306226.1.2.3,bus2=BMT171306228.1.2.3,Phases=3,LineCode=tieSwitch,Length=0.001,Units=km,switch=T !numEQ NUMEQ:273066  - Data de conexão anterior06/2011.
new line.CTR145207 bus1=BMT171306227.1.2.3,bus2=BMT151847966.1.2.3,Phases=3,LineCode=tieSwitch,Length=0.001,Units=km,switch=T !numEQ NUMEQ:53538  - Data de conexão anterior06/2011.
new line.CTR145214 bus1=BMT151847957.1.2.3,bus2=BMT171306219.1.2.3,Phases=3,LineCode=tieSwitch,Length=0.001,Units=km,switch=T !numEQ NUMEQ:53539  - Data de conexão anterior06/2011.
new line.CTR145221 bus1=BMT151847796.1.2.3,bus2=BMT151847797.1.2.3,Phases=3,LineCode=tieSwitch,Length=0.001,Units=km,switch=T !numEQ NUMEQ:53540  - Data de conexão anterior06/2011.
new line.CTR145242 bus1=BMT124750728.1.2.3,bus2=BMT176192108.1.2.3,Phases=3,LineCode=tieSwitch,Length=0.001,Units=km,switch=T !numEQ NUMEQ:320936  - Data de conexão anterior06/2011.
new line.CTR145249 bus1=BMT151847784.1.2.3,bus2=BMT151847786.1.2.3,Phases=3,LineCode=tieSwitch,Length=0.001,Units=km,switch=T !numEQ NUMEQ:53546  - Data de conexão anterior06/2011.
new line.CTR145256 bus1=BMT151847816.1.2.3,bus2=BMT151847805.1.2.3,Phases=3,LineCode=tieSwitch,Length=0.001,Units=km,switch=T !numEQ NUMEQ:53547  - Data de conexão anterior06/2011.
open line.CTR145256 term=1
new line.CTR145396 bus1=BMT124726837.1.2.3,bus2=BMT3159750.1.2.3,Phases=3,LineCode=tieSwitch,Length=0.001,Units=km,switch=T !numEQ NUMEQ:53573  - Data de conexão anterior06/2011.
open line.CTR145396 term=1
new line.CTR145410 bus1=BMT124754396.2,bus2=BMT174490173.2,Phases=1,LineCode=tieSwitch1,Length=0.001,Units=km,switch=T !numEQ NUMEQ:53575  - Data de conexão anterior06/2011.
new line.CTR145459 bus1=BMT124730288.1.2.3,bus2=BMT124730295.1.2.3,Phases=3,LineCode=tieSwitch,Length=0.001,Units=km,switch=T !numEQ NUMEQ:53583  - Data de conexão anterior06/2011.
new line.CTR145487 bus1=BMT124752065.1.2.3,bus2=BMT174298149.1.2.3,Phases=3,LineCode=tieSwitch,Length=0.001,Units=km,switch=T !numEQ NUMEQ:53587  - Data de conexão anterior06/2011.
new line.CTR145494 bus1=BMT177034011.1.2.3,bus2=BMT124752058.1.2.3,Phases=3,LineCode=tieSwitch,Length=0.001,Units=km,switch=T !numEQ NUMEQ:53588  - Data de conexão anterior06/2011.
open line.CTR145494 term=1
new line.CTR145508 bus1=BMT124752002.1.2.3,bus2=BMT177941383.1.2.3,Phases=3,LineCode=tieSwitch,Length=0.001,Units=km,switch=T !numEQ NUMEQ:53590  - Data de conexão anterior06/2011.
new line.CTR145522 bus1=BMT151847846.1.2.3,bus2=BMT151847852.1.2.3,Phases=3,LineCode=tieSwitch,Length=0.001,Units=km,switch=T !numEQ NUMEQ:53592  - Data de conexão anterior06/2011.
new line.CTR145529 bus1=BMT124744463.1.2.3,bus2=BMT160933485.1.2.3,Phases=3,LineCode=tieSwitch,Length=0.001,Units=km,switch=T !numEQ NUMEQ:372816  - Data de conexão anterior06/2011.
new line.CTR145536 bus1=BMT151847844.1.2.3,bus2=BMT151847859.1.2.3,Phases=3,LineCode=tieSwitch,Length=0.001,Units=km,switch=T !numEQ NUMEQ:53594  - Data de conexão anterior06/2011.
new line.CTR145592 bus1=BMT124752877.1.2.3,bus2=BMT2089205.1.2.3,Phases=3,LineCode=tieSwitch,Length=0.001,Units=km,switch=T !numEQ NUMEQ:53603  - Data de conexão anterior06/2011.
open line.CTR145592 term=1
new line.CTR145648 bus1=BMT151847909.1.2.3,bus2=BMT178128803.1.2.3,Phases=3,LineCode=tieSwitch,Length=0.001,Units=km,switch=T !numEQ NUMEQ:156425  - Data de conexão anterior06/2011.
new line.CTR145676 bus1=BMT171431834.1.2.3,bus2=BMT124754137.1.2.3,Phases=3,LineCode=tieSwitch,Length=0.001,Units=km,switch=T !numEQ NUMEQ:53615  - Data de conexão anterior06/2011.
open line.CTR145676 term=1
new line.CTR158801 bus1=BMT124736462.1.2.3,bus2=BMT124736469.1.2.3,Phases=3,LineCode=tieSwitch,Length=0.001,Units=km,switch=T !numEQ NUMEQ:50992  - Data de conexão anterior06/2011.
new line.CTR158822 bus1=BMT124749160.1,bus2=BMT124749559.1,Phases=1,LineCode=tieSwitch1,Length=0.001,Units=km,switch=T !numEQ NUMEQ:50995  - Data de conexão anterior06/2011.
new line.CTR133440 bus1=BMT148405971.1.2.3,bus2=BMT148405972.1.2.3,Phases=3,LineCode=tieSwitch,Length=0.001,Units=km,switch=T !numEQ NUMEQ:52355  - Data de conexão anterior06/2011.
new line.CTR13439 bus1=BMT124751638.1.2.3,bus2=BMT165420864.1.2.3,Phases=3,LineCode=tieSwitch,Length=0.001,Units=km,switch=T !numEQ NUMEQ:232829  - Data de conexão anterior06/2011.
new line.CTR134539 bus1=BMT157458634.2,bus2=BMT178758498.2,Phases=1,LineCode=tieSwitch1,Length=0.001,Units=km,switch=T !numEQ NUMEQ:107068  - Data de conexão anterior06/2011.
new line.CTR151360 bus1=BMT148405881.1,bus2=BMT150397806.1,Phases=1,LineCode=tieSwitch1,Length=0.001,Units=km,switch=T !numEQ NUMEQ:52278  - Data de conexão anterior06/2011.
new line.CTR151381 bus1=BMT124735622.1.2.3,bus2=BMT124746066.1.2.3,Phases=3,LineCode=tieSwitch,Length=0.001,Units=km,switch=T !numEQ NUMEQ:52290  - Data de conexão anterior06/2011.
new line.CTR151388 bus1=BMT124744302.3,bus2=BMT165840024.3,Phases=1,LineCode=tieSwitch1,Length=0.001,Units=km,switch=T !numEQ NUMEQ:52282  - Data de conexão anterior06/2011.
new line.CTR151409 bus1=BMT124725934.1.2.3,bus2=BMT169007808.1.2.3,Phases=3,LineCode=tieSwitch,Length=0.001,Units=km,switch=T !numEQ NUMEQ:156411  - Data de conexão anterior06/2011.
new line.CTR151430 bus1=BMT124749650.1,bus2=BMT124750196.1,Phases=1,LineCode=tieSwitch1,Length=0.001,Units=km,switch=T !numEQ NUMEQ:52291  - Data de conexão anterior06/2011.
new line.CTR151437 bus1=BMT124749657.2,bus2=BMT178271976.2,Phases=1,LineCode=tieSwitch1,Length=0.001,Units=km,switch=T !numEQ NUMEQ:233155  - Data de conexão anterior06/2011.
new line.CTR151444 bus1=BMT124749664.1,bus2=BMT124750091.1,Phases=1,LineCode=tieSwitch1,Length=0.001,Units=km,switch=T !numEQ NUMEQ:52293  - Data de conexão anterior06/2011.
new line.CTR151451 bus1=BMT124746563.3,bus2=BMT124748978.3,Phases=1,LineCode=tieSwitch1,Length=0.001,Units=km,switch=T !numEQ NUMEQ:52294  - Data de conexão anterior06/2011.
new line.CTR151493 bus1=BMT151847877.1.2.3,bus2=BMT151847878.1.2.3,Phases=3,LineCode=tieSwitch,Length=0.001,Units=km,switch=T !numEQ NUMEQ:52296  - Data de conexão anterior06/2011.
new line.CTR151806 bus1=BMT175207153.1.2.3,bus2=BMT171083489.1.2.3,Phases=3,LineCode=tieSwitch,Length=0.001,Units=km,switch=T !numEQ NUMEQ:69994  - Data de conexão anterior06/2011.
open line.CTR151806 term=1
new line.CTR151829 bus1=BMT157593602.1.2.3,bus2=BMT157593905.1.2.3,Phases=3,LineCode=tieSwitch,Length=0.001,Units=km,switch=T !numEQ NUMEQ:290579  - Data de conexão anterior06/2011.
new line.CTR151864 bus1=BMT124729861.3,bus2=BMT124729896.3,Phases=1,LineCode=tieSwitch1,Length=0.001,Units=km,switch=T !numEQ NUMEQ:52368  - Data de conexão anterior06/2011.
new line.CTR151892 bus1=BMT124730099.1.2.3,bus2=BMT124730148.1.2.3,Phases=3,LineCode=tieSwitch,Length=0.001,Units=km,switch=T !numEQ NUMEQ:52375  - Data de conexão anterior06/2011.
new line.CTR151913 bus1=BMT124730617.1.2.3,bus2=BMT170160137.1.2.3,Phases=3,LineCode=tieSwitch,Length=0.001,Units=km,switch=T !numEQ NUMEQ:52384  - Data de conexão anterior06/2011.
new line.CTR151927 bus1=BMT124760451.1.2.3,bus2=BMT175815162.1.2.3,Phases=3,LineCode=tieSwitch,Length=0.001,Units=km,switch=T !numEQ NUMEQ:52101  - Data de conexão anterior06/2011.
new line.CTR151948 bus1=BMT124733235.1.2.3,bus2=BMT172654443.1.2.3,Phases=3,LineCode=tieSwitch,Length=0.001,Units=km,switch=T !numEQ NUMEQ:217712  - Data de conexão anterior06/2011.
new line.CTR151997 bus1=BMT172654448.1.2.3,bus2=BMT2596768.1.2.3,Phases=3,LineCode=tieSwitch,Length=0.001,Units=km,switch=T !numEQ NUMEQ:52112  - Data de conexão anterior06/2011.
open line.CTR151997 term=1
new line.CTR152067 bus1=BMT175815126.3,bus2=BMT175815129.3,Phases=1,LineCode=tieSwitch1,Length=0.001,Units=km,switch=T !numEQ NUMEQ:52149  - Data de conexão anterior06/2011.
new line.CTR152263 bus1=BMT151847841.1.2.3,bus2=BMT151847847.1.2.3,Phases=3,LineCode=tieSwitch,Length=0.001,Units=km,switch=T !numEQ NUMEQ:52187  - Data de conexão anterior06/2011.
new line.CTR152340 bus1=BMT124716995.1.2.3,bus2=BMT124717023.1.2.3,Phases=3,LineCode=tieSwitch,Length=0.001,Units=km,switch=T !numEQ NUMEQ:52204  - Data de conexão anterior06/2011.
new line.CTR152361 bus1=BMT124717401.1.2.3,bus2=BMT154985410.1.2.3,Phases=3,LineCode=tieSwitch,Length=0.001,Units=km,switch=T !numEQ NUMEQ:52208  - Data de conexão anterior06/2011.
new line.CTR152368 bus1=BMT124717394.1.2.3,bus2=BMT157687232.1.2.3,Phases=3,LineCode=tieSwitch,Length=0.001,Units=km,switch=T !numEQ NUMEQ:52209  - Data de conexão anterior06/2011.
new line.CTR152375 bus1=BMT124742398.1,bus2=BMT124742601.1,Phases=1,LineCode=tieSwitch1,Length=0.001,Units=km,switch=T !numEQ NUMEQ:52211  - Data de conexão anterior06/2011.
new line.CTR152382 bus1=BMT124719074.1,bus2=BMT124719088.1,Phases=1,LineCode=tieSwitch1,Length=0.001,Units=km,switch=T !numEQ NUMEQ:52200  - Data de conexão anterior06/2011.
new line.CTR152389 bus1=BMT124718220.1,bus2=BMT124718248.1,Phases=1,LineCode=tieSwitch1,Length=0.001,Units=km,switch=T !numEQ NUMEQ:51250  - Data de conexão anterior06/2011.
new line.CTR152438 bus1=BMT124741229.2,bus2=BMT158845248.2,Phases=1,LineCode=tieSwitch1,Length=0.001,Units=km,switch=T !numEQ NUMEQ:52217  - Data de conexão anterior06/2011.
new line.CTR152445 bus1=BMT124740998.1.2.3,bus2=BMT124741005.1.2.3,Phases=3,LineCode=tieSwitch,Length=0.001,Units=km,switch=T !numEQ NUMEQ:52218  - Data de conexão anterior06/2011.
open line.CTR152445 term=1
new line.CTR152480 bus1=BMT124753934.3,bus2=BMT177947446.3,Phases=1,LineCode=tieSwitch1,Length=0.001,Units=km,switch=T !numEQ NUMEQ:52224  - Data de conexão anterior06/2011.
new line.CTR152487 bus1=BMT124765512.1,bus2=BMT124765547.1,Phases=1,LineCode=tieSwitch1,Length=0.001,Units=km,switch=T !numEQ NUMEQ:52225  - Data de conexão anterior06/2011.
new line.CTR152557 bus1=BMT124730407.1.2.3,bus2=BMT167924954.1.2.3,Phases=3,LineCode=tieSwitch,Length=0.001,Units=km,switch=T !numEQ NUMEQ:52249  - Data de conexão anterior06/2011.
new line.CTR152935 bus1=BMT124725990.1.2.3,bus2=BMT176801074.1.2.3,Phases=3,LineCode=tieSwitch,Length=0.001,Units=km,switch=T !numEQ NUMEQ:156418  - Data de conexão anterior06/2011.
new line.CTR153033 bus1=BMT144955206.1.2.3,bus2=BMT3186763.1.2.3,Phases=3,LineCode=tieSwitch,Length=0.001,Units=km,switch=T !numEQ NUMEQ:52060  - Data de conexão anterior06/2011.
open line.CTR153033 term=1
new line.CTR153054 bus1=BMT124719480.1.2.3,bus2=BMT163112987.1.2.3,Phases=3,LineCode=tieSwitch,Length=0.001,Units=km,switch=T !numEQ NUMEQ:52065  - Data de conexão anterior06/2011.
new line.CTR153096 bus1=BMT177567348.1.2.3,bus2=BMT124725864.1.2.3,Phases=3,LineCode=tieSwitch,Length=0.001,Units=km,switch=T !numEQ NUMEQ:52073  - Data de conexão anterior06/2011.
open line.CTR153096 term=1
new line.CTR153110 bus1=BMT124746619.1.2.3,bus2=BMT179992890.1.2.3,Phases=3,LineCode=tieSwitch,Length=0.001,Units=km,switch=T !numEQ NUMEQ:52076  - Data de conexão anterior06/2011.
new line.CTR153117 bus1=BMT178333399.1.2.3,bus2=BMT178333551.1.2.3,Phases=3,LineCode=tieSwitch,Length=0.001,Units=km,switch=T !numEQ NUMEQ:298917  - Data de conexão anterior06/2011.
new line.CTR153138 bus1=BMT124741425.2,bus2=BMT124741460.2,Phases=1,LineCode=tieSwitch1,Length=0.001,Units=km,switch=T !numEQ NUMEQ:52080  - Data de conexão anterior06/2011.
new line.CTR153145 bus1=BMT124735657.1.2.3,bus2=BMT157459888.1.2.3,Phases=3,LineCode=tieSwitch,Length=0.001,Units=km,switch=T !numEQ NUMEQ:52082  - Data de conexão anterior06/2011.
new line.CTR153166 bus1=BMT124716708.1,bus2=BMT124716764.1,Phases=1,LineCode=tieSwitch1,Length=0.001,Units=km,switch=T !numEQ NUMEQ:52075  - Data de conexão anterior06/2011.
new line.CTR162560 bus1=BMT150543056.1.2.3,bus2=BMT150543811.1.2.3,Phases=3,LineCode=tieSwitch,Length=0.001,Units=km,switch=T !numEQ NUMEQ:50097  - Data de conexão anterior06/2011.
new line.CTR162819 bus1=BMT124726774.1.2.3,bus2=BMT124727215.1.2.3,Phases=3,LineCode=tieSwitch,Length=0.001,Units=km,switch=T !numEQ NUMEQ:50176  - Data de conexão anterior06/2011.
new line.CTR162826 bus1=BMT148405985.1.2.3,bus2=BMT148406033.1.2.3,Phases=3,LineCode=tieSwitch,Length=0.001,Units=km,switch=T !numEQ NUMEQ:50177  - Data de conexão anterior06/2011.
new line.CTR162840 bus1=BMT124725605.1.2.3,bus2=BMT124725633.1.2.3,Phases=3,LineCode=tieSwitch,Length=0.001,Units=km,switch=T !numEQ NUMEQ:50184  - Data de conexão anterior06/2011.
new line.CTR162847 bus1=BMT124753178.1.2.3,bus2=BMT124753213.1.2.3,Phases=3,LineCode=tieSwitch,Length=0.001,Units=km,switch=T !numEQ NUMEQ:50185  - Data de conexão anterior06/2011.
new line.CTR100260 bus1=BMT171730471.1.2.3,bus2=BMT172362046.1.2.3,Phases=3,LineCode=tieSwitch,Length=0.001,Units=km,switch=T !numEQ NUMEQ:105080  - Data de conexão anterior06/2011.
new line.CTR100267 bus1=BMT124733046.1.2.3,bus2=BMT179181353.1.2.3,Phases=3,LineCode=tieSwitch,Length=0.001,Units=km,switch=T !numEQ NUMEQ:105081  - Data de conexão anterior06/2011.
new line.CTR100274 bus1=BMT179718266.1.2.3,bus2=BMT124732444.1.2.3,Phases=3,LineCode=tieSwitch,Length=0.001,Units=km,switch=T !numEQ NUMEQ:105082  - Data de conexão anterior06/2011.
new line.CTR100337 bus1=BMT155373311.1.2.3,bus2=BMT162639730.1.2.3,Phases=3,LineCode=tieSwitch,Length=0.001,Units=km,switch=T !numEQ NUMEQ:105943  - Data de conexão anterior06/2011.
new line.CTR100372 bus1=BMT124744050.1,bus2=BMT124744155.1,Phases=1,LineCode=tieSwitch1,Length=0.001,Units=km,switch=T !numEQ NUMEQ:105947  - Data de conexão anterior06/2011.
new line.CTR100463 bus1=BMT124732542.1.2.3,bus2=BMT124732654.1.2.3,Phases=3,LineCode=tieSwitch,Length=0.001,Units=km,switch=T !numEQ NUMEQ:105965  - Data de conexão anterior06/2011.
new line.CTR100470 bus1=BMT124730120.1.2.3,bus2=BMT124730127.1.2.3,Phases=3,LineCode=tieSwitch,Length=0.001,Units=km,switch=T !numEQ NUMEQ:105966  - Data de conexão anterior06/2011.
new line.CTR100554 bus1=BMT124719662.1.2.3,bus2=BMT124719767.1.2.3,Phases=3,LineCode=tieSwitch,Length=0.001,Units=km,switch=T !numEQ NUMEQ:105977  - Data de conexão anterior06/2011.
new line.CTR101044 bus1=BMT124748803.2,bus2=BMT124748845.2,Phases=1,LineCode=tieSwitch1,Length=0.001,Units=km,switch=T !numEQ NUMEQ:104724  - Data de conexão anterior06/2011.
new line.CTR101296 bus1=BMT124754557.1.2.3,bus2=BMT169390226.1.2.3,Phases=3,LineCode=tieSwitch,Length=0.001,Units=km,switch=T !numEQ NUMEQ:104768  - Data de conexão anterior06/2011.
new line.CTR101371 bus1=BMT175869622.1.2.3,bus2=BMT175869623.1.2.3,Phases=3,LineCode=tieSwitch,Length=0.001,Units=km,switch=T !numEQ NUMEQ:72716  - Data de conexão anterior06/2011.
open line.CTR101371 term=1
new line.CTR1014 bus1=BMT124746934.1.2.3,bus2=BMT124746941.1.2.3,Phases=3,LineCode=tieSwitch,Length=0.001,Units=km,switch=T !numEQ NUMEQ:187928  - Data de conexão anterior06/2011.
new line.CTR130941 bus1=BMT124718577.1,bus2=BMT124718619.1,Phases=1,LineCode=tieSwitch1,Length=0.001,Units=km,switch=T !numEQ NUMEQ:51254  - Data de conexão anterior06/2011.
new line.CTR132068 bus1=BMT124716722.2,bus2=BMT145213198.2,Phases=1,LineCode=tieSwitch1,Length=0.001,Units=km,switch=T !numEQ NUMEQ:50796  - Data de conexão anterior06/2011.
new line.CTR149589 bus1=BMT124741222.2,bus2=BMT124742272.2,Phases=1,LineCode=tieSwitch1,Length=0.001,Units=km,switch=T !numEQ NUMEQ:52809  - Data de conexão anterior06/2011.
new line.CTR149645 bus1=BMT165354398.1.2.3,bus2=BMT2089086.1.2.3,Phases=3,LineCode=tieSwitch,Length=0.001,Units=km,switch=T !numEQ NUMEQ:232828  - Data de conexão anterior06/2011.
open line.CTR149645 term=1
new line.CTR149673 bus1=BMT143149822.2,bus2=BMT143152293.2,Phases=1,LineCode=tieSwitch1,Length=0.001,Units=km,switch=T !numEQ NUMEQ:52823  - Data de conexão anterior06/2011.
new line.CTR149750 bus1=BMT151847884.1.2.3,bus2=BMT151847887.1.2.3,Phases=3,LineCode=tieSwitch,Length=0.001,Units=km,switch=T !numEQ NUMEQ:52839  - Data de conexão anterior06/2011.
new line.CTR149799 bus1=BMT124733844.2,bus2=BMT124733865.2,Phases=1,LineCode=tieSwitch1,Length=0.001,Units=km,switch=T !numEQ NUMEQ:52862  - Data de conexão anterior06/2011.
new line.CTR149904 bus1=BMT124723043.3,bus2=BMT124724387.3,Phases=1,LineCode=tieSwitch1,Length=0.001,Units=km,switch=T !numEQ NUMEQ:50936  - Data de conexão anterior06/2011.
open line.CTR149904 term=1
new line.CTR149974 bus1=BMT124716701.3,bus2=BMT124722861.3,Phases=1,LineCode=tieSwitch1,Length=0.001,Units=km,switch=T !numEQ NUMEQ:52605  - Data de conexão anterior06/2011.
new line.CTR149988 bus1=BMT124754914.1,bus2=BMT164245802.1,Phases=1,LineCode=tieSwitch1,Length=0.001,Units=km,switch=T !numEQ NUMEQ:52601  - Data de conexão anterior06/2011.
new line.CTR149995 bus1=BMT124746626.1.2.3,bus2=BMT124748887.1.2.3,Phases=3,LineCode=tieSwitch,Length=0.001,Units=km,switch=T !numEQ NUMEQ:52602  - Data de conexão anterior06/2011.
new line.CTR150002 bus1=BMT124736231.2,bus2=BMT124736259.2,Phases=1,LineCode=tieSwitch1,Length=0.001,Units=km,switch=T !numEQ NUMEQ:52603  - Data de conexão anterior06/2011.
new line.CTR150009 bus1=BMT124742405.1,bus2=BMT124742587.1,Phases=1,LineCode=tieSwitch1,Length=0.001,Units=km,switch=T !numEQ NUMEQ:52608  - Data de conexão anterior06/2011.
new line.CTR150016 bus1=BMT124742412.1,bus2=BMT124742503.1,Phases=1,LineCode=tieSwitch1,Length=0.001,Units=km,switch=T !numEQ NUMEQ:52609  - Data de conexão anterior06/2011.
new line.CTR150023 bus1=BMT124746906.1.2.3,bus2=BMT124746920.1.2.3,Phases=3,LineCode=tieSwitch,Length=0.001,Units=km,switch=T !numEQ NUMEQ:52612  - Data de conexão anterior06/2011.
new line.CTR150093 bus1=BMT124731758.3,bus2=BMT167534253.3,Phases=1,LineCode=tieSwitch1,Length=0.001,Units=km,switch=T !numEQ NUMEQ:52604  - Data de conexão anterior06/2011.
new line.CTR150100 bus1=BMT124735951.1,bus2=BMT124740746.1,Phases=1,LineCode=tieSwitch1,Length=0.001,Units=km,switch=T !numEQ NUMEQ:52628  - Data de conexão anterior06/2011.
new line.CTR150170 bus1=BMT124730344.1.2.3,bus2=BMT124730554.1.2.3,Phases=3,LineCode=tieSwitch,Length=0.001,Units=km,switch=T !numEQ NUMEQ:52639  - Data de conexão anterior06/2011.
new line.CTR150191 bus1=BMT170915658.1.2.3,bus2=BMT165299085.1.2.3,Phases=3,LineCode=tieSwitch,Length=0.001,Units=km,switch=T !numEQ NUMEQ:232836  - Data de conexão anterior06/2011.
open line.CTR150191 term=1
new line.CTR150282 bus1=BMT124753766.1.2.3,bus2=BMT124753829.1.2.3,Phases=3,LineCode=tieSwitch,Length=0.001,Units=km,switch=T !numEQ NUMEQ:52660  - Data de conexão anterior06/2011.
new line.CTR150303 bus1=BMT124723078.3,bus2=BMT124723841.3,Phases=1,LineCode=tieSwitch1,Length=0.001,Units=km,switch=T !numEQ NUMEQ:195776  - Data de conexão anterior06/2011.
new line.CTR150324 bus1=BMT124735825.1.2.3,bus2=BMT173806200.1.2.3,Phases=3,LineCode=tieSwitch,Length=0.001,Units=km,switch=T !numEQ NUMEQ:52671  - Data de conexão anterior06/2011.
new line.CTR150331 bus1=BMT124753521.1.2.3,bus2=BMT179016393.1.2.3,Phases=3,LineCode=tieSwitch,Length=0.001,Units=km,switch=T !numEQ NUMEQ:52673  - Data de conexão anterior06/2011.
new line.CTR150338 bus1=BMT124754718.3,bus2=BMT178929847.3,Phases=1,LineCode=tieSwitch1,Length=0.001,Units=km,switch=T !numEQ NUMEQ:52679  - Data de conexão anterior06/2011.
new line.CTR150611 bus1=BMT124716890.3,bus2=BMT175811597.3,Phases=1,LineCode=tieSwitch1,Length=0.001,Units=km,switch=T !numEQ NUMEQ:52397  - Data de conexão anterior06/2011.
new line.CTR150618 bus1=BMT124734845.1,bus2=BMT178060205.1,Phases=1,LineCode=tieSwitch1,Length=0.001,Units=km,switch=T !numEQ NUMEQ:52398  - Data de conexão anterior06/2011.
new line.CTR150849 bus1=BMT124751260.1.2.3,bus2=BMT124751351.1.2.3,Phases=3,LineCode=tieSwitch,Length=0.001,Units=km,switch=T !numEQ NUMEQ:53493  - Data de conexão anterior06/2011.
new line.CTR150877 bus1=BMT124764210.1.2.3,bus2=BMT179550946.1.2.3,Phases=3,LineCode=tieSwitch,Length=0.001,Units=km,switch=T !numEQ NUMEQ:52502  - Data de conexão anterior06/2011.
new line.CTR150919 bus1=BMT124740466.2,bus2=BMT124740473.2,Phases=1,LineCode=tieSwitch1,Length=0.001,Units=km,switch=T !numEQ NUMEQ:52509  - Data de conexão anterior06/2011.
new line.CTR150961 bus1=BMT124763447.1.2.3,bus2=BMT124763776.1.2.3,Phases=3,LineCode=tieSwitch,Length=0.001,Units=km,switch=T !numEQ NUMEQ:52520  - Data de conexão anterior06/2011.
new line.CTR151122 bus1=BMT124739983.1.2.3,bus2=BMT174878387.1.2.3,Phases=3,LineCode=tieSwitch,Length=0.001,Units=km,switch=T !numEQ NUMEQ:52559  - Data de conexão anterior06/2011.
new line.CTR151241 bus1=BMT124740648.1,bus2=BMT124740704.1,Phases=1,LineCode=tieSwitch1,Length=0.001,Units=km,switch=T !numEQ NUMEQ:52231  - Data de conexão anterior06/2011.
new line.CTR16855 bus1=BMT124726431.1.2.3,bus2=BMT138844472.1.2.3,Phases=3,LineCode=tieSwitch,Length=0.001,Units=km,switch=T !numEQ NUMEQ:132648  - Data de conexão anterior06/2011.
new line.CTR16932 bus1=BMT124726557.1.2.3,bus2=BMT124726606.1.2.3,Phases=3,LineCode=tieSwitch,Length=0.001,Units=km,switch=T !numEQ NUMEQ:182825  - Data de conexão anterior06/2011.
new line.CTR169509 bus1=BMT177409907.1.2.3,bus2=BMT177409925.1.2.3,Phases=3,LineCode=tieSwitch,Length=0.001,Units=km,switch=T !numEQ NUMEQ:63978  - Data de conexão anterior06/2011.
new line.CTR125865 bus1=BMT157360771.1.2.3,bus2=BMT157360772.1.2.3,Phases=3,LineCode=tieSwitch,Length=0.001,Units=km,switch=T !numEQ NUMEQ:94322  - Data de conexão anterior06/2011.
open line.CTR125865 term=1
new line.CTR126181 bus1=BMT148405975.1.2.3,bus2=BMT148406044.1.2.3,Phases=3,LineCode=tieSwitch,Length=0.001,Units=km,switch=T !numEQ NUMEQ:191385  - Data de conexão anterior06/2011.
new line.CTR142414 bus1=BMT172190475.1.2.3,bus2=BMT172190481.1.2.3,Phases=3,LineCode=tieSwitch,Length=0.001,Units=km,switch=T !numEQ NUMEQ:52064  - Data de conexão anterior06/2011.
new line.CTR1427 bus1=BMT179068575.1.2.3,bus2=BMT179068577.1.2.3,Phases=3,LineCode=tieSwitch,Length=0.001,Units=km,switch=T !numEQ NUMEQ:132711  - Data de conexão anterior06/2011.
new line.CTR142925 bus1=BMT124733606.2,bus2=BMT175914100.2,Phases=1,LineCode=tieSwitch1,Length=0.001,Units=km,switch=T !numEQ NUMEQ:280647  - Data de conexão anterior06/2011.
new line.CTR142932 bus1=BMT124733613.1,bus2=BMT172728178.1,Phases=1,LineCode=tieSwitch1,Length=0.001,Units=km,switch=T !numEQ NUMEQ:280648  - Data de conexão anterior06/2011.
new line.CTR142939 bus1=BMT124733620.1.2.3,bus2=BMT174699599.1.2.3,Phases=3,LineCode=tieSwitch,Length=0.001,Units=km,switch=T !numEQ NUMEQ:280649  - Data de conexão anterior06/2011.
new line.CTR142981 bus1=BMT151847914.1.2.3,bus2=BMT151847917.1.2.3,Phases=3,LineCode=tieSwitch,Length=0.001,Units=km,switch=T !numEQ NUMEQ:53868  - Data de conexão anterior06/2011.
new line.CTR143268 bus1=BMT151847760.1.2.3,bus2=BMT151847984.1.2.3,Phases=3,LineCode=tieSwitch,Length=0.001,Units=km,switch=T !numEQ NUMEQ:53932  - Data de conexão anterior06/2011.
new line.CTR143275 bus1=BMT124727047.1.2.3,bus2=BMT124727061.1.2.3,Phases=3,LineCode=tieSwitch,Length=0.001,Units=km,switch=T !numEQ NUMEQ:53933  - Data de conexão anterior06/2011.
new line.CTR143282 bus1=BMT151847783.1.2.3,bus2=BMT151847980.1.2.3,Phases=3,LineCode=tieSwitch,Length=0.001,Units=km,switch=T !numEQ NUMEQ:53934  - Data de conexão anterior06/2011.
new line.CTR1434 bus1=BMT124730106.1.2.3,bus2=BMT166298086.1.2.3,Phases=3,LineCode=tieSwitch,Length=0.001,Units=km,switch=T !numEQ NUMEQ:50057  - Data de conexão anterior06/2011.
new line.CTR143478 bus1=BMT124719837.1.2.3,bus2=BMT160333034.1.2.3,Phases=3,LineCode=tieSwitch,Length=0.001,Units=km,switch=T !numEQ NUMEQ:53950  - Data de conexão anterior06/2011.
new line.CTR143532 bus1=BMT180185646.1.2.3,bus2=BMT180185647.1.2.3,Phases=3,LineCode=tieSwitch,Length=0.001,Units=km,switch=T !numEQ NUMEQ:54171  - Data de conexão anterior06/2011.
new line.CTR143786 bus1=BMT124718584.1,bus2=BMT168793116.1,Phases=1,LineCode=tieSwitch1,Length=0.001,Units=km,switch=T !numEQ NUMEQ:53750  - Data de conexão anterior06/2011.
new line.CTR143849 bus1=BMT124725815.1.2.3,bus2=BMT169695165.1.2.3,Phases=3,LineCode=tieSwitch,Length=0.001,Units=km,switch=T !numEQ NUMEQ:156409  - Data de conexão anterior06/2011.
new line.CTR143905 bus1=BMT151847741.1.2.3,bus2=BMT151847745.1.2.3,Phases=3,LineCode=tieSwitch,Length=0.001,Units=km,switch=T !numEQ NUMEQ:53785  - Data de conexão anterior06/2011.
new line.CTR155735 bus1=BMT124735209.2,bus2=BMT124735594.2,Phases=1,LineCode=tieSwitch1,Length=0.001,Units=km,switch=T !numEQ NUMEQ:51467  - Data de conexão anterior06/2011.
new line.CTR155784 bus1=BMT124716876.1.2.3,bus2=BMT177605712.1.2.3,Phases=3,LineCode=tieSwitch,Length=0.001,Units=km,switch=T !numEQ NUMEQ:51468  - Data de conexão anterior06/2011.
new line.CTR155798 bus1=BMT124740655.1,bus2=BMT124740669.1,Phases=1,LineCode=tieSwitch1,Length=0.001,Units=km,switch=T !numEQ NUMEQ:51480  - Data de conexão anterior06/2011.
new line.CTR155833 bus1=BMT177589185.1.2.3,bus2=BMT2087714.1.2.3,Phases=3,LineCode=tieSwitch,Length=0.001,Units=km,switch=T !numEQ NUMEQ:51514  - Data de conexão anterior06/2011.
open line.CTR155833 term=1
new line.CTR155840 bus1=BMT124750945.1.2.3,bus2=BMT124751190.1.2.3,Phases=3,LineCode=tieSwitch,Length=0.001,Units=km,switch=T !numEQ NUMEQ:51516  - Data de conexão anterior06/2011.
new line.CTR155854 bus1=BMT124749741.1,bus2=BMT165166475.1,Phases=1,LineCode=tieSwitch1,Length=0.001,Units=km,switch=T !numEQ NUMEQ:51518  - Data de conexão anterior06/2011.