! manter este comentario para compatibilidade do C#
new circuit.alimPPS10 bus1=BMT164367369.1.2.3,basekv=13.800000000,pu=1.040000000

