new line.10005731 bus1=BBT2553512.1.2.0,bus2=BBT2553519.1.2.0,Phases=2,Linecode=BT807_BT807_4_2_3,Length=0.049263000,Units=km
new line.10005766 bus1=BBT2553519.1.2.0,bus2=BBT2553526.1.2.0,Phases=2,Linecode=BT807_BT807_4_2_3,Length=0.051010000,Units=km
new line.10151415 bus1=BBT2580399.1.2.3.0,bus2=BBT2580406.1.2.3.0,Phases=3,Linecode=BT313_BT313_7_3_1,Length=0.000501000,Units=km
new line.10353827 bus1=BBT2609855.1.2.0,bus2=BBT2609862.1.2.0,Phases=2,Linecode=BT307_BT307_7_2_1,Length=0.000501000,Units=km
new line.11229660 bus1=BBT3109907.1.2.0,bus2=BBT3109914.1.2.0,Phases=2,Linecode=BT304_BT304_7_2_1,Length=0.000501000,Units=km
new line.11514749 bus1=BBT892216.1.2.0,bus2=BBT3063644.1.2.0,Phases=2,Linecode=BT508_BT508_7_2_1,Length=0.000501000,Units=km
new line.11760120 bus1=BBT2813695.1.2.0,bus2=BBT2813702.1.2.0,Phases=2,Linecode=BT518_BT518_7_2_1,Length=0.000501000,Units=km
new line.11760127 bus1=BBT2813702.1.2.0,bus2=BBT2813709.1.2.0,Phases=2,Linecode=BT808_BT808_4_2_3,Length=0.039576000,Units=km
new line.11762472 bus1=BBT2813709.1.2.0,bus2=BBT2813716.1.2.0,Phases=2,Linecode=BT808_BT808_4_2_3,Length=0.061709000,Units=km
new line.11762668 bus1=BBT2813716.1.2.0,bus2=BBT2813723.1.2.0,Phases=2,Linecode=BT808_BT808_4_2_3,Length=0.042737000,Units=km
new line.12318426 bus1=BBT2923504.1.2.0,bus2=BBT2923518.1.2.0,Phases=2,Linecode=BT808_BT808_4_2_3,Length=0.045024000,Units=km
new line.12318440 bus1=BBT2923518.1.2.0,bus2=BBT2923525.1.2.0,Phases=2,Linecode=BT808_BT808_4_2_3,Length=0.045035000,Units=km
new line.12606742 bus1=BBT3486997.1.2.0,bus2=BBT3487004.1.2.0,Phases=2,Linecode=BT316_BT316_7_2_1,Length=0.000501000,Units=km
new line.12733512 bus1=BBT3028560.1.2.0,bus2=BBT784724.1.2.0,Phases=2,Linecode=BT808_BT808_4_2_3,Length=0.044571000,Units=km
new line.12847360 bus1=BBT3070770.1.2.0,bus2=BBT3070777.1.2.0,Phases=2,Linecode=BT316_BT316_7_2_1,Length=0.000501000,Units=km
new line.12970189 bus1=BBT3138656.1.2.0,bus2=BBT3138663.1.2.0,Phases=2,Linecode=BT808_BT808_4_2_3,Length=0.052633000,Units=km
new line.12970196 bus1=BBT3138649.1.2.0,bus2=BBT3138656.1.2.0,Phases=2,Linecode=BT518_BT518_7_2_1,Length=0.000501000,Units=km
new line.12970203 bus1=BBT3138656.1.2.0,bus2=BBT3138670.1.2.0,Phases=2,Linecode=BT808_BT808_4_2_3,Length=0.021480000,Units=km
new line.12970224 bus1=BBT3138677.1.2.0,bus2=BBT3138684.1.2.0,Phases=2,Linecode=BT316_BT316_7_2_1,Length=0.000501000,Units=km
new line.12975236 bus1=BBT3139979.1.2.0,bus2=BBT3139986.1.2.0,Phases=2,Linecode=BT304_BT304_7_2_1,Length=0.000501000,Units=km
new line.12980003 bus1=BBT3141330.1.2.0,bus2=BBT3141337.1.2.0,Phases=2,Linecode=BT316_BT316_7_2_1,Length=0.000501000,Units=km
new line.13100319 bus1=BBT3275954.1.2.0,bus2=BBT3275961.1.2.0,Phases=2,Linecode=BT316_BT316_7_2_1,Length=0.000501000,Units=km
new line.13204661 bus1=BBT3393708.1.2.0,bus2=BBT2594175.1.2.0,Phases=2,Linecode=BT808_BT808_4_2_3,Length=0.040128000,Units=km
new line.13281416 bus1=BBT3472906.1.2.0,bus2=BBT3472913.1.2.0,Phases=2,Linecode=BT317_BT317_7_2_1,Length=0.000501000,Units=km
new line.13288535 bus1=BBT3486416.1.2.0,bus2=BBT3486423.1.2.0,Phases=2,Linecode=BT316_BT316_7_2_1,Length=0.000501000,Units=km
new line.13288605 bus1=BBT3486444.1.2.0,bus2=BBT3486451.1.2.0,Phases=2,Linecode=BT518_BT518_7_2_1,Length=0.000501000,Units=km
new line.13288626 bus1=BBT3486458.1.2.0,bus2=BBT3486465.1.2.0,Phases=2,Linecode=BT316_BT316_7_2_1,Length=0.000501000,Units=km
new line.13288801 bus1=BBT3486500.1.2.0,bus2=BBT3486507.1.2.0,Phases=2,Linecode=BT808_BT808_4_2_3,Length=0.042561000,Units=km
new line.13288815 bus1=BBT3486507.1.2.0,bus2=BBT3486514.1.2.0,Phases=2,Linecode=BT808_BT808_4_2_3,Length=0.041163000,Units=km
new line.13288836 bus1=BBT3486521.1.2.0,bus2=BBT3486528.1.2.0,Phases=2,Linecode=BT316_BT316_7_2_1,Length=0.000501000,Units=km
new line.13288850 bus1=BBT3486535.1.2.0,bus2=BBT3486542.1.2.0,Phases=2,Linecode=BT316_BT316_7_2_1,Length=0.000501000,Units=km
new line.13288983 bus1=BBT3486647.1.2.0,bus2=BBT3486654.1.2.0,Phases=2,Linecode=BT316_BT316_7_2_1,Length=0.000501000,Units=km
new line.13341749 bus1=BBT3611555.1.2.0,bus2=BBT3611562.1.2.0,Phases=2,Linecode=BT307_BT307_7_2_1,Length=0.000501000,Units=km
new line.13481455 bus1=BBT4038562.1.2.0,bus2=BBT4038569.1.2.0,Phases=2,Linecode=BT808_BT808_4_2_3,Length=0.039238000,Units=km
new line.13489883 bus1=BBT4177603.1.2.0,bus2=BBT4177610.1.2.0,Phases=2,Linecode=BT317_BT317_7_2_1,Length=0.000501000,Units=km
new line.13538001 bus1=BBT4316539.1.2.0,bus2=BBT4316546.1.2.0,Phases=2,Linecode=BT316_BT316_7_2_1,Length=0.000501000,Units=km
new line.13538085 bus1=BBT4316826.1.2.0,bus2=BBT4316833.1.2.0,Phases=2,Linecode=BT316_BT316_7_2_1,Length=0.000501000,Units=km
new line.13538155 bus1=BBT4317232.1.2.0,bus2=BBT4317239.1.2.0,Phases=2,Linecode=BT521_BT521_7_2_1,Length=0.000501000,Units=km
new line.13538162 bus1=BBT4317239.1.2.0,bus2=BBT4317246.1.2.0,Phases=2,Linecode=BT808_BT808_4_2_3,Length=0.023269000,Units=km
new line.13538435 bus1=BBT4317932.1.2.0,bus2=BBT4317939.1.2.0,Phases=2,Linecode=BT316_BT316_7_2_1,Length=0.000501000,Units=km
new line.13538953 bus1=BBT4318030.1.2.0,bus2=BBT4318037.1.2.0,Phases=2,Linecode=BT316_BT316_7_2_1,Length=0.000501000,Units=km
new line.13539527 bus1=BBT4318898.1.2.0,bus2=BBT4318905.1.2.0,Phases=2,Linecode=BT518_BT518_7_2_1,Length=0.000501000,Units=km
new line.13539625 bus1=BBT4318989.1.2.0,bus2=BBT4318996.1.2.0,Phases=2,Linecode=BT316_BT316_7_2_1,Length=0.000501000,Units=km
new line.13539688 bus1=BBT4319241.1.2.0,bus2=BBT4319248.1.2.0,Phases=2,Linecode=BT316_BT316_7_2_1,Length=0.000501000,Units=km
new line.13539702 bus1=BBT4319255.1.2.0,bus2=BBT4319262.1.2.0,Phases=2,Linecode=BT316_BT316_7_2_1,Length=0.000502000,Units=km
new line.13539758 bus1=BBT4319640.1.2.0,bus2=BBT4319647.1.2.0,Phases=2,Linecode=BT316_BT316_7_2_1,Length=0.000503000,Units=km
new line.13542047 bus1=BBT4322769.1.2.0,bus2=BBT4322776.1.2.0,Phases=2,Linecode=BT316_BT316_7_2_1,Length=0.000501000,Units=km
new line.13542145 bus1=BBT4322839.1.2.0,bus2=BBT4322846.1.2.0,Phases=2,Linecode=BT304_BT304_7_2_1,Length=0.000501000,Units=km
new line.13542264 bus1=BBT4323028.1.2.0,bus2=BBT4323035.1.2.0,Phases=2,Linecode=BT316_BT316_7_2_1,Length=0.000501000,Units=km
new line.13542376 bus1=BBT157959127.1.2.0,bus2=BBT4323392.1.2.0,Phases=2,Linecode=BT807_BT807_4_2_3,Length=0.055384000,Units=km
new line.13542418 bus1=BBT4323378.1.2.0,bus2=BBT4323371.1.2.0,Phases=2,Linecode=BT807_BT807_4_2_3,Length=0.033748000,Units=km
new line.13542453 bus1=BBT4323392.1.2.0,bus2=BBT4323399.1.2.0,Phases=2,Linecode=BT807_BT807_4_2_3,Length=0.038291000,Units=km
new line.13543006 bus1=BBT4324344.1.2.0,bus2=BBT4324351.1.2.0,Phases=2,Linecode=BT316_BT316_7_2_1,Length=0.000501000,Units=km
new line.13543398 bus1=BBT4324526.1.2.0,bus2=BBT4324533.1.2.0,Phases=2,Linecode=BT316_BT316_7_2_1,Length=0.000501000,Units=km
new line.13543580 bus1=BBT4324540.1.2.0,bus2=BBT4324547.1.2.0,Phases=2,Linecode=BT316_BT316_7_2_1,Length=0.000501000,Units=km
new line.13543678 bus1=BBT4324659.1.2.0,bus2=BBT4324666.1.2.0,Phases=2,Linecode=BT316_BT316_7_2_1,Length=0.000501000,Units=km
new line.13548921 bus1=BBT4341018.1.2.0,bus2=BBT4341025.1.2.0,Phases=2,Linecode=BT307_BT307_7_2_1,Length=0.000501000,Units=km
new line.13549075 bus1=BBT4341949.1.2.0,bus2=BBT4341956.1.2.0,Phases=2,Linecode=BT316_BT316_7_2_1,Length=0.000501000,Units=km
new line.10166927 bus1=BBT2580413.1.2.0,bus2=BBT2580420.1.2.0,Phases=2,Linecode=BT316_BT316_7_2_1,Length=0.000501000,Units=km
new line.11183775 bus1=BBT2720518.1.2.0,bus2=BBT2720525.1.2.0,Phases=2,Linecode=BT808_BT808_4_2_3,Length=0.040808000,Units=km
new line.11183810 bus1=BBT2720525.1.2.0,bus2=BBT3743939.1.2.0,Phases=2,Linecode=BT808_BT808_4_2_3,Length=0.039828000,Units=km
new line.11693543 bus1=BBT2803895.1.2.0,bus2=BBT2803909.1.2.0,Phases=2,Linecode=BT808_BT808_4_2_3,Length=0.038029000,Units=km
new line.11693550 bus1=BBT2803895.1.2.0,bus2=BBT2803902.1.2.0,Phases=2,Linecode=BT808_BT808_4_2_3,Length=0.049112000,Units=km
new line.11693557 bus1=BBT2803888.1.2.0,bus2=BBT2803895.1.2.0,Phases=2,Linecode=BT518_BT518_7_2_1,Length=0.000501000,Units=km
new line.11694152 bus1=BBT2803930.1.2.0,bus2=BBT2803937.1.2.0,Phases=2,Linecode=BT316_BT316_7_2_1,Length=0.000501000,Units=km
new line.13006050 bus1=BBT3168469.1.2.0,bus2=BBT3168476.1.2.0,Phases=2,Linecode=BT521_BT521_7_2_1,Length=0.000501000,Units=km
new line.13023081 bus1=BBT3183085.1.2.3.0,bus2=BBT2227725.1.2.3.0,Phases=3,Linecode=BT803_BT803_4_3_4,Length=0.024096000,Units=km
new line.13024390 bus1=BBT3180362.1.2.0,bus2=BBT3180369.1.2.0,Phases=2,Linecode=BT304_BT304_7_2_1,Length=0.000501000,Units=km
new line.13133534 bus1=BBT3323064.1.2.0,bus2=BBT3323071.1.2.0,Phases=2,Linecode=BT316_BT316_7_2_1,Length=0.000501000,Units=km
new line.13234502 bus1=BBT3429982.1.2.0,bus2=BBT3429989.1.2.0,Phases=2,Linecode=BT316_BT316_7_2_1,Length=0.000501000,Units=km
new line.13237036 bus1=BBT3431683.1.2.0,bus2=BBT3431690.1.2.0,Phases=2,Linecode=BT316_BT316_7_2_1,Length=0.000501000,Units=km
new line.13369875 bus1=BBT3724612.1.2.0,bus2=BBT3724619.1.2.0,Phases=2,Linecode=BT317_BT317_7_2_1,Length=0.000501000,Units=km
new line.13371373 bus1=BBT3728777.1.2.0,bus2=BBT4038562.1.2.0,Phases=2,Linecode=BT808_BT808_4_2_3,Length=0.029423000,Units=km
new line.13376875 bus1=BBT3743939.1.2.0,bus2=BBT3743946.1.2.0,Phases=2,Linecode=BT808_BT808_4_2_3,Length=0.039828000,Units=km
new line.13376910 bus1=BBT3743946.1.2.0,bus2=BBT3743953.1.2.0,Phases=2,Linecode=BT808_BT808_4_2_3,Length=0.041016000,Units=km
new line.13380431 bus1=BBT3745892.1.2.3.0,bus2=BBT3745899.1.2.3.0,Phases=3,Linecode=BT803_BT803_4_3_4,Length=0.045195000,Units=km
new line.13380466 bus1=BBT3745899.1.2.3.0,bus2=BBT3745906.1.2.3.0,Phases=3,Linecode=BT803_BT803_4_3_4,Length=0.044199000,Units=km
new line.13380606 bus1=BBT3745913.1.2.0,bus2=BBT3745941.1.2.0,Phases=2,Linecode=BT807_BT807_4_2_3,Length=0.046116000,Units=km
new line.13380613 bus1=BBT3745913.1.2.0,bus2=BBT3745962.1.2.0,Phases=2,Linecode=BT807_BT807_4_2_3,Length=0.039335000,Units=km
new line.13380641 bus1=BBT3745878.1.2.0,bus2=BBT3745885.1.2.0,Phases=2,Linecode=BT807_BT807_4_2_3,Length=0.040216000,Units=km
new line.13380662 bus1=BBT3745871.1.2.0,bus2=BBT3745913.1.2.0,Phases=2,Linecode=BT807_BT807_4_2_3,Length=0.046062000,Units=km
new line.13380669 bus1=BBT3745871.1.2.0,bus2=BBT3745878.1.2.0,Phases=2,Linecode=BT807_BT807_4_2_3,Length=0.043122000,Units=km
new line.13380676 bus1=BBT3745864.1.2.0,bus2=BBT3745871.1.2.0,Phases=2,Linecode=BT513_BT513_7_2_1,Length=0.000501000,Units=km
new line.13380732 bus1=BBT3745941.1.2.0,bus2=BBT3745955.1.2.0,Phases=2,Linecode=BT807_BT807_4_2_3,Length=0.042313000,Units=km
new line.13380739 bus1=BBT3745941.1.2.0,bus2=BBT3745948.1.2.0,Phases=2,Linecode=BT808_BT808_4_2_3,Length=0.039067000,Units=km
new line.13380788 bus1=BBT3745983.1.2.0,bus2=BBT3745997.1.2.0,Phases=2,Linecode=BT808_BT808_4_2_3,Length=0.037962000,Units=km
new line.13380795 bus1=BBT3745983.1.2.0,bus2=BBT3745990.1.2.0,Phases=2,Linecode=BT808_BT808_4_2_3,Length=0.040327000,Units=km
new line.13380837 bus1=BBT3745962.1.2.0,bus2=BBT3745969.1.2.0,Phases=2,Linecode=BT807_BT807_4_2_3,Length=0.043203000,Units=km
new line.13380844 bus1=BBT3745969.1.2.0,bus2=BBT3745976.1.2.0,Phases=2,Linecode=BT808_BT808_4_2_3,Length=0.043203000,Units=km
new line.13380872 bus1=BBT3745976.1.2.0,bus2=BBT3745983.1.2.0,Phases=2,Linecode=BT808_BT808_4_2_3,Length=0.044120000,Units=km
new line.13505647 bus1=BBT4212764.1.2.0,bus2=BBT4212771.1.2.0,Phases=2,Linecode=BT316_BT316_7_2_1,Length=0.000501000,Units=km
new line.13508482 bus1=BBT4221808.1.2.0,bus2=BBT4221815.1.2.0,Phases=2,Linecode=BT307_BT307_7_2_1,Length=0.000501000,Units=km
new line.13566414 bus1=BBT931206.1.2.0,bus2=BBT4399972.1.2.0,Phases=2,Linecode=BT307_BT307_7_2_1,Length=0.000501000,Units=km
new line.13566421 bus1=BBT4399972.1.2.0,bus2=BBT4399979.1.2.0,Phases=2,Linecode=BT808_BT808_4_2_3,Length=0.025623000,Units=km
new line.13568031 bus1=BBT4406265.1.2.0,bus2=BBT4406272.1.2.0,Phases=2,Linecode=BT807_BT807_4_2_3,Length=0.031793000,Units=km
new line.13568045 bus1=BBT4406237.1.2.0,bus2=BBT4406265.1.2.0,Phases=2,Linecode=BT807_BT807_4_2_3,Length=0.039016000,Units=km
new line.13568052 bus1=BBT4406230.1.2.0,bus2=BBT4406237.1.2.0,Phases=2,Linecode=BT513_BT513_7_2_1,Length=0.000501000,Units=km
new line.13568059 bus1=BBT4406237.1.2.0,bus2=BBT4406244.1.2.0,Phases=2,Linecode=BT807_BT807_4_2_3,Length=0.039411000,Units=km
new line.13568073 bus1=BBT4406272.1.2.0,bus2=BBT4406279.1.2.0,Phases=2,Linecode=BT807_BT807_4_2_3,Length=0.034942000,Units=km
new line.13568087 bus1=BBT4406279.1.2.0,bus2=BBT4406286.1.2.0,Phases=2,Linecode=BT810_BT810_4_2_4,Length=0.037136000,Units=km
new line.13568101 bus1=BBT4406244.1.2.0,bus2=BBT4406251.1.2.0,Phases=2,Linecode=BT807_BT807_4_2_3,Length=0.038499000,Units=km
new line.13568129 bus1=BBT4406251.1.2.0,bus2=BBT4406258.1.2.0,Phases=2,Linecode=BT808_BT808_4_2_3,Length=0.039411000,Units=km
new line.13568206 bus1=BBT4406195.1.2.0,bus2=BBT4406202.1.2.0,Phases=2,Linecode=BT807_BT807_4_2_3,Length=0.026411000,Units=km
new line.13568213 bus1=BBT4406195.1.2.0,bus2=BBT4406209.1.2.0,Phases=2,Linecode=BT807_BT807_4_2_3,Length=0.023269000,Units=km
new line.13568234 bus1=BBT4406209.1.2.0,bus2=BBT4406216.1.2.0,Phases=2,Linecode=BT808_BT808_4_2_3,Length=0.032013000,Units=km
new line.13568269 bus1=BBT4406587.1.2.0,bus2=BBT4406594.1.2.0,Phases=2,Linecode=BT807_BT807_4_2_3,Length=0.026844000,Units=km
new line.13568276 bus1=BBT4406587.1.2.0,bus2=BBT4406601.1.2.0,Phases=2,Linecode=BT808_BT808_4_2_3,Length=0.030012000,Units=km
new line.13568283 bus1=BBT4406538.1.2.0,bus2=BBT4406587.1.2.0,Phases=2,Linecode=BT807_BT807_4_2_3,Length=0.029542000,Units=km
new line.13568290 bus1=BBT4406531.1.2.0,bus2=BBT4406538.1.2.0,Phases=2,Linecode=BT513_BT513_7_2_1,Length=0.000501000,Units=km
new line.13568297 bus1=BBT4406538.1.2.0,bus2=BBT4406608.1.2.0,Phases=2,Linecode=BT807_BT807_4_2_3,Length=0.024607000,Units=km
new line.13568311 bus1=BBT4406608.1.2.0,bus2=BBT4406615.1.2.0,Phases=2,Linecode=BT807_BT807_4_2_3,Length=0.029542000,Units=km
new line.13568318 bus1=BBT4406608.1.2.0,bus2=BBT4406636.1.2.0,Phases=2,Linecode=BT808_BT808_4_2_3,Length=0.031012000,Units=km
new line.13568332 bus1=BBT4406615.1.2.0,bus2=BBT4406622.1.2.0,Phases=2,Linecode=BT807_BT807_4_2_3,Length=0.027306000,Units=km
new line.13568346 bus1=BBT4406622.1.2.0,bus2=BBT4406629.1.2.0,Phases=2,Linecode=BT808_BT808_4_2_3,Length=0.030012000,Units=km
new line.13568388 bus1=BBT4406601.1.2.0,bus2=BBT4492897.1.2.0,Phases=2,Linecode=BT808_BT808_4_2_3,Length=0.030012000,Units=km
new line.13568416 bus1=BBT4406216.1.2.0,bus2=BBT4406223.1.2.0,Phases=2,Linecode=BT808_BT808_4_2_3,Length=0.034014000,Units=km
new line.11127509 bus1=BBT2714274.1.2.0,bus2=BBT2714281.1.2.0,Phases=2,Linecode=BT307_BT307_7_2_1,Length=0.000501000,Units=km
new line.11220077 bus1=BBT2724963.1.2.0,bus2=BBT2724970.1.2.0,Phases=2,Linecode=BT106_BT106_7_2_1,Length=0.040068000,Units=km
new line.11399998 bus1=BBT2751955.2.0,bus2=BBT2751962.2.0,Phases=1,Linecode=BT106_BT106_7_1_1,Length=0.078346000,Units=km
new line.11400005 bus1=BBT2751962.2.0,bus2=BBT2751969.2.0,Phases=1,Linecode=BT106_BT106_7_1_1,Length=0.072140000,Units=km
new line.11406424 bus1=BBT2752466.1.2.0,bus2=BBT774049.1.2.0,Phases=2,Linecode=BT107_BT106_7_2_1,Length=0.030014000,Units=km
new line.11406431 bus1=BBT2752466.1.2.0,bus2=BBT2752473.1.2.0,Phases=2,Linecode=BT107_BT106_7_2_1,Length=0.037220000,Units=km
new line.11406452 bus1=BBT2752473.1.2.0,bus2=BBT774035.1.2.0,Phases=2,Linecode=BT107_BT106_7_2_1,Length=0.037220000,Units=km
new line.11406473 bus1=BBT2752480.1.2.0,bus2=BBT2752466.1.2.0,Phases=2,Linecode=BT807_BT807_4_2_3,Length=0.022814000,Units=km
new line.11406480 bus1=BBT774028.1.2.0,bus2=BBT2752480.1.2.0,Phases=2,Linecode=BT513_BT513_7_2_1,Length=0.000501000,Units=km
new line.11406487 bus1=BBT2752480.1.2.0,bus2=BBT2752487.1.2.0,Phases=2,Linecode=BT807_BT807_4_2_3,Length=0.020625000,Units=km
new line.11406501 bus1=BBT2752487.1.2.0,bus2=BBT2752494.1.2.0,Phases=2,Linecode=BT807_BT807_4_2_3,Length=0.027471000,Units=km
new line.11406522 bus1=BBT2752494.1.2.0,bus2=BBT2752501.1.2.0,Phases=2,Linecode=BT808_BT808_4_2_3,Length=0.042067000,Units=km
new line.11406529 bus1=BBT2752494.1.2.0,bus2=BBT2752515.1.2.0,Phases=2,Linecode=BT808_BT808_4_2_3,Length=0.036236000,Units=km
new line.11406557 bus1=BBT2752501.1.2.0,bus2=BBT2752508.1.2.0,Phases=2,Linecode=BT808_BT808_4_2_3,Length=0.031780000,Units=km
new line.11406606 bus1=BBT2752515.1.2.0,bus2=BBT24168601.1.2.0,Phases=2,Linecode=BT808_BT808_4_2_3,Length=0.037594000,Units=km
new line.11407593 bus1=BBT2752718.1.2.0,bus2=BBT2752725.1.2.0,Phases=2,Linecode=BT808_BT808_4_2_3,Length=0.031792000,Units=km
new line.11407621 bus1=BBT2752704.1.2.0,bus2=BBT2752718.1.2.0,Phases=2,Linecode=BT808_BT808_4_2_3,Length=0.032678000,Units=km
new line.11407628 bus1=BBT2752704.1.2.0,bus2=BBT3728777.1.2.0,Phases=2,Linecode=BT808_BT808_4_2_3,Length=0.038200000,Units=km
new line.11407642 bus1=BBT2752697.1.2.0,bus2=BBT2752704.1.2.0,Phases=2,Linecode=BT808_BT808_4_2_3,Length=0.036432000,Units=km
new line.11407649 bus1=BBT2752690.1.2.0,bus2=BBT2752697.1.2.0,Phases=2,Linecode=BT513_BT513_7_2_1,Length=0.000501000,Units=km
new line.11407656 bus1=BBT2752697.1.2.0,bus2=BBT2752711.1.2.0,Phases=2,Linecode=BT808_BT808_4_2_3,Length=0.036828000,Units=km
new line.11407691 bus1=BBT2752711.1.2.0,bus2=BBT2752732.1.2.0,Phases=2,Linecode=BT808_BT808_4_2_3,Length=0.034743000,Units=km
new line.11407712 bus1=BBT2752732.1.2.0,bus2=BBT4013481.1.2.0,Phases=2,Linecode=BT808_BT808_4_2_3,Length=0.035877000,Units=km
new line.12740183 bus1=BBT3031626.1.2.0,bus2=BBT3031633.1.2.0,Phases=2,Linecode=BT316_BT316_7_2_1,Length=0.000501000,Units=km
new line.12765698 bus1=BBT3622608.1.2.0,bus2=BBT3622615.1.2.0,Phases=2,Linecode=BT317_BT317_7_2_1,Length=0.000501000,Units=km
new line.12940495 bus1=BBT3124985.1.2.0,bus2=BBT3124992.1.2.0,Phases=2,Linecode=BT814_BT814_4_2_3,Length=0.037378000,Units=km
new line.12940516 bus1=BBT3124992.1.2.0,bus2=BBT3124999.1.2.0,Phases=2,Linecode=BT814_BT814_4_2_3,Length=0.038616000,Units=km
new line.12952934 bus1=BBT3131467.1.3.0,bus2=BBT3131474.1.3.0,Phases=2,Linecode=BT808_BT808_4_2_3,Length=0.040066000,Units=km
new line.12952948 bus1=BBT3131474.1.3.0,bus2=BBT3436492.1.3.0,Phases=2,Linecode=BT808_BT808_4_2_3,Length=0.040066000,Units=km
new line.12962419 bus1=BBT3134974.1.2.3.0,bus2=BBT3135002.1.2.3.0,Phases=3,Linecode=BT810_BT810_4_3_4,Length=0.030381000,Units=km
new line.12962426 bus1=BBT3134974.1.2.3.0,bus2=BBT3134981.1.2.3.0,Phases=3,Linecode=BT810_BT810_4_3_4,Length=0.032029000,Units=km
new line.12962440 bus1=BBT3134967.1.2.3.0,bus2=BBT3134974.1.2.3.0,Phases=3,Linecode=BT810_BT810_4_3_4,Length=0.035029000,Units=km
new line.12962454 bus1=BBT3134981.1.2.3.0,bus2=BBT3134988.1.2.3.0,Phases=3,Linecode=BT810_BT810_4_3_4,Length=0.033150000,Units=km
new line.12962489 bus1=BBT3134988.1.2.3.0,bus2=BBT3134995.1.2.3.0,Phases=3,Linecode=BT810_BT810_4_3_4,Length=0.024031000,Units=km
new line.13078528 bus1=BBT3246463.1.2.0,bus2=BBT3246470.1.2.0,Phases=2,Linecode=BT316_BT316_7_2_1,Length=0.000501000,Units=km
new line.13172314 bus1=BBT3374591.1.2.3.0,bus2=BBT3374598.1.2.3.0,Phases=3,Linecode=BT313_BT313_7_3_1,Length=0.000501000,Units=km
new line.13248873 bus1=BBT3441014.1.2.0,bus2=BBT3441021.1.2.0,Phases=2,Linecode=BT317_BT317_7_2_1,Length=0.000501000,Units=km
new line.13259177 bus1=BBT3448931.1.2.0,bus2=BBT3448938.1.2.0,Phases=2,Linecode=BT317_BT317_7_2_1,Length=0.000501000,Units=km
new line.13316262 bus1=BBT3522823.1.2.0,bus2=BBT3530096.1.2.0,Phases=2,Linecode=BT808_BT808_4_2_3,Length=0.021033000,Units=km
new line.13316276 bus1=BBT3522816.1.2.0,bus2=BBT3522823.1.2.0,Phases=2,Linecode=BT513_BT513_7_2_1,Length=0.000501000,Units=km
new line.13316283 bus1=BBT3522823.1.2.0,bus2=BBT3522830.1.2.0,Phases=2,Linecode=BT808_BT808_4_2_3,Length=0.047189000,Units=km
new line.13337801 bus1=BBT3604114.1.2.0,bus2=BBT3604121.1.2.0,Phases=2,Linecode=BT304_BT304_7_2_1,Length=0.000501000,Units=km
new line.13450998 bus1=BBT3979608.1.2.3.0,bus2=BBT772586.1.2.3.0,Phases=3,Linecode=BT108_BT107_7_3_1,Length=0.016131000,Units=km
new line.13451005 bus1=BBT3979615.1.2.3.0,bus2=BBT3979622.1.2.3.0,Phases=3,Linecode=BT514_BT514_7_3_1,Length=0.000501000,Units=km
new line.13452216 bus1=BBT3981260.1.2.0,bus2=BBT3981267.1.2.0,Phases=2,Linecode=BT808_BT808_4_2_3,Length=0.035242000,Units=km
new line.13465789 bus1=BBT4013481.1.2.0,bus2=BBT4013488.1.2.0,Phases=2,Linecode=BT808_BT808_4_2_3,Length=0.035016000,Units=km
new line.13465796 bus1=BBT4013488.1.2.0,bus2=BBT4013495.1.2.0,Phases=2,Linecode=BT808_BT808_4_2_3,Length=0.034511000,Units=km
new line.13465817 bus1=BBT4013495.1.2.0,bus2=BBT4013502.1.2.0,Phases=2,Linecode=BT808_BT808_4_2_3,Length=0.035877000,Units=km
new line.13465845 bus1=BBT4013502.1.2.0,bus2=BBT4013509.1.2.0,Phases=2,Linecode=BT808_BT808_4_2_3,Length=0.034900000,Units=km
new line.13641027 bus1=BBT4579011.1.2.0,bus2=BBT4579018.1.2.0,Phases=2,Linecode=BT317_BT317_7_2_1,Length=0.000501000,Units=km
new line.13651695 bus1=BBT4605730.1.2.0,bus2=BBT4605737.1.2.0,Phases=2,Linecode=BT808_BT808_4_2_3,Length=0.039840000,Units=km
new line.13651709 bus1=BBT4605737.1.2.0,bus2=BBT4605744.1.2.0,Phases=2,Linecode=BT808_BT808_4_2_3,Length=0.039840000,Units=km
new line.13651730 bus1=BBT4605744.1.2.0,bus2=BBT4605751.1.2.0,Phases=2,Linecode=BT808_BT808_4_2_3,Length=0.040327000,Units=km
new line.13653655 bus1=BBT4613451.1.2.0,bus2=BBT4613458.1.2.0,Phases=2,Linecode=BT518_BT518_7_2_1,Length=0.000501000,Units=km
new line.13653725 bus1=BBT4613941.1.2.0,bus2=BBT4613948.1.2.0,Phases=2,Linecode=BT316_BT316_7_2_1,Length=0.000501000,Units=km
new line.13656742 bus1=BBT4618883.1.2.0,bus2=BBT4618890.1.2.0,Phases=2,Linecode=BT304_BT304_7_2_1,Length=0.000501000,Units=km
new line.13660606 bus1=BBT4630804.1.2.0,bus2=BBT4630811.1.2.0,Phases=2,Linecode=BT316_BT316_7_2_1,Length=0.000501000,Units=km
new line.13660711 bus1=BBT4630755.1.2.0,bus2=BBT4630762.1.2.0,Phases=2,Linecode=BT316_BT316_7_2_1,Length=0.000501000,Units=km
new line.10127244 bus1=BBT2574785.1.2.3.0,bus2=BBT2574792.1.2.3.0,Phases=3,Linecode=BT810_BT810_4_3_4,Length=0.040081000,Units=km
new line.10127265 bus1=BBT2574792.1.2.3.0,bus2=BBT2574799.1.2.3.0,Phases=3,Linecode=BT810_BT810_4_3_4,Length=0.041565000,Units=km
new line.10127300 bus1=BBT2574799.1.2.3.0,bus2=BBT2574806.1.2.3.0,Phases=3,Linecode=BT810_BT810_4_3_4,Length=0.031120000,Units=km
new line.10127321 bus1=BBT2574806.1.2.3.0,bus2=BBT2574813.1.2.3.0,Phases=3,Linecode=BT810_BT810_4_3_4,Length=0.032618000,Units=km
new line.10264731 bus1=BBT2593405.1.2.0,bus2=BBT2593412.1.2.0,Phases=2,Linecode=BT317_BT317_7_2_1,Length=0.000501000,Units=km
new line.10271402 bus1=BBT2594140.1.2.0,bus2=BBT2594147.1.2.0,Phases=2,Linecode=BT316_BT316_7_2_1,Length=0.000501000,Units=km
new line.10271479 bus1=BBT2594161.1.2.0,bus2=BBT2594168.1.2.0,Phases=2,Linecode=BT316_BT316_7_2_1,Length=0.000501000,Units=km
new line.10271731 bus1=BBT2594175.1.2.0,bus2=BBT2594182.1.2.0,Phases=2,Linecode=BT808_BT808_4_2_3,Length=0.040216000,Units=km
new line.10271766 bus1=BBT2594189.1.2.0,bus2=BBT2594196.1.2.0,Phases=2,Linecode=BT808_BT808_4_2_3,Length=0.048123000,Units=km
new line.10271794 bus1=BBT2594196.1.2.0,bus2=BBT2594203.1.2.0,Phases=2,Linecode=BT808_BT808_4_2_3,Length=0.047400000,Units=km
new line.10271822 bus1=BBT2594203.1.2.0,bus2=BBT2594210.1.2.0,Phases=2,Linecode=BT808_BT808_4_2_3,Length=0.048815000,Units=km
new line.10403639 bus1=BBT2622175.1.2.0,bus2=BBT2622182.1.2.0,Phases=2,Linecode=BT316_BT316_7_2_1,Length=0.000501000,Units=km
new line.10404332 bus1=BBT2622259.1.2.0,bus2=BBT2622266.1.2.0,Phases=2,Linecode=BT316_BT316_7_2_1,Length=0.000501000,Units=km
new line.10405179 bus1=BBT2622273.1.2.0,bus2=BBT2622280.1.2.0,Phases=2,Linecode=BT316_BT316_7_2_1,Length=0.000501000,Units=km
new line.10410016 bus1=BBT2622665.1.2.0,bus2=BBT2622672.1.2.0,Phases=2,Linecode=BT316_BT316_7_2_1,Length=0.000501000,Units=km
new line.10410163 bus1=BBT2622679.1.2.0,bus2=BBT2622686.1.2.0,Phases=2,Linecode=BT316_BT316_7_2_1,Length=0.000501000,Units=km
new line.10414125 bus1=BBT2623680.1.2.0,bus2=BBT2623687.1.2.0,Phases=2,Linecode=BT317_BT317_7_2_1,Length=0.000505000,Units=km
new line.10420229 bus1=BBT2626060.1.2.0,bus2=BBT2626067.1.2.0,Phases=2,Linecode=BT316_BT316_7_2_1,Length=0.000501000,Units=km
new line.10420733 bus1=BBT2626228.1.2.0,bus2=BBT2626235.1.2.0,Phases=2,Linecode=BT316_BT316_7_2_1,Length=0.000501000,Units=km
new line.10421755 bus1=BBT2626312.1.2.0,bus2=BBT2626319.1.2.0,Phases=2,Linecode=BT316_BT316_7_2_1,Length=0.000501000,Units=km
new line.10421923 bus1=BBT2626347.1.2.0,bus2=BBT2626354.1.2.0,Phases=2,Linecode=BT316_BT316_7_2_1,Length=0.000501000,Units=km
new line.10422098 bus1=BBT2626410.1.2.0,bus2=BBT2626417.1.2.0,Phases=2,Linecode=BT316_BT316_7_2_1,Length=0.000501000,Units=km
new line.10422259 bus1=BBT2626515.1.2.0,bus2=BBT2626522.1.2.0,Phases=2,Linecode=BT307_BT307_7_2_1,Length=0.000501000,Units=km
new line.10422560 bus1=BBT2626571.1.2.0,bus2=BBT2626578.1.2.0,Phases=2,Linecode=BT316_BT316_7_2_1,Length=0.000501000,Units=km
new line.10422959 bus1=BBT2626641.1.2.0,bus2=BBT2626648.1.2.0,Phases=2,Linecode=BT316_BT316_7_2_1,Length=0.000501000,Units=km
new line.10423239 bus1=BBT2626669.1.2.0,bus2=BBT2626676.1.2.0,Phases=2,Linecode=BT316_BT316_7_2_1,Length=0.000501000,Units=km
new line.10713872 bus1=BBT2659289.1.2.3.0,bus2=BBT2659296.1.2.3.0,Phases=3,Linecode=BT810_BT810_4_3_4,Length=0.041646000,Units=km
new line.10713907 bus1=BBT2659296.1.2.3.0,bus2=BBT2659303.1.2.3.0,Phases=3,Linecode=BT810_BT810_4_3_4,Length=0.041646000,Units=km
new line.11694586 bus1=BBT2803972.1.2.0,bus2=BBT2803979.1.2.0,Phases=2,Linecode=BT316_BT316_7_2_1,Length=0.000501000,Units=km
new line.12797310 bus1=BBT3049287.1.2.0,bus2=BBT3049294.1.2.0,Phases=2,Linecode=BT316_BT316_7_2_1,Length=0.000501000,Units=km
new line.12911298 bus1=BBT3105343.1.2.0,bus2=BBT3105350.1.2.0,Phases=2,Linecode=BT316_BT316_7_2_1,Length=0.000501000,Units=km
new line.12915162 bus1=BBT3107030.1.2.0,bus2=BBT3107037.1.2.0,Phases=2,Linecode=BT316_BT316_7_2_1,Length=0.000501000,Units=km
new line.12917626 bus1=BBT3108003.1.2.0,bus2=BBT3108010.1.2.0,Phases=2,Linecode=BT316_BT316_7_2_1,Length=0.000501000,Units=km
new line.12918109 bus1=BBT3108234.1.2.0,bus2=BBT3108241.1.2.0,Phases=2,Linecode=BT316_BT316_7_2_1,Length=0.000501000,Units=km
new line.12923065 bus1=BBT3109823.1.2.0,bus2=BBT3109830.1.2.0,Phases=2,Linecode=BT316_BT316_7_2_1,Length=0.000501000,Units=km
new line.12927139 bus1=BBT3111181.1.2.0,bus2=BBT3111188.1.2.0,Phases=2,Linecode=BT304_BT304_7_2_1,Length=0.000501000,Units=km
new line.12927195 bus1=BBT3111209.1.2.0,bus2=BBT3111216.1.2.0,Phases=2,Linecode=BT304_BT304_7_2_1,Length=0.000501000,Units=km
new line.12927216 bus1=BBT3111195.1.2.0,bus2=BBT3111202.1.2.0,Phases=2,Linecode=BT304_BT304_7_2_1,Length=0.000501000,Units=km
new line.12927384 bus1=BBT3111300.1.2.0,bus2=BBT3111307.1.2.0,Phases=2,Linecode=BT316_BT316_7_2_1,Length=0.000502000,Units=km
new line.12927405 bus1=BBT3111314.1.2.0,bus2=BBT3111321.1.2.0,Phases=2,Linecode=BT316_BT316_7_2_1,Length=0.000501000,Units=km
new line.12927454 bus1=BBT3111342.1.2.0,bus2=BBT3111349.1.2.0,Phases=2,Linecode=BT316_BT316_7_2_1,Length=0.000502000,Units=km
new line.12928490 bus1=BBT3111678.1.2.0,bus2=BBT3111685.1.2.0,Phases=2,Linecode=BT316_BT316_7_2_1,Length=0.000501000,Units=km
new line.12931290 bus1=BBT3121569.1.2.0,bus2=BBT3121576.1.2.0,Phases=2,Linecode=BT316_BT316_7_2_1,Length=0.000501000,Units=km
new line.12935077 bus1=BBT3123298.1.2.0,bus2=BBT3123305.1.2.0,Phases=2,Linecode=BT316_BT316_7_2_1,Length=0.000501000,Units=km
new line.12939039 bus1=BBT3124523.1.2.0,bus2=BBT3124530.1.2.0,Phases=2,Linecode=BT518_BT518_7_2_1,Length=0.000502000,Units=km
new line.12939046 bus1=BBT3124530.1.2.0,bus2=BBT3124537.1.2.0,Phases=2,Linecode=BT816_BT816_4_2_2,Length=0.034859000,Units=km
new line.12939088 bus1=BBT3124537.1.2.0,bus2=BBT3124544.1.2.0,Phases=2,Linecode=BT816_BT816_4_2_2,Length=0.022594000,Units=km
new line.13031985 bus1=BBT3201943.1.2.0,bus2=BBT3201950.1.2.0,Phases=2,Linecode=BT316_BT316_7_2_1,Length=0.000501000,Units=km
new line.13033140 bus1=BBT3204190.1.2.0,bus2=BBT3204197.1.2.0,Phases=2,Linecode=BT808_BT808_4_2_3,Length=0.065544000,Units=km
new line.17140047 bus1=BBT49686548.1.2.3.0,bus2=BBT49686555.1.2.3.0,Phases=3,Linecode=BT514_BT514_7_3_1,Length=0.000501000,Units=km
new line.17209949 bus1=BBT56885292.1.2.0,bus2=BBT56885299.1.2.0,Phases=2,Linecode=BT518_BT518_7_2_1,Length=0.000501000,Units=km
new line.17343992 bus1=BBT61226006.1.2.3.0,bus2=BBT61226013.1.2.3.0,Phases=3,Linecode=BT514_BT514_7_3_1,Length=0.000501000,Units=km
new line.17344006 bus1=BBT61226615.1.2.3.0,bus2=BBT61226622.1.2.3.0,Phases=3,Linecode=BT514_BT514_7_3_1,Length=0.000501000,Units=km
new line.17344524 bus1=BBT61238781.1.2.3.0,bus2=BBT61238788.1.2.3.0,Phases=3,Linecode=BT514_BT514_7_3_1,Length=0.000502000,Units=km
new line.17706116 bus1=BBT80050245.1.2.3.0,bus2=BBT772488.1.2.3.0,Phases=3,Linecode=BT108_BT107_7_3_1,Length=0.016131000,Units=km
new line.17706340 bus1=BBT80059800.1.2.3.0,bus2=BBT80059807.1.2.3.0,Phases=3,Linecode=BT514_BT514_7_3_1,Length=0.000501000,Units=km
new line.17707194 bus1=BBT80089277.1.2.3.0,bus2=BBT80089284.1.2.3.0,Phases=3,Linecode=BT514_BT514_7_3_1,Length=0.000502000,Units=km
new line.13549782 bus1=BBT4344175.1.2.0,bus2=BBT4344182.1.2.0,Phases=2,Linecode=BT307_BT307_7_2_1,Length=0.000501000,Units=km
new line.13601225 bus1=BBT4461761.1.2.0,bus2=BBT4461768.1.2.0,Phases=2,Linecode=BT304_BT304_7_2_1,Length=0.000501000,Units=km
new line.13602296 bus1=BBT4463245.1.2.0,bus2=BBT4463252.1.2.0,Phases=2,Linecode=BT307_BT307_7_2_1,Length=0.000501000,Units=km
new line.16459416 bus1=BBT25534588.1.2.0,bus2=BBT25534595.1.2.0,Phases=2,Linecode=BT316_BT316_7_2_1,Length=0.000501000,Units=km
new line.16459619 bus1=BBT25543611.1.2.0,bus2=BBT25543618.1.2.0,Phases=2,Linecode=BT316_BT316_7_2_1,Length=0.000501000,Units=km
new line.16459675 bus1=BBT25548406.1.2.0,bus2=BBT25548413.1.2.0,Phases=2,Linecode=BT518_BT518_7_2_1,Length=0.000501000,Units=km