new line.RML10027599 bus1=BBT41738349.1.0,bus2=RML1010027599.1.0,Phases=1,Linecode=CABBTG02_4_1,Length=0.02,Units=km
new line.RML10030308 bus1=BBT4324547.1.0,bus2=RML1010030308.1.0,Phases=1,Linecode=CABBTG02_4_1,Length=0.02,Units=km
new line.RML10030343 bus1=BBT4316546.1.0,bus2=RML1010030343.1.0,Phases=1,Linecode=CABBTG02_4_1,Length=0.02,Units=km
new line.RML10030378 bus1=BBT4322846.1.0,bus2=RML1010030378.1.0,Phases=1,Linecode=CABBTG02_4_1,Length=0.02,Units=km
new line.RML10030707 bus1=BBT4322846.1.0,bus2=RML1010030707.1.0,Phases=1,Linecode=CABBTG02_4_1,Length=0.02,Units=km
new line.RML10031225 bus1=BBT4341956.1.0,bus2=RML1010031225.1.0,Phases=1,Linecode=CABBTG02_4_1,Length=0.02,Units=km
new line.RML10032214 bus1=BBT921357.1.0,bus2=RML1010032214.1.0,Phases=1,Linecode=CABBTG02_4_1,Length=0.02,Units=km
new line.RML10041525 bus1=BBT2751976.2.0,bus2=RML1010041525.2.0,Phases=1,Linecode=CABBTG01_4_1,Length=0.02,Units=km
new line.RML10041526 bus1=BBT2751976.2.0,bus2=RML1010041526.2.0,Phases=1,Linecode=CABBTG01_4_1,Length=0.02,Units=km
new line.RML10052614 bus1=BBT931675.1.2.0,bus2=RML1010052614.1.2.0,Phases=2,Linecode=CABBTG04_4_2,Length=0.02,Units=km
new line.RML10052615 bus1=BBT931675.1.2.0,bus2=RML1010052615.1.2.0,Phases=2,Linecode=CABBTG04_4_2,Length=0.02,Units=km
new line.RML10068491 bus1=BBT2202560.3.0,bus2=RML1010068491.3.0,Phases=1,Linecode=CABBTG02_4_1,Length=0.02,Units=km
new line.RML10094772 bus1=BBT2155401.1.0,bus2=RML1010094772.1.0,Phases=1,Linecode=CABBTG01_4_1,Length=0.02,Units=km
new line.RML10094847 bus1=BBT2580420.1.0,bus2=RML1010094847.1.0,Phases=1,Linecode=CABBTG01_4_1,Length=0.02,Units=km
new line.RML10094851 bus1=BBT4323035.1.0,bus2=RML1010094851.1.0,Phases=1,Linecode=CABBTG01_4_1,Length=0.02,Units=km
new line.RML10094864 bus1=BBT2594182.1.0,bus2=RML1010094864.1.0,Phases=1,Linecode=CABBTG01_4_1,Length=0.02,Units=km
new line.RML10095241 bus1=BBT925130.2.0,bus2=RML1010095241.2.0,Phases=1,Linecode=CABBTG01_4_1,Length=0.02,Units=km
new line.RML10095250 bus1=BBT744712.2.0,bus2=RML1010095250.2.0,Phases=1,Linecode=CABBTG01_4_1,Length=0.02,Units=km
new line.RML10095259 bus1=BBT931675.2.0,bus2=RML1010095259.2.0,Phases=1,Linecode=CABBTG01_4_1,Length=0.02,Units=km
new line.RML10095415 bus1=BBT2752494.1.0,bus2=RML1010095415.1.0,Phases=1,Linecode=CABBTG01_4_1,Length=0.02,Units=km
new line.RML10095451 bus1=BBT3049294.2.0,bus2=RML1010095451.2.0,Phases=1,Linecode=CABBTG01_4_1,Length=0.02,Units=km
new line.RML10169018 bus1=BBT928014.1.0,bus2=RML1010169018.1.0,Phases=1,Linecode=CABBTG01_4_1,Length=0.02,Units=km
new line.RML10169029 bus1=BBT923744.1.2.0,bus2=RML1010169029.1.2.0,Phases=2,Linecode=CABBTG05_4_2,Length=0.02,Units=km
new line.RML10169035 bus1=BBT3369698.1.2.0,bus2=RML1010169035.1.2.0,Phases=2,Linecode=CABBTG05_4_2,Length=0.02,Units=km
new line.RML10169049 bus1=BBT3369698.1.0,bus2=RML1010169049.1.0,Phases=1,Linecode=CABBTG02_4_1,Length=0.02,Units=km
new line.RML10169055 bus1=BBT924094.1.0,bus2=RML1010169055.1.0,Phases=1,Linecode=CABBTG01_4_1,Length=0.02,Units=km
new line.RML10169059 bus1=BBT2202665.1.0,bus2=RML1010169059.1.0,Phases=1,Linecode=CABBTG01_4_1,Length=0.02,Units=km
new line.RML10169765 bus1=BBT894407.1.0,bus2=RML1010169765.1.0,Phases=1,Linecode=CABBTG01_4_1,Length=0.02,Units=km
new line.RML10169771 bus1=BBT894414.1.0,bus2=RML1010169771.1.0,Phases=1,Linecode=CABBTG01_4_1,Length=0.02,Units=km
new line.RML10169782 bus1=BBT894092.1.0,bus2=RML1010169782.1.0,Phases=1,Linecode=CABBTG01_4_1,Length=0.02,Units=km
new line.RML10169789 bus1=BBT894358.1.0,bus2=RML1010169789.1.0,Phases=1,Linecode=CABBTG01_4_1,Length=0.02,Units=km
new line.RML10169797 bus1=BBT4406174.1.0,bus2=RML1010169797.1.0,Phases=1,Linecode=CABBTG01_4_1,Length=0.02,Units=km
new line.RML10169799 bus1=BBT4406216.1.0,bus2=RML1010169799.1.0,Phases=1,Linecode=CABBTG01_4_1,Length=0.02,Units=km
new line.RML10169802 bus1=BBT4406209.1.0,bus2=RML1010169802.1.0,Phases=1,Linecode=CABBTG01_4_1,Length=0.02,Units=km
new line.RML10169806 bus1=BBT4406272.1.0,bus2=RML1010169806.1.0,Phases=1,Linecode=CABBTG01_4_1,Length=0.02,Units=km
new line.RML10169810 bus1=BBT4406272.1.0,bus2=RML1010169810.1.0,Phases=1,Linecode=CABBTG01_4_1,Length=0.02,Units=km
new line.RML10169816 bus1=BBT893287.1.0,bus2=RML1010169816.1.0,Phases=1,Linecode=CABBTG02_4_1,Length=0.02,Units=km
new line.RML10169822 bus1=BBT896052.1.0,bus2=RML1010169822.1.0,Phases=1,Linecode=CABBTG02_4_1,Length=0.02,Units=km
new line.RML10169836 bus1=BBT893497.1.2.0,bus2=RML1010169836.1.2.0,Phases=2,Linecode=CABBTG05_4_2,Length=0.02,Units=km
new line.RML10169840 bus1=BBT893420.1.0,bus2=RML1010169840.1.0,Phases=1,Linecode=CABBTG01_4_1,Length=0.02,Units=km
new line.RML10169853 bus1=BBT893371.1.2.0,bus2=RML1010169853.1.2.0,Phases=2,Linecode=CABBTG05_4_2,Length=0.02,Units=km
new line.RML10172573 bus1=BBT773622.1.2.0,bus2=RML1010172573.1.2.0,Phases=2,Linecode=CABBTG04_4_2,Length=0.02,Units=km
new line.RML10218741 bus1=BBT150793016.1.2.3.0,bus2=RML1010218741.1.2.3.0,Phases=3,Linecode=CABBTG08_4_3,Length=0.02,Units=km
new line.RML10314538 bus1=BBT922225.2.0,bus2=RML1010314538.2.0,Phases=1,Linecode=CABBTG02_4_1,Length=0.02,Units=km
new line.RML10324870 bus1=BBT2266295.2.3.0,bus2=RML1010324870.2.3.0,Phases=2,Linecode=CABBTG05_4_2,Length=0.02,Units=km
new line.RML10324889 bus1=BBT751740.1.0,bus2=RML1010324889.1.0,Phases=1,Linecode=CABBTG02_4_1,Length=0.02,Units=km
new line.RML10324892 bus1=BBT892902.1.2.3.0,bus2=RML1010324892.1.2.3.0,Phases=3,Linecode=CABBTG06_4_3,Length=0.014,Units=km
new line.RML10324978 bus1=BBT2202616.3.0,bus2=RML1010324978.3.0,Phases=1,Linecode=CABBTG02_4_1,Length=0.02,Units=km
new line.RML10324998 bus1=BBT928714.2.0,bus2=RML1010324998.2.0,Phases=1,Linecode=CABBTG02_4_1,Length=0.02,Units=km
new line.RML10325035 bus1=BBT734177.1.0,bus2=RML1010325035.1.0,Phases=1,Linecode=CABBTG02_4_1,Length=0.02,Units=km
new line.RML10325071 bus1=BBT2202469.3.0,bus2=RML1010325071.3.0,Phases=1,Linecode=CABBTG02_4_1,Length=0.02,Units=km
new line.RML10325094 bus1=BBT770493.1.2.0,bus2=RML1010325094.1.2.0,Phases=2,Linecode=CABBTG05_4_2,Length=0.02,Units=km
new line.RML10325402 bus1=BBT2397300.2.0,bus2=RML1010325402.2.0,Phases=1,Linecode=CABBTG02_4_1,Length=0.02,Units=km
new line.RML10325461 bus1=BBT894106.2.3.0,bus2=RML1010325461.2.3.0,Phases=2,Linecode=CABBTG05_4_2,Length=0.02,Units=km
new line.RML10325765 bus1=BBT895814.2.0,bus2=RML1010325765.2.0,Phases=1,Linecode=CABBTG02_4_1,Length=0.02,Units=km
new line.RML10326392 bus1=BBT921077.3.0,bus2=RML1010326392.3.0,Phases=1,Linecode=CABBTG01_4_1,Length=0.02,Units=km
new line.RML10326395 bus1=BBT921077.3.0,bus2=RML1010326395.3.0,Phases=1,Linecode=CABBTG01_4_1,Length=0.02,Units=km
new line.RML10326396 bus1=BBT921070.3.0,bus2=RML1010326396.3.0,Phases=1,Linecode=CABBTG02_4_1,Length=0.02,Units=km
new line.RML10032880 bus1=BBT22070323.1.0,bus2=RML1010032880.1.0,Phases=1,Linecode=CABBTG02_4_1,Length=0.02,Units=km
new line.RML10033150 bus1=BBT932634.1.0,bus2=RML1010033150.1.0,Phases=1,Linecode=CABBTG02_4_1,Length=0.02,Units=km
new line.RML10035009 bus1=BBT2752515.1.0,bus2=RML1010035009.1.0,Phases=1,Linecode=CABBTG01_4_1,Length=0.02,Units=km
new line.RML10126216 bus1=BBT894624.1.0,bus2=RML1010126216.1.0,Phases=1,Linecode=CABBTG01_4_1,Length=0.02,Units=km
new line.RML10126294 bus1=BBT893301.3.0,bus2=RML1010126294.3.0,Phases=1,Linecode=CABBTG01_4_1,Length=0.02,Units=km
new line.RML10126827 bus1=BBT927755.1.0,bus2=RML1010126827.1.0,Phases=1,Linecode=CABBTG01_4_1,Length=0.02,Units=km
new line.RML10127045 bus1=BBT2227676.1.0,bus2=RML1010127045.1.0,Phases=1,Linecode=CABBTG01_4_1,Length=0.02,Units=km
new line.RML10174255 bus1=BBT2406442.1.0,bus2=RML1010174255.1.0,Phases=1,Linecode=CABBTG01_4_1,Length=0.02,Units=km
new line.RML10174261 bus1=BBT4406265.1.0,bus2=RML1010174261.1.0,Phases=1,Linecode=CABBTG01_4_1,Length=0.02,Units=km
new line.RML10174273 bus1=BBT4406237.1.0,bus2=RML1010174273.1.0,Phases=1,Linecode=CABBTG01_4_1,Length=0.02,Units=km
new line.RML10188863 bus1=BBT2168967.1.0,bus2=RML1010188863.1.0,Phases=1,Linecode=CABBTG02_4_1,Length=0.02,Units=km
new line.RML10188864 bus1=BBT772677.1.0,bus2=RML1010188864.1.0,Phases=1,Linecode=CABBTG02_4_1,Length=0.02,Units=km
new line.RML10188865 bus1=BBT772593.1.2.3.0,bus2=RML1010188865.1.2.3.0,Phases=3,Linecode=CABBTG06_4_3,Length=0.02,Units=km
new line.RML10188869 bus1=BBT735444.2.0,bus2=RML1010188869.2.0,Phases=1,Linecode=CABBTG01_4_1,Length=0.02,Units=km
new line.RML10188870 bus1=BBT735059.1.0,bus2=RML1010188870.1.0,Phases=1,Linecode=CABBTG02_4_1,Length=0.02,Units=km
new line.RML10291179 bus1=BBT151789889.1.0,bus2=RML1010291179.1.0,Phases=1,Linecode=CABBTG02_4_1,Length=0.02,Units=km
new line.RML10317398 bus1=BBT931150.1.0,bus2=RML1010317398.1.0,Phases=1,Linecode=CABBTG02_4_1,Length=0.02,Units=km
new line.RML10329938 bus1=BBT923506.1.2.0,bus2=RML1010329938.1.2.0,Phases=2,Linecode=CABBTG05_4_2,Length=0.02,Units=km
new line.RML10329944 bus1=BBT923716.1.2.0,bus2=RML1010329944.1.2.0,Phases=2,Linecode=CABBTG05_4_2,Length=0.02,Units=km
new line.RML10329950 bus1=BBT923471.2.0,bus2=RML1010329950.2.0,Phases=1,Linecode=CABBTG01_4_1,Length=0.02,Units=km
new line.RML10329952 bus1=BBT923842.1.2.0,bus2=RML1010329952.1.2.0,Phases=2,Linecode=CABBTG05_4_2,Length=0.02,Units=km
new line.RML10329954 bus1=BBT2495804.2.0,bus2=RML1010329954.2.0,Phases=1,Linecode=CABBTG01_4_1,Length=0.02,Units=km
new line.RML10329957 bus1=BBT924115.3.0,bus2=RML1010329957.3.0,Phases=1,Linecode=CABBTG01_4_1,Length=0.02,Units=km
new line.RML10329960 bus1=BBT928301.1.2.0,bus2=RML1010329960.1.2.0,Phases=2,Linecode=CABBTG05_4_2,Length=0.02,Units=km
new line.RML10329967 bus1=BBT921756.1.0,bus2=RML1010329967.1.0,Phases=1,Linecode=CABBTG01_4_1,Length=0.02,Units=km
new line.RML10329977 bus1=BBT751502.2.0,bus2=RML1010329977.2.0,Phases=1,Linecode=CABBTG01_4_1,Length=0.02,Units=km
new line.RML10329980 bus1=BBT928714.1.0,bus2=RML1010329980.1.0,Phases=1,Linecode=CABBTG01_4_1,Length=0.02,Units=km
new line.RML10329987 bus1=BBT928637.1.2.3.0,bus2=RML1010329987.1.2.3.0,Phases=3,Linecode=CABBTG06_4_3,Length=0.02,Units=km
new line.RML10329990 bus1=BBT927601.2.3.0,bus2=RML1010329990.2.3.0,Phases=2,Linecode=CABBTG05_4_2,Length=0.02,Units=km
new line.RML10330755 bus1=BBT920531.1.0,bus2=RML1010330755.1.0,Phases=1,Linecode=CABBTG01_4_1,Length=0.02,Units=km
new line.RML10330761 bus1=BBT930429.2.0,bus2=RML1010330761.2.0,Phases=1,Linecode=CABBTG01_4_1,Length=0.02,Units=km
new line.RML10330763 bus1=BBT927748.1.0,bus2=RML1010330763.1.0,Phases=1,Linecode=CABBTG02_4_1,Length=0.02,Units=km
new line.RML10330766 bus1=BBT921756.2.3.0,bus2=RML1010330766.2.3.0,Phases=2,Linecode=CABBTG05_4_2,Length=0.02,Units=km
new line.RML10330774 bus1=BBT2227669.1.2.0,bus2=RML1010330774.1.2.0,Phases=2,Linecode=CABBTG05_4_2,Length=0.02,Units=km
new line.RML10330782 bus1=BBT922246.1.2.0,bus2=RML1010330782.1.2.0,Phases=2,Linecode=CABBTG04_4_2,Length=0.02,Units=km
new line.RML10330791 bus1=BBT920503.3.0,bus2=RML1010330791.3.0,Phases=1,Linecode=CABBTG01_4_1,Length=0.02,Units=km
new line.RML10332352 bus1=BBT924052.1.0,bus2=RML1010332352.1.0,Phases=1,Linecode=CABBTG02_4_1,Length=0.02,Units=km
new line.RML10346730 bus1=BBT734226.1.2.0,bus2=RML1010346730.1.2.0,Phases=2,Linecode=CABBTG05_4_2,Length=0.02,Units=km
new line.RML10346732 bus1=BBT734226.1.0,bus2=RML1010346732.1.0,Phases=1,Linecode=CABBTG02_4_1,Length=0.02,Units=km
new line.RML10360390 bus1=BBT148504807.1.2.0,bus2=RML1010360390.1.2.0,Phases=2,Linecode=CABBTG05_4_2,Length=0.02,Units=km
new line.RML10360422 bus1=BBT894386.1.2.3.0,bus2=RML1010360422.1.2.3.0,Phases=3,Linecode=CABBTG06_4_3,Length=0.02,Units=km
new line.RML10360477 bus1=BBT894393.2.0,bus2=RML1010360477.2.0,Phases=1,Linecode=CABBTG01_4_1,Length=0.02,Units=km
new line.RML10360480 bus1=BBT4406258.1.2.0,bus2=RML1010360480.1.2.0,Phases=2,Linecode=CABBTG05_4_2,Length=0.02,Units=km
new line.RML10360500 bus1=BBT893322.3.0,bus2=RML1010360500.3.0,Phases=1,Linecode=CABBTG01_4_1,Length=0.02,Units=km
new line.RML10360514 bus1=BBT899447.1.2.3.0,bus2=RML1010360514.1.2.3.0,Phases=3,Linecode=CABBTG06_4_3,Length=0.02,Units=km
new line.RML10360537 bus1=BBT904739.1.2.0,bus2=RML1010360537.1.2.0,Phases=2,Linecode=CABBTG04_4_2,Length=0.02,Units=km
new line.RML10360552 bus1=BBT898306.2.0,bus2=RML1010360552.2.0,Phases=1,Linecode=CABBTG01_4_1,Length=0.02,Units=km
new line.RML10360582 bus1=BBT893546.2.0,bus2=RML1010360582.2.0,Phases=1,Linecode=CABBTG01_4_1,Length=0.02,Units=km
new line.RML10360589 bus1=BBT893490.3.0,bus2=RML1010360589.3.0,Phases=1,Linecode=CABBTG01_4_1,Length=0.02,Units=km
new line.RML10363768 bus1=BBT731755.1.2.0,bus2=RML1010363768.1.2.0,Phases=2,Linecode=CABBT807_4_2,Length=0.02,Units=km
new line.RML10363798 bus1=BBT3486654.2.0,bus2=RML1010363798.2.0,Phases=1,Linecode=CABBTG02_4_1,Length=0.02,Units=km
new line.RML10363800 bus1=BBT923324.2.3.0,bus2=RML1010363800.2.3.0,Phases=2,Linecode=CABBT521_7_2,Length=0.013,Units=km
new line.RML10384414 bus1=BBT924542.2.0,bus2=RML1010384414.2.0,Phases=1,Linecode=CABBTG02_4_1,Length=0.02,Units=km
new line.RML10395655 bus1=BBT2202588.2.0,bus2=RML1010395655.2.0,Phases=1,Linecode=CABBTG02_4_1,Length=0.02,Units=km
new line.RML10398424 bus1=BBT739714.1.0,bus2=RML1010398424.1.0,Phases=1,Linecode=CABBTG02_4_1,Length=0.02,Units=km
new line.RML10398428 bus1=BBT735003.1.0,bus2=RML1010398428.1.0,Phases=1,Linecode=CABBTG02_4_1,Length=0.02,Units=km
new line.RML10408837 bus1=BBT153431085.1.2.0,bus2=RML1010408837.1.2.0,Phases=2,Linecode=CABBTG05_4_2,Length=0.023,Units=km
new line.RML10409054 bus1=BBT2202665.3.0,bus2=RML1010409054.3.0,Phases=1,Linecode=CABBTG02_4_1,Length=0.02,Units=km
new line.RML10037464 bus1=BBT88646350.1.0,bus2=RML1010037464.1.0,Phases=1,Linecode=CABBTG02_4_1,Length=0.02,Units=km
new line.RML10046827 bus1=BBT31878618.1.2.0,bus2=RML1010046827.1.2.0,Phases=2,Linecode=CABBTG05_4_2,Length=0.02,Units=km
new line.RML10047559 bus1=BBT882871.1.2.0,bus2=RML1010047559.1.2.0,Phases=2,Linecode=CABBTG13_4_2,Length=0.02,Units=km
new line.RML10061360 bus1=BBT2580420.1.2.0,bus2=RML1010061360.1.2.0,Phases=2,Linecode=CABBTG04_4_2,Length=0.02,Units=km
new line.RML10123564 bus1=BBT744775.1.2.0,bus2=RML1010123564.1.2.0,Phases=2,Linecode=CABBTG05_4_2,Length=0.02,Units=km
new line.RML10123942 bus1=BBT927573.2.0,bus2=RML1010123942.2.0,Phases=1,Linecode=CABBTG01_4_1,Length=0.02,Units=km
new line.RML10124307 bus1=BBT734828.1.0,bus2=RML1010124307.1.0,Phases=1,Linecode=CABBTG01_4_1,Length=0.02,Units=km
new line.RML10125229 bus1=BBT2227725.3.0,bus2=RML1010125229.3.0,Phases=1,Linecode=CABBTG01_4_1,Length=0.02,Units=km
new line.RML10125324 bus1=BBT929708.2.0,bus2=RML1010125324.2.0,Phases=1,Linecode=CABBTG01_4_1,Length=0.02,Units=km
new line.RML10125354 bus1=BBT770486.2.0,bus2=RML1010125354.2.0,Phases=1,Linecode=CABBTG01_4_1,Length=0.02,Units=km
new line.RML10125565 bus1=BBT904375.1.2.3.0,bus2=RML1010125565.1.2.3.0,Phases=3,Linecode=CABBTG06_4_3,Length=0.02,Units=km
new line.RML10125668 bus1=BBT894666.1.3.0,bus2=RML1010125668.1.3.0,Phases=2,Linecode=CABBTG05_4_2,Length=0.02,Units=km
new line.RML10179398 bus1=BBT929897.1.2.0,bus2=RML1010179398.1.2.0,Phases=2,Linecode=CABBTG04_4_2,Length=0.02,Units=km
new line.RML10179403 bus1=BBT928252.1.2.0,bus2=RML1010179403.1.2.0,Phases=2,Linecode=CABBTG04_4_2,Length=0.02,Units=km
new line.RML10179411 bus1=BBT929722.1.2.0,bus2=RML1010179411.1.2.0,Phases=2,Linecode=CABBTG04_4_2,Length=0.02,Units=km
new line.RML10179414 bus1=BBT926726.1.2.0,bus2=RML1010179414.1.2.0,Phases=2,Linecode=CABBTG04_4_2,Length=0.02,Units=km
new line.RML10179415 bus1=BBT926726.1.2.0,bus2=RML1010179415.1.2.0,Phases=2,Linecode=CABBTG04_4_2,Length=0.02,Units=km
new line.RML10179419 bus1=BBT928420.1.2.0,bus2=RML1010179419.1.2.0,Phases=2,Linecode=CABBTG04_4_2,Length=0.02,Units=km
new line.RML10179420 bus1=BBT920496.1.2.0,bus2=RML1010179420.1.2.0,Phases=2,Linecode=CABBTG04_4_2,Length=0.02,Units=km
new line.RML10179422 bus1=BBT920489.1.2.0,bus2=RML1010179422.1.2.0,Phases=2,Linecode=CABBTG04_4_2,Length=0.02,Units=km
new line.RML10299873 bus1=BBT920496.1.0,bus2=RML1010299873.1.0,Phases=1,Linecode=CABBTG02_4_1,Length=0.02,Units=km
new line.RML10299901 bus1=BBT2227732.2.3.0,bus2=RML1010299901.2.3.0,Phases=2,Linecode=CABBTG05_4_2,Length=0.02,Units=km
new line.RML10309645 bus1=BBT2202672.3.0,bus2=RML1010309645.3.0,Phases=1,Linecode=CABBTG02_4_1,Length=0.02,Units=km
new line.RML10324087 bus1=BBT2202462.2.0,bus2=RML1010324087.2.0,Phases=1,Linecode=CABBTG02_4_1,Length=0.02,Units=km
new line.RML10324128 bus1=BBT2227655.1.0,bus2=RML1010324128.1.0,Phases=1,Linecode=CABBTG02_4_1,Length=0.02,Units=km
new line.RML10324138 bus1=BBT2227718.2.0,bus2=RML1010324138.2.0,Phases=1,Linecode=CABBTG02_4_1,Length=0.02,Units=km
new line.RML10324171 bus1=BBT734177.2.0,bus2=RML1010324171.2.0,Phases=1,Linecode=CABBTG02_4_1,Length=0.02,Units=km
new line.RML10324238 bus1=BBT732035.1.2.0,bus2=RML1010324238.1.2.0,Phases=2,Linecode=CABBTG05_4_2,Length=0.02,Units=km
new line.RML10324278 bus1=BBT2202560.3.0,bus2=RML1010324278.3.0,Phases=1,Linecode=CABBTG01_4_1,Length=0.02,Units=km
new line.RML10324290 bus1=BBT787545.2.3.0,bus2=RML1010324290.2.3.0,Phases=2,Linecode=CABBTG05_4_2,Length=0.02,Units=km
new line.RML10324292 bus1=BBT928714.1.2.3.0,bus2=RML1010324292.1.2.3.0,Phases=3,Linecode=CABBTG06_4_3,Length=0.02,Units=km
new line.RML10324399 bus1=BBT751502.1.2.0,bus2=RML1010324399.1.2.0,Phases=2,Linecode=CABBTG05_4_2,Length=0.02,Units=km
new line.RML10324423 bus1=BBT904396.1.2.3.0,bus2=RML1010324423.1.2.3.0,Phases=3,Linecode=CABBTG06_4_3,Length=0.02,Units=km
new line.RML10324426 bus1=BBT734618.1.2.0,bus2=RML1010324426.1.2.0,Phases=2,Linecode=CABBTG05_4_2,Length=0.02,Units=km
new line.RML10324430 bus1=BBT927587.3.0,bus2=RML1010324430.3.0,Phases=1,Linecode=CABBTG01_4_1,Length=0.02,Units=km
new line.RML10324483 bus1=BBT929470.1.2.0,bus2=RML1010324483.1.2.0,Phases=2,Linecode=CABBT801_4_2,Length=0.02,Units=km
new line.RML10324496 bus1=BBT923415.2.3.0,bus2=RML1010324496.2.3.0,Phases=2,Linecode=CABBTG05_4_2,Length=0.02,Units=km
new line.RML10324518 bus1=BBT734373.2.0,bus2=RML1010324518.2.0,Phases=1,Linecode=CABBTG02_4_1,Length=0.02,Units=km
new line.RML10324536 bus1=BBT2202581.1.0,bus2=RML1010324536.1.0,Phases=1,Linecode=CABBTG02_4_1,Length=0.02,Units=km
new line.RML10324549 bus1=BBT927615.3.0,bus2=RML1010324549.3.0,Phases=1,Linecode=CABBTG02_4_1,Length=0.02,Units=km
new line.RML10324556 bus1=BBT894162.1.0,bus2=RML1010324556.1.0,Phases=1,Linecode=CABBTG02_4_1,Length=0.02,Units=km
new line.RML10324559 bus1=BBT2202532.1.2.0,bus2=RML1010324559.1.2.0,Phases=2,Linecode=CABBTG05_4_2,Length=0.02,Units=km
new line.RML10324589 bus1=BBT3134988.2.0,bus2=RML1010324589.2.0,Phases=1,Linecode=CABBTG01_4_1,Length=0.02,Units=km
new line.RML10324617 bus1=BBT894085.1.0,bus2=RML1010324617.1.0,Phases=1,Linecode=CABBTG02_4_1,Length=0.02,Units=km
new line.RML10324631 bus1=BBT3522830.2.0,bus2=RML1010324631.2.0,Phases=1,Linecode=CABBTG02_4_1,Length=0.02,Units=km
new line.RML10324671 bus1=BBT929708.1.0,bus2=RML1010324671.1.0,Phases=1,Linecode=CABBTG01_4_1,Length=0.02,Units=km
new line.RML10324714 bus1=BBT2338010.2.0,bus2=RML1010324714.2.0,Phases=1,Linecode=CABBTG02_4_1,Length=0.02,Units=km
new line.RML10324742 bus1=BBT929561.1.0,bus2=RML1010324742.1.0,Phases=1,Linecode=CABBTG02_4_1,Length=0.02,Units=km
new line.RML10324814 bus1=BBT893553.1.2.0,bus2=RML1010324814.1.2.0,Phases=2,Linecode=CABBTG05_4_2,Length=0.02,Units=km
new line.RML10324825 bus1=BBT734485.2.0,bus2=RML1010324825.2.0,Phases=1,Linecode=CABBTG02_4_1,Length=0.02,Units=km
new line.RML10358480 bus1=BBT927853.1.2.3.0,bus2=RML1010358480.1.2.3.0,Phases=3,Linecode=CABBTG07_4_3,Length=0.018,Units=km
new line.RML10387746 bus1=BBT739525.1.2.0,bus2=RML1010387746.1.2.0,Phases=2,Linecode=CABBTG05_4_2,Length=0.02,Units=km
new line.RML10388194 bus1=BBT928644.1.0,bus2=RML1010388194.1.0,Phases=1,Linecode=CABBTG02_4_1,Length=0.02,Units=km
new line.RML10400736 bus1=BBT921441.1.2.0,bus2=RML1010400736.1.2.0,Phases=2,Linecode=CABBT811_4_2,Length=0.02,Units=km
new line.RML10401267 bus1=BBT735472.2.0,bus2=RML1010401267.2.0,Phases=1,Linecode=CABBTG02_4_1,Length=0.02,Units=km
new line.RML10415378 bus1=BBT921063.1.3.0,bus2=RML1010415378.1.3.0,Phases=2,Linecode=CABBTG05_4_2,Length=0.02,Units=km
new line.RML10415440 bus1=BBT734975.2.0,bus2=RML1010415440.2.0,Phases=1,Linecode=CABBTG02_4_1,Length=0.02,Units=km
new line.RML10415705 bus1=BBT893546.2.3.0,bus2=RML1010415705.2.3.0,Phases=2,Linecode=CABBTG05_4_2,Length=0.02,Units=km
new line.RML10326397 bus1=BBT921070.3.0,bus2=RML1010326397.3.0,Phases=1,Linecode=CABBTG01_4_1,Length=0.02,Units=km
new line.RML10326402 bus1=BBT2480026.1.2.3.0,bus2=RML1010326402.1.2.3.0,Phases=3,Linecode=CABBTG06_4_3,Length=0.02,Units=km
new line.RML10326407 bus1=BBT928154.1.2.3.0,bus2=RML1010326407.1.2.3.0,Phases=3,Linecode=CABBTG06_4_3,Length=0.02,Units=km
new line.RML10326415 bus1=BBT924136.2.0,bus2=RML1010326415.2.0,Phases=1,Linecode=CABBTG01_4_1,Length=0.02,Units=km
new line.RML10326422 bus1=BBT923793.1.0,bus2=RML1010326422.1.0,Phases=1,Linecode=CABBTG01_4_1,Length=0.02,Units=km
new line.RML10326432 bus1=BBT2202504.3.0,bus2=RML1010326432.3.0,Phases=1,Linecode=CABBTG01_4_1,Length=0.02,Units=km
new line.RML10326447 bus1=BBT2202504.3.0,bus2=RML1010326447.3.0,Phases=1,Linecode=CABBTG01_4_1,Length=0.02,Units=km
new line.RML10326467 bus1=BBT2202665.1.0,bus2=RML1010326467.1.0,Phases=1,Linecode=CABBTG01_4_1,Length=0.02,Units=km
new line.RML10326472 bus1=BBT929526.1.2.0,bus2=RML1010326472.1.2.0,Phases=2,Linecode=CABBTG05_4_2,Length=0.02,Units=km
new line.RML10326485 bus1=BBT751376.1.2.0,bus2=RML1010326485.1.2.0,Phases=2,Linecode=CABBT801_4_2,Length=0.02,Units=km
new line.RML10326494 bus1=BBT41201113.1.0,bus2=RML1010326494.1.0,Phases=1,Linecode=CABBTG01_4_1,Length=0.02,Units=km
new line.RML10326496 bus1=BBT2080571.1.0,bus2=RML1010326496.1.0,Phases=1,Linecode=CABBTG01_4_1,Length=0.02,Units=km
new line.RML10326499 bus1=BBT751628.1.0,bus2=RML1010326499.1.0,Phases=1,Linecode=CABBTG01_4_1,Length=0.02,Units=km
new line.RML10326502 bus1=BBT2202490.2.0,bus2=RML1010326502.2.0,Phases=1,Linecode=CABBTG01_4_1,Length=0.02,Units=km
new line.RML10326504 bus1=BBT924122.3.0,bus2=RML1010326504.3.0,Phases=1,Linecode=CABBTG02_4_1,Length=0.02,Units=km
new line.RML10326506 bus1=BBT924052.3.0,bus2=RML1010326506.3.0,Phases=1,Linecode=CABBTG01_4_1,Length=0.02,Units=km
new line.RML10326508 bus1=BBT924052.1.0,bus2=RML1010326508.1.0,Phases=1,Linecode=CABBTG02_4_1,Length=0.02,Units=km
new line.RML10326510 bus1=BBT923709.1.0,bus2=RML1010326510.1.0,Phases=1,Linecode=CABBTG02_4_1,Length=0.02,Units=km
new line.RML10326515 bus1=BBT2495846.2.0,bus2=RML1010326515.2.0,Phases=1,Linecode=CABBTG01_4_1,Length=0.02,Units=km
new line.RML10326516 bus1=BBT930051.2.0,bus2=RML1010326516.2.0,Phases=1,Linecode=CABBTG01_4_1,Length=0.02,Units=km
new line.RML10326521 bus1=BBT930226.1.2.0,bus2=RML1010326521.1.2.0,Phases=2,Linecode=CABBTG05_4_2,Length=0.02,Units=km
new line.RML10326524 bus1=BBT929708.3.0,bus2=RML1010326524.3.0,Phases=1,Linecode=CABBTG01_4_1,Length=0.02,Units=km
new line.RML10327162 bus1=BBT893441.2.3.0,bus2=RML1010327162.2.3.0,Phases=2,Linecode=CABBTG05_4_2,Length=0.02,Units=km
new line.RML10327182 bus1=BBT929841.1.2.0,bus2=RML1010327182.1.2.0,Phases=2,Linecode=CABBTG05_4_2,Length=0.02,Units=km
new line.RML10339736 bus1=BBT151804528.1.2.0,bus2=RML1010339736.1.2.0,Phases=2,Linecode=CABBTG05_4_2,Length=0.02,Units=km
new line.RML10350262 bus1=BBT132057844.1.2.3.0,bus2=RML1010350262.1.2.3.0,Phases=3,Linecode=CABBT810_4_3,Length=0.02,Units=km
new line.RML10351729 bus1=BBT151990189.1.2.0,bus2=RML1010351729.1.2.0,Phases=2,Linecode=CABBTG05_4_2,Length=0.02,Units=km
new line.RML10365787 bus1=BBT2266351.1.2.3.0,bus2=RML1010365787.1.2.3.0,Phases=3,Linecode=CABBTG06_4_3,Length=0.02,Units=km
new line.RML10367599 bus1=BBT930464.2.0,bus2=RML1010367599.2.0,Phases=1,Linecode=CABBTG02_4_1,Length=0.02,Units=km
new line.RML10394821 bus1=BBT923261.2.3.0,bus2=RML1010394821.2.3.0,Phases=2,Linecode=CABBTG05_4_2,Length=0.02,Units=km
new line.RML10403347 bus1=BBT153342123.1.2.0,bus2=RML1010403347.1.2.0,Phases=2,Linecode=CABBTG05_4_2,Length=0.028,Units=km
new line.RML10412464 bus1=BBT734366.2.0,bus2=RML1010412464.2.0,Phases=1,Linecode=CABBTG02_4_1,Length=0.02,Units=km
new line.RML10441408 bus1=BBT25548413.1.0,bus2=RML1010441408.1.0,Phases=1,Linecode=CABBTG02_4_1,Length=0.02,Units=km
new line.RML10441678 bus1=BBT734086.2.0,bus2=RML1010441678.2.0,Phases=1,Linecode=CABBTG02_4_1,Length=0.02,Units=km
new line.RML10441704 bus1=BBT894393.2.0,bus2=RML1010441704.2.0,Phases=1,Linecode=CABBTG02_4_1,Length=0.02,Units=km
new line.RML10442111 bus1=BBT26498390.1.2.0,bus2=RML1010442111.1.2.0,Phases=2,Linecode=CABBTG05_4_2,Length=0.02,Units=km
new line.RML10467564 bus1=BBT2574792.2.0,bus2=RML1010467564.2.0,Phases=1,Linecode=CABBTG02_4_1,Length=0.02,Units=km
new line.RML10468175 bus1=BBT2202434.1.0,bus2=RML1010468175.1.0,Phases=1,Linecode=CABBTG02_4_1,Length=0.02,Units=km
new line.RML10468793 bus1=BBT154603284.1.2.0,bus2=RML1010468793.1.2.0,Phases=2,Linecode=CABBTG05_4_2,Length=0.017,Units=km
new line.RML10468952 bus1=BBT154748467.1.2.0,bus2=RML1010468952.1.2.0,Phases=2,Linecode=CABBTG05_4_2,Length=0.02,Units=km
new line.RML10468977 bus1=BBT154549001.1.2.0,bus2=RML1010468977.1.2.0,Phases=2,Linecode=CABBTG05_4_2,Length=0.023,Units=km
new line.RML10479392 bus1=BBT2752725.1.2.0,bus2=RML1010479392.1.2.0,Phases=2,Linecode=CABBTG05_4_2,Length=0.031,Units=km
new line.RML10491710 bus1=BBT926726.1.2.3.0,bus2=RML1010491710.1.2.3.0,Phases=3,Linecode=CABBTG07_4_3,Length=0.013,Units=km
new line.RML10491726 bus1=BBT920286.1.0,bus2=RML1010491726.1.0,Phases=1,Linecode=CABBTG01_4_1,Length=0.02,Units=km
new line.RML10491731 bus1=BBT2397356.3.0,bus2=RML1010491731.3.0,Phases=1,Linecode=CABBTG01_4_1,Length=0.011,Units=km
new line.RML10491742 bus1=BBT2202483.2.0,bus2=RML1010491742.2.0,Phases=1,Linecode=CABBTG01_4_1,Length=0.016,Units=km
new line.RML10491748 bus1=BBT2202434.3.0,bus2=RML1010491748.3.0,Phases=1,Linecode=CABBTG01_4_1,Length=0.013,Units=km
new line.RML10491752 bus1=BBT2202462.1.0,bus2=RML1010491752.1.0,Phases=1,Linecode=CABBTG01_4_1,Length=0.016,Units=km
new line.RML10491767 bus1=BBT751453.1.0,bus2=RML1010491767.1.0,Phases=1,Linecode=CABBTG02_4_1,Length=0.02,Units=km
new line.RML10491782 bus1=BBT751684.1.0,bus2=RML1010491782.1.0,Phases=1,Linecode=CABBTG02_4_1,Length=0.022,Units=km
new line.RML10491789 bus1=BBT751656.2.0,bus2=RML1010491789.2.0,Phases=1,Linecode=CABBTG01_4_1,Length=0.011,Units=km
new line.RML10491801 bus1=BBT751635.1.0,bus2=RML1010491801.1.0,Phases=1,Linecode=CABBTG01_4_1,Length=0.013,Units=km
new line.RML10491806 bus1=BBT744796.1.0,bus2=RML1010491806.1.0,Phases=1,Linecode=CABBTG01_4_1,Length=0.015,Units=km
new line.RML10498491 bus1=BBT928280.2.3.0,bus2=RML1010498491.2.3.0,Phases=2,Linecode=CABBTG05_4_2,Length=0.01,Units=km
new line.RML10508181 bus1=BBT156072284.1.2.0,bus2=RML1010508181.1.2.0,Phases=2,Linecode=CABBTG04_4_2,Length=0.018,Units=km
new line.RML10508240 bus1=BBT982495.1.2.0,bus2=RML1010508240.1.2.0,Phases=2,Linecode=CABBT808_4_2,Length=0.023,Units=km
new line.RML10508867 bus1=BBT2397314.1.2.0,bus2=RML1010508867.1.2.0,Phases=2,Linecode=CABBTG05_4_2,Length=0.023,Units=km
new line.RML10409139 bus1=BBT734842.2.0,bus2=RML1010409139.2.0,Phases=1,Linecode=CABBTG02_4_1,Length=0.02,Units=km
new line.RML10422556 bus1=BBT923254.2.0,bus2=RML1010422556.2.0,Phases=1,Linecode=CABBTG02_4_1,Length=0.02,Units=km
new line.RML10422757 bus1=BBT928812.1.0,bus2=RML1010422757.1.0,Phases=1,Linecode=CABBTG02_4_1,Length=0.02,Units=km
new line.RML10423260 bus1=BBT734905.1.2.0,bus2=RML1010423260.1.2.0,Phases=2,Linecode=CABBTG05_4_2,Length=0.02,Units=km
new line.RML10453680 bus1=BBT2202196.2.0,bus2=RML1010453680.2.0,Phases=1,Linecode=CABBTG02_4_1,Length=0.02,Units=km
new line.RML10471111 bus1=BBT154718980.1.2.0,bus2=RML1010471111.1.2.0,Phases=2,Linecode=CABBTG05_4_2,Length=0.02,Units=km
new line.RML10484691 bus1=BBT904389.1.2.3.0,bus2=RML1010484691.1.2.3.0,Phases=3,Linecode=CABBTG06_4_3,Length=0.015,Units=km
new line.RML10484913 bus1=BBT904396.1.2.3.0,bus2=RML1010484913.1.2.3.0,Phases=3,Linecode=CABBTG06_4_3,Length=0.018,Units=km
new line.RML10495350 bus1=BBT744705.1.0,bus2=RML1010495350.1.0,Phases=1,Linecode=CABBTG02_4_1,Length=0.009,Units=km
new line.RML10495640 bus1=BBT929176.2.0,bus2=RML1010495640.2.0,Phases=1,Linecode=CABBTG02_4_1,Length=0.021,Units=km
new line.RML10496676 bus1=BBT155761366.1.2.0,bus2=RML1010496676.1.2.0,Phases=2,Linecode=CABBT808_4_2,Length=0.023,Units=km
new line.RML10511359 bus1=BBT155789044.1.2.0,bus2=RML1010511359.1.2.0,Phases=2,Linecode=CABBT808_4_2,Length=0.023,Units=km
new line.RML10512170 bus1=BBT921805.1.2.3.0,bus2=RML1010512170.1.2.3.0,Phases=3,Linecode=CABBTG04_4_3,Length=0.014,Units=km
new line.RML10514144 bus1=BBT155930855.1.2.0,bus2=RML1010514144.1.2.0,Phases=2,Linecode=CABBT807_4_2,Length=0.024,Units=km
new line.RML10523308 bus1=BBT920517.3.0,bus2=RML1010523308.3.0,Phases=1,Linecode=CABBTG02_4_1,Length=0.013,Units=km
new line.RML10523376 bus1=BBT894435.3.0,bus2=RML1010523376.3.0,Phases=1,Linecode=CABBTG02_4_1,Length=0.01,Units=km
new line.RML10525021 bus1=BBT734170.1.2.0,bus2=RML1010525021.1.2.0,Phases=2,Linecode=CABBTG05_4_2,Length=0.021,Units=km
new line.RML10525394 bus1=BBT929162.1.0,bus2=RML1010525394.1.0,Phases=1,Linecode=CABBTG01_4_1,Length=0.012,Units=km
new line.RML10536075 bus1=BBT2752697.2.0,bus2=RML1010536075.2.0,Phases=1,Linecode=CABBTG02_4_1,Length=0.028,Units=km
new line.RML10536127 bus1=BBT156778711.1.2.0,bus2=RML1010536127.1.2.0,Phases=2,Linecode=CABBTG05_4_2,Length=0.012,Units=km
new line.RML10536488 bus1=BBT155926297.1.2.0,bus2=RML1010536488.1.2.0,Phases=2,Linecode=CABBTG05_4_2,Length=0.015,Units=km
new line.RML10537237 bus1=BBT924633.1.2.3.0,bus2=RML1010537237.1.2.3.0,Phases=3,Linecode=CABBTG06_4_3,Length=0.017,Units=km
new line.RML10539354 bus1=BBT929218.2.0,bus2=RML1010539354.2.0,Phases=1,Linecode=CABBTG02_4_1,Length=0.014,Units=km
new line.RML10545818 bus1=BBT2202483.1.0,bus2=RML1010545818.1.0,Phases=1,Linecode=CABBTG02_4_1,Length=0.009,Units=km