new transformer.1116089 Phases=1,Windings=3,Buses=[BMT170264956.1 BBT26498383.1.0 BBT26498383.0.2],Conns=[wye wye wye],kvs=[7.967 0.12 0.12],kvas=[35.000000000 35.000000000 35.000000000],Taps=[1,1.000000000,1.000000000],%loadloss=1.410000000,%noloadloss=0.433000000
new transformer.1165642 Phases=1,Windings=3,Buses=[BMT164368424.2 BBT35590837.1.0 BBT35590837.0.2],Conns=[wye wye wye],kvs=[7.967 0.12 0.12],kvas=[5.000000000 5.000000000 5.000000000],Taps=[1,1.000000000,1.000000000],%loadloss=1.900000000,%noloadloss=0.600000000
new transformer.1165656 Phases=1,Windings=3,Buses=[BMT164368425.2 BBT35594988.1.0 BBT35594988.0.2],Conns=[wye wye wye],kvs=[7.967 0.12 0.12],kvas=[5.000000000 5.000000000 5.000000000],Taps=[1,1.000000000,1.000000000],%loadloss=1.900000000,%noloadloss=0.600000000
new transformer.1165831 Phases=1,Windings=3,Buses=[BMT164368643.3 BBT35623513.1.0 BBT35623513.0.2],Conns=[wye wye wye],kvs=[7.967 0.12 0.12],kvas=[5.000000000 5.000000000 5.000000000],Taps=[1,1.000000000,1.000000000],%loadloss=1.900000000,%noloadloss=0.600000000
new transformer.1165845 Phases=1,Windings=3,Buses=[BMT164368642.3 BBT35624206.1.0 BBT35624206.0.2],Conns=[wye wye wye],kvs=[7.967 0.12 0.12],kvas=[5.000000000 5.000000000 5.000000000],Taps=[1,1.000000000,1.000000000],%loadloss=1.900000000,%noloadloss=0.600000000
new transformer.1166048 Phases=1,Windings=3,Buses=[BMT164368644.3 BBT35644114.1.0 BBT35644114.0.2],Conns=[wye wye wye],kvs=[7.967 0.12 0.12],kvas=[5.000000000 5.000000000 5.000000000],Taps=[1,1.000000000,1.000000000],%loadloss=1.900000000,%noloadloss=0.600000000
new transformer.1166111 Phases=1,Windings=3,Buses=[BMT164368649.1 BBT35649280.1.0 BBT35649280.0.2],Conns=[wye wye wye],kvs=[7.967 0.12 0.12],kvas=[5.000000000 5.000000000 5.000000000],Taps=[1,1.000000000,1.000000000],%loadloss=1.900000000,%noloadloss=0.600000000
new transformer.1166188 Phases=1,Windings=3,Buses=[BMT164368646.1 BBT35657666.1.0 BBT35657666.0.2],Conns=[wye wye wye],kvs=[7.967 0.12 0.12],kvas=[5.000000000 5.000000000 5.000000000],Taps=[1,1.000000000,1.000000000],%loadloss=1.900000000,%noloadloss=0.600000000
new transformer.1166223 Phases=1,Windings=3,Buses=[BMT164368651.1 BBT35661061.1.0 BBT35661061.0.2],Conns=[wye wye wye],kvs=[7.967 0.12 0.12],kvas=[5.000000000 5.000000000 5.000000000],Taps=[1,1.000000000,1.000000000],%loadloss=1.900000000,%noloadloss=0.600000000
new transformer.1166384 Phases=1,Windings=3,Buses=[BMT164368653.1 BBT35671330.1.0 BBT35671330.0.2],Conns=[wye wye wye],kvs=[7.967 0.12 0.12],kvas=[5.000000000 5.000000000 5.000000000],Taps=[1,1.000000000,1.000000000],%loadloss=1.900000000,%noloadloss=0.600000000
new transformer.1166496 Phases=1,Windings=3,Buses=[BMT164368654.1 BBT35682817.1.0 BBT35682817.0.2],Conns=[wye wye wye],kvs=[7.967 0.12 0.12],kvas=[5.000000000 5.000000000 5.000000000],Taps=[1,1.000000000,1.000000000],%loadloss=1.900000000,%noloadloss=0.600000000
new transformer.1166559 Phases=1,Windings=3,Buses=[BMT173888890.3 BBT35693639.1.0 BBT35693639.0.2],Conns=[wye wye wye],kvs=[7.967 0.12 0.12],kvas=[5.000000000 5.000000000 5.000000000],Taps=[1,1.000000000,1.000000000],%loadloss=1.900000000,%noloadloss=0.600000000
new transformer.1166755 Phases=1,Windings=3,Buses=[BMT164368668.2 BBT35719378.1.0 BBT35719378.0.2],Conns=[wye wye wye],kvs=[7.967 0.12 0.12],kvas=[5.000000000 5.000000000 5.000000000],Taps=[1,1.000000000,1.000000000],%loadloss=1.900000000,%noloadloss=0.600000000
new transformer.1176765 Phases=1,Windings=3,Buses=[BMT164367900.3 BBT37267988.1.0 BBT37267988.0.2],Conns=[wye wye wye],kvs=[7.967 0.12 0.12],kvas=[35.000000000 35.000000000 35.000000000],Taps=[1,1.000000000,1.000000000],%loadloss=1.410000000,%noloadloss=0.433000000
new transformer.1176772 Phases=1,Windings=3,Buses=[BMT164368133.2 BBT37271810.1.0 BBT37271810.0.2],Conns=[wye wye wye],kvs=[7.967 0.12 0.12],kvas=[5.000000000 5.000000000 5.000000000],Taps=[1,1.000000000,1.000000000],%loadloss=1.900000000,%noloadloss=0.600000000
new transformer.1176835 Phases=3,Windings=2,Buses=[BMT176098282.1.2.3 BBT37278474.1.2.3.0],Conns=[delta wye],kvs=[13.8 0.22],kvas=[45.000000000 45.000000000],Taps=[1,1.000000000],%loadloss=1.522000000,%noloadloss=0.377777778
new transformer.1198549 Phases=1,Windings=3,Buses=[BMT164368405.2 BBT41738083.1.0 BBT41738083.0.2],Conns=[wye wye wye],kvs=[7.967 0.12 0.12],kvas=[5.000000000 5.000000000 5.000000000],Taps=[1,1.000000000,1.000000000],%loadloss=1.900000000,%noloadloss=0.600000000
new transformer.1198556 Phases=1,Windings=3,Buses=[BMT164368406.2 BBT41738342.1.0 BBT41738342.0.2],Conns=[wye wye wye],kvs=[7.967 0.12 0.12],kvas=[5.000000000 5.000000000 5.000000000],Taps=[1,1.000000000,1.000000000],%loadloss=1.900000000,%noloadloss=0.600000000
new transformer.1211870 Phases=1,Windings=3,Buses=[BMT165242468.1 BBT45425193.1.0 BBT45425193.0.2],Conns=[wye wye wye],kvs=[7.967 0.12 0.12],kvas=[5.000000000 5.000000000 5.000000000],Taps=[1,1.000000000,1.000000000],%loadloss=1.900000000,%noloadloss=0.600000000
new transformer.1234347 Phases=1,Windings=3,Buses=[BMT170272384.3 BBT56885292.1.0 BBT56885292.0.2],Conns=[wye wye wye],kvs=[7.967 0.12 0.12],kvas=[10.000000000 10.000000000 10.000000000],Taps=[1,1.000000000,1.000000000],%loadloss=1.800000000,%noloadloss=0.450000000
new transformer.1311081 Phases=1,Windings=3,Buses=[BMT164368208.3 BBT89752511.1.0 BBT89752511.0.2],Conns=[wye wye wye],kvs=[7.967 0.12 0.12],kvas=[5.000000000 5.000000000 5.000000000],Taps=[1,1.000000000,1.000000000],%loadloss=1.900000000,%noloadloss=0.600000000
new transformer.1095502 Phases=1,Windings=3,Buses=[BMT164368030.1 BBT22070316.1.0 BBT22070316.0.2],Conns=[wye wye wye],kvs=[7.967 0.12 0.12],kvas=[15.000000000 15.000000000 15.000000000],Taps=[1,1.000000000,1.000000000],%loadloss=1.600000000,%noloadloss=0.400000000
new transformer.1111707 Phases=1,Windings=3,Buses=[BMT164368205.3 BBT25534588.1.0 BBT25534588.0.2],Conns=[wye wye wye],kvs=[7.967 0.12 0.12],kvas=[5.000000000 5.000000000 5.000000000],Taps=[1,1.000000000,1.000000000],%loadloss=1.900000000,%noloadloss=0.600000000
new transformer.1111742 Phases=1,Windings=3,Buses=[BMT176618573.1 BBT25543611.1.0 BBT25543611.0.2],Conns=[wye wye wye],kvs=[7.967 0.12 0.12],kvas=[5.000000000 5.000000000 5.000000000],Taps=[1,1.000000000,1.000000000],%loadloss=1.900000000,%noloadloss=0.600000000
new transformer.1111777 Phases=1,Windings=3,Buses=[BMT171504189.2 BBT25548406.1.0 BBT25548406.0.2],Conns=[wye wye wye],kvs=[7.967 0.12 0.12],kvas=[15.000000000 15.000000000 15.000000000],Taps=[1,1.000000000,1.000000000],%loadloss=1.600000000,%noloadloss=0.400000000
new transformer.1111826 Phases=1,Windings=3,Buses=[BMT164368529.1 BBT25556876.1.0 BBT25556876.0.2],Conns=[wye wye wye],kvs=[7.967 0.12 0.12],kvas=[10.000000000 10.000000000 10.000000000],Taps=[1,1.000000000,1.000000000],%loadloss=1.800000000,%noloadloss=0.450000000
new transformer.1142640 Phases=1,Windings=3,Buses=[BMT164368301.3 BBT31878611.1.0 BBT31878611.0.2],Conns=[wye wye wye],kvs=[7.967 0.12 0.12],kvas=[10.000000000 10.000000000 10.000000000],Taps=[1,1.000000000,1.000000000],%loadloss=1.800000000,%noloadloss=0.450000000
new transformer.1166776 Phases=1,Windings=3,Buses=[BMT164368669.2 BBT35728653.1.0 BBT35728653.0.2],Conns=[wye wye wye],kvs=[7.967 0.12 0.12],kvas=[5.000000000 5.000000000 5.000000000],Taps=[1,1.000000000,1.000000000],%loadloss=1.900000000,%noloadloss=0.600000000
new transformer.1166804 Phases=1,Windings=3,Buses=[BMT164368639.3 BBT35736857.1.0 BBT35736857.0.2],Conns=[wye wye wye],kvs=[7.967 0.12 0.12],kvas=[5.000000000 5.000000000 5.000000000],Taps=[1,1.000000000,1.000000000],%loadloss=1.900000000,%noloadloss=0.600000000
new transformer.1166895 Phases=1,Windings=3,Buses=[BMT164368638.3 BBT35760825.1.0 BBT35760825.0.2],Conns=[wye wye wye],kvs=[7.967 0.12 0.12],kvas=[10.000000000 10.000000000 10.000000000],Taps=[1,1.000000000,1.000000000],%loadloss=1.800000000,%noloadloss=0.450000000
new transformer.1166902 Phases=1,Windings=3,Buses=[BMT173888893.3 BBT35776813.1.0 BBT35776813.0.2],Conns=[wye wye wye],kvs=[7.967 0.12 0.12],kvas=[5.000000000 5.000000000 5.000000000],Taps=[1,1.000000000,1.000000000],%loadloss=1.900000000,%noloadloss=0.600000000
new transformer.1167077 Phases=1,Windings=3,Buses=[BMT164368635.2 BBT35807410.1.0 BBT35807410.0.2],Conns=[wye wye wye],kvs=[7.967 0.12 0.12],kvas=[5.000000000 5.000000000 5.000000000],Taps=[1,1.000000000,1.000000000],%loadloss=1.900000000,%noloadloss=0.600000000
new transformer.1167161 Phases=1,Windings=3,Buses=[BMT164368531.2 BBT35828963.1.0 BBT35828963.0.2],Conns=[wye wye wye],kvs=[7.967 0.12 0.12],kvas=[5.000000000 5.000000000 5.000000000],Taps=[1,1.000000000,1.000000000],%loadloss=1.900000000,%noloadloss=0.600000000
new transformer.1167280 Phases=1,Windings=3,Buses=[BMT164368534.2 BBT35857089.1.0 BBT35857089.0.2],Conns=[wye wye wye],kvs=[7.967 0.12 0.12],kvas=[5.000000000 5.000000000 5.000000000],Taps=[1,1.000000000,1.000000000],%loadloss=1.900000000,%noloadloss=0.600000000
new transformer.1167287 Phases=1,Windings=3,Buses=[BMT164368533.1 BBT35860575.1.0 BBT35860575.0.2],Conns=[wye wye wye],kvs=[7.967 0.12 0.12],kvas=[5.000000000 5.000000000 5.000000000],Taps=[1,1.000000000,1.000000000],%loadloss=1.900000000,%noloadloss=0.600000000
new transformer.1167455 Phases=1,Windings=3,Buses=[BMT173888892.2 BBT35908742.1.0 BBT35908742.0.2],Conns=[wye wye wye],kvs=[7.967 0.12 0.12],kvas=[5.000000000 5.000000000 5.000000000],Taps=[1,1.000000000,1.000000000],%loadloss=1.900000000,%noloadloss=0.600000000
new transformer.1168036 Phases=1,Windings=3,Buses=[BMT164367777.3 BBT35982032.1.0 BBT35982032.0.2],Conns=[wye wye wye],kvs=[7.967 0.12 0.12],kvas=[15.000000000 15.000000000 15.000000000],Taps=[1,1.000000000,1.000000000],%loadloss=1.600000000,%noloadloss=0.400000000
new transformer.1322610 Phases=1,Windings=3,Buses=[BMT175258164.2 BBT94778175.1.0 BBT94778175.0.2],Conns=[wye wye wye],kvs=[7.967 0.12 0.12],kvas=[5.000000000 5.000000000 5.000000000],Taps=[1,1.000000000,1.000000000],%loadloss=1.900000000,%noloadloss=0.600000000
new transformer.1347425 Phases=1,Windings=3,Buses=[BMT164367981.1 BBT113266617.1.0 BBT113266617.0.2],Conns=[wye wye wye],kvs=[7.967 0.12 0.12],kvas=[35.000000000 35.000000000 35.000000000],Taps=[1,1.000000000,1.000000000],%loadloss=1.410000000,%noloadloss=0.433000000
new transformer.1372849 Phases=1,Windings=3,Buses=[BMT164368121.2 BBT133310872.1.0 BBT133310872.0.2],Conns=[wye wye wye],kvs=[7.967 0.12 0.12],kvas=[35.000000000 35.000000000 35.000000000],Taps=[1,1.000000000,1.000000000],%loadloss=1.410000000,%noloadloss=0.433000000
new transformer.1386807 Phases=3,Windings=2,Buses=[BMT174109624.1.2.3 BBT138832024.1.2.3.0],Conns=[delta wye],kvs=[13.8 0.22],kvas=[45.000000000 45.000000000],Taps=[1,1.000000000],%loadloss=1.522000000,%noloadloss=0.377777778
new transformer.1391888 Phases=1,Windings=3,Buses=[BMT164367976.1 BBT148504806.1.0 BBT148504806.0.2],Conns=[wye wye wye],kvs=[7.967 0.12 0.12],kvas=[35.000000000 35.000000000 35.000000000],Taps=[1,1.000000000,1.000000000],%loadloss=1.410000000,%noloadloss=0.433000000
new transformer.1089279 Phases=1,Windings=3,Buses=[BMT176272367.3 BBT20894512.1.0 BBT20894512.0.2],Conns=[wye wye wye],kvs=[7.967 0.12 0.12],kvas=[15.000000000 15.000000000 15.000000000],Taps=[1,1.000000000,1.000000000],%loadloss=1.600000000,%noloadloss=0.400000000
new transformer.1124160 Phases=1,Windings=3,Buses=[BMT164368319.3 BBT28084492.1.0 BBT28084492.0.2],Conns=[wye wye wye],kvs=[7.967 0.12 0.12],kvas=[35.000000000 35.000000000 35.000000000],Taps=[1,1.000000000,1.000000000],%loadloss=1.410000000,%noloadloss=0.433000000
new transformer.1124790 Phases=1,Windings=3,Buses=[BMT176734724.3 BBT28169269.1.0 BBT28169269.0.2],Conns=[wye wye wye],kvs=[7.967 0.12 0.12],kvas=[5.000000000 5.000000000 5.000000000],Taps=[1,1.000000000,1.000000000],%loadloss=1.900000000,%noloadloss=0.600000000
new transformer.1170549 Phases=1,Windings=3,Buses=[BMT164367581.3 BBT36393485.1.0 BBT36393485.0.2],Conns=[wye wye wye],kvs=[7.967 0.12 0.12],kvas=[5.000000000 5.000000000 5.000000000],Taps=[1,1.000000000,1.000000000],%loadloss=1.900000000,%noloadloss=0.600000000
new transformer.1170647 Phases=1,Windings=3,Buses=[BMT171765699.3 BBT36420295.1.0 BBT36420295.0.2],Conns=[wye wye wye],kvs=[7.967 0.12 0.12],kvas=[25.000000000 25.000000000 25.000000000],Taps=[1,1.000000000,1.000000000],%loadloss=1.420000000,%noloadloss=0.320000000
new transformer.1170983 Phases=1,Windings=3,Buses=[BMT164369422.2 BBT36468595.1.0 BBT36468595.0.2],Conns=[wye wye wye],kvs=[7.967 0.12 0.12],kvas=[5.000000000 5.000000000 5.000000000],Taps=[1,1.000000000,1.000000000],%loadloss=1.900000000,%noloadloss=0.600000000
new transformer.1171403 Phases=1,Windings=3,Buses=[BMT164369029.2 BBT36485710.1.0 BBT36485710.0.2],Conns=[wye wye wye],kvs=[7.967 0.12 0.12],kvas=[5.000000000 5.000000000 5.000000000],Taps=[1,1.000000000,1.000000000],%loadloss=1.900000000,%noloadloss=0.600000000
new transformer.1171424 Phases=1,Windings=3,Buses=[BMT164369017.2 BBT36490092.1.0 BBT36490092.0.2],Conns=[wye wye wye],kvs=[7.967 0.12 0.12],kvas=[5.000000000 5.000000000 5.000000000],Taps=[1,1.000000000,1.000000000],%loadloss=1.900000000,%noloadloss=0.600000000
new transformer.1171592 Phases=1,Windings=3,Buses=[BMT164367684.1 BBT36525652.1.0 BBT36525652.0.2],Conns=[wye wye wye],kvs=[7.967 0.12 0.12],kvas=[5.000000000 5.000000000 5.000000000],Taps=[1,1.000000000,1.000000000],%loadloss=1.900000000,%noloadloss=0.600000000
new transformer.1215902 Phases=1,Windings=3,Buses=[BMT170272387.3 BBT46656556.1.0 BBT46656556.0.2],Conns=[wye wye wye],kvs=[7.967 0.12 0.12],kvas=[35.000000000 35.000000000 35.000000000],Taps=[1,1.000000000,1.000000000],%loadloss=1.410000000,%noloadloss=0.433000000
new transformer.1309716 Phases=1,Windings=3,Buses=[BMT164368957.1 BBT88646343.1.0 BBT88646343.0.2],Conns=[wye wye wye],kvs=[7.967 0.12 0.12],kvas=[15.000000000 15.000000000 15.000000000],Taps=[1,1.000000000,1.000000000],%loadloss=1.600000000,%noloadloss=0.400000000
new transformer.1309877 Phases=1,Windings=3,Buses=[BMT164368916.1 BBT88823345.1.0 BBT88823345.0.2],Conns=[wye wye wye],kvs=[7.967 0.12 0.12],kvas=[15.000000000 15.000000000 15.000000000],Taps=[1,1.000000000,1.000000000],%loadloss=1.600000000,%noloadloss=0.400000000
new transformer.1395412 Phases=1,Windings=3,Buses=[BMT171122847.2 BBT149295807.1.0 BBT149295807.0.2],Conns=[wye wye wye],kvs=[7.967 0.12 0.12],kvas=[35.000000000 35.000000000 35.000000000],Taps=[1,1.000000000,1.000000000],%loadloss=1.410000000,%noloadloss=0.433000000
new transformer.1395542 Phases=1,Windings=3,Buses=[BMT164368686.1 BBT149322396.1.0 BBT149322396.0.2],Conns=[wye wye wye],kvs=[7.967 0.12 0.12],kvas=[10.000000000 10.000000000 10.000000000],Taps=[1,1.000000000,1.000000000],%loadloss=1.800000000,%noloadloss=0.450000000
new transformer.1412656 Phases=1,Windings=3,Buses=[BMT164367419.1 BBT153342122.1.0 BBT153342122.0.2],Conns=[wye wye wye],kvs=[7.967 0.12 0.12],kvas=[10.000000000 10.000000000 10.000000000],Taps=[1,1.000000000,1.000000000],%loadloss=1.800000000,%noloadloss=0.450000000
new transformer.1413005 Phases=1,Windings=3,Buses=[BMT164368751.3 BBT153425984.1.0 BBT153425984.0.2],Conns=[wye wye wye],kvs=[7.967 0.12 0.12],kvas=[10.000000000 10.000000000 10.000000000],Taps=[1,1.000000000,1.000000000],%loadloss=1.800000000,%noloadloss=0.450000000
new transformer.1413025 Phases=1,Windings=3,Buses=[BMT172358967.1 BBT153431084.1.0 BBT153431084.0.2],Conns=[wye wye wye],kvs=[7.967 0.12 0.12],kvas=[10.000000000 10.000000000 10.000000000],Taps=[1,1.000000000,1.000000000],%loadloss=1.800000000,%noloadloss=0.450000000
new transformer.1415670 Phases=1,Windings=3,Buses=[BMT164368364.2 BBT154072268.1.0 BBT154072268.0.2],Conns=[wye wye wye],kvs=[7.967 0.12 0.12],kvas=[10.000000000 10.000000000 10.000000000],Taps=[1,1.000000000,1.000000000],%loadloss=1.800000000,%noloadloss=0.450000000
new transformer.1418391 Phases=1,Windings=3,Buses=[BMT164367677.1 BBT154718979.1.0 BBT154718979.0.2],Conns=[wye wye wye],kvs=[7.967 0.12 0.12],kvas=[15.000000000 15.000000000 15.000000000],Taps=[1,1.000000000,1.000000000],%loadloss=1.600000000,%noloadloss=0.400000000
new transformer.1418535 Phases=1,Windings=3,Buses=[BMT164368979.3 BBT154748466.1.0 BBT154748466.0.2],Conns=[wye wye wye],kvs=[7.967 0.12 0.12],kvas=[10.000000000 10.000000000 10.000000000],Taps=[1,1.000000000,1.000000000],%loadloss=1.800000000,%noloadloss=0.450000000
new transformer.1105820 Phases=1,Windings=3,Buses=[BMT164369173.1 BBT24488102.1.0 BBT24488102.0.2],Conns=[wye wye wye],kvs=[7.967 0.12 0.12],kvas=[10.000000000 10.000000000 10.000000000],Taps=[1,1.000000000,1.000000000],%loadloss=1.800000000,%noloadloss=0.450000000
new transformer.1105827 Phases=1,Windings=3,Buses=[BMT164369175.1 BBT24488193.1.0 BBT24488193.0.2],Conns=[wye wye wye],kvs=[7.967 0.12 0.12],kvas=[10.000000000 10.000000000 10.000000000],Taps=[1,1.000000000,1.000000000],%loadloss=1.800000000,%noloadloss=0.450000000
new transformer.1113324 Phases=1,Windings=3,Buses=[BMT164368683.1 BBT25774821.1.0 BBT25774821.0.2],Conns=[wye wye wye],kvs=[7.967 0.12 0.12],kvas=[5.000000000 5.000000000 5.000000000],Taps=[1,1.000000000,1.000000000],%loadloss=1.900000000,%noloadloss=0.600000000
new transformer.1113401 Phases=1,Windings=3,Buses=[BMT164368140.2 BBT25791852.1.0 BBT25791852.0.2],Conns=[wye wye wye],kvs=[7.967 0.12 0.12],kvas=[5.000000000 5.000000000 5.000000000],Taps=[1,1.000000000,1.000000000],%loadloss=1.900000000,%noloadloss=0.600000000
new transformer.1113457 Phases=1,Windings=3,Buses=[BMT175804628.3 BBT25798222.1.0 BBT25798222.0.2],Conns=[wye wye wye],kvs=[7.967 0.12 0.12],kvas=[5.000000000 5.000000000 5.000000000],Taps=[1,1.000000000,1.000000000],%loadloss=1.900000000,%noloadloss=0.600000000
new transformer.1113541 Phases=1,Windings=3,Buses=[BMT175543329.2 BBT25810661.1.0 BBT25810661.0.2],Conns=[wye wye wye],kvs=[7.967 0.12 0.12],kvas=[5.000000000 5.000000000 5.000000000],Taps=[1,1.000000000,1.000000000],%loadloss=1.900000000,%noloadloss=0.600000000
new transformer.1113569 Phases=1,Windings=3,Buses=[BMT164368676.3 BBT25824416.1.0 BBT25824416.0.2],Conns=[wye wye wye],kvs=[7.967 0.12 0.12],kvas=[5.000000000 5.000000000 5.000000000],Taps=[1,1.000000000,1.000000000],%loadloss=1.900000000,%noloadloss=0.600000000
new transformer.1113583 Phases=1,Windings=3,Buses=[BMT164368672.3 BBT25825116.1.0 BBT25825116.0.2],Conns=[wye wye wye],kvs=[7.967 0.12 0.12],kvas=[5.000000000 5.000000000 5.000000000],Taps=[1,1.000000000,1.000000000],%loadloss=1.900000000,%noloadloss=0.600000000
new transformer.1113590 Phases=1,Windings=3,Buses=[BMT164368673.3 BBT25825578.1.0 BBT25825578.0.2],Conns=[wye wye wye],kvs=[7.967 0.12 0.12],kvas=[5.000000000 5.000000000 5.000000000],Taps=[1,1.000000000,1.000000000],%loadloss=1.900000000,%noloadloss=0.600000000
new transformer.1113597 Phases=1,Windings=3,Buses=[BMT164368677.3 BBT25826313.1.0 BBT25826313.0.2],Conns=[wye wye wye],kvs=[7.967 0.12 0.12],kvas=[5.000000000 5.000000000 5.000000000],Taps=[1,1.000000000,1.000000000],%loadloss=1.900000000,%noloadloss=0.600000000
new transformer.1113639 Phases=1,Windings=3,Buses=[BMT164368176.2 BBT25840502.1.0 BBT25840502.0.2],Conns=[wye wye wye],kvs=[7.967 0.12 0.12],kvas=[5.000000000 5.000000000 5.000000000],Taps=[1,1.000000000,1.000000000],%loadloss=1.900000000,%noloadloss=0.600000000
new transformer.1113653 Phases=1,Windings=3,Buses=[BMT164368177.2 BBT25844310.1.0 BBT25844310.0.2],Conns=[wye wye wye],kvs=[7.967 0.12 0.12],kvas=[5.000000000 5.000000000 5.000000000],Taps=[1,1.000000000,1.000000000],%loadloss=1.900000000,%noloadloss=0.600000000
new transformer.1130250 Phases=3,Windings=2,Buses=[BMT164367489.1.2.3 BBT29304263.1.2.3.0],Conns=[delta wye],kvs=[13.8 0.22],kvas=[75.000000000 75.000000000],Taps=[1,1.000000000],%loadloss=1.340000000,%noloadloss=0.340000000
new transformer.1161015 Phases=1,Windings=3,Buses=[BMT164368509.3 BBT34939711.1.0 BBT34939711.0.2],Conns=[wye wye wye],kvs=[7.967 0.12 0.12],kvas=[5.000000000 5.000000000 5.000000000],Taps=[1,1.000000000,1.000000000],%loadloss=1.900000000,%noloadloss=0.600000000
new transformer.1186677 Phases=1,Windings=3,Buses=[BMT164369068.3 BBT39102422.1.0 BBT39102422.0.2],Conns=[wye wye wye],kvs=[7.967 0.12 0.12],kvas=[5.000000000 5.000000000 5.000000000],Taps=[1,1.000000000,1.000000000],%loadloss=1.900000000,%noloadloss=0.600000000
new transformer.1186894 Phases=1,Windings=3,Buses=[BMT171419277.2 BBT39143288.1.0 BBT39143288.0.2],Conns=[wye wye wye],kvs=[7.967 0.12 0.12],kvas=[5.000000000 5.000000000 5.000000000],Taps=[1,1.000000000,1.000000000],%loadloss=1.900000000,%noloadloss=0.600000000
new transformer.1186964 Phases=1,Windings=3,Buses=[BMT171503060.3 BBT39150372.1.0 BBT39150372.0.2],Conns=[wye wye wye],kvs=[7.967 0.12 0.12],kvas=[5.000000000 5.000000000 5.000000000],Taps=[1,1.000000000,1.000000000],%loadloss=1.900000000,%noloadloss=0.600000000
new transformer.1196148 Phases=1,Windings=3,Buses=[BMT176623956.1 BBT41288998.1.0 BBT41288998.0.2],Conns=[wye wye wye],kvs=[7.967 0.12 0.12],kvas=[5.000000000 5.000000000 5.000000000],Taps=[1,1.000000000,1.000000000],%loadloss=1.900000000,%noloadloss=0.600000000
new transformer.1231099 Phases=1,Windings=3,Buses=[BMT164368465.1 BBT51938749.1.0 BBT51938749.0.2],Conns=[wye wye wye],kvs=[7.967 0.12 0.12],kvas=[5.000000000 5.000000000 5.000000000],Taps=[1,1.000000000,1.000000000],%loadloss=1.900000000,%noloadloss=0.600000000
new transformer.1373773 Phases=3,Windings=2,Buses=[BMT164369363.1.2.3 BBT133846911.1.2.3.0],Conns=[delta wye],kvs=[13.8 0.22],kvas=[45.000000000 45.000000000],Taps=[1,1.000000000],%loadloss=1.522000000,%noloadloss=0.377777778
new transformer.1394792 Phases=1,Windings=3,Buses=[BMT174625378.3 BBT149155837.1.0 BBT149155837.0.2],Conns=[wye wye wye],kvs=[7.967 0.12 0.12],kvas=[35.000000000 35.000000000 35.000000000],Taps=[1,1.000000000,1.000000000],%loadloss=1.410000000,%noloadloss=0.433000000
new transformer.1406501 Phases=1,Windings=3,Buses=[BMT164368746.3 BBT151990188.1.0 BBT151990188.0.2],Conns=[wye wye wye],kvs=[7.967 0.12 0.12],kvas=[15.000000000 15.000000000 15.000000000],Taps=[1,1.000000000,1.000000000],%loadloss=1.600000000,%noloadloss=0.400000000
new transformer.1423222 Phases=1,Windings=3,Buses=[BMT164368712.1 BBT155761365.1.0 BBT155761365.0.2],Conns=[wye wye wye],kvs=[7.967 0.12 0.12],kvas=[15.000000000 15.000000000 15.000000000],Taps=[1,1.000000000,1.000000000],%loadloss=1.600000000,%noloadloss=0.400000000
new transformer.1423405 Phases=1,Windings=3,Buses=[BMT171650920.1 BBT155789043.1.0 BBT155789043.0.2],Conns=[wye wye wye],kvs=[7.967 0.12 0.12],kvas=[15.000000000 15.000000000 15.000000000],Taps=[1,1.000000000,1.000000000],%loadloss=1.600000000,%noloadloss=0.400000000
new transformer.1405690 Phases=1,Windings=3,Buses=[BMT175543342.2 BBT151789888.1.0 BBT151789888.0.2],Conns=[wye wye wye],kvs=[7.967 0.12 0.12],kvas=[10.000000000 10.000000000 10.000000000],Taps=[1,1.000000000,1.000000000],%loadloss=1.800000000,%noloadloss=0.450000000
new transformer.1405770 Phases=3,Windings=2,Buses=[BMT175507925.1.2.3 BBT151804527.1.2.3.0],Conns=[delta wye],kvs=[13.8 0.22],kvas=[45.000000000 45.000000000],Taps=[1,1.000000000],%loadloss=1.522000000,%noloadloss=0.377777778
new transformer.1411096 Phases=1,Windings=3,Buses=[BMT164369445.2 BBT153075345.1.0 BBT153075345.0.2],Conns=[wye wye wye],kvs=[7.967 0.12 0.12],kvas=[10.000000000 10.000000000 10.000000000],Taps=[1,1.000000000,1.000000000],%loadloss=1.800000000,%noloadloss=0.450000000
new transformer.1427766 Phases=1,Windings=3,Buses=[BMT164368134.2 BBT156730810.1.0 BBT156730810.0.2],Conns=[wye wye wye],kvs=[7.967 0.12 0.12],kvas=[10.000000000 10.000000000 10.000000000],Taps=[1,1.000000000,1.000000000],%loadloss=1.800000000,%noloadloss=0.450000000
new transformer.1427859 Phases=1,Windings=3,Buses=[BMT164367420.1 BBT156753327.1.0 BBT156753327.0.2],Conns=[wye wye wye],kvs=[7.967 0.12 0.12],kvas=[10.000000000 10.000000000 10.000000000],Taps=[1,1.000000000,1.000000000],%loadloss=1.800000000,%noloadloss=0.450000000
new transformer.1427954 Phases=1,Windings=3,Buses=[BMT171503068.3 BBT156778710.1.0 BBT156778710.0.2],Conns=[wye wye wye],kvs=[7.967 0.12 0.12],kvas=[10.000000000 10.000000000 10.000000000],Taps=[1,1.000000000,1.000000000],%loadloss=1.800000000,%noloadloss=0.450000000
new transformer.1435357 Phases=1,Windings=3,Buses=[BMT175804625.3 BBT158250351.1.0 BBT158250351.0.2],Conns=[wye wye wye],kvs=[7.967 0.12 0.12],kvas=[35.000000000 35.000000000 35.000000000],Taps=[1,1.000000000,1.000000000],%loadloss=1.410000000,%noloadloss=0.433000000
new transformer.1439889 Phases=1,Windings=3,Buses=[BMT164368810.3 BBT159154504.1.0 BBT159154504.0.2],Conns=[wye wye wye],kvs=[7.967 0.12 0.12],kvas=[10.000000000 10.000000000 10.000000000],Taps=[1,1.000000000,1.000000000],%loadloss=1.800000000,%noloadloss=0.450000000
new transformer.1448450 Phases=1,Windings=3,Buses=[BMT164368152.3 BBT161304251.1.0 BBT161304251.0.2],Conns=[wye wye wye],kvs=[7.967 0.12 0.12],kvas=[35.000000000 35.000000000 35.000000000],Taps=[1,1.000000000,1.000000000],%loadloss=1.410000000,%noloadloss=0.433000000
new transformer.1469538 Phases=1,Windings=3,Buses=[BMT166680988.3 BBT166342170.1.0 BBT166342170.0.2],Conns=[wye wye wye],kvs=[7.967 0.12 0.12],kvas=[10.000000000 10.000000000 10.000000000],Taps=[1,1.000000000,1.000000000],%loadloss=1.800000000,%noloadloss=0.450000000
new transformer.1474729 Phases=1,Windings=3,Buses=[BMT167191785.1 BBT167191788.1.0 BBT167191788.0.2],Conns=[wye wye wye],kvs=[7.967 0.12 0.12],kvas=[10.000000000 10.000000000 10.000000000],Taps=[1,1.000000000,1.000000000],%loadloss=1.800000000,%noloadloss=0.450000000
new transformer.1478409 Phases=3,Windings=2,Buses=[BMT169932283.1.2.3 BBT167847096.1.2.3.0],Conns=[delta wye],kvs=[13.8 0.22],kvas=[75.000000000 75.000000000],Taps=[1,1.000000000],%loadloss=1.340000000,%noloadloss=0.340000000
new transformer.1480490 Phases=1,Windings=3,Buses=[BMT171765697.3 BBT168223662.1.0 BBT168223662.0.2],Conns=[wye wye wye],kvs=[7.967 0.12 0.12],kvas=[35.000000000 35.000000000 35.000000000],Taps=[1,1.000000000,1.000000000],%loadloss=1.410000000,%noloadloss=0.433000000
new transformer.1483212 Phases=1,Windings=3,Buses=[BMT171650915.1 BBT168736860.1.0 BBT168736860.0.2],Conns=[wye wye wye],kvs=[7.967 0.12 0.12],kvas=[15.000000000 15.000000000 15.000000000],Taps=[1,1.000000000,1.000000000],%loadloss=1.600000000,%noloadloss=0.400000000
new transformer.1496580 Phases=1,Windings=3,Buses=[BMT172358969.1 BBT171320651.1.0 BBT171320651.0.2],Conns=[wye wye wye],kvs=[7.967 0.12 0.12],kvas=[10.000000000 10.000000000 10.000000000],Taps=[1,1.000000000,1.000000000],%loadloss=1.800000000,%noloadloss=0.450000000
new transformer.1496649 Phases=1,Windings=3,Buses=[BMT171334992.1 BBT171334993.1.0 BBT171334993.0.2],Conns=[wye wye wye],kvs=[7.967 0.12 0.12],kvas=[35.000000000 35.000000000 35.000000000],Taps=[1,1.000000000,1.000000000],%loadloss=1.410000000,%noloadloss=0.433000000
new transformer.1498330 Phases=1,Windings=3,Buses=[BMT171650922.1 BBT171650749.1.0 BBT171650749.0.2],Conns=[wye wye wye],kvs=[7.967 0.12 0.12],kvas=[10.000000000 10.000000000 10.000000000],Taps=[1,1.000000000,1.000000000],%loadloss=1.800000000,%noloadloss=0.450000000
new transformer.1498841 Phases=1,Windings=3,Buses=[BMT171742891.2 BBT171741493.1.0 BBT171741493.0.2],Conns=[wye wye wye],kvs=[7.967 0.12 0.12],kvas=[10.000000000 10.000000000 10.000000000],Taps=[1,1.000000000,1.000000000],%loadloss=1.800000000,%noloadloss=0.450000000
new transformer.1498952 Phases=1,Windings=3,Buses=[BMT171765700.3 BBT171765371.1.0 BBT171765371.0.2],Conns=[wye wye wye],kvs=[7.967 0.12 0.12],kvas=[10.000000000 10.000000000 10.000000000],Taps=[1,1.000000000,1.000000000],%loadloss=1.800000000,%noloadloss=0.450000000
new transformer.1510841 Phases=1,Windings=3,Buses=[BMT174361279.1 BBT174361268.1.0 BBT174361268.0.2],Conns=[wye wye wye],kvs=[7.967 0.12 0.12],kvas=[35.000000000 35.000000000 35.000000000],Taps=[1,1.000000000,1.000000000],%loadloss=1.410000000,%noloadloss=0.433000000
new transformer.1513350 Phases=3,Windings=2,Buses=[BMT175507913.1.2.3 BBT175018187.1.2.3.0],Conns=[delta wye],kvs=[13.8 0.22],kvas=[45.000000000 45.000000000],Taps=[1,1.000000000],%loadloss=1.522000000,%noloadloss=0.377777778
new transformer.1513351 Phases=3,Windings=2,Buses=[BMT175507912.1.2.3 BBT175018203.1.2.3.0],Conns=[delta wye],kvs=[13.8 0.22],kvas=[45.000000000 45.000000000],Taps=[1,1.000000000],%loadloss=1.522000000,%noloadloss=0.377777778
new transformer.1513352 Phases=3,Windings=2,Buses=[BMT175507911.1.2.3 BBT175018222.1.2.3.0],Conns=[delta wye],kvs=[13.8 0.22],kvas=[45.000000000 45.000000000],Taps=[1,1.000000000],%loadloss=1.522000000,%noloadloss=0.377777778
new transformer.1439097 Phases=1,Windings=3,Buses=[BMT164368856.2 BBT158969704.1.0 BBT158969704.0.2],Conns=[wye wye wye],kvs=[7.967 0.12 0.12],kvas=[10.000000000 10.000000000 10.000000000],Taps=[1,1.000000000,1.000000000],%loadloss=1.800000000,%noloadloss=0.450000000
new transformer.1459353 Phases=1,Windings=3,Buses=[BMT164368216.3 BBT164205117.1.0 BBT164205117.0.2],Conns=[wye wye wye],kvs=[7.967 0.12 0.12],kvas=[10.000000000 10.000000000 10.000000000],Taps=[1,1.000000000,1.000000000],%loadloss=1.800000000,%noloadloss=0.450000000
new transformer.1470751 Phases=1,Windings=3,Buses=[BMT175017821.3 BBT166542944.1.0 BBT166542944.0.2],Conns=[wye wye wye],kvs=[7.967 0.12 0.12],kvas=[10.000000000 10.000000000 10.000000000],Taps=[1,1.000000000,1.000000000],%loadloss=1.800000000,%noloadloss=0.450000000
new transformer.1489096 Phases=1,Windings=3,Buses=[BMT169744614.1 BBT169744616.1.0 BBT169744616.0.2],Conns=[wye wye wye],kvs=[7.967 0.12 0.12],kvas=[15.000000000 15.000000000 15.000000000],Taps=[1,1.000000000,1.000000000],%loadloss=1.600000000,%noloadloss=0.400000000
new transformer.1497080 Phases=1,Windings=3,Buses=[BMT171419278.2 BBT171418811.1.0 BBT171418811.0.2],Conns=[wye wye wye],kvs=[7.967 0.12 0.12],kvas=[10.000000000 10.000000000 10.000000000],Taps=[1,1.000000000,1.000000000],%loadloss=1.800000000,%noloadloss=0.450000000