new load.3003331884M1 bus1=RML1001122187.1.0,Phases=1,kv=0.12,kW=0.77196,pf=0.92,Vminpu=0.92,Vmaxpu=1.5,model=8,zipv=[0.5,0,0.5,1,0,0,0],daily=RES2_1,status=variable
new load.3003331885M1 bus1=RML1001122166.2.0,Phases=1,kv=0.12,kW=0.8893,pf=0.92,Vminpu=0.92,Vmaxpu=1.5,model=8,zipv=[0.5,0,0.5,1,0,0,0],daily=RES2_1,status=variable
new load.3006280618M1 bus1=RML1003222131.1.2.0,Phases=2,kv=0.24,kW=1.58466,pf=0.92,Vminpu=0.92,Vmaxpu=1.5,model=8,zipv=[0.5,0,0.5,1,0,0,0],daily=RES2_20,status=variable
new load.3007675202M1 bus1=RML1003854609.1.0,Phases=1,kv=0.12,kW=0.22438,pf=0.92,Vminpu=0.92,Vmaxpu=1.5,model=8,zipv=[0.5,0,0.5,1,0,0,0],daily=RES2_27,status=variable
new load.3010881964M1 bus1=RML1010046827.1.2.0,Phases=2,kv=0.24,kW=2.4014,pf=0.92,Vminpu=0.92,Vmaxpu=1.5,model=8,zipv=[0.5,0,0.5,1,0,0,0],daily=RUR4_12,status=variable
new load.3010889597M1 bus1=RML1008409241.1.2.0,Phases=2,kv=0.24,kW=1.77978,pf=0.92,Vminpu=0.92,Vmaxpu=1.5,model=8,zipv=[0.5,0,0.5,1,0,0,0],daily=RUR3_12,status=variable
new load.3010987759M1 bus1=RML1008618163.1.2.0,Phases=2,kv=0.24,kW=1.9509,pf=0.92,Vminpu=0.92,Vmaxpu=1.5,model=8,zipv=[0.5,0,0.5,1,0,0,0],daily=RUR2_19,status=variable
new load.3011326659M1 bus1=RML1009617896.1.2.0,Phases=2,kv=0.24,kW=0.9319,pf=0.92,Vminpu=0.92,Vmaxpu=1.5,model=8,zipv=[0.5,0,0.5,1,0,0,0],daily=RES6_1,status=variable
new load.3011417160M1 bus1=RML1009386462.1.2.0,Phases=2,kv=0.22,kW=0.69692,pf=0.92,Vminpu=0.92,Vmaxpu=1.5,model=8,zipv=[0.5,0,0.5,1,0,0,0],daily=RES2_2,status=variable
new load.3011979514M1 bus1=RML1010369735.1.2.3.0,Phases=3,kv=0.22,kW=3.04932,pf=0.92,Vminpu=0.92,Vmaxpu=1.5,model=8,zipv=[0.5,0,0.5,1,0,0,0],daily=SERVP2_3,status=variable
new load.3014219540M1 bus1=RML138832024.1.2.3.0,Phases=3,kv=0.22,kW=1.68768,pf=0.92,Vminpu=0.92,Vmaxpu=1.5,model=8,zipv=[0.5,0,0.5,1,0,0,0],daily=RES2_8,status=variable
new load.3004821568M1 bus1=RML1001356141.1.0,Phases=1,kv=0.127,kW=0.80238,pf=0.92,Vminpu=0.92,Vmaxpu=1.5,model=8,zipv=[0.5,0,0.5,1,0,0,0],daily=RES2_6,status=variable
new load.3010580168M1 bus1=RML1010360589.3.0,Phases=1,kv=0.127,kW=0.75164,pf=0.92,Vminpu=0.92,Vmaxpu=1.5,model=8,zipv=[0.5,0,0.5,1,0,0,0],daily=RES2_10,status=variable
new load.3012042453M1 bus1=RML1010360390.1.2.0,Phases=2,kv=0.24,kW=1.83964,pf=0.92,Vminpu=0.92,Vmaxpu=1.5,model=8,zipv=[0.5,0,0.5,1,0,0,0],daily=RUR4_12,status=variable
new load.3011438694M1 bus1=RML1010704277.1.2.0,Phases=2,kv=0.24,kW=2.67462,pf=0.92,Vminpu=0.92,Vmaxpu=1.5,model=8,zipv=[0.5,0,0.5,1,0,0,0],daily=RES3_4,status=variable
new load.3012490234M1 bus1=RML1010339736.1.2.0,Phases=2,kv=0.22,kW=0.77908,pf=0.92,Vminpu=0.92,Vmaxpu=1.5,model=8,zipv=[0.5,0,0.5,1,0,0,0],daily=RES4_20,status=variable
new load.3011745712M1 bus1=RML1010403347.1.2.0,Phases=2,kv=0.24,kW=0.4388,pf=0.92,Vminpu=0.92,Vmaxpu=1.5,model=8,zipv=[0.5,0,0.5,1,0,0,0],daily=RES2_6,status=variable
new load.3012116331M1 bus1=RML1010408837.1.2.0,Phases=2,kv=0.24,kW=2.43074,pf=0.92,Vminpu=0.92,Vmaxpu=1.5,model=8,zipv=[0.5,0,0.5,1,0,0,0],daily=RUR2_19,status=variable
new load.3012132095M1 bus1=RML1010468793.1.2.0,Phases=2,kv=0.24,kW=2.48236,pf=0.92,Vminpu=0.92,Vmaxpu=1.5,model=8,zipv=[0.5,0,0.5,1,0,0,0],daily=RES3_13,status=variable
new load.3012794702M1 bus1=RML1010511359.1.2.0,Phases=2,kv=0.24,kW=1.60098,pf=0.92,Vminpu=0.92,Vmaxpu=1.5,model=8,zipv=[0.5,0,0.5,1,0,0,0],daily=RUR4_1,status=variable
new load.3012875671M1 bus1=RML1010520547.1.2.0,Phases=2,kv=0.24,kW=5.59382,pf=0.92,Vminpu=0.92,Vmaxpu=1.5,model=8,zipv=[0.5,0,0.5,1,0,0,0],daily=SERVP3_4,status=variable
new load.3012720380M1 bus1=RML1010600428.1.2.0,Phases=2,kv=0.24,kW=0.07756,pf=0.92,Vminpu=0.92,Vmaxpu=1.5,model=8,zipv=[0.5,0,0.5,1,0,0,0],daily=COM1_4,status=variable
new load.3013033973M1 bus1=RML1010567249.1.2.0,Phases=2,kv=0.24,kW=2.9994,pf=0.92,Vminpu=0.92,Vmaxpu=1.5,model=8,zipv=[0.5,0,0.5,1,0,0,0],daily=RUR2_7,status=variable
new load.3013066201M1 bus1=RML1010579556.1.2.0,Phases=2,kv=0.24,kW=0.78002,pf=0.92,Vminpu=0.92,Vmaxpu=1.5,model=8,zipv=[0.5,0,0.5,1,0,0,0],daily=RUR2_8,status=variable
new load.3014080224M1 bus1=RML1011082634.1.2.0,Phases=2,kv=0.24,kW=1.67544,pf=0.92,Vminpu=0.92,Vmaxpu=1.5,model=8,zipv=[0.5,0,0.5,1,0,0,0],daily=COM3_3,status=variable
new load.3014051258M1 bus1=RML1011080300.2.0,Phases=1,kv=0.12,kW=0.05248,pf=0.92,Vminpu=0.92,Vmaxpu=1.5,model=8,zipv=[0.5,0,0.5,1,0,0,0],daily=RES1_1,status=variable
new load.3013369209M1 bus1=RML1010828324.1.2.0,Phases=2,kv=0.24,kW=0.21754,pf=0.92,Vminpu=0.92,Vmaxpu=1.5,model=8,zipv=[0.5,0,0.5,1,0,0,0],daily=RUR1_16,status=variable
new load.3013574799M1 bus1=RML1010896349.1.2.3.0,Phases=3,kv=0.22,kW=32.6189,pf=0.92,Vminpu=0.92,Vmaxpu=1.5,model=8,zipv=[0.5,0,0.5,1,0,0,0],daily=RUR1_17,status=variable
new load.3013543512M1 bus1=RML1010951146.1.2.0,Phases=2,kv=0.24,kW=0.01084,pf=0.92,Vminpu=0.92,Vmaxpu=1.5,model=8,zipv=[0.5,0,0.5,1,0,0,0],daily=RES1_14,status=variable
new load.3013804997M1 bus1=RML1010943449.1.2.0,Phases=2,kv=0.24,kW=0.018,pf=0.92,Vminpu=0.92,Vmaxpu=1.5,model=8,zipv=[0.5,0,0.5,1,0,0,0],daily=RES1_18,status=variable
new load.3013828992M1 bus1=RML1010943450.1.2.0,Phases=2,kv=0.24,kW=0.83012,pf=0.92,Vminpu=0.92,Vmaxpu=1.5,model=8,zipv=[0.5,0,0.5,1,0,0,0],daily=RES5_17,status=variable
new load.3013634719M1 bus1=RML1011133078.1.2.0,Phases=2,kv=0.24,kW=0.99278,pf=0.92,Vminpu=0.92,Vmaxpu=1.5,model=8,zipv=[0.5,0,0.5,1,0,0,0],daily=RES1_16,status=variable
new load.3014331835M1 bus1=RML1011168522.1.2.0,Phases=2,kv=0.24,kW=0.02058,pf=0.92,Vminpu=0.92,Vmaxpu=1.5,model=8,zipv=[0.5,0,0.5,1,0,0,0],daily=RES1_15,status=variable
new load.3014294245M1 bus1=RML1011143092.1.2.0,Phases=2,kv=0.22,kW=0.05376,pf=0.92,Vminpu=0.92,Vmaxpu=1.5,model=8,zipv=[0.5,0,0.5,1,0,0,0],daily=IP,status=variable,NumCust=0
new load.3014186463M1 bus1=RML1011135474.1.2.3.0,Phases=3,kv=0.22,kW=14.2721,pf=0.92,Vminpu=0.92,Vmaxpu=1.5,model=8,zipv=[0.5,0,0.5,1,0,0,0],daily=RUR4_14,status=variable
new load.3005323410M1 bus1=RML1001119646.1.2.0,Phases=2,kv=0.24,kW=0.05016,pf=0.92,Vminpu=0.92,Vmaxpu=1.5,model=8,zipv=[0.5,0,0.5,1,0,0,0],daily=RUR1_24,status=variable
new load.3006251983M1 bus1=RML1003199878.1.0,Phases=1,kv=0.12,kW=0.75166,pf=0.92,Vminpu=0.92,Vmaxpu=1.5,model=8,zipv=[0.5,0,0.5,1,0,0,0],daily=RES5_16,status=variable
new load.3007078463M1 bus1=RML1003560777.1.2.0,Phases=2,kv=0.24,kW=1.89598,pf=0.92,Vminpu=0.92,Vmaxpu=1.5,model=8,zipv=[0.5,0,0.5,1,0,0,0],daily=RES2_7,status=variable
new load.3006670311M1 bus1=RML1003444080.1.0,Phases=1,kv=0.12,kW=0.41184,pf=0.92,Vminpu=0.92,Vmaxpu=1.5,model=8,zipv=[0.5,0,0.5,1,0,0,0],daily=RES1_2,status=variable
new load.3005525926M1 bus1=RML1001119926.1.2.0,Phases=2,kv=0.24,kW=0.69384,pf=0.92,Vminpu=0.92,Vmaxpu=1.5,model=8,zipv=[0.5,0,0.5,1,0,0,0],daily=RUR1_4,status=variable
new load.3005346796M1 bus1=RML1001120157.1.2.0,Phases=2,kv=0.24,kW=0.43798,pf=0.92,Vminpu=0.92,Vmaxpu=1.5,model=8,zipv=[0.5,0,0.5,1,0,0,0],daily=RES3_19,status=variable
new load.3002232320M1 bus1=RML1001120248.1.2.3.0,Phases=3,kv=0.22,kW=3.8417,pf=0.92,Vminpu=0.92,Vmaxpu=1.5,model=8,zipv=[0.5,0,0.5,1,0,0,0],daily=RES6_1,status=variable
new load.3005332422M1 bus1=RML1001120269.1.2.0,Phases=2,kv=0.24,kW=0.52218,pf=0.92,Vminpu=0.92,Vmaxpu=1.5,model=8,zipv=[0.5,0,0.5,1,0,0,0],daily=RES1_21,status=variable
new load.3003642136M1 bus1=RML1001120332.1.2.0,Phases=2,kv=0.24,kW=1.2041,pf=0.92,Vminpu=0.92,Vmaxpu=1.5,model=8,zipv=[0.5,0,0.5,1,0,0,0],daily=COM3_5,status=variable
new load.3002600855M1 bus1=RML1001120367.1.2.0,Phases=2,kv=0.24,kW=0.86778,pf=0.92,Vminpu=0.92,Vmaxpu=1.5,model=8,zipv=[0.5,0,0.5,1,0,0,0],daily=COM1_10,status=variable
new load.3003282000M1 bus1=RML1010888528.1.2.0,Phases=2,kv=0.24,kW=0.18148,pf=0.92,Vminpu=0.92,Vmaxpu=1.5,model=8,zipv=[0.5,0,0.5,1,0,0,0],daily=COM1_25,status=variable
new load.3003368242M1 bus1=RML1001121452.1.0,Phases=1,kv=0.12,kW=0.27292,pf=0.92,Vminpu=0.92,Vmaxpu=1.5,model=8,zipv=[0.5,0,0.5,1,0,0,0],daily=RES1_1,status=variable
new load.3010607533M1 bus1=RML1008105574.1.0,Phases=1,kv=0.12,kW=0.83894,pf=0.92,Vminpu=0.92,Vmaxpu=1.5,model=8,zipv=[0.5,0,0.5,1,0,0,0],daily=RES1_11,status=variable
new load.3010372845M1 bus1=RML1004022903.2.0,Phases=1,kv=0.12,kW=0.01254,pf=0.92,Vminpu=0.92,Vmaxpu=1.5,model=8,zipv=[0.5,0,0.5,1,0,0,0],daily=RES2_6,status=variable
new load.3002232248M1 bus1=RML1001121410.1.2.0,Phases=2,kv=0.24,kW=0.72654,pf=0.92,Vminpu=0.92,Vmaxpu=1.5,model=8,zipv=[0.5,0,0.5,1,0,0,0],daily=COM2_1,status=variable
new load.3002232250M1 bus1=RML1001121459.1.2.0,Phases=2,kv=0.24,kW=0.6298,pf=0.92,Vminpu=0.92,Vmaxpu=1.5,model=8,zipv=[0.5,0,0.5,1,0,0,0],daily=RES1_1,status=variable
new load.3002232251M1 bus1=RML1001121480.2.0,Phases=1,kv=0.12,kW=0.65462,pf=0.92,Vminpu=0.92,Vmaxpu=1.5,model=8,zipv=[0.5,0,0.5,1,0,0,0],daily=RES2_1,status=variable
new load.3002232252M1 bus1=RML1001121473.1.2.0,Phases=2,kv=0.24,kW=2.867,pf=0.92,Vminpu=0.92,Vmaxpu=1.5,model=8,zipv=[0.5,0,0.5,1,0,0,0],daily=RES3_1,status=variable
new load.3002232253M1 bus1=RML1001121466.2.0,Phases=1,kv=0.12,kW=0.72254,pf=0.92,Vminpu=0.92,Vmaxpu=1.5,model=8,zipv=[0.5,0,0.5,1,0,0,0],daily=RES2_1,status=variable
new load.3002232254M1 bus1=RML1001121487.1.0,Phases=1,kv=0.12,kW=0.41376,pf=0.92,Vminpu=0.92,Vmaxpu=1.5,model=8,zipv=[0.5,0,0.5,1,0,0,0],daily=RES2_1,status=variable
new load.3002232255M1 bus1=RML1001121431.1.0,Phases=1,kv=0.12,kW=0.59904,pf=0.92,Vminpu=0.92,Vmaxpu=1.5,model=8,zipv=[0.5,0,0.5,1,0,0,0],daily=RES2_1,status=variable
new load.3002232256M1 bus1=RML1001121424.1.0,Phases=1,kv=0.12,kW=3.0423,pf=0.92,Vminpu=0.92,Vmaxpu=1.5,model=8,zipv=[0.5,0,0.5,1,0,0,0],daily=RES4_2,status=variable
new load.3006251982M1 bus1=RML1003199941.2.0,Phases=1,kv=0.12,kW=1.1698,pf=0.92,Vminpu=0.92,Vmaxpu=1.5,model=8,zipv=[0.5,0,0.5,1,0,0,0],daily=RES3_15,status=variable
new load.3006240772M1 bus1=RML1003199934.1.2.0,Phases=2,kv=0.24,kW=1.10106,pf=0.92,Vminpu=0.92,Vmaxpu=1.5,model=8,zipv=[0.5,0,0.5,1,0,0,0],daily=COM1_21,status=variable
new load.3012736238M1 bus1=RML1010441678.2.0,Phases=1,kv=0.12,kW=0.353,pf=0.92,Vminpu=0.92,Vmaxpu=1.5,model=8,zipv=[0.5,0,0.5,1,0,0,0],daily=RES1_2,status=variable
new load.IP3867256M1 bus1=BBT734163.1.2.0,Phases=2,kv=0.24,kW=0.11292,pf=0.92,Vminpu=0.92,Vmaxpu=1.5,model=8,zipv=[0.5,0,0.5,1,0,0,0],daily=IP,status=variable,NumCust=0
new load.IP3867277M1 bus1=BBT734142.1.2.0,Phases=2,kv=0.24,kW=0.11292,pf=0.92,Vminpu=0.92,Vmaxpu=1.5,model=8,zipv=[0.5,0,0.5,1,0,0,0],daily=IP,status=variable,NumCust=0
new load.3010563394M1 bus1=RML1008160244.1.0,Phases=1,kv=0.12,kW=0.35496,pf=0.92,Vminpu=0.92,Vmaxpu=1.5,model=8,zipv=[0.5,0,0.5,1,0,0,0],daily=RES1_10,status=variable
new load.3005917210M1 bus1=RML1003009660.1.0,Phases=1,kv=0.12,kW=0.79752,pf=0.92,Vminpu=0.92,Vmaxpu=1.5,model=8,zipv=[0.5,0,0.5,1,0,0,0],daily=RES2_7,status=variable
new load.3002600770M1 bus1=RML1001121522.2.0,Phases=1,kv=0.12,kW=0.81366,pf=0.92,Vminpu=0.92,Vmaxpu=1.5,model=8,zipv=[0.5,0,0.5,1,0,0,0],daily=RES3_7,status=variable
new load.3002600771M1 bus1=RML1001121501.1.2.0,Phases=2,kv=0.24,kW=1.90086,pf=0.92,Vminpu=0.92,Vmaxpu=1.5,model=8,zipv=[0.5,0,0.5,1,0,0,0],daily=RES3_7,status=variable
new load.3002600778M1 bus1=RML1001121515.1.0,Phases=1,kv=0.12,kW=1.473,pf=0.92,Vminpu=0.92,Vmaxpu=1.5,model=8,zipv=[0.5,0,0.5,1,0,0,0],daily=RES3_7,status=variable
new load.3002600779M1 bus1=RML1001121515.1.0,Phases=1,kv=0.12,kW=0.0472,pf=0.92,Vminpu=0.92,Vmaxpu=1.5,model=8,zipv=[0.5,0,0.5,1,0,0,0],daily=RES1_6,status=variable
new load.3002600780M1 bus1=RML1001121529.2.0,Phases=1,kv=0.12,kW=0.73342,pf=0.92,Vminpu=0.92,Vmaxpu=1.5,model=8,zipv=[0.5,0,0.5,1,0,0,0],daily=RES2_6,status=variable
new load.3002600781M1 bus1=RML1001121578.2.0,Phases=1,kv=0.12,kW=0.85252,pf=0.92,Vminpu=0.92,Vmaxpu=1.5,model=8,zipv=[0.5,0,0.5,1,0,0,0],daily=RES2_6,status=variable
new load.3002600782M1 bus1=RML1001121571.1.0,Phases=1,kv=0.12,kW=0.77104,pf=0.92,Vminpu=0.92,Vmaxpu=1.5,model=8,zipv=[0.5,0,0.5,1,0,0,0],daily=RES2_6,status=variable
new load.3002600772M1 bus1=RML1001121620.1.0,Phases=1,kv=0.12,kW=0.64566,pf=0.92,Vminpu=0.92,Vmaxpu=1.5,model=8,zipv=[0.5,0,0.5,1,0,0,0],daily=RES2_6,status=variable
new load.3002600773M1 bus1=RML1010738090.1.2.0,Phases=2,kv=0.24,kW=0.118,pf=0.92,Vminpu=0.92,Vmaxpu=1.5,model=8,zipv=[0.5,0,0.5,1,0,0,0],daily=RES1_6,status=variable
new load.3002600774M1 bus1=RML1010738090.1.2.0,Phases=2,kv=0.24,kW=1.0155,pf=0.92,Vminpu=0.92,Vmaxpu=1.5,model=8,zipv=[0.5,0,0.5,1,0,0,0],daily=RES2_6,status=variable
new load.3002600775M1 bus1=RML1001121606.2.0,Phases=1,kv=0.12,kW=2.18296,pf=0.92,Vminpu=0.92,Vmaxpu=1.5,model=8,zipv=[0.5,0,0.5,1,0,0,0],daily=RES1_6,status=variable
new load.3002600776M1 bus1=RML1010346730.1.2.0,Phases=2,kv=0.24,kW=1.29062,pf=0.92,Vminpu=0.92,Vmaxpu=1.5,model=8,zipv=[0.5,0,0.5,1,0,0,0],daily=RES3_7,status=variable
new load.3002600777M1 bus1=RML1010346732.1.0,Phases=1,kv=0.12,kW=0.59,pf=0.92,Vminpu=0.92,Vmaxpu=1.5,model=8,zipv=[0.5,0,0.5,1,0,0,0],daily=RES1_6,status=variable
new load.3003331891M1 bus1=RML1001121683.2.0,Phases=1,kv=0.12,kW=0.20994,pf=0.92,Vminpu=0.92,Vmaxpu=1.5,model=8,zipv=[0.5,0,0.5,1,0,0,0],daily=RES1_1,status=variable
new load.3003331893M1 bus1=RML1001121711.1.0,Phases=1,kv=0.12,kW=0.61756,pf=0.92,Vminpu=0.92,Vmaxpu=1.5,model=8,zipv=[0.5,0,0.5,1,0,0,0],daily=RES2_1,status=variable
new load.3005905459M1 bus1=RML1003007882.1.0,Phases=1,kv=0.12,kW=0.51914,pf=0.92,Vminpu=0.92,Vmaxpu=1.5,model=8,zipv=[0.5,0,0.5,1,0,0,0],daily=RES2_7,status=variable
new load.3013500097M1 bus1=RML1003939463.1.2.0,Phases=2,kv=0.24,kW=1.4302,pf=0.92,Vminpu=0.92,Vmaxpu=1.5,model=8,zipv=[0.5,0,0.5,1,0,0,0],daily=RES3_14,status=variable
new load.3006762301M1 bus1=RML1003477575.1.0,Phases=1,kv=0.12,kW=0.62266,pf=0.92,Vminpu=0.92,Vmaxpu=1.5,model=8,zipv=[0.5,0,0.5,1,0,0,0],daily=RES2_5,status=variable
new load.3007268865M1 bus1=RML1003635299.1.2.0,Phases=2,kv=0.24,kW=0.95462,pf=0.92,Vminpu=0.92,Vmaxpu=1.5,model=8,zipv=[0.5,0,0.5,1,0,0,0],daily=COM3_12,status=variable
new load.3006702398M1 bus1=RML1003452235.1.2.0,Phases=2,kv=0.24,kW=0.62532,pf=0.92,Vminpu=0.92,Vmaxpu=1.5,model=8,zipv=[0.5,0,0.5,1,0,0,0],daily=RES2_4,status=variable
new load.3006025012M1 bus1=RML1003052878.2.0,Phases=1,kv=0.12,kW=0.6053,pf=0.92,Vminpu=0.92,Vmaxpu=1.5,model=8,zipv=[0.5,0,0.5,1,0,0,0],daily=RES2_10,status=variable
new load.3005047304M1 bus1=RML1001121886.1.0,Phases=1,kv=0.12,kW=1.56466,pf=0.92,Vminpu=0.92,Vmaxpu=1.5,model=8,zipv=[0.5,0,0.5,1,0,0,0],daily=RES1_13,status=variable
new load.3002600783M1 bus1=RML1001121914.2.0,Phases=1,kv=0.12,kW=0.97162,pf=0.92,Vminpu=0.92,Vmaxpu=1.5,model=8,zipv=[0.5,0,0.5,1,0,0,0],daily=RES2_6,status=variable
new load.3002600799M1 bus1=RML1001121921.1.0,Phases=1,kv=0.12,kW=0.6394,pf=0.92,Vminpu=0.92,Vmaxpu=1.5,model=8,zipv=[0.5,0,0.5,1,0,0,0],daily=RES2_6,status=variable
new load.3002600800M1 bus1=RML1001121893.2.0,Phases=1,kv=0.12,kW=0.59,pf=0.92,Vminpu=0.92,Vmaxpu=1.5,model=8,zipv=[0.5,0,0.5,1,0,0,0],daily=RES1_6,status=variable
new load.3002600801M1 bus1=RML1001121900.1.0,Phases=1,kv=0.12,kW=0.75222,pf=0.92,Vminpu=0.92,Vmaxpu=1.5,model=8,zipv=[0.5,0,0.5,1,0,0,0],daily=RES2_6,status=variable
new load.3002600794M1 bus1=RML1001121942.1.0,Phases=1,kv=0.12,kW=0.81492,pf=0.92,Vminpu=0.92,Vmaxpu=1.5,model=8,zipv=[0.5,0,0.5,1,0,0,0],daily=RES2_6,status=variable
new load.3002600795M1 bus1=RML1001121949.2.0,Phases=1,kv=0.12,kW=2.49006,pf=0.92,Vminpu=0.92,Vmaxpu=1.5,model=8,zipv=[0.5,0,0.5,1,0,0,0],daily=RES3_7,status=variable
new load.3002600796M1 bus1=RML1001121949.2.0,Phases=1,kv=0.12,kW=0.73342,pf=0.92,Vminpu=0.92,Vmaxpu=1.5,model=8,zipv=[0.5,0,0.5,1,0,0,0],daily=RES2_6,status=variable
new load.3002600798M1 bus1=RML1001121935.1.0,Phases=1,kv=0.12,kW=2.14636,pf=0.92,Vminpu=0.92,Vmaxpu=1.5,model=8,zipv=[0.5,0,0.5,1,0,0,0],daily=RES3_7,status=variable
new load.3005445213M1 bus1=RML1001121963.2.0,Phases=1,kv=0.12,kW=0.4193,pf=0.92,Vminpu=0.92,Vmaxpu=1.5,model=8,zipv=[0.5,0,0.5,1,0,0,0],daily=RES2_28,status=variable
new load.3007078422M1 bus1=RML1003560840.2.0,Phases=1,kv=0.12,kW=0.78248,pf=0.92,Vminpu=0.92,Vmaxpu=1.5,model=8,zipv=[0.5,0,0.5,1,0,0,0],daily=RES2_7,status=variable
new load.3010859925M1 bus1=RML1008422163.1.0,Phases=1,kv=0.12,kW=0.64226,pf=0.92,Vminpu=0.92,Vmaxpu=1.5,model=8,zipv=[0.5,0,0.5,1,0,0,0],daily=RES2_17,status=variable
new load.3004447388M1 bus1=RML1001122012.2.0,Phases=1,kv=0.12,kW=0.5983,pf=0.92,Vminpu=0.92,Vmaxpu=1.5,model=8,zipv=[0.5,0,0.5,1,0,0,0],daily=RES1_1,status=variable
new load.3004464677M1 bus1=RML1001122033.2.0,Phases=1,kv=0.12,kW=0.98668,pf=0.92,Vminpu=0.92,Vmaxpu=1.5,model=8,zipv=[0.5,0,0.5,1,0,0,0],daily=RES1_1,status=variable
new load.3003331888M1 bus1=RML1001121977.1.0,Phases=1,kv=0.12,kW=0.457,pf=0.92,Vminpu=0.92,Vmaxpu=1.5,model=8,zipv=[0.5,0,0.5,1,0,0,0],daily=RES2_1,status=variable
new load.3003331890M1 bus1=RML1001122005.1.0,Phases=1,kv=0.12,kW=0.74726,pf=0.92,Vminpu=0.92,Vmaxpu=1.5,model=8,zipv=[0.5,0,0.5,1,0,0,0],daily=RES2_1,status=variable
new load.3003331886M1 bus1=RML1001122152.1.0,Phases=1,kv=0.12,kW=0.76626,pf=0.92,Vminpu=0.92,Vmaxpu=1.5,model=8,zipv=[0.5,0,0.5,1,0,0,0],daily=RES1_1,status=variable
new load.3003331887M1 bus1=RML1001122096.2.0,Phases=1,kv=0.12,kW=0.73476,pf=0.92,Vminpu=0.92,Vmaxpu=1.5,model=8,zipv=[0.5,0,0.5,1,0,0,0],daily=RES1_1,status=variable
new load.3006350313M1 bus1=RML1001122320.1.2.0,Phases=2,kv=0.24,kW=1.29574,pf=0.92,Vminpu=0.92,Vmaxpu=1.5,model=8,zipv=[0.5,0,0.5,1,0,0,0],daily=RES5_17,status=variable
new load.3006387994M1 bus1=RML1003280301.1.2.0,Phases=2,kv=0.24,kW=0.32374,pf=0.92,Vminpu=0.92,Vmaxpu=1.5,model=8,zipv=[0.5,0,0.5,1,0,0,0],daily=COM1_23,status=variable
new load.3013309481M1 bus1=RML1010714729.1.0,Phases=1,kv=0.12,kW=0.5746,pf=0.92,Vminpu=0.92,Vmaxpu=1.5,model=8,zipv=[0.5,0,0.5,1,0,0,0],daily=RES1_9,status=variable
new load.3012674793M1 bus1=RML1010409139.2.0,Phases=1,kv=0.12,kW=0.55632,pf=0.92,Vminpu=0.92,Vmaxpu=1.5,model=8,zipv=[0.5,0,0.5,1,0,0,0],daily=RES1_1,status=variable
new load.IP3868817M1 bus1=BBT734863.1.2.0,Phases=2,kv=0.24,kW=0.11292,pf=0.92,Vminpu=0.92,Vmaxpu=1.5,model=8,zipv=[0.5,0,0.5,1,0,0,0],daily=IP,status=variable,NumCust=0
new load.IP3868838M1 bus1=BBT734828.1.2.0,Phases=2,kv=0.24,kW=0.133,pf=0.92,Vminpu=0.92,Vmaxpu=1.5,model=8,zipv=[0.5,0,0.5,1,0,0,0],daily=IP,status=variable,NumCust=0
new load.3005917209M1 bus1=RML1003009653.1.2.0,Phases=2,kv=0.24,kW=2.1763,pf=0.92,Vminpu=0.92,Vmaxpu=1.5,model=8,zipv=[0.5,0,0.5,1,0,0,0],daily=RES3_8,status=variable
new load.3005436755M1 bus1=RML1001122621.1.0,Phases=1,kv=0.12,kW=1.03892,pf=0.92,Vminpu=0.92,Vmaxpu=1.5,model=8,zipv=[0.5,0,0.5,1,0,0,0],daily=RES1_26,status=variable
new load.3012665651M1 bus1=RML1010415440.2.0,Phases=1,kv=0.12,kW=0.39888,pf=0.92,Vminpu=0.92,Vmaxpu=1.5,model=8,zipv=[0.5,0,0.5,1,0,0,0],daily=RES1_1,status=variable
new load.3006593399M1 bus1=RML1003396389.1.2.0,Phases=2,kv=0.24,kW=0.04654,pf=0.92,Vminpu=0.92,Vmaxpu=1.5,model=8,zipv=[0.5,0,0.5,1,0,0,0],daily=COM1_4,status=variable
new load.3007385505M1 bus1=RML1001122425.1.0,Phases=1,kv=0.12,kW=0.96746,pf=0.92,Vminpu=0.92,Vmaxpu=1.5,model=8,zipv=[0.5,0,0.5,1,0,0,0],daily=RES1_15,status=variable
new load.3007772443M1 bus1=RML1003894453.1.0,Phases=1,kv=0.12,kW=0.87694,pf=0.92,Vminpu=0.92,Vmaxpu=1.5,model=8,zipv=[0.5,0,0.5,1,0,0,0],daily=RES2_1,status=variable
new load.3007706794M1 bus1=RML1003872753.2.0,Phases=1,kv=0.12,kW=0.65478,pf=0.92,Vminpu=0.92,Vmaxpu=1.5,model=8,zipv=[0.5,0,0.5,1,0,0,0],daily=RES3_20,status=variable
new load.3003845143M1 bus1=RML1001122670.2.0,Phases=1,kv=0.12,kW=0.12638,pf=0.92,Vminpu=0.92,Vmaxpu=1.5,model=8,zipv=[0.5,0,0.5,1,0,0,0],daily=RES2_10,status=variable
new load.3004168593M1 bus1=RML1001122761.1.2.0,Phases=2,kv=0.24,kW=1.1435,pf=0.92,Vminpu=0.92,Vmaxpu=1.5,model=8,zipv=[0.5,0,0.5,1,0,0,0],daily=RES1_17,status=variable
new load.3003341665M1 bus1=RML1001122705.1.0,Phases=1,kv=0.12,kW=0.75342,pf=0.92,Vminpu=0.92,Vmaxpu=1.5,model=8,zipv=[0.5,0,0.5,1,0,0,0],daily=RES2_1,status=variable
new load.3010542375M1 bus1=RML1008062510.1.0,Phases=1,kv=0.12,kW=0.7612,pf=0.92,Vminpu=0.92,Vmaxpu=1.5,model=8,zipv=[0.5,0,0.5,1,0,0,0],daily=RES2_9,status=variable
new load.3007771508M1 bus1=RML1003890358.1.0,Phases=1,kv=0.12,kW=1.55366,pf=0.92,Vminpu=0.92,Vmaxpu=1.5,model=8,zipv=[0.5,0,0.5,1,0,0,0],daily=RES3_2,status=variable
new load.3011418641M1 bus1=RML1010501992.1.0,Phases=1,kv=0.12,kW=1.19984,pf=0.92,Vminpu=0.92,Vmaxpu=1.5,model=8,zipv=[0.5,0,0.5,1,0,0,0],daily=RES2_2,status=variable
new load.3006387993M1 bus1=RML1003280259.1.0,Phases=1,kv=0.12,kW=0.04488,pf=0.92,Vminpu=0.92,Vmaxpu=1.5,model=8,zipv=[0.5,0,0.5,1,0,0,0],daily=RES1_23,status=variable
new load.3006151869M1 bus1=RML1003133154.1.0,Phases=1,kv=0.12,kW=0.71818,pf=0.92,Vminpu=0.92,Vmaxpu=1.5,model=8,zipv=[0.5,0,0.5,1,0,0,0],daily=RES1_16,status=variable
new load.3011682508M1 bus1=RML1010501991.1.2.0,Phases=2,kv=0.24,kW=0.0409,pf=0.92,Vminpu=0.92,Vmaxpu=1.5,model=8,zipv=[0.5,0,0.5,1,0,0,0],daily=RES1_4,status=variable
new load.3011682520M1 bus1=RML1010501991.1.2.0,Phases=2,kv=0.24,kW=0.24448,pf=0.92,Vminpu=0.92,Vmaxpu=1.5,model=8,zipv=[0.5,0,0.5,1,0,0,0],daily=RES2_6,status=variable
new load.IP4024952M1 bus1=BBT3583653.1.2.0,Phases=2,kv=0.24,kW=0.11292,pf=0.92,Vminpu=0.92,Vmaxpu=1.5,model=8,zipv=[0.5,0,0.5,1,0,0,0],daily=IP,status=variable,NumCust=0
new load.3013988875M1 bus1=RML1011018778.1.2.0,Phases=2,kv=0.24,kW=0.74658,pf=0.92,Vminpu=0.92,Vmaxpu=1.5,model=8,zipv=[0.5,0,0.5,1,0,0,0],daily=RES3_20,status=variable
new load.3014001965M1 bus1=RML1011018778.1.2.0,Phases=2,kv=0.24,kW=0.35798,pf=0.92,Vminpu=0.92,Vmaxpu=1.5,model=8,zipv=[0.5,0,0.5,1,0,0,0],daily=RES3_20,status=variable
new load.3006240935M1 bus1=RML1003199703.1.2.0,Phases=2,kv=0.24,kW=0.75198,pf=0.92,Vminpu=0.92,Vmaxpu=1.5,model=8,zipv=[0.5,0,0.5,1,0,0,0],daily=RES2_18,status=variable
new load.3006240936M1 bus1=RML1003199696.1.2.0,Phases=2,kv=0.24,kW=0.22788,pf=0.92,Vminpu=0.92,Vmaxpu=1.5,model=8,zipv=[0.5,0,0.5,1,0,0,0],daily=RES1_18,status=variable
new load.3006325801M1 bus1=RML1001122810.1.2.0,Phases=2,kv=0.24,kW=0.33944,pf=0.92,Vminpu=0.92,Vmaxpu=1.5,model=8,zipv=[0.5,0,0.5,1,0,0,0],daily=RES2_22,status=variable
new load.3010748908M1 bus1=RML1008273056.1.2.0,Phases=2,kv=0.24,kW=1.0617,pf=0.92,Vminpu=0.92,Vmaxpu=1.5,model=8,zipv=[0.5,0,0.5,1,0,0,0],daily=RES2_14,status=variable
new load.3003322587M1 bus1=RML1001122894.1.0,Phases=1,kv=0.12,kW=0.62374,pf=0.92,Vminpu=0.92,Vmaxpu=1.5,model=8,zipv=[0.5,0,0.5,1,0,0,0],daily=RES2_1,status=variable
new load.3003281870M1 bus1=RML1001123006.1.0,Phases=1,kv=0.12,kW=0.86472,pf=0.92,Vminpu=0.92,Vmaxpu=1.5,model=8,zipv=[0.5,0,0.5,1,0,0,0],daily=COM1_25,status=variable
new load.3003969988M1 bus1=RML1001122859.1.2.0,Phases=2,kv=0.24,kW=0.02058,pf=0.92,Vminpu=0.92,Vmaxpu=1.5,model=8,zipv=[0.5,0,0.5,1,0,0,0],daily=COM1_15,status=variable
new load.3003969989M1 bus1=RML1001122936.2.0,Phases=1,kv=0.12,kW=0.41948,pf=0.92,Vminpu=0.92,Vmaxpu=1.5,model=8,zipv=[0.5,0,0.5,1,0,0,0],daily=RES1_11,status=variable
new load.3004095201M1 bus1=RML1001122999.1.0,Phases=1,kv=0.12,kW=0.59434,pf=0.92,Vminpu=0.92,Vmaxpu=1.5,model=8,zipv=[0.5,0,0.5,1,0,0,0],daily=RES2_17,status=variable
new load.3005938183M1 bus1=RML1003022981.2.0,Phases=1,kv=0.12,kW=1.4438,pf=0.92,Vminpu=0.92,Vmaxpu=1.5,model=8,zipv=[0.5,0,0.5,1,0,0,0],daily=RES2_8,status=variable
new load.3006047318M1 bus1=RML1003125433.1.2.0,Phases=2,kv=0.24,kW=0.50716,pf=0.92,Vminpu=0.92,Vmaxpu=1.5,model=8,zipv=[0.5,0,0.5,1,0,0,0],daily=COM1_14,status=variable
new load.3005863994M1 bus1=RML1002995338.2.0,Phases=1,kv=0.12,kW=0.51402,pf=0.92,Vminpu=0.92,Vmaxpu=1.5,model=8,zipv=[0.5,0,0.5,1,0,0,0],daily=RES2_6,status=variable
new load.3005209039M1 bus1=RML1001128270.2.0,Phases=1,kv=0.12,kW=0.2069,pf=0.92,Vminpu=0.92,Vmaxpu=1.5,model=8,zipv=[0.5,0,0.5,1,0,0,0],daily=RES1_18,status=variable
new load.3010706461M1 bus1=RML1008273077.2.0,Phases=1,kv=0.12,kW=0.81684,pf=0.92,Vminpu=0.92,Vmaxpu=1.5,model=8,zipv=[0.5,0,0.5,1,0,0,0],daily=RES2_13,status=variable
new load.3010826507M1 bus1=RML1008305984.1.2.0,Phases=2,kv=0.24,kW=0.01934,pf=0.92,Vminpu=0.92,Vmaxpu=1.5,model=8,zipv=[0.5,0,0.5,1,0,0,0],daily=COM1_20,status=variable
new load.3002232210M1 bus1=RML1001128319.1.0,Phases=1,kv=0.12,kW=0.3149,pf=0.92,Vminpu=0.92,Vmaxpu=1.5,model=8,zipv=[0.5,0,0.5,1,0,0,0],daily=RES1_1,status=variable
new load.3002232211M1 bus1=RML1001128312.1.2.0,Phases=2,kv=0.24,kW=0.7349,pf=0.92,Vminpu=0.92,Vmaxpu=1.5,model=8,zipv=[0.5,0,0.5,1,0,0,0],daily=RES2_1,status=variable
new load.3002232212M1 bus1=RML1001128298.2.0,Phases=1,kv=0.12,kW=0.72254,pf=0.92,Vminpu=0.92,Vmaxpu=1.5,model=8,zipv=[0.5,0,0.5,1,0,0,0],daily=RES2_1,status=variable
new load.3002232198M1 bus1=RML1001128340.2.0,Phases=1,kv=0.12,kW=0.28408,pf=0.92,Vminpu=0.92,Vmaxpu=1.5,model=8,zipv=[0.5,0,0.5,1,0,0,0],daily=RES2_1,status=variable
new load.3002232199M1 bus1=RML1001128347.1.0,Phases=1,kv=0.12,kW=0.61756,pf=0.92,Vminpu=0.92,Vmaxpu=1.5,model=8,zipv=[0.5,0,0.5,1,0,0,0],daily=RES2_1,status=variable
new load.3002232200M1 bus1=RML1001128368.1.2.0,Phases=2,kv=0.24,kW=0.19762,pf=0.92,Vminpu=0.92,Vmaxpu=1.5,model=8,zipv=[0.5,0,0.5,1,0,0,0],daily=RES2_1,status=variable
new load.3002232207M1 bus1=RML1001128382.1.0,Phases=1,kv=0.12,kW=0.87122,pf=0.92,Vminpu=0.92,Vmaxpu=1.5,model=8,zipv=[0.5,0,0.5,1,0,0,0],daily=RES1_1,status=variable
new load.3002232208M1 bus1=RML1001128333.1.0,Phases=1,kv=0.12,kW=0.00442,pf=0.92,Vminpu=0.92,Vmaxpu=1.5,model=8,zipv=[0.5,0,0.5,1,0,0,0],daily=COM1_2,status=variable
new load.3014207745M1 bus1=RML1011097160.1.0,Phases=1,kv=0.12,kW=1.4845,pf=0.92,Vminpu=0.92,Vmaxpu=1.5,model=8,zipv=[0.5,0,0.5,1,0,0,0],daily=RES2_14,status=variable
new load.3013230828M1 bus1=RML1010673248.2.0,Phases=1,kv=0.12,kW=0.23532,pf=0.92,Vminpu=0.92,Vmaxpu=1.5,model=8,zipv=[0.5,0,0.5,1,0,0,0],daily=RES1_7,status=variable
new load.3011666896M1 bus1=RML1009558536.1.0,Phases=1,kv=0.12,kW=0.72362,pf=0.92,Vminpu=0.92,Vmaxpu=1.5,model=8,zipv=[0.5,0,0.5,1,0,0,0],daily=RES2_5,status=variable
new load.3014293910M1 bus1=RML1011143091.1.2.0,Phases=2,kv=0.24,kW=1.72468,pf=0.92,Vminpu=0.92,Vmaxpu=1.5,model=8,zipv=[0.5,0,0.5,1,0,0,0],daily=SERVP2_9,status=variable
new load.3002232195M1 bus1=RML1001128536.2.0,Phases=1,kv=0.12,kW=0.34638,pf=0.92,Vminpu=0.92,Vmaxpu=1.5,model=8,zipv=[0.5,0,0.5,1,0,0,0],daily=RES1_1,status=variable
new load.3002232196M1 bus1=RML1001128515.1.0,Phases=1,kv=0.12,kW=0.67314,pf=0.92,Vminpu=0.92,Vmaxpu=1.5,model=8,zipv=[0.5,0,0.5,1,0,0,0],daily=RES2_1,status=variable
new load.3002232197M1 bus1=RML1001128501.2.0,Phases=1,kv=0.12,kW=0.48284,pf=0.92,Vminpu=0.92,Vmaxpu=1.5,model=8,zipv=[0.5,0,0.5,1,0,0,0],daily=RES1_1,status=variable
new load.3002232214M1 bus1=RML1001128522.2.0,Phases=1,kv=0.12,kW=0.39524,pf=0.92,Vminpu=0.92,Vmaxpu=1.5,model=8,zipv=[0.5,0,0.5,1,0,0,0],daily=RES2_1,status=variable
new load.3005156309M1 bus1=RML1001128487.1.2.0,Phases=2,kv=0.24,kW=1.5103,pf=0.92,Vminpu=0.92,Vmaxpu=1.5,model=8,zipv=[0.5,0,0.5,1,0,0,0],daily=RES1_16,status=variable
new load.3005034554M1 bus1=RML1001128669.2.0,Phases=1,kv=0.12,kW=0.99378,pf=0.92,Vminpu=0.92,Vmaxpu=1.5,model=8,zipv=[0.5,0,0.5,1,0,0,0],daily=RES1_13,status=variable
new load.3004102918M1 bus1=RML1001128634.1.0,Phases=1,kv=0.12,kW=1.10208,pf=0.92,Vminpu=0.92,Vmaxpu=1.5,model=8,zipv=[0.5,0,0.5,1,0,0,0],daily=RES3_15,status=variable
new load.3003281995M1 bus1=RML1001128592.1.2.0,Phases=2,kv=0.24,kW=0.121,pf=0.92,Vminpu=0.92,Vmaxpu=1.5,model=8,zipv=[0.5,0,0.5,1,0,0,0],daily=COM1_25,status=variable
new load.3003322536M1 bus1=RML1001128641.1.0,Phases=1,kv=0.12,kW=0.90164,pf=0.92,Vminpu=0.92,Vmaxpu=1.5,model=8,zipv=[0.5,0,0.5,1,0,0,0],daily=RES2_1,status=variable
new load.3003322537M1 bus1=RML1001128620.1.0,Phases=1,kv=0.12,kW=0.40936,pf=0.92,Vminpu=0.92,Vmaxpu=1.5,model=8,zipv=[0.5,0,0.5,1,0,0,0],daily=RES1_1,status=variable
new load.3002232242M1 bus1=RML1001128690.1.0,Phases=1,kv=0.12,kW=0.76578,pf=0.92,Vminpu=0.92,Vmaxpu=1.5,model=8,zipv=[0.5,0,0.5,1,0,0,0],daily=RES2_1,status=variable
new load.3002232245M1 bus1=RML1001128662.2.0,Phases=1,kv=0.12,kW=2.75426,pf=0.92,Vminpu=0.92,Vmaxpu=1.5,model=8,zipv=[0.5,0,0.5,1,0,0,0],daily=RES3_1,status=variable
new load.3002232246M1 bus1=RML1001128613.1.0,Phases=1,kv=0.12,kW=0.5558,pf=0.92,Vminpu=0.92,Vmaxpu=1.5,model=8,zipv=[0.5,0,0.5,1,0,0,0],daily=RES2_1,status=variable
new load.3002232247M1 bus1=RML1001128599.2.0,Phases=1,kv=0.12,kW=3.75288,pf=0.92,Vminpu=0.92,Vmaxpu=1.5,model=8,zipv=[0.5,0,0.5,1,0,0,0],daily=RES3_1,status=variable
new load.3010728861M1 bus1=RML1008261212.1.2.0,Phases=2,kv=0.24,kW=0.27106,pf=0.92,Vminpu=0.92,Vmaxpu=1.5,model=8,zipv=[0.5,0,0.5,1,0,0,0],daily=COM1_19,status=variable
new load.3011683306M1 bus1=RML1010648751.1.0,Phases=1,kv=0.12,kW=0.13634,pf=0.92,Vminpu=0.92,Vmaxpu=1.5,model=8,zipv=[0.5,0,0.5,1,0,0,0],daily=RES1_4,status=variable
new load.3011767018M1 bus1=RML1001128718.1.0,Phases=1,kv=0.12,kW=0.7961,pf=0.92,Vminpu=0.92,Vmaxpu=1.5,model=8,zipv=[0.5,0,0.5,1,0,0,0],daily=RES2_6,status=variable
new load.3013144599M1 bus1=RML1010625944.2.0,Phases=1,kv=0.12,kW=0.78984,pf=0.92,Vminpu=0.92,Vmaxpu=1.5,model=8,zipv=[0.5,0,0.5,1,0,0,0],daily=RES2_6,status=variable
new load.3012595051M1 bus1=RML1010398424.1.0,Phases=1,kv=0.12,kW=0.31496,pf=0.92,Vminpu=0.92,Vmaxpu=1.5,model=8,zipv=[0.5,0,0.5,1,0,0,0],daily=RES2_1,status=variable
new load.3002232270M1 bus1=RML1001128844.2.0,Phases=1,kv=0.12,kW=0.08398,pf=0.92,Vminpu=0.92,Vmaxpu=1.5,model=8,zipv=[0.5,0,0.5,1,0,0,0],daily=RES1_1,status=variable
new load.3002232273M1 bus1=RML1001128886.1.2.0,Phases=2,kv=0.24,kW=0.62374,pf=0.92,Vminpu=0.92,Vmaxpu=1.5,model=8,zipv=[0.5,0,0.5,1,0,0,0],daily=RES2_1,status=variable
new load.3002232274M1 bus1=RML1001128865.1.2.0,Phases=2,kv=0.24,kW=0.49406,pf=0.92,Vminpu=0.92,Vmaxpu=1.5,model=8,zipv=[0.5,0,0.5,1,0,0,0],daily=RES2_1,status=variable
new load.3002232276M1 bus1=RML1001128837.1.0,Phases=1,kv=0.12,kW=0.57434,pf=0.92,Vminpu=0.92,Vmaxpu=1.5,model=8,zipv=[0.5,0,0.5,1,0,0,0],daily=RES2_1,status=variable