new line.CTR103496 bus1=BMT164369204.1,bus2=BMT164369209.1,Phases=1,LineCode=tieSwitch1,Length=0.001,Units=km,switch=T !numEQ 72160
new line.CTR108872 bus1=BMT164367713.3,bus2=BMT164367748.3,Phases=1,LineCode=tieSwitch1,Length=0.001,Units=km,switch=T !numEQ 74696
new line.CTR108900 bus1=BMT164369132.2,bus2=BMT173628227.2,Phases=1,LineCode=tieSwitch1,Length=0.001,Units=km,switch=T !numEQ 74698
new line.CTR109222 bus1=BMT164368353.2,bus2=BMT164368359.2,Phases=1,LineCode=tieSwitch1,Length=0.001,Units=km,switch=T !numEQ 275957
new line.CTR109243 bus1=BMT164367574.3,bus2=BMT164367595.3,Phases=1,LineCode=tieSwitch1,Length=0.001,Units=km,switch=T !numEQ 74688
new line.CTR109320 bus1=BMT164369099.3,bus2=BMT176458545.3,Phases=1,LineCode=tieSwitch1,Length=0.001,Units=km,switch=T !numEQ 74674
new line.CTR109502 bus1=BMT164367799.1.2.3,bus2=BMT164368508.1.2.3,Phases=3,LineCode=tieSwitch,Length=0.001,Units=km,switch=T !numEQ 74202
new line.CTR109530 bus1=BMT164369283.1.2.3,bus2=BMT164369358.1.2.3,Phases=3,LineCode=tieSwitch,Length=0.001,Units=km,switch=T !numEQ 74258
new line.CTR109740 bus1=BMT164368866.2,bus2=BMT164368869.2,Phases=1,LineCode=tieSwitch1,Length=0.001,Units=km,switch=T !numEQ 74658
new line.CTR114822 bus1=BMT164368862.1.2.3,bus2=BMT164368873.1.2.3,Phases=3,LineCode=tieSwitch,Length=0.001,Units=km,switch=T !numEQ 75484
new line.CTR115046 bus1=BMT164368586.2,bus2=BMT164368605.2,Phases=1,LineCode=tieSwitch1,Length=0.001,Units=km,switch=T !numEQ 75416
new line.CTR124874 bus1=BMT169371283.1.2.3,bus2=BMT164367804.1.2.3,Phases=3,LineCode=tieSwitch,Length=0.001,Units=km,switch=T !numEQ 98318
new line.CTR129914 bus1=BMT164367818.1,bus2=BMT171650912.1,Phases=1,LineCode=tieSwitch1,Length=0.001,Units=km,switch=T !numEQ 98905
new line.CTR130306 bus1=BMT164369112.2,bus2=BMT164369114.2,Phases=1,LineCode=tieSwitch1,Length=0.001,Units=km,switch=T !numEQ 98922
new line.CTR130768 bus1=BMT164369115.2,bus2=BMT164369117.2,Phases=1,LineCode=tieSwitch1,Length=0.001,Units=km,switch=T !numEQ 98921
new line.CTR131181 bus1=BMT164367966.1,bus2=BMT164367982.1,Phases=1,LineCode=tieSwitch1,Length=0.001,Units=km,switch=T !numEQ 99607
new line.CTR131664 bus1=BMT164367992.1,bus2=BMT164368003.1,Phases=1,LineCode=tieSwitch1,Length=0.001,Units=km,switch=T !numEQ 99637
new line.CTR13798 bus1=BMT164367475.2,bus2=BMT164369460.2,Phases=1,LineCode=tieSwitch1,Length=0.001,Units=km,switch=T !numEQ 160377
new line.CTR138216 bus1=BMT164368081.2,bus2=BMT164368082.2,Phases=1,LineCode=tieSwitch1,Length=0.001,Units=km,switch=T !numEQ 75499
new line.CTR138230 bus1=BMT164367557.1.2.3,bus2=BMT164367558.1.2.3,Phases=3,LineCode=tieSwitch,Length=0.001,Units=km,switch=T !numEQ 74673
new line.CTR26741 bus1=BMT164369281.1,bus2=BMT164369366.1,Phases=1,LineCode=tieSwitch1,Length=0.001,Units=km,switch=T !numEQ 74686
new line.CTR27770 bus1=BMT164368964.1,bus2=BMT164368966.1,Phases=1,LineCode=tieSwitch1,Length=0.001,Units=km,switch=T !numEQ 75455
new line.CTR27784 bus1=BMT164368448.3,bus2=BMT164368449.3,Phases=1,LineCode=tieSwitch1,Length=0.001,Units=km,switch=T !numEQ 75497
new line.CTR27840 bus1=BMT164367716.3,bus2=BMT164367742.3,Phases=1,LineCode=tieSwitch1,Length=0.001,Units=km,switch=T !numEQ 75459
new line.CTR27854 bus1=BMT164367639.1,bus2=BMT176618557.1,Phases=1,LineCode=tieSwitch1,Length=0.001,Units=km,switch=T !numEQ 74922
new line.CTR2969 bus1=BMT164367794.1.2.3,bus2=BMT164367795.1.2.3,Phases=3,LineCode=tieSwitch,Length=0.001,Units=km,switch=T !numEQ 198223
new line.CTR29912 bus1=BMT164367703.3,bus2=BMT164367774.3,Phases=1,LineCode=tieSwitch1,Length=0.001,Units=km,switch=T !numEQ 160617
new line.CTR33006 bus1=BMT164368410.2,bus2=BMT164368426.2,Phases=1,LineCode=tieSwitch1,Length=0.001,Units=km,switch=T !numEQ 98488
new line.CTR33300 bus1=BMT164367723.3,bus2=BMT174069381.3,Phases=1,LineCode=tieSwitch1,Length=0.001,Units=km,switch=T !numEQ 332872
new line.CTR36968 bus1=BMT164367388.1.2.3,bus2=BMT164367455.1.2.3,Phases=3,LineCode=tieSwitch,Length=0.001,Units=km,switch=T !numEQ 75608
new line.CTR43156 bus1=BMT164368165.2,bus2=BMT164368171.2,Phases=1,LineCode=tieSwitch1,Length=0.001,Units=km,switch=T !numEQ 99599
new line.CTR4635 bus1=BMT164367793.1,bus2=BMT164368682.1,Phases=1,LineCode=tieSwitch1,Length=0.001,Units=km,switch=T !numEQ 74942
new line.CTR535158 bus1=BMT164367916.1,bus2=BMT164367956.1,Phases=1,LineCode=tieSwitch1,Length=0.001,Units=km,switch=T !numEQ 99604
new line.CTR535354 bus1=BMT164368232.3,bus2=BMT164368243.3,Phases=1,LineCode=tieSwitch1,Length=0.001,Units=km,switch=T !numEQ 98439
new line.CTR535368 bus1=BMT164369469.1.2.3,bus2=BMT164369480.1.2.3,Phases=3,LineCode=tieSwitch,Length=0.001,Units=km,switch=T !numEQ 210134
new line.CTR535550 bus1=BMT164369160.1,bus2=BMT170264952.1,Phases=1,LineCode=tieSwitch1,Length=0.001,Units=km,switch=T !numEQ 275960
new line.CTR535564 bus1=BMT164367756.3,bus2=BMT164367759.3,Phases=1,LineCode=tieSwitch1,Length=0.001,Units=km,switch=T !numEQ 99575
new line.CTR536586 bus1=BMT164368548.1.2.3,bus2=BMT164917337.1.2.3,Phases=3,LineCode=tieSwitch,Length=0.001,Units=km,switch=T !numEQ 99504
new line.CTR536614 bus1=BMT164367689.3,bus2=BMT176764902.3,Phases=1,LineCode=tieSwitch1,Length=0.001,Units=km,switch=T !numEQ 99584
new line.CTR536768 bus1=BMT164367938.1,bus2=BMT164367942.1,Phases=1,LineCode=tieSwitch1,Length=0.001,Units=km,switch=T !numEQ 99605
new line.CTR546204 bus1=BMT164369379.3,bus2=BMT164369382.3,Phases=1,LineCode=tieSwitch1,Length=0.001,Units=km,switch=T !numEQ 162682
new line.CTR591291 bus1=BMT164368767.1.2.3,bus2=BMT164368768.1.2.3,Phases=3,LineCode=tieSwitch,Length=0.001,Units=km,switch=T !numEQ 198250
new line.CTR59452 bus1=BMT164367383.1.2.3,bus2=BMT176001535.1.2.3,Phases=3,LineCode=tieSwitch,Length=0.001,Units=km,switch=T !numEQ 75176
new line.CTR595239 bus1=BMT164367575.3,bus2=BMT166680978.3,Phases=1,LineCode=tieSwitch1,Length=0.001,Units=km,switch=T !numEQ 99781
new line.CTR637379 bus1=BMT164369464.1,bus2=BMT164369486.1,Phases=1,LineCode=tieSwitch1,Length=0.001,Units=km,switch=T !numEQ 99967
new line.CTR637610 bus1=BMT164367400.1,bus2=BMT164367442.1,Phases=1,LineCode=tieSwitch1,Length=0.001,Units=km,switch=T !numEQ 99962
new line.CTR639185 bus1=BMT164367397.1,bus2=BMT164367447.1,Phases=1,LineCode=tieSwitch1,Length=0.001,Units=km,switch=T !numEQ 99963
new line.CTR639199 bus1=BMT164367479.3,bus2=BMT164369450.3,Phases=1,LineCode=tieSwitch1,Length=0.001,Units=km,switch=T !numEQ 99966
new line.CTR113422 bus1=BMT164367717.3,bus2=BMT164367719.3,Phases=1,LineCode=tieSwitch1,Length=0.001,Units=km,switch=T !numEQ 75458
new line.CTR113436 bus1=BMT164368061.2,bus2=BMT164368147.2,Phases=1,LineCode=tieSwitch1,Length=0.001,Units=km,switch=T !numEQ 75488
new line.CTR12160 bus1=BMT164367850.1.2.3,bus2=BMT164368049.1.2.3,Phases=3,LineCode=tieSwitch,Length=0.001,Units=km,switch=T !numEQ 98575
new line.CTR132126 bus1=BMT164367695.1.2.3,bus2=BMT164367696.1.2.3,Phases=3,LineCode=tieSwitch,Length=0.001,Units=km,switch=T !numEQ 99498
new line.CTR132539 bus1=BMT164369158.1,bus2=BMT173985362.1,Phases=1,LineCode=tieSwitch1,Length=0.001,Units=km,switch=T !numEQ 275999
new line.CTR133428 bus1=BMT164368704.1,bus2=BMT164368706.1,Phases=1,LineCode=tieSwitch1,Length=0.001,Units=km,switch=T !numEQ 99583
new line.CTR163892 bus1=BMT164368192.2,bus2=BMT170826039.2,Phases=1,LineCode=tieSwitch1,Length=0.001,Units=km,switch=T !numEQ 163441
new line.CTR25481 bus1=BMT164369200.1,bus2=BMT164369203.1,Phases=1,LineCode=tieSwitch1,Length=0.001,Units=km,switch=T !numEQ 72159
new line.CTR26895 bus1=BMT164369413.2,bus2=BMT164369414.2,Phases=1,LineCode=tieSwitch1,Length=0.001,Units=km,switch=T !numEQ 74670
new line.CTR26909 bus1=BMT164369323.1.2.3,bus2=BMT175474800.1.2.3,Phases=3,LineCode=tieSwitch,Length=0.001,Units=km,switch=T !numEQ 74251
new line.CTR26937 bus1=BMT164367780.1,bus2=BMT164368954.1,Phases=1,LineCode=tieSwitch1,Length=0.001,Units=km,switch=T !numEQ 74657
new line.CTR27966 bus1=BMT164368910.1,bus2=BMT164368917.1,Phases=1,LineCode=tieSwitch1,Length=0.001,Units=km,switch=T !numEQ 75462
new line.CTR27980 bus1=BMT164367798.1.2.3,bus2=BMT175017969.1.2.3,Phases=3,LineCode=tieSwitch,Length=0.001,Units=km,switch=T !numEQ 75475
new line.CTR34420 bus1=BMT164367625.3,bus2=BMT168223938.3,Phases=1,LineCode=tieSwitch1,Length=0.001,Units=km,switch=T !numEQ 99572
new line.CTR34434 bus1=BMT164367704.3,bus2=BMT164367767.3,Phases=1,LineCode=tieSwitch1,Length=0.001,Units=km,switch=T !numEQ 99581
new line.CTR34476 bus1=BMT164368581.2,bus2=BMT168380815.2,Phases=1,LineCode=tieSwitch1,Length=0.001,Units=km,switch=T !numEQ 98567
new line.CTR34630 bus1=BMT164367867.3,bus2=BMT164367893.3,Phases=1,LineCode=tieSwitch1,Length=0.001,Units=km,switch=T !numEQ 99701
new line.CTR34658 bus1=BMT164367483.1,bus2=BMT169744611.1,Phases=1,LineCode=tieSwitch1,Length=0.001,Units=km,switch=T !numEQ 72609
new line.CTR44808 bus1=BMT164367519.2,bus2=BMT171469750.2,Phases=1,LineCode=tieSwitch1,Length=0.001,Units=km,switch=T !numEQ 74693
new line.CTR469057 bus1=BMT164369287.1.2.3,bus2=BMT164369355.1.2.3,Phases=3,LineCode=tieSwitch,Length=0.001,Units=km,switch=T !numEQ 162897
new line.CTR47328 bus1=BMT164367396.1,bus2=BMT164367451.1,Phases=1,LineCode=tieSwitch1,Length=0.001,Units=km,switch=T !numEQ 163109
new line.CTR519114 bus1=BMT164367637.3,bus2=BMT164368971.3,Phases=1,LineCode=tieSwitch1,Length=0.001,Units=km,switch=T !numEQ 74923
new line.CTR585642 bus1=BMT164368523.2,bus2=BMT164368659.2,Phases=1,LineCode=tieSwitch1,Length=0.001,Units=km,switch=T !numEQ 99585
new line.CTR587595 bus1=BMT164369210.1,bus2=BMT164369212.1,Phases=1,LineCode=tieSwitch1,Length=0.001,Units=km,switch=T !numEQ 162659
new line.CTR610639 bus1=BMT164367688.1,bus2=BMT164368960.1,Phases=1,LineCode=tieSwitch1,Length=0.001,Units=km,switch=T !numEQ 74236
new line.CTR610653 bus1=BMT164367838.1.2.3,bus2=BMT164368153.1.2.3,Phases=3,LineCode=tieSwitch,Length=0.001,Units=km,switch=T !numEQ 74237
new line.CTR610828 bus1=BMT164368757.1.2.3,bus2=BMT164368769.1.2.3,Phases=3,LineCode=tieSwitch,Length=0.001,Units=km,switch=T !numEQ 198251
new line.CTR611192 bus1=BMT164368115.2,bus2=BMT164368117.2,Phases=1,LineCode=tieSwitch1,Length=0.001,Units=km,switch=T !numEQ 74684
new line.CTR611311 bus1=BMT164368835.1.2.3,bus2=BMT164368879.1.2.3,Phases=3,LineCode=tieSwitch,Length=0.001,Units=km,switch=T !numEQ 74263
new line.CTR611703 bus1=BMT164369100.1,bus2=BMT173985422.1,Phases=1,LineCode=tieSwitch1,Length=0.001,Units=km,switch=T !numEQ 74677
new line.CTR611745 bus1=BMT164368329.3,bus2=BMT164368442.3,Phases=1,LineCode=tieSwitch1,Length=0.001,Units=km,switch=T !numEQ 74652
new line.CTR612480 bus1=BMT164369284.1.2.3,bus2=BMT164369285.1.2.3,Phases=3,LineCode=tieSwitch,Length=0.001,Units=km,switch=T !numEQ 74949
new line.CTR612655 bus1=BMT164367873.3,bus2=BMT164367880.3,Phases=1,LineCode=tieSwitch1,Length=0.001,Units=km,switch=T !numEQ 74793
new line.CTR612697 bus1=BMT164367687.1,bus2=BMT164368962.1,Phases=1,LineCode=tieSwitch1,Length=0.001,Units=km,switch=T !numEQ 74665
new line.CTR612725 bus1=BMT164368155.1.2.3,bus2=BMT164368210.1.2.3,Phases=3,LineCode=tieSwitch,Length=0.001,Units=km,switch=T !numEQ 74699
new line.CTR613264 bus1=BMT164367606.3,bus2=BMT164369069.3,Phases=1,LineCode=tieSwitch1,Length=0.001,Units=km,switch=T !numEQ 74948
new line.CTR613355 bus1=BMT164368776.3,bus2=BMT164368779.3,Phases=1,LineCode=tieSwitch1,Length=0.001,Units=km,switch=T !numEQ 74656
new line.CTR613663 bus1=BMT164369226.3,bus2=BMT173638092.3,Phases=1,LineCode=tieSwitch1,Length=0.001,Units=km,switch=T !numEQ 74669
new line.CTR613859 bus1=BMT164368831.1.2.3,bus2=BMT164368837.1.2.3,Phases=3,LineCode=tieSwitch,Length=0.001,Units=km,switch=T !numEQ 74667
new line.CTR613873 bus1=BMT164367517.3,bus2=BMT164369259.3,Phases=1,LineCode=tieSwitch1,Length=0.001,Units=km,switch=T !numEQ 74671
new line.CTR613957 bus1=BMT164368062.2,bus2=BMT164368099.2,Phases=1,LineCode=tieSwitch1,Length=0.001,Units=km,switch=T !numEQ 74924
new line.CTR614755 bus1=BMT164367812.1,bus2=BMT164368489.1,Phases=1,LineCode=tieSwitch1,Length=0.001,Units=km,switch=T !numEQ 74939
new line.CTR614937 bus1=BMT164368759.1.2.3,bus2=BMT164368946.1.2.3,Phases=3,LineCode=tieSwitch,Length=0.001,Units=km,switch=T !numEQ 75471
new line.CTR615161 bus1=BMT164369005.2,bus2=BMT164369011.2,Phases=1,LineCode=tieSwitch1,Length=0.001,Units=km,switch=T !numEQ 75412
new line.CTR615203 bus1=BMT164368753.1.2.3,bus2=BMT164368948.1.2.3,Phases=3,LineCode=tieSwitch,Length=0.001,Units=km,switch=T !numEQ 75470
new line.CTR615441 bus1=BMT164368064.2,bus2=BMT164368095.2,Phases=1,LineCode=tieSwitch1,Length=0.001,Units=km,switch=T !numEQ 75490
new line.CTR615833 bus1=BMT164369282.1.2.3,bus2=BMT164369364.1.2.3,Phases=3,LineCode=tieSwitch,Length=0.001,Units=km,switch=T !numEQ 75419
new line.CTR616421 bus1=BMT164369001.2,bus2=BMT164369009.2,Phases=1,LineCode=tieSwitch1,Length=0.001,Units=km,switch=T !numEQ 75463
new line.CTR102166 bus1=BMT164369324.1.2.3,bus2=BMT164369329.1.2.3,Phases=3,LineCode=tieSwitch,Length=0.001,Units=km,switch=T !numEQ 72038
new line.CTR106709 bus1=BMT164367482.1.2.3,bus2=BMT164369402.1.2.3,Phases=3,LineCode=tieSwitch,Length=0.001,Units=km,switch=T !numEQ 73948
new line.CTR107290 bus1=BMT164368577.2,bus2=BMT164368609.2,Phases=1,LineCode=tieSwitch1,Length=0.001,Units=km,switch=T !numEQ 73445
new line.CTR108221 bus1=BMT164368905.1,bus2=BMT164368906.1,Phases=1,LineCode=tieSwitch1,Length=0.001,Units=km,switch=T !numEQ 74264
new line.CTR111924 bus1=BMT164367854.1,bus2=BMT164367905.1,Phases=1,LineCode=tieSwitch1,Length=0.001,Units=km,switch=T !numEQ 74796
new line.CTR112120 bus1=BMT164367919.1,bus2=BMT165242461.1,Phases=1,LineCode=tieSwitch1,Length=0.001,Units=km,switch=T !numEQ 75062
new line.CTR112470 bus1=BMT164368558.3,bus2=BMT164368613.3,Phases=1,LineCode=tieSwitch1,Length=0.001,Units=km,switch=T !numEQ 75417
new line.CTR112512 bus1=BMT164368909.1,bus2=BMT164368934.1,Phases=1,LineCode=tieSwitch1,Length=0.001,Units=km,switch=T !numEQ 75467
new line.CTR127478 bus1=BMT164368924.1,bus2=BMT164368928.1,Phases=1,LineCode=tieSwitch1,Length=0.001,Units=km,switch=T !numEQ 98490
new line.CTR133750 bus1=BMT164367412.1,bus2=BMT164367421.1,Phases=1,LineCode=tieSwitch1,Length=0.001,Units=km,switch=T !numEQ 99960
new line.CTR152188 bus1=BMT164368342.2,bus2=BMT164368431.2,Phases=1,LineCode=tieSwitch1,Length=0.001,Units=km,switch=T !numEQ 74651
new line.CTR159874 bus1=BMT173638103.3,bus2=BMT164367569.3,Phases=1,LineCode=tieSwitch1,Length=0.001,Units=km,switch=T !numEQ 99779
open line.CTR159874 term=1
new line.CTR167679 bus1=BMT164367989.1,bus2=BMT164367991.1,Phases=1,LineCode=tieSwitch1,Length=0.001,Units=km,switch=T !numEQ 75061
new line.CTR26062 bus1=BMT164368782.3,bus2=BMT166341031.3,Phases=1,LineCode=tieSwitch1,Length=0.001,Units=km,switch=T !numEQ 73066
new line.CTR27336 bus1=BMT164367853.3,bus2=BMT164368039.3,Phases=1,LineCode=tieSwitch1,Length=0.001,Units=km,switch=T !numEQ 75133
new line.CTR28302 bus1=BMT164369014.2,bus2=BMT164369034.2,Phases=1,LineCode=tieSwitch1,Length=0.001,Units=km,switch=T !numEQ 73572
new line.CTR29380 bus1=BMT164367947.1,bus2=BMT164367950.1,Phases=1,LineCode=tieSwitch1,Length=0.001,Units=km,switch=T !numEQ 162922
new line.CTR32124 bus1=BMT164367710.3,bus2=BMT164367751.3,Phases=1,LineCode=tieSwitch1,Length=0.001,Units=km,switch=T !numEQ 75420
new line.CTR35218 bus1=BMT164369507.1,bus2=BMT164369508.1,Phases=1,LineCode=tieSwitch1,Length=0.001,Units=km,switch=T !numEQ 99965
new line.CTR515390 bus1=BMT164367613.1.2.3,bus2=BMT164368980.1.2.3,Phases=3,LineCode=tieSwitch,Length=0.001,Units=km,switch=T !numEQ 74243
new line.CTR516048 bus1=BMT164367491.3,bus2=BMT164369377.3,Phases=1,LineCode=tieSwitch1,Length=0.001,Units=km,switch=T !numEQ 160236
new line.CTR538322 bus1=BMT164368537.1.2.3,bus2=BMT173888888.1.2.3,Phases=3,LineCode=tieSwitch,Length=0.001,Units=km,switch=T !numEQ 100401
new line.CTR567561 bus1=BMT164368372.2,bus2=BMT164368398.2,Phases=1,LineCode=tieSwitch1,Length=0.001,Units=km,switch=T !numEQ 100633
new line.CTR570557 bus1=BMT164367605.3,bus2=BMT164369072.3,Phases=1,LineCode=tieSwitch1,Length=0.001,Units=km,switch=T !numEQ 73577
new line.CTR607069 bus1=BMT174109627.1.2.3,bus2=BMT164369314.1.2.3,Phases=3,LineCode=tieSwitch,Length=0.001,Units=km,switch=T !numEQ 72156
new line.CTR609722 bus1=BMT164368944.1.2.3,bus2=BMT164368861.1.2.3,Phases=3,LineCode=tieSwitch,Length=0.001,Units=km,switch=T !numEQ 73484
open line.CTR609722 term=1
new line.CTR630925 bus1=BMT164368102.2,bus2=BMT164368144.2,Phases=1,LineCode=tieSwitch1,Length=0.001,Units=km,switch=T !numEQ 98391
new line.CTR631205 bus1=BMT164368187.2,bus2=BMT164368199.2,Phases=1,LineCode=tieSwitch1,Length=0.001,Units=km,switch=T !numEQ 98943
new line.CTR631807 bus1=BMT164369024.2,bus2=BMT164369026.2,Phases=1,LineCode=tieSwitch1,Length=0.001,Units=km,switch=T !numEQ 98455
new line.CTR632353 bus1=BMT164368834.1.2.3,bus2=BMT164368844.1.2.3,Phases=3,LineCode=tieSwitch,Length=0.001,Units=km,switch=T !numEQ 98425
new line.CTR632507 bus1=BMT164368050.1.2.3,bus2=BMT164368052.1.2.3,Phases=3,LineCode=tieSwitch,Length=0.001,Units=km,switch=T !numEQ 98576
new line.CTR632717 bus1=BMT164368691.1,bus2=BMT164368692.1,Phases=1,LineCode=tieSwitch1,Length=0.001,Units=km,switch=T !numEQ 99587
new line.CTR632759 bus1=BMT164368574.2,bus2=BMT164368576.2,Phases=1,LineCode=tieSwitch1,Length=0.001,Units=km,switch=T !numEQ 98407
new line.CTR633025 bus1=BMT164367910.1,bus2=BMT164368011.1,Phases=1,LineCode=tieSwitch1,Length=0.001,Units=km,switch=T !numEQ 74798
new line.CTR633557 bus1=BMT164367705.3,bus2=BMT164367765.3,Phases=1,LineCode=tieSwitch1,Length=0.001,Units=km,switch=T !numEQ 99579
new line.CTR633865 bus1=BMT164369233.3,bus2=BMT164369241.3,Phases=1,LineCode=tieSwitch1,Length=0.001,Units=km,switch=T !numEQ 99780
new line.CTR633928 bus1=BMT164368445.3,bus2=BMT164368457.3,Phases=1,LineCode=tieSwitch1,Length=0.001,Units=km,switch=T !numEQ 99593
new line.CTR634313 bus1=BMT164368889.1.2.3,bus2=BMT164368890.1.2.3,Phases=3,LineCode=tieSwitch,Length=0.001,Units=km,switch=T !numEQ 99508
new line.CTR634537 bus1=BMT164367656.1,bus2=BMT164367661.1,Phases=1,LineCode=tieSwitch1,Length=0.001,Units=km,switch=T !numEQ 99573
new line.CTR634565 bus1=BMT164367809.3,bus2=BMT164368491.3,Phases=1,LineCode=tieSwitch1,Length=0.001,Units=km,switch=T !numEQ 99590
new line.CTR634579 bus1=BMT164367967.1,bus2=BMT164367977.1,Phases=1,LineCode=tieSwitch1,Length=0.001,Units=km,switch=T !numEQ 99606
new line.CTR635405 bus1=BMT164367792.1,bus2=BMT164368702.1,Phases=1,LineCode=tieSwitch1,Length=0.001,Units=km,switch=T !numEQ 99487
new line.CTR635517 bus1=BMT164368230.3,bus2=BMT164368248.3,Phases=1,LineCode=tieSwitch1,Length=0.001,Units=km,switch=T !numEQ 99598
new line.CTR635531 bus1=BMT164368736.3,bus2=BMT164368737.3,Phases=1,LineCode=tieSwitch1,Length=0.001,Units=km,switch=T !numEQ 99582
new line.CTR635643 bus1=BMT164367995.1,bus2=BMT164367998.1,Phases=1,LineCode=tieSwitch1,Length=0.001,Units=km,switch=T !numEQ 99602
new line.CTR635965 bus1=BMT164368987.1.2.3,bus2=BMT174625371.1.2.3,Phases=3,LineCode=tieSwitch,Length=0.001,Units=km,switch=T !numEQ 100150
new line.CTR636196 bus1=BMT164368921.1,bus2=BMT164368923.1,Phases=1,LineCode=tieSwitch1,Length=0.001,Units=km,switch=T !numEQ 99589
new line.CTR661781 bus1=BMT164369473.1,bus2=BMT164369476.1,Phases=1,LineCode=tieSwitch1,Length=0.001,Units=km,switch=T !numEQ 162706
new line.CTR105631 bus1=BMT164367506.1.2.3,bus2=BMT164367507.1.2.3,Phases=3,LineCode=tieSwitch,Length=0.001,Units=km,switch=T !numEQ 73464
new line.CTR105876 bus1=BMT164368501.1.2.3,bus2=BMT164368506.1.2.3,Phases=3,LineCode=tieSwitch,Length=0.001,Units=km,switch=T !numEQ 73435
new line.CTR105974 bus1=BMT164368801.3,bus2=BMT164368803.3,Phases=1,LineCode=tieSwitch1,Length=0.001,Units=km,switch=T !numEQ 73072
new line.CTR110006 bus1=BMT164368774.1.2.3,bus2=BMT164368811.1.2.3,Phases=3,LineCode=tieSwitch,Length=0.001,Units=km,switch=T !numEQ 74937
new line.CTR110013 bus1=BMT164368485.3,bus2=BMT164368487.3,Phases=1,LineCode=tieSwitch1,Length=0.001,Units=km,switch=T !numEQ 74946
new line.CTR110188 bus1=BMT164368113.2,bus2=BMT164368135.2,Phases=1,LineCode=tieSwitch1,Length=0.001,Units=km,switch=T !numEQ 74685
new line.CTR110566 bus1=BMT164368218.3,bus2=BMT164368256.3,Phases=1,LineCode=tieSwitch1,Length=0.001,Units=km,switch=T !numEQ 74950
new line.CTR110699 bus1=BMT164368346.2,bus2=BMT170182976.2,Phases=1,LineCode=tieSwitch1,Length=0.001,Units=km,switch=T !numEQ 74690
new line.CTR110930 bus1=BMT164369154.1,bus2=BMT170478872.1,Phases=1,LineCode=tieSwitch1,Length=0.001,Units=km,switch=T !numEQ 74679
new line.CTR111350 bus1=BMT164369109.2,bus2=BMT174805131.2,Phases=1,LineCode=tieSwitch1,Length=0.001,Units=km,switch=T !numEQ 74680
new line.CTR111364 bus1=BMT164368223.3,bus2=BMT175804622.3,Phases=1,LineCode=tieSwitch1,Length=0.001,Units=km,switch=T !numEQ 74687
new line.CTR111658 bus1=BMT164367796.1.2.3,bus2=BMT164368511.1.2.3,Phases=3,LineCode=tieSwitch,Length=0.001,Units=km,switch=T !numEQ 74941
new line.CTR128402 bus1=BMT164368514.3,bus2=BMT164368678.3,Phases=1,LineCode=tieSwitch1,Length=0.001,Units=km,switch=T !numEQ 98467
new line.CTR129200 bus1=BMT164367757.3,bus2=BMT164367763.3,Phases=1,LineCode=tieSwitch1,Length=0.001,Units=km,switch=T !numEQ 98489
new line.CTR129571 bus1=BMT164368559.1,bus2=BMT174508913.1,Phases=1,LineCode=tieSwitch1,Length=0.001,Units=km,switch=T !numEQ 98456
new line.CTR129599 bus1=BMT174861734.1.2.3,bus2=BMT164367857.1.2.3,Phases=3,LineCode=tieSwitch,Length=0.001,Units=km,switch=T !numEQ 98524
new line.CTR129774 bus1=BMT164367816.3,bus2=BMT164368482.3,Phases=1,LineCode=tieSwitch1,Length=0.001,Units=km,switch=T !numEQ 98319
new line.CTR129802 bus1=BMT164368330.1.2.3,bus2=BMT164368440.1.2.3,Phases=3,LineCode=tieSwitch,Length=0.001,Units=km,switch=T !numEQ 98393
new line.CTR142136 bus1=BMT164368998.1,bus2=BMT164369037.1,Phases=1,LineCode=tieSwitch1,Length=0.001,Units=km,switch=T !numEQ 122830
new line.CTR147218 bus1=BMT174109629.1.2.3,bus2=BMT164369317.1.2.3,Phases=3,LineCode=tieSwitch,Length=0.001,Units=km,switch=T !numEQ 72037
new line.CTR147932 bus1=BMT164367875.1.2.3,bus2=BMT164367878.1.2.3,Phases=3,LineCode=tieSwitch,Length=0.001,Units=km,switch=T !numEQ 116178
new line.CTR155856 bus1=BMT164369387.1,bus2=BMT164369389.1,Phases=1,LineCode=tieSwitch1,Length=0.001,Units=km,switch=T !numEQ 118028
new line.CTR170066 bus1=BMT175521092.1.2.3,bus2=BMT164367380.1.2.3,Phases=3,LineCode=tieSwitch,Length=0.001,Units=km,switch=T !numEQ 99974
new line.CTR170080 bus1=BMT164368263.3,bus2=BMT164368321.3,Phases=1,LineCode=tieSwitch1,Length=0.001,Units=km,switch=T !numEQ 99597
new line.CTR170108 bus1=BMT164368264.3,bus2=BMT164368302.3,Phases=1,LineCode=tieSwitch1,Length=0.001,Units=km,switch=T !numEQ 74934
new line.CTR26426 bus1=BMT164367790.1.2.3,bus2=BMT164367791.1.2.3,Phases=3,LineCode=tieSwitch,Length=0.001,Units=km,switch=T !numEQ 73466
new line.CTR28736 bus1=BMT164369309.3,bus2=BMT164369335.3,Phases=1,LineCode=tieSwitch1,Length=0.001,Units=km,switch=T !numEQ 161139
new line.CTR34028 bus1=BMT164367915.1,bus2=BMT164367961.1,Phases=1,LineCode=tieSwitch1,Length=0.001,Units=km,switch=T !numEQ 99608
new line.CTR34056 bus1=BMT164368026.1,bus2=BMT164368031.1,Phases=1,LineCode=tieSwitch1,Length=0.001,Units=km,switch=T !numEQ 99609
new line.CTR45760 bus1=BMT175027902.1.2.3,bus2=BMT164349080.1.2.3,Phases=3,LineCode=tieSwitch,Length=0.001,Units=km,switch=T !numEQ 75581
open line.CTR45760 term=1
new line.CTR527822 bus1=BMT164367865.1,bus2=BMT173962928.1,Phases=1,LineCode=tieSwitch1,Length=0.001,Units=km,switch=T !numEQ 73024
new line.CTR528844 bus1=BMT164367624.1.2.3,bus2=BMT176130263.1.2.3,Phases=3,LineCode=tieSwitch,Length=0.001,Units=km,switch=T !numEQ 74270
new line.CTR529061 bus1=BMT164367691.2,bus2=BMT164368958.2,Phases=1,LineCode=tieSwitch1,Length=0.001,Units=km,switch=T !numEQ 74661
new line.CTR529075 bus1=BMT164368344.2,bus2=BMT171742560.2,Phases=1,LineCode=tieSwitch1,Length=0.001,Units=km,switch=T !numEQ 74682
new line.CTR529131 bus1=BMT164367653.1,bus2=BMT164367670.1,Phases=1,LineCode=tieSwitch1,Length=0.001,Units=km,switch=T !numEQ 74666
new line.CTR529152 bus1=BMT164369163.1,bus2=BMT164369165.1,Phases=1,LineCode=tieSwitch1,Length=0.001,Units=km,switch=T !numEQ 74676
new line.CTR529712 bus1=BMT164369294.3,bus2=BMT164369351.3,Phases=1,LineCode=tieSwitch1,Length=0.001,Units=km,switch=T !numEQ 163101
new line.CTR529810 bus1=BMT164367912.1,bus2=BMT164367986.1,Phases=1,LineCode=tieSwitch1,Length=0.001,Units=km,switch=T !numEQ 75060
new line.CTR530300 bus1=BMT164369295.1.2.3,bus2=BMT174109613.1.2.3,Phases=3,LineCode=tieSwitch,Length=0.001,Units=km,switch=T !numEQ 75430
new line.CTR581491 bus1=BMT164368268.3,bus2=BMT164368298.3,Phases=1,LineCode=tieSwitch1,Length=0.001,Units=km,switch=T !numEQ 210136
new line.CTR583605 bus1=BMT164368555.1,bus2=BMT164368620.1,Phases=1,LineCode=tieSwitch1,Length=0.001,Units=km,switch=T !numEQ 100460
new line.CTR629203 bus1=BMT164367503.3,bus2=BMT164369275.3,Phases=1,LineCode=tieSwitch1,Length=0.001,Units=km,switch=T !numEQ 73575
new line.CTR629287 bus1=BMT164367917.1,bus2=BMT164367953.1,Phases=1,LineCode=tieSwitch1,Length=0.001,Units=km,switch=T !numEQ 98394
new line.CTR646535 bus1=BMT164367727.3,bus2=BMT164367734.3,Phases=1,LineCode=tieSwitch1,Length=0.001,Units=km,switch=T !numEQ 99576
new line.CTR649153 bus1=BMT175017873.1.2.3,bus2=BMT164367641.1.2.3,Phases=3,LineCode=tieSwitch,Length=0.001,Units=km,switch=T !numEQ 105244
new line.CTR669572 bus1=BMT174133473.1.2.3,bus2=BMT164348369.1.2.3,Phases=3,LineCode=tieSwitch,Length=0.001,Units=km,switch=T !numEQ 105271
open line.CTR669572 term=1
new line.CTR669817 bus1=BMT164367823.1,bus2=BMT164368464.1,Phases=1,LineCode=tieSwitch1,Length=0.001,Units=km,switch=T !numEQ 162686
new line.CTR670909 bus1=BMT164367520.3,bus2=BMT164369256.3,Phases=1,LineCode=tieSwitch1,Length=0.001,Units=km,switch=T !numEQ 162709
new line.CTR694254 bus1=BMT164368543.2,bus2=BMT164368633.2,Phases=1,LineCode=tieSwitch1,Length=0.001,Units=km,switch=T !numEQ 210392
new line.CTR695654 bus1=BMT164367577.3,bus2=BMT164367580.3,Phases=1,LineCode=tieSwitch1,Length=0.001,Units=km,switch=T !numEQ 210369
new line.CTR695941 bus1=BMT164367650.1,bus2=BMT164367680.1,Phases=1,LineCode=tieSwitch1,Length=0.001,Units=km,switch=T !numEQ 210023
new line.CTR697369 bus1=BMT164367375.1.2.3,bus2=BMT167610215.1.2.3,Phases=3,LineCode=tieSwitch,Length=0.001,Units=km,switch=T !numEQ 210139
new line.CTR697474 bus1=BMT164368119.2,bus2=BMT164368131.2,Phases=1,LineCode=tieSwitch1,Length=0.001,Units=km,switch=T !numEQ 210015
new line.CTR727903 bus1=BMT164369517.1.2.3,bus2=BMT164369518.1.2.3,Phases=3,LineCode=tieSwitch,Length=0.001,Units=km,switch=T !numEQ 210757
new line.CTR727910 bus1=BMT164369516.1.2.3,bus2=BMT164369520.1.2.3,Phases=3,LineCode=tieSwitch,Length=0.001,Units=km,switch=T !numEQ 210758
new line.CTR727917 bus1=BMT164367377.1.2.3,bus2=BMT164369515.1.2.3,Phases=3,LineCode=tieSwitch,Length=0.001,Units=km,switch=T !numEQ 210756
new line.CTR727945 bus1=BMT164367381.1.2.3,bus2=BMT164369513.1.2.3,Phases=3,LineCode=tieSwitch,Length=0.001,Units=km,switch=T !numEQ 210771
new line.CTR760173 bus1=BMT164368722.1.2.3,bus2=BMT164368752.1.2.3,Phases=3,LineCode=tieSwitch,Length=0.001,Units=km,switch=T !numEQ 198577
new line.CTR784386 bus1=BMT164367494.1.2.3,bus2=BMT164369373.1.2.3,Phases=3,LineCode=tieSwitch,Length=0.001,Units=km,switch=T !numEQ 290079
new line.CTR787949 bus1=BMT164367570.1.2.3,bus2=BMT175017816.1.2.3,Phases=3,LineCode=tieSwitch,Length=0.001,Units=km,switch=T !numEQ 290083
new line.CTR787956 bus1=BMT164367568.3,bus2=BMT164369085.3,Phases=1,LineCode=tieSwitch1,Length=0.001,Units=km,switch=T !numEQ 299727
new line.CTR787963 bus1=BMT164367565.3,bus2=BMT164369092.3,Phases=1,LineCode=tieSwitch1,Length=0.001,Units=km,switch=T !numEQ 210920
new line.CTR788110 bus1=BMT164367564.3,bus2=BMT164367573.3,Phases=1,LineCode=tieSwitch1,Length=0.001,Units=km,switch=T !numEQ 299728
new line.CTR790322 bus1=BMT164367607.3,bus2=BMT164369065.3,Phases=1,LineCode=tieSwitch1,Length=0.001,Units=km,switch=T !numEQ 210914
new line.CTR790525 bus1=BMT172176638.1.2.3,bus2=BMT175017854.1.2.3,Phases=3,LineCode=tieSwitch,Length=0.001,Units=km,switch=T !numEQ 210916
new line.CTR870835 bus1=BMT164368204.3,bus2=BMT164368206.3,Phases=1,LineCode=tieSwitch1,Length=0.001,Units=km,switch=T !numEQ 243432
new line.CTR870876 bus1=BMT164368819.1,bus2=BMT164368826.1,Phases=1,LineCode=tieSwitch1,Length=0.001,Units=km,switch=T !numEQ 243842
new line.CTR875812 bus1=BMT164367827.1,bus2=BMT164368460.1,Phases=1,LineCode=tieSwitch1,Length=0.001,Units=km,switch=T !numEQ 246639
new line.CTR875828 bus1=BMT164368806.3,bus2=BMT164368809.3,Phases=1,LineCode=tieSwitch1,Length=0.001,Units=km,switch=T !numEQ 245255
new line.CTR876992 bus1=BMT164367370.1.2.3,bus2=BMT175521088.1.2.3,Phases=3,LineCode=tieSwitch,Length=0.001,Units=km,switch=T !numEQ 233844
new line.CTR891884 bus1=BMT174133475.1.2.3,bus2=BMT174133398.1.2.3,Phases=3,LineCode=tieSwitch,Length=0.001,Units=km,switch=T !numEQ 268381
open line.CTR891884 term=1
new line.CTR899284 bus1=BMT166452424.3,bus2=BMT166452675.3,Phases=1,LineCode=tieSwitch1,Length=0.001,Units=km,switch=T !numEQ 271461
new line.CTR913654 bus1=BMT171321231.1,bus2=BMT172358965.1,Phases=1,LineCode=tieSwitch1,Length=0.001,Units=km,switch=T !numEQ 280931
new line.CTR913688 bus1=BMT171333558.1,bus2=BMT171334991.1,Phases=1,LineCode=tieSwitch1,Length=0.001,Units=km,switch=T !numEQ 318509
new line.CTR914303 bus1=BMT171503855.2,bus2=BMT171504187.2,Phases=1,LineCode=tieSwitch1,Length=0.001,Units=km,switch=T !numEQ 275783
new line.CTR925091 bus1=BMT176098284.1.2.3,bus2=BMT176098314.1.2.3,Phases=3,LineCode=tieSwitch,Length=0.001,Units=km,switch=T !numEQ 335233
new line.CTR926920 bus1=BMT174625382.1.2.3,bus2=BMT174627365.1.2.3,Phases=3,LineCode=tieSwitch,Length=0.001,Units=km,switch=T !numEQ 329953
new line.CTR95950 bus1=BMT164368836.1.2.3,bus2=BMT164368858.1.2.3,Phases=3,LineCode=tieSwitch,Length=0.001,Units=km,switch=T !numEQ 99503