new line.TR10219112 bus1=BMT6390435B.1,bus2=BMT6390442B.1,Phases=1,Linecode=CAB202_3_1,Length=0.256264000,Units=km
new line.TR10219119 bus1=BMT6390442B.1,bus2=BMT6390449B.1,Phases=1,Linecode=CAB202_3_1,Length=0.126971000,Units=km
new line.TR10219126 bus1=BMT6390449B.1,bus2=BMT6390456B.1,Phases=1,Linecode=CAB202_3_1,Length=0.086527000,Units=km
new line.TR10219133 bus1=BMT6390456B.1,bus2=BMT6390463B.1,Phases=1,Linecode=CAB202_3_1,Length=0.152129000,Units=km
new line.TR10219140 bus1=BMT6390463B.1,bus2=BMT6390470B.1,Phases=1,Linecode=CAB202_3_1,Length=0.375077000,Units=km
new line.TR10219147 bus1=BMT6390470B.1,bus2=BMT6390477B.1,Phases=1,Linecode=CAB202_3_1,Length=0.279039000,Units=km
new line.TR10219154 bus1=BMT6390477B.1,bus2=BMT6390484B.1,Phases=1,Linecode=CAB202_3_1,Length=0.235963000,Units=km
new line.TR10219161 bus1=BMT6390484B.1,bus2=BMT6390491B.1,Phases=1,Linecode=CAB202_3_1,Length=0.130240000,Units=km
new line.TR10219168 bus1=BMT6390491B.1,bus2=BMT6390498B.1,Phases=1,Linecode=CAB202_3_1,Length=0.118051000,Units=km
new line.TR10219175 bus1=BMT6390498B.1,bus2=BMT6390505B.1,Phases=1,Linecode=CAB202_3_1,Length=0.139069000,Units=km
new line.TR10219182 bus1=BMT6390505B.1,bus2=BMT6390512B.1,Phases=1,Linecode=CAB202_3_1,Length=0.105517000,Units=km
new line.TR10219189 bus1=BMT6390512B.1,bus2=BMT164369172.1,Phases=1,Linecode=CAB202_3_1,Length=0.114902000,Units=km
new line.TR10219196 bus1=BMT164369172.1,bus2=BMT164369173.1,Phases=1,Linecode=CAB202_3_1,Length=0.179542000,Units=km
new line.TR10219203 bus1=BMT164369174.1,bus2=BMT6390533B.1,Phases=1,Linecode=CAB202_3_1,Length=0.088058000,Units=km
new line.TR10219210 bus1=BMT6390533B.1,bus2=BMT6390540B.1,Phases=1,Linecode=CAB202_3_1,Length=0.061490000,Units=km
new line.TR10219217 bus1=BMT6390540B.1,bus2=BMT6390547B.1,Phases=1,Linecode=CAB202_3_1,Length=0.138626000,Units=km
new line.TR10219224 bus1=BMT6390547B.1,bus2=BMT6390554B.1,Phases=1,Linecode=CAB202_3_1,Length=0.160079000,Units=km
new line.TR10219231 bus1=BMT6390554B.1,bus2=BMT6390561B.1,Phases=1,Linecode=CAB202_3_1,Length=0.115293000,Units=km
new line.TR10219238 bus1=BMT6390561B.1,bus2=BMT6390568B.1,Phases=1,Linecode=CAB202_3_1,Length=0.126238000,Units=km
new line.TR10219245 bus1=BMT6390568B.1,bus2=BMT6390575B.1,Phases=1,Linecode=CAB202_3_1,Length=0.089975000,Units=km
new line.TR10219252 bus1=BMT6390575B.1,bus2=BMT6390582B.1,Phases=1,Linecode=CAB202_3_1,Length=0.103757000,Units=km
new line.TR10219259 bus1=BMT6390582B.1,bus2=BMT6390589B.1,Phases=1,Linecode=CAB202_3_1,Length=0.109133000,Units=km
new line.TR10219266 bus1=BMT6390589B.1,bus2=BMT164369175.1,Phases=1,Linecode=CAB202_3_1,Length=0.093048000,Units=km
new line.TR10277835 bus1=BMT6483381B.3,bus2=BMT164368319.3,Phases=1,Linecode=CAB202_3_1,Length=0.220114000,Units=km
new line.TR1042609 bus1=BMT698428B.1.2.3,bus2=BMT698421B.1.2.3,Phases=3,Linecode=CABA06_3_3,Length=0.032157000,Units=km
new line.TR1042630 bus1=BMT698442B.1.2.3,bus2=BMT698428B.1.2.3,Phases=3,Linecode=CABA06_3_3,Length=0.005752000,Units=km
new line.TR1042651 bus1=BMT164369333.1.2.3,bus2=BMT698442B.1.2.3,Phases=3,Linecode=CABA06_3_3,Length=0.026440000,Units=km
new line.TR1042658 bus1=BMT698456B.1.2.3,bus2=BMT164369333.1.2.3,Phases=3,Linecode=CAB102_3_3,Length=0.025428000,Units=km
new line.TR1042672 bus1=BMT698477B.1.2.3,bus2=BMT698456B.1.2.3,Phases=3,Linecode=CAB102_3_3,Length=0.022394000,Units=km
new line.TR1042679 bus1=BMT698477B.1.2.3,bus2=BMT698484B.1.2.3,Phases=3,Linecode=CAB102_3_3,Length=0.004016000,Units=km
new line.TR1042686 bus1=BMT698477B.1.2.3,bus2=BMT698498B.1.2.3,Phases=3,Linecode=CAB102_3_3,Length=0.003046000,Units=km
new line.TR1042714 bus1=BMT698491B.1.2.3,bus2=BMT698477B.1.2.3,Phases=3,Linecode=CAB102_3_3,Length=0.029115000,Units=km
new line.TR1042847 bus1=BMT698547B.1.2.3,bus2=BMT698554B.1.2.3,Phases=3,Linecode=CAB104_3_3,Length=0.033777000,Units=km
new line.TR1042868 bus1=BMT698554B.1.2.3,bus2=BMT174109624.1.2.3,Phases=3,Linecode=CAB104_3_3,Length=0.030031000,Units=km
new line.TR1042882 bus1=BMT174109624.1.2.3,bus2=BMT698568B.1.2.3,Phases=3,Linecode=CAB104_3_3,Length=0.033034000,Units=km
new line.TR1042896 bus1=BMT698568B.1.2.3,bus2=BMT698610B.1.2.3,Phases=3,Linecode=CAB104_3_3,Length=0.030088000,Units=km
new line.TR1042917 bus1=BMT698610B.1.2.3,bus2=BMT174109625.1.2.3,Phases=3,Linecode=CAB104_3_3,Length=0.026041000,Units=km
new line.TR1042931 bus1=BMT174109625.1.2.3,bus2=BMT698631B.1.2.3,Phases=3,Linecode=CAB104_3_3,Length=0.026035000,Units=km
new line.TR1042952 bus1=BMT698631B.1.2.3,bus2=BMT174109626.1.2.3,Phases=3,Linecode=CAB104_3_3,Length=0.030029000,Units=km
new line.TR1042959 bus1=BMT698645B.1.2.3,bus2=BMT698491B.1.2.3,Phases=3,Linecode=CAB102_3_3,Length=0.031154000,Units=km
new line.TR1042973 bus1=BMT698652B.1.2.3,bus2=BMT698645B.1.2.3,Phases=3,Linecode=CAB102_3_3,Length=0.033221000,Units=km
new line.TR1042987 bus1=BMT698659B.1.2.3,bus2=BMT698652B.1.2.3,Phases=3,Linecode=CAB102_3_3,Length=0.036228000,Units=km
new line.TR1043008 bus1=BMT698673B.1.2.3,bus2=BMT698659B.1.2.3,Phases=3,Linecode=CAB102_3_3,Length=0.031154000,Units=km
new line.TR1043029 bus1=BMT164369314.1.2.3,bus2=BMT698673B.1.2.3,Phases=3,Linecode=CAB102_3_3,Length=0.029323000,Units=km
new line.TR1043036 bus1=BMT174109627.1.2.3,bus2=BMT174109626.1.2.3,Phases=3,Linecode=CAB102_3_3,Length=0.005834000,Units=km
new line.TR1043057 bus1=BMT698694B.1.2.3,bus2=BMT702607B.1.2.3,Phases=3,Linecode=CAB104_3_3,Length=0.034072000,Units=km
new line.TR1043708 bus1=BMT699100B.1.2.3,bus2=BMT699219B.1.2.3,Phases=3,Linecode=CAB103_3_3,Length=0.028243000,Units=km
new line.TR1043715 bus1=BMT699114B.1.2.3,bus2=BMT699100B.1.2.3,Phases=3,Linecode=CAB103_3_3,Length=0.029558000,Units=km
new line.TR1043722 bus1=BMT164369348.1.2.3,bus2=BMT699114B.1.2.3,Phases=3,Linecode=CAB103_3_3,Length=0.029979000,Units=km
new line.TR1043729 bus1=BMT699128B.1.2.3,bus2=BMT164369348.1.2.3,Phases=3,Linecode=CAB103_3_3,Length=0.027324000,Units=km
new line.TR1043736 bus1=BMT699135B.1.2.3,bus2=BMT699128B.1.2.3,Phases=3,Linecode=CAB103_3_3,Length=0.028647000,Units=km
new line.TR1043841 bus1=BMT699219B.1.2.3,bus2=BMT164369350.1.2.3,Phases=3,Linecode=CAB103_3_3,Length=0.026411000,Units=km
new line.TR1044114 bus1=BMT699380B.1.2.3,bus2=BMT174109621.1.2.3,Phases=3,Linecode=CAB104_3_3,Length=0.030426000,Units=km
new line.TR1044135 bus1=BMT174109621.1.2.3,bus2=BMT699401B.1.2.3,Phases=3,Linecode=CAB104_3_3,Length=0.027029000,Units=km
new line.TR1044163 bus1=BMT699401B.1.2.3,bus2=BMT174109622.1.2.3,Phases=3,Linecode=CAB104_3_3,Length=0.024093000,Units=km
new line.TR1044191 bus1=BMT174109622.1.2.3,bus2=BMT698295B.1.2.3,Phases=3,Linecode=CAB104_3_3,Length=0.035369000,Units=km
new line.TR10181956 bus1=BMT164369287.1.2.3,bus2=BMT2071352B.1.2.3,Phases=3,Linecode=CABA08_3_3,Length=0.036139000,Units=km
new line.TR10181963 bus1=BMT164369355.1.2.3,bus2=BMT164369356.1.2.3,Phases=3,Linecode=CABA06_3_3,Length=0.016408000,Units=km
new line.TR10186800 bus1=BMT164368029.1,bus2=BMT6337515B.1,Phases=1,Linecode=CAB202_3_1,Length=0.046792000,Units=km
new line.TR10186807 bus1=BMT6337515B.1,bus2=BMT164368030.1,Phases=1,Linecode=CAB202_3_1,Length=0.305111000,Units=km
new line.TR1028490 bus1=BMT164367978.1,bus2=BMT3041251B.1,Phases=1,Linecode=CAB202_3_1,Length=0.096406000,Units=km
new line.TR1028700 bus1=BMT164367954.1,bus2=BMT1902568B.1,Phases=1,Linecode=CAB202_3_1,Length=0.118994000,Units=km
new line.TR1028987 bus1=BMT164367979.1,bus2=BMT164367980.1,Phases=1,Linecode=CAB103_3_1,Length=0.012005000,Units=km
new line.TR10294593 bus1=BMT164369218.3,bus2=BMT164369219.3,Phases=1,Linecode=CAB202_3_1,Length=0.052243000,Units=km
new line.TR1037681 bus1=BMT175478999.1,bus2=BMT3049112B.1,Phases=1,Linecode=CAB202_3_1,Length=0.105882000,Units=km
new line.TR10447655 bus1=BMT164368652.1,bus2=BMT6708123B.1,Phases=1,Linecode=CAB202_3_1,Length=0.196172000,Units=km
new line.TR10447669 bus1=BMT6708123B.1,bus2=BMT6708144B.1,Phases=1,Linecode=CAB202_3_1,Length=0.049829000,Units=km
new line.TR10447676 bus1=BMT6708144B.1,bus2=BMT164368654.1,Phases=1,Linecode=CAB202_3_1,Length=0.173138000,Units=km
new line.TR10447970 bus1=BMT2762784B.1.2.3,bus2=BMT173888889.1.2.3,Phases=3,Linecode=CAB203_3_3,Length=0.123194000,Units=km
new line.TR10447977 bus1=BMT173888889.1.2.3,bus2=BMT164368540.1.2.3,Phases=3,Linecode=CAB203_3_3,Length=0.138451000,Units=km
new line.TR10448075 bus1=BMT173888889.3,bus2=BMT6708592B.3,Phases=1,Linecode=CAB202_3_1,Length=0.247410000,Units=km
new line.TR10448110 bus1=BMT6708592B.3,bus2=BMT6708606B.3,Phases=1,Linecode=CAB202_3_1,Length=0.065881000,Units=km
new line.TR10448117 bus1=BMT6708606B.3,bus2=BMT173888890.3,Phases=1,Linecode=CAB202_3_1,Length=0.066056000,Units=km
new line.TR10448698 bus1=BMT164368666.2,bus2=BMT6709257B.2,Phases=1,Linecode=CAB202_3_1,Length=0.102767000,Units=km
new line.TR10448726 bus1=BMT6709257B.2,bus2=BMT6709271B.2,Phases=1,Linecode=CAB202_3_1,Length=0.385364000,Units=km
new line.TR10448754 bus1=BMT6709271B.2,bus2=BMT164368667.2,Phases=1,Linecode=CAB202_3_1,Length=0.116148000,Units=km
new line.TR10448768 bus1=BMT164368667.2,bus2=BMT6709285B.2,Phases=1,Linecode=CAB202_3_1,Length=0.177316000,Units=km
new line.TR10448775 bus1=BMT6709285B.2,bus2=BMT164368668.2,Phases=1,Linecode=CAB202_3_1,Length=0.084939000,Units=km
new line.TR10449293 bus1=BMT164368667.2,bus2=BMT164368669.2,Phases=1,Linecode=CAB202_3_1,Length=0.395044000,Units=km
new line.TR10449405 bus1=BMT164368636.3,bus2=BMT6709859B.3,Phases=1,Linecode=CAB202_3_1,Length=0.040041000,Units=km
new line.TR10449426 bus1=BMT6709859B.3,bus2=BMT164368637.3,Phases=1,Linecode=CAB202_3_1,Length=0.300156000,Units=km
new line.TR10449776 bus1=BMT164368637.3,bus2=BMT6710062B.3,Phases=1,Linecode=CAB202_3_1,Length=0.065025000,Units=km
new line.TR10449783 bus1=BMT6710062B.3,bus2=BMT164368638.3,Phases=1,Linecode=CAB202_3_1,Length=0.200087000,Units=km
new line.TR10449895 bus1=BMT164368543.1.2.3,bus2=BMT173888891.1.2.3,Phases=3,Linecode=CAB203_3_3,Length=0.020008000,Units=km
new line.TR10449902 bus1=BMT173888891.1.2.3,bus2=BMT173888892.1.2.3,Phases=3,Linecode=CAB203_3_3,Length=0.223166000,Units=km
new line.TR10449937 bus1=BMT173888891.3,bus2=BMT6710244B.3,Phases=1,Linecode=CAB202_3_1,Length=0.286118000,Units=km
new line.TR10449944 bus1=BMT6710244B.3,bus2=BMT6710279B.3,Phases=1,Linecode=CAB202_3_1,Length=0.069863000,Units=km
new line.TR10449958 bus1=BMT6710279B.3,bus2=BMT173888893.3,Phases=1,Linecode=CAB202_3_1,Length=0.054583000,Units=km
new line.TR10450819 bus1=BMT164368634.2,bus2=BMT6711084B.2,Phases=1,Linecode=CAB202_3_1,Length=0.075302000,Units=km
new line.TR10450833 bus1=BMT6711084B.2,bus2=BMT164368635.2,Phases=1,Linecode=CAB202_3_1,Length=0.199618000,Units=km
new line.TR10451596 bus1=BMT164368532.1,bus2=BMT164368533.1,Phases=1,Linecode=CAB202_3_1,Length=0.313867000,Units=km
new line.TR10451603 bus1=BMT164368532.2,bus2=BMT6711595B.2,Phases=1,Linecode=CAB202_3_1,Length=0.164818000,Units=km
new line.TR10451610 bus1=BMT6711595B.2,bus2=BMT164368534.2,Phases=1,Linecode=CAB202_3_1,Length=0.069662000,Units=km
new line.TR10454690 bus1=BMT164367775.3,bus2=BMT6715536B.3,Phases=1,Linecode=CAB202_3_1,Length=0.091126000,Units=km
new line.TR10454760 bus1=BMT6715536B.3,bus2=BMT6715550B.3,Phases=1,Linecode=CAB202_3_1,Length=0.359493000,Units=km
new line.TR10454767 bus1=BMT6715550B.3,bus2=BMT164367777.3,Phases=1,Linecode=CAB202_3_1,Length=0.069662000,Units=km
new line.TR1046158 bus1=BMT174109615.1.2.3,bus2=BMT174109616.1.2.3,Phases=3,Linecode=CAB103_3_3,Length=0.026694000,Units=km
new line.TR1046165 bus1=BMT174109615.1.2.3,bus2=BMT700528B.1.2.3,Phases=3,Linecode=CAB104_3_3,Length=0.028647000,Units=km
new line.TR1046179 bus1=BMT174133467.1.2.3,bus2=BMT700570B.1.2.3,Phases=3,Linecode=CAB103_3_3,Length=0.028873000,Units=km
new line.TR1046186 bus1=BMT700528B.1.2.3,bus2=BMT174109617.1.2.3,Phases=3,Linecode=CAB104_3_3,Length=0.028647000,Units=km
new line.TR1046193 bus1=BMT174109617.1.2.3,bus2=BMT174109618.1.2.3,Phases=3,Linecode=CAB104_3_3,Length=0.037592000,Units=km
new line.TR1046207 bus1=BMT174109618.1.2.3,bus2=BMT700549B.1.2.3,Phases=3,Linecode=CAB103_3_3,Length=0.034072000,Units=km
new line.TR1046214 bus1=BMT174109618.1.2.3,bus2=BMT700556B.1.2.3,Phases=3,Linecode=CAB104_3_3,Length=0.021941000,Units=km
new line.TR1046228 bus1=BMT700549B.1.2.3,bus2=BMT700640B.1.2.3,Phases=3,Linecode=CAB103_3_3,Length=0.033969000,Units=km
new line.TR1046235 bus1=BMT700556B.1.2.3,bus2=BMT697889B.1.2.3,Phases=3,Linecode=CAB104_3_3,Length=0.028647000,Units=km
new line.TR1046270 bus1=BMT700570B.1.2.3,bus2=BMT700577B.1.2.3,Phases=3,Linecode=CAB103_3_3,Length=0.033851000,Units=km
new line.TR1046284 bus1=BMT700577B.1.2.3,bus2=BMT700591B.1.2.3,Phases=3,Linecode=CAB103_3_3,Length=0.038616000,Units=km
new line.TR1046305 bus1=BMT700591B.1.2.3,bus2=BMT174133468.1.2.3,Phases=3,Linecode=CAB103_3_3,Length=0.033540000,Units=km
new line.TR1046326 bus1=BMT174133468.1.2.3,bus2=BMT700605B.1.2.3,Phases=3,Linecode=CABA06_3_3,Length=0.041453000,Units=km
new line.TR1046347 bus1=BMT700612B.1.2.3,bus2=BMT700605B.1.2.3,Phases=3,Linecode=CABA06_3_3,Length=0.028665000,Units=km
new line.TR1046361 bus1=BMT700619B.1.2.3,bus2=BMT700612B.1.2.3,Phases=3,Linecode=CABA06_3_3,Length=0.032215000,Units=km
new line.TR1046375 bus1=BMT700626B.1.2.3,bus2=BMT700619B.1.2.3,Phases=3,Linecode=CABA06_3_3,Length=0.033554000,Units=km
new line.TR1044296 bus1=BMT699485B.1.2.3,bus2=BMT174133473.1.2.3,Phases=3,Linecode=CAB103_3_3,Length=0.032663000,Units=km
new line.TR1044303 bus1=BMT699485B.1.2.3,bus2=BMT700857B.1.2.3,Phases=3,Linecode=CAB103_3_3,Length=0.032663000,Units=km
new line.TR10443133 bus1=BMT164368422.2,bus2=BMT164368423.2,Phases=1,Linecode=CAB202_3_1,Length=0.151758000,Units=km
new line.TR10443140 bus1=BMT164368423.2,bus2=BMT164368424.2,Phases=1,Linecode=CAB202_3_1,Length=0.119616000,Units=km
new line.TR10443371 bus1=BMT164368423.2,bus2=BMT6703111B.2,Phases=1,Linecode=CAB202_3_1,Length=0.157693000,Units=km
new line.TR10443378 bus1=BMT6703111B.2,bus2=BMT6703118B.2,Phases=1,Linecode=CAB202_3_1,Length=0.037136000,Units=km
new line.TR10443399 bus1=BMT6703118B.2,bus2=BMT6703125B.2,Phases=1,Linecode=CAB202_3_1,Length=0.226064000,Units=km
new line.TR10443406 bus1=BMT6703125B.2,bus2=BMT6703132B.2,Phases=1,Linecode=CAB202_3_1,Length=0.128299000,Units=km
new line.TR10443413 bus1=BMT6703132B.2,bus2=BMT6703139B.2,Phases=1,Linecode=CAB202_3_1,Length=0.044739000,Units=km
new line.TR10443427 bus1=BMT6703139B.2,bus2=BMT6703146B.2,Phases=1,Linecode=CAB202_3_1,Length=0.062538000,Units=km
new line.TR10443441 bus1=BMT6703146B.2,bus2=BMT164368425.2,Phases=1,Linecode=CAB202_3_1,Length=0.191167000,Units=km
new line.TR10444344 bus1=BMT164368640.3,bus2=BMT164368641.3,Phases=1,Linecode=CAB202_3_1,Length=0.018981000,Units=km
new line.TR10444351 bus1=BMT164368641.3,bus2=BMT6704371B.3,Phases=1,Linecode=CAB202_3_1,Length=0.208161000,Units=km
new line.TR10444358 bus1=BMT6704371B.3,bus2=BMT164368642.3,Phases=1,Linecode=CAB202_3_1,Length=0.076952000,Units=km
new line.TR10444365 bus1=BMT164368642.3,bus2=BMT6704399B.3,Phases=1,Linecode=CAB202_3_1,Length=0.073527000,Units=km
new line.TR10444386 bus1=BMT6704399B.3,bus2=BMT6704406B.3,Phases=1,Linecode=CAB202_3_1,Length=0.047284000,Units=km
new line.TR10444393 bus1=BMT6704406B.3,bus2=BMT164368644.3,Phases=1,Linecode=CAB202_3_1,Length=0.123275000,Units=km
new line.TR1044450 bus1=BMT699562B.1.2.3,bus2=BMT164369347.1.2.3,Phases=3,Linecode=CAB103_3_3,Length=0.029979000,Units=km
new line.TR1044464 bus1=BMT164369347.1.2.3,bus2=BMT699135B.1.2.3,Phases=3,Linecode=CAB103_3_3,Length=0.029558000,Units=km
new line.TR1044471 bus1=BMT164369347.1.2.3,bus2=BMT164369349.1.2.3,Phases=3,Linecode=CAB103_3_3,Length=0.030426000,Units=km
new line.TR10444792 bus1=BMT164368641.3,bus2=BMT164368643.3,Phases=1,Linecode=CAB103_3_1,Length=0.079428000,Units=km
new line.TR10445457 bus1=BMT164368645.1,bus2=BMT6705470B.1,Phases=1,Linecode=CAB202_3_1,Length=0.109851000,Units=km
new line.TR10445520 bus1=BMT6705470B.1,bus2=BMT6705491B.1,Phases=1,Linecode=CAB202_3_1,Length=0.109060000,Units=km
new line.TR10445548 bus1=BMT6705491B.1,bus2=BMT6705505B.1,Phases=1,Linecode=CAB202_3_1,Length=0.112476000,Units=km
new line.TR10445562 bus1=BMT6705505B.1,bus2=BMT6705750B.1,Phases=1,Linecode=CAB202_3_1,Length=0.114154000,Units=km
new line.TR10445576 bus1=BMT6705750B.1,bus2=BMT6705764B.1,Phases=1,Linecode=CAB202_3_1,Length=0.119482000,Units=km
new line.TR10445604 bus1=BMT6705778B.1,bus2=BMT164368647.1,Phases=1,Linecode=CAB202_3_1,Length=0.287199000,Units=km
new line.TR10445653 bus1=BMT164368648.1,bus2=BMT164368649.1,Phases=1,Linecode=CAB103_3_1,Length=0.064578000,Units=km
new line.TR10446374 bus1=BMT6705764B.1,bus2=BMT164368646.1,Phases=1,Linecode=CAB202_3_1,Length=0.057720000,Units=km
new line.TR10446381 bus1=BMT164368646.1,bus2=BMT6705778B.1,Phases=1,Linecode=CAB202_3_1,Length=0.058623000,Units=km
new line.TR10446584 bus1=BMT164368647.1,bus2=BMT6707346B.1,Phases=1,Linecode=CAB202_3_1,Length=0.048029000,Units=km
new line.TR10446591 bus1=BMT6707346B.1,bus2=BMT164368648.1,Phases=1,Linecode=CAB202_3_1,Length=0.089235000,Units=km
new line.TR10446612 bus1=BMT164368648.1,bus2=BMT6707332B.1,Phases=1,Linecode=CAB202_3_1,Length=0.059706000,Units=km
new line.TR10446731 bus1=BMT6707332B.1,bus2=BMT164368650.1,Phases=1,Linecode=CAB202_3_1,Length=0.396285000,Units=km
new line.TR10446738 bus1=BMT164368650.1,bus2=BMT164368651.1,Phases=1,Linecode=CAB103_3_1,Length=0.014324000,Units=km
new line.TR10446969 bus1=BMT164368650.1,bus2=BMT6707605B.1,Phases=1,Linecode=CAB202_3_1,Length=0.134881000,Units=km
new line.TR10446990 bus1=BMT6707605B.1,bus2=BMT164368652.1,Phases=1,Linecode=CAB202_3_1,Length=0.202519000,Units=km
new line.TR10447025 bus1=BMT164368652.1,bus2=BMT6707647B.1,Phases=1,Linecode=CAB202_3_1,Length=0.074633000,Units=km
new line.TR10447039 bus1=BMT6707647B.1,bus2=BMT164368653.1,Phases=1,Linecode=CAB202_3_1,Length=0.143145000,Units=km
new line.TR1051527 bus1=BMT175474802.1.2.3,bus2=BMT703545B.1.2.3,Phases=3,Linecode=CABA06_3_3,Length=0.038225000,Units=km
new line.TR1051534 bus1=BMT175474801.1.2.3,bus2=BMT175474802.1.2.3,Phases=3,Linecode=CAB104_3_3,Length=0.033149000,Units=km
new line.TR1051555 bus1=BMT703573B.1.2.3,bus2=BMT703566B.1.2.3,Phases=3,Linecode=CAB104_3_3,Length=0.035142000,Units=km
new line.TR1051569 bus1=BMT703580B.1.2.3,bus2=BMT703573B.1.2.3,Phases=3,Linecode=CAB104_3_3,Length=0.031157000,Units=km
new line.TR1051576 bus1=BMT703587B.1.2.3,bus2=BMT703580B.1.2.3,Phases=3,Linecode=CAB104_3_3,Length=0.028083000,Units=km
new line.TR1051590 bus1=BMT703594B.1.2.3,bus2=BMT703587B.1.2.3,Phases=3,Linecode=CAB104_3_3,Length=0.031077000,Units=km
new line.TR10599303 bus1=BMT164368403.2,bus2=BMT6862354B.2,Phases=1,Linecode=CAB202_3_1,Length=0.066888000,Units=km
new line.TR10599310 bus1=BMT6862354B.2,bus2=BMT6862361B.2,Phases=1,Linecode=CAB202_3_1,Length=0.043852000,Units=km
new line.TR10599317 bus1=BMT6862361B.2,bus2=BMT6862368B.2,Phases=1,Linecode=CAB202_3_1,Length=0.159816000,Units=km
new line.TR10599324 bus1=BMT6862368B.2,bus2=BMT164368404.2,Phases=1,Linecode=CAB202_3_1,Length=0.146341000,Units=km
new line.TR10599331 bus1=BMT164368404.2,bus2=BMT6862382B.2,Phases=1,Linecode=CAB202_3_1,Length=0.309269000,Units=km
new line.TR10599338 bus1=BMT6862382B.2,bus2=BMT6862389B.2,Phases=1,Linecode=CAB202_3_1,Length=0.243039000,Units=km
new line.TR10599345 bus1=BMT6862389B.2,bus2=BMT6862396B.2,Phases=1,Linecode=CAB202_3_1,Length=0.063281000,Units=km
new line.TR10599352 bus1=BMT6862396B.2,bus2=BMT6862403B.2,Phases=1,Linecode=CAB202_3_1,Length=0.062035000,Units=km
new line.TR10599359 bus1=BMT6862403B.2,bus2=BMT6862410B.2,Phases=1,Linecode=CAB202_3_1,Length=0.315145000,Units=km
new line.TR10599366 bus1=BMT6862410B.2,bus2=BMT6862417B.2,Phases=1,Linecode=CAB202_3_1,Length=0.083474000,Units=km
new line.TR10599373 bus1=BMT6862417B.2,bus2=BMT164368405.2,Phases=1,Linecode=CAB202_3_1,Length=0.226386000,Units=km
new line.TR10253370 bus1=BMT6446610B.1,bus2=BMT6446659B.1,Phases=1,Linecode=CAB202_3_1,Length=0.095892000,Units=km
new line.TR10253377 bus1=BMT6446624B.1,bus2=BMT6446610B.1,Phases=1,Linecode=CAB202_3_1,Length=0.078635000,Units=km
new line.TR10253391 bus1=BMT6446659B.1,bus2=BMT170264956.1,Phases=1,Linecode=CAB202_3_1,Length=0.096864000,Units=km
new line.TR1033656 bus1=BMT170272385.3,bus2=BMT2235824B.3,Phases=1,Linecode=CAB202_3_1,Length=0.040028000,Units=km
new line.TR10336915 bus1=BMT164368299.3,bus2=BMT164368300.3,Phases=1,Linecode=CAB202_3_1,Length=0.018036000,Units=km
new line.TR10336922 bus1=BMT164368299.3,bus2=BMT164368301.3,Phases=1,Linecode=CAB202_3_1,Length=0.112658000,Units=km
new line.TR1041622 bus1=BMT164369340.1.2.3,bus2=BMT164369341.1.2.3,Phases=3,Linecode=CAB103_3_3,Length=0.080536000,Units=km
new line.TR1041657 bus1=BMT697889B.1.2.3,bus2=BMT697896B.1.2.3,Phases=3,Linecode=CAB104_3_3,Length=0.021549000,Units=km
new line.TR1041671 bus1=BMT697896B.1.2.3,bus2=BMT697903B.1.2.3,Phases=3,Linecode=CAB104_3_3,Length=0.036689000,Units=km
new line.TR1041685 bus1=BMT697903B.1.2.3,bus2=BMT697917B.1.2.3,Phases=3,Linecode=CAB104_3_3,Length=0.027324000,Units=km
new line.TR1041706 bus1=BMT697917B.1.2.3,bus2=BMT697924B.1.2.3,Phases=3,Linecode=CAB104_3_3,Length=0.029558000,Units=km
new line.TR1041720 bus1=BMT697924B.1.2.3,bus2=BMT174109620.1.2.3,Phases=3,Linecode=CAB104_3_3,Length=0.029558000,Units=km
new line.TR1041762 bus1=BMT164369304.1.2.3,bus2=BMT697966B.1.2.3,Phases=3,Linecode=CAB104_3_3,Length=0.028647000,Units=km
new line.TR1041769 bus1=BMT164369346.1.2.3,bus2=BMT697980B.1.2.3,Phases=3,Linecode=CAB103_3_3,Length=0.030475000,Units=km
new line.TR1041776 bus1=BMT697966B.1.2.3,bus2=BMT697973B.1.2.3,Phases=3,Linecode=CAB104_3_3,Length=0.028647000,Units=km
new line.TR1041790 bus1=BMT697973B.1.2.3,bus2=BMT697987B.1.2.3,Phases=3,Linecode=CAB104_3_3,Length=0.034028000,Units=km
new line.TR1041811 bus1=BMT697980B.1.2.3,bus2=BMT699562B.1.2.3,Phases=3,Linecode=CAB103_3_3,Length=0.029558000,Units=km
new line.TR1041825 bus1=BMT697987B.1.2.3,bus2=BMT699380B.1.2.3,Phases=3,Linecode=CAB104_3_3,Length=0.033119000,Units=km
new line.TR1042364 bus1=BMT698295B.1.2.3,bus2=BMT698302B.1.2.3,Phases=3,Linecode=CAB104_3_3,Length=0.027868000,Units=km
new line.TR1042378 bus1=BMT698302B.1.2.3,bus2=BMT698316B.1.2.3,Phases=3,Linecode=CAB104_3_3,Length=0.029423000,Units=km
new line.TR1042385 bus1=BMT698316B.1.2.3,bus2=BMT174109623.1.2.3,Phases=3,Linecode=CAB104_3_3,Length=0.023269000,Units=km
new line.TR1042392 bus1=BMT174109623.1.2.3,bus2=BMT698344B.1.2.3,Phases=3,Linecode=CAB104_3_3,Length=0.013006000,Units=km
new line.TR1042413 bus1=BMT698344B.1.2.3,bus2=BMT164369309.1.2.3,Phases=3,Linecode=CAB104_3_3,Length=0.028804000,Units=km
new line.TR10424513 bus1=BMT164368508.1.2.3,bus2=BMT164368509.1.2.3,Phases=3,Linecode=CAB102_3_3,Length=0.048791000,Units=km
new line.TR10424520 bus1=BMT164368509.1.2.3,bus2=BMT164368510.1.2.3,Phases=3,Linecode=CAB102_3_3,Length=0.004475000,Units=km
new line.TR1042469 bus1=BMT164369309.1.2.3,bus2=BMT698393B.1.2.3,Phases=3,Linecode=CAB104_3_3,Length=0.028472000,Units=km
new line.TR1042476 bus1=BMT164369335.3,bus2=BMT3776867B.3,Phases=1,Linecode=CABA06_3_1,Length=0.026937000,Units=km
new line.TR1042532 bus1=BMT698393B.1.2.3,bus2=BMT698547B.1.2.3,Phases=3,Linecode=CAB104_3_3,Length=0.042973000,Units=km
new line.TR1042574 bus1=BMT698414B.1.2.3,bus2=BMT164369334.1.2.3,Phases=3,Linecode=CABA06_3_3,Length=0.040143000,Units=km
new line.TR1042588 bus1=BMT698421B.1.2.3,bus2=BMT698414B.1.2.3,Phases=3,Linecode=CABA06_3_3,Length=0.036088000,Units=km
new line.TR10492210 bus1=BMT167610215.1.2.3,bus2=BMT167610216.1.2.3,Phases=3,Linecode=CAB103_3_3,Length=0.008078000,Units=km
new line.TR10494030 bus1=BMT164367896.3,bus2=BMT164367898.3,Phases=1,Linecode=CAB202_3_1,Length=0.212956000,Units=km
new line.TR10494037 bus1=BMT164367898.3,bus2=BMT164367899.3,Phases=1,Linecode=CAB202_3_1,Length=0.061741000,Units=km
new line.TR10494051 bus1=BMT164367898.3,bus2=BMT164367900.3,Phases=1,Linecode=CAB103_3_1,Length=0.013005000,Units=km
new line.TR10494128 bus1=BMT164368132.2,bus2=BMT6755275B.2,Phases=1,Linecode=CAB202_3_1,Length=0.014874000,Units=km
new line.TR10494135 bus1=BMT6755275B.2,bus2=BMT164368133.2,Phases=1,Linecode=CAB202_3_1,Length=0.102224000,Units=km
new line.TR10494429 bus1=BMT176098280.1.2.3,bus2=BMT176098282.1.2.3,Phases=3,Linecode=CAB103_3_3,Length=0.082410000,Units=km
new line.TR1049987 bus1=BMT702579B.1.2.3,bus2=BMT174109629.1.2.3,Phases=3,Linecode=CAB104_3_3,Length=0.031029000,Units=km
new line.TR1050008 bus1=BMT702607B.1.2.3,bus2=BMT174109628.1.2.3,Phases=3,Linecode=CAB104_3_3,Length=0.028029000,Units=km
new line.TR1050022 bus1=BMT174109628.1.2.3,bus2=BMT702621B.1.2.3,Phases=3,Linecode=CAB104_3_3,Length=0.026030000,Units=km
new line.TR1050043 bus1=BMT702621B.1.2.3,bus2=BMT702642B.1.2.3,Phases=3,Linecode=CAB104_3_3,Length=0.031029000,Units=km
new line.TR1050092 bus1=BMT702642B.1.2.3,bus2=BMT702579B.1.2.3,Phases=3,Linecode=CAB104_3_3,Length=0.032028000,Units=km
new line.TR1057764 bus1=BMT707871B.1.2.3,bus2=BMT707878B.1.2.3,Phases=3,Linecode=CAB102_3_3,Length=0.034014000,Units=km
new line.TR1057785 bus1=BMT707878B.1.2.3,bus2=BMT164369331.1.2.3,Phases=3,Linecode=CAB102_3_3,Length=0.043434000,Units=km
new line.TR1057792 bus1=BMT164369331.1.2.3,bus2=BMT707892B.1.2.3,Phases=3,Linecode=CAB102_3_3,Length=0.042076000,Units=km
new line.TR1057799 bus1=BMT707892B.1.2.3,bus2=BMT707899B.1.2.3,Phases=3,Linecode=CAB102_3_3,Length=0.039840000,Units=km
new line.TR1057813 bus1=BMT707899B.1.2.3,bus2=BMT164369332.1.2.3,Phases=3,Linecode=CAB102_3_3,Length=0.037015000,Units=km
new line.TR1057862 bus1=BMT164369332.1.2.3,bus2=BMT707934B.1.2.3,Phases=3,Linecode=CAB103_3_3,Length=0.029167000,Units=km
new line.TR1057883 bus1=BMT707934B.1.2.3,bus2=BMT164348303.1.2.3,Phases=3,Linecode=CAB103_3_3,Length=0.044063000,Units=km
new line.TR10589160 bus1=BMT176623952.1,bus2=BMT176623955.1,Phases=1,Linecode=CAB103_3_1,Length=0.041200000,Units=km
new line.TR10589167 bus1=BMT176623955.1,bus2=BMT176623956.1,Phases=1,Linecode=CAB202_3_1,Length=0.109287000,Units=km
new line.TR10665229 bus1=BMT165242465.1,bus2=BMT165242468.1,Phases=1,Linecode=CAB102_3_1,Length=0.104442000,Units=km
new line.TR1075082 bus1=BMT718595B.1.2.3,bus2=BMT718707B.1.2.3,Phases=3,Linecode=CABA06_3_3,Length=0.034496000,Units=km
new line.TR1075103 bus1=BMT164368946.1.2.3,bus2=BMT164368947.1.2.3,Phases=3,Linecode=CAB103_3_3,Length=0.020626000,Units=km
new line.TR1075110 bus1=BMT164368759.1.2.3,bus2=BMT718595B.1.2.3,Phases=3,Linecode=CABA06_3_3,Length=0.033629000,Units=km
new line.TR1075117 bus1=BMT164368761.1.2.3,bus2=BMT164368760.1.2.3,Phases=3,Linecode=CABA05_3_3,Length=0.029696000,Units=km
new line.TR1046396 bus1=BMT700640B.1.2.3,bus2=BMT174109619.1.2.3,Phases=3,Linecode=CAB103_3_3,Length=0.038094000,Units=km
new line.TR1046662 bus1=BMT700829B.1.2.3,bus2=BMT174133472.1.2.3,Phases=3,Linecode=CAB103_3_3,Length=0.036250000,Units=km
new line.TR1046669 bus1=BMT700836B.1.2.3,bus2=BMT700829B.1.2.3,Phases=3,Linecode=CAB103_3_3,Length=0.033984000,Units=km
new line.TR1046690 bus1=BMT174133470.1.2.3,bus2=BMT700836B.1.2.3,Phases=3,Linecode=CAB103_3_3,Length=0.036415000,Units=km
new line.TR1046697 bus1=BMT174133470.1.2.3,bus2=BMT174133469.1.2.3,Phases=3,Linecode=CABA06_3_3,Length=0.028313000,Units=km
new line.TR1046711 bus1=BMT700850B.1.2.3,bus2=BMT174133470.1.2.3,Phases=3,Linecode=CAB103_3_3,Length=0.034496000,Units=km
new line.TR10467213 bus1=BMT164367580.3,bus2=BMT6728829B.3,Phases=1,Linecode=CAB202_3_1,Length=0.146816000,Units=km
new line.TR10467220 bus1=BMT6728829B.3,bus2=BMT6728780B.3,Phases=1,Linecode=CAB202_3_1,Length=0.392158000,Units=km
new line.TR10467227 bus1=BMT6728780B.3,bus2=BMT6728850B.3,Phases=1,Linecode=CAB202_3_1,Length=0.097455000,Units=km
new line.TR10467234 bus1=BMT6728850B.3,bus2=BMT6728864B.3,Phases=1,Linecode=CAB202_3_1,Length=0.199891000,Units=km
new line.TR10467241 bus1=BMT6728864B.3,bus2=BMT164367581.3,Phases=1,Linecode=CAB202_3_1,Length=0.103288000,Units=km
new line.TR1046725 bus1=BMT700857B.1.2.3,bus2=BMT700850B.1.2.3,Phases=3,Linecode=CAB103_3_3,Length=0.034014000,Units=km
new line.TR10543002 bus1=BMT164369066.3,bus2=BMT6803652B.3,Phases=1,Linecode=CAB202_3_1,Length=0.036415000,Units=km
new line.TR10543009 bus1=BMT6803652B.3,bus2=BMT164369068.3,Phases=1,Linecode=CAB202_3_1,Length=0.193285000,Units=km
new line.TR10543821 bus1=BMT171419275.2,bus2=BMT6804534B.2,Phases=1,Linecode=CAB202_3_1,Length=0.131946000,Units=km
new line.TR10543828 bus1=BMT6804534B.2,bus2=BMT171419277.2,Phases=1,Linecode=CAB202_3_1,Length=0.089935000,Units=km
new line.TR10544122 bus1=BMT171503057.3,bus2=BMT171503058.3,Phases=1,Linecode=CAB202_3_1,Length=0.079680000,Units=km
new line.TR10544129 bus1=BMT171503058.3,bus2=BMT171503059.3,Phases=1,Linecode=CAB202_3_1,Length=0.092697000,Units=km
new line.TR10544143 bus1=BMT171503058.3,bus2=BMT171503060.3,Phases=1,Linecode=CAB202_3_1,Length=0.155861000,Units=km
new line.TR1079373 bus1=BMT721346B.1.2.3,bus2=BMT721367B.1.2.3,Phases=3,Linecode=CAB103_3_3,Length=0.031334000,Units=km
new line.TR1079387 bus1=BMT721353B.1.2.3,bus2=BMT721346B.1.2.3,Phases=3,Linecode=CAB103_3_3,Length=0.026184000,Units=km
new line.TR1079401 bus1=BMT164368880.1.2.3,bus2=BMT721353B.1.2.3,Phases=3,Linecode=CAB103_3_3,Length=0.029747000,Units=km
new line.TR1079415 bus1=BMT721367B.1.2.3,bus2=BMT721381B.1.2.3,Phases=3,Linecode=CAB103_3_3,Length=0.035862000,Units=km
new line.TR1079422 bus1=BMT721374B.1.2.3,bus2=BMT164368880.1.2.3,Phases=3,Linecode=CAB103_3_3,Length=0.031780000,Units=km
new line.TR1079436 bus1=BMT721381B.1.2.3,bus2=BMT722389B.1.2.3,Phases=3,Linecode=CAB103_3_3,Length=0.035792000,Units=km
new line.TR1079457 bus1=BMT721388B.1.2.3,bus2=BMT721374B.1.2.3,Phases=3,Linecode=CAB103_3_3,Length=0.027799000,Units=km
new line.TR1079471 bus1=BMT164368835.1.2.3,bus2=BMT720023B.1.2.3,Phases=3,Linecode=CAB103_3_3,Length=0.033028000,Units=km
new line.TR1079478 bus1=BMT164368879.1.2.3,bus2=BMT721388B.1.2.3,Phases=3,Linecode=CAB103_3_3,Length=0.029425000,Units=km
new line.TR1079492 bus1=BMT721402B.1.2.3,bus2=BMT164368835.1.2.3,Phases=3,Linecode=CAB103_3_3,Length=0.033435000,Units=km