new load.3011763809M1 bus1=RML1006604021.1.2.0,Phases=2,kv=0.24,kW=3.00406,pf=0.92,Vminpu=0.92,Vmaxpu=1.5,model=8,zipv=[0.5,0,0.5,1,0,0,0],daily=RUR2_11,status=variable
new load.3011950261M1 bus1=RML1010071834.1.2.0,Phases=2,kv=0.24,kW=1.11234,pf=0.92,Vminpu=0.92,Vmaxpu=1.5,model=8,zipv=[0.5,0,0.5,1,0,0,0],daily=RUR3_13,status=variable
new load.3006422255M1 bus1=RML1003378885.1.0,Phases=1,kv=0.127,kW=0.24532,pf=0.92,Vminpu=0.92,Vmaxpu=1.5,model=8,zipv=[0.5,0,0.5,1,0,0,0],daily=RES1_25,status=variable
new load.3006551442M1 bus1=RML1003497500.1.0,Phases=1,kv=0.127,kW=0.79032,pf=0.92,Vminpu=0.92,Vmaxpu=1.5,model=8,zipv=[0.5,0,0.5,1,0,0,0],daily=RES2_2,status=variable
new load.3006315590M1 bus1=RML1003306757.3.0,Phases=1,kv=0.127,kW=0.46796,pf=0.92,Vminpu=0.92,Vmaxpu=1.5,model=8,zipv=[0.5,0,0.5,1,0,0,0],daily=RES2_22,status=variable
new load.3010366079M1 bus1=RML1004613643.3.0,Phases=1,kv=0.127,kW=0.82718,pf=0.92,Vminpu=0.92,Vmaxpu=1.5,model=8,zipv=[0.5,0,0.5,1,0,0,0],daily=RES1_5,status=variable
new load.IP8276935M1 bus1=BBT147819053.1.2.0,Phases=2,kv=0.22,kW=0.11292,pf=0.92,Vminpu=0.92,Vmaxpu=1.5,model=2,daily=IP,status=variable,NumCust=0
new load.IP8276936M1 bus1=BBT147821265.2.3.0,Phases=2,kv=0.22,kW=0.11292,pf=0.92,Vminpu=0.92,Vmaxpu=1.5,model=2,daily=IP,status=variable,NumCust=0
new load.IP8276937M1 bus1=BBT147821272.1.3.0,Phases=2,kv=0.22,kW=0.11292,pf=0.92,Vminpu=0.92,Vmaxpu=1.5,model=2,daily=IP,status=variable,NumCust=0
new load.IP8276938M1 bus1=BBT147821321.1.2.0,Phases=2,kv=0.22,kW=0.11292,pf=0.92,Vminpu=0.92,Vmaxpu=1.5,model=2,daily=IP,status=variable,NumCust=0
new load.IP8276929M1 bus1=BBT147819340.1.3.0,Phases=2,kv=0.22,kW=0.11292,pf=0.92,Vminpu=0.92,Vmaxpu=1.5,model=2,daily=IP,status=variable,NumCust=0
new load.IP8276930M1 bus1=BBT147819361.1.2.0,Phases=2,kv=0.22,kW=0.11292,pf=0.92,Vminpu=0.92,Vmaxpu=1.5,model=2,daily=IP,status=variable,NumCust=0
new load.IP8276931M1 bus1=BBT147819368.2.3.0,Phases=2,kv=0.22,kW=0.11292,pf=0.92,Vminpu=0.92,Vmaxpu=1.5,model=2,daily=IP,status=variable,NumCust=0
new load.IP8276932M1 bus1=BBT147819060.1.2.0,Phases=2,kv=0.22,kW=0.11292,pf=0.92,Vminpu=0.92,Vmaxpu=1.5,model=2,daily=IP,status=variable,NumCust=0
new load.IP8276933M1 bus1=BBT147819046.2.3.0,Phases=2,kv=0.22,kW=0.11292,pf=0.92,Vminpu=0.92,Vmaxpu=1.5,model=2,daily=IP,status=variable,NumCust=0
new load.IP8276934M1 bus1=BBT147818710.1.3.0,Phases=2,kv=0.22,kW=0.11292,pf=0.92,Vminpu=0.92,Vmaxpu=1.5,model=2,daily=IP,status=variable,NumCust=0
new load.3012762523M1 bus1=RML1010460600.1.2.3.0,Phases=3,kv=0.22,kW=0.22554,pf=0.92,Vminpu=0.92,Vmaxpu=1.5,model=8,zipv=[0.5,0,0.5,1,0,0,0],daily=RES1_2,status=variable
new load.3012764760M1 bus1=RML1010460614.2.0,Phases=1,kv=0.127,kW=0.61776,pf=0.92,Vminpu=0.92,Vmaxpu=1.5,model=8,zipv=[0.5,0,0.5,1,0,0,0],daily=RES1_2,status=variable
new load.3013807907M1 bus1=RML1011057426.1.2.0,Phases=2,kv=0.22,kW=0.98466,pf=0.92,Vminpu=0.92,Vmaxpu=1.5,model=8,zipv=[0.5,0,0.5,1,0,0,0],daily=RES2_23,status=variable
new load.IP756580M1 bus1=BBT2246586.2.3.0,Phases=2,kv=0.22,kW=0.08036,pf=0.92,Vminpu=0.92,Vmaxpu=1.5,model=2,daily=IP,status=variable,NumCust=0
new load.IP8276928M1 bus1=BBT147819340.1.3.0,Phases=2,kv=0.22,kW=0.11292,pf=0.92,Vminpu=0.92,Vmaxpu=1.5,model=2,daily=IP,status=variable,NumCust=0
new load.3012002064M1 bus1=RML1010040847.1.0,Phases=1,kv=0.127,kW=0.3995,pf=0.92,Vminpu=0.92,Vmaxpu=1.5,model=8,zipv=[0.5,0,0.5,1,0,0,0],daily=RES1_11,status=variable
new load.3012052961M1 bus1=RML1010057933.2.0,Phases=1,kv=0.127,kW=0.45516,pf=0.92,Vminpu=0.92,Vmaxpu=1.5,model=8,zipv=[0.5,0,0.5,1,0,0,0],daily=RES2_12,status=variable
new load.3012218194M1 bus1=RML1010165091.1.0,Phases=1,kv=0.127,kW=0.58088,pf=0.92,Vminpu=0.92,Vmaxpu=1.5,model=8,zipv=[0.5,0,0.5,1,0,0,0],daily=RES1_16,status=variable
new load.3012571858M1 bus1=RML1010493567.2.0,Phases=1,kv=0.127,kW=0.0666,pf=0.92,Vminpu=0.92,Vmaxpu=1.5,model=8,zipv=[0.5,0,0.5,1,0,0,0],daily=RES1_26,status=variable
new load.3012529947M1 bus1=RML1010344202.2.0,Phases=1,kv=0.127,kW=0.22438,pf=0.92,Vminpu=0.92,Vmaxpu=1.5,model=8,zipv=[0.5,0,0.5,1,0,0,0],daily=RES2_27,status=variable
new load.3011628227M1 bus1=RML1010997127.1.2.3.0,Phases=3,kv=0.22,kW=36.10722,pf=0.92,Vminpu=0.92,Vmaxpu=1.5,model=8,zipv=[0.5,0,0.5,1,0,0,0],daily=RES6_7,status=variable
new load.3005017229M1 bus1=RML1001712409.2.0,Phases=1,kv=0.127,kW=1.10496,pf=0.92,Vminpu=0.92,Vmaxpu=1.5,model=8,zipv=[0.5,0,0.5,1,0,0,0],daily=RES2_11,status=variable
new load.3005116959M1 bus1=RML1001712395.1.0,Phases=1,kv=0.127,kW=1.23082,pf=0.92,Vminpu=0.92,Vmaxpu=1.5,model=8,zipv=[0.5,0,0.5,1,0,0,0],daily=RES2_14,status=variable
new load.3005143285M1 bus1=RML1001712402.1.0,Phases=1,kv=0.127,kW=1.97502,pf=0.92,Vminpu=0.92,Vmaxpu=1.5,model=8,zipv=[0.5,0,0.5,1,0,0,0],daily=RES1_16,status=variable
new load.3005192183M1 bus1=RML1001712388.2.0,Phases=1,kv=0.127,kW=0.12362,pf=0.92,Vminpu=0.92,Vmaxpu=1.5,model=8,zipv=[0.5,0,0.5,1,0,0,0],daily=RES1_17,status=variable
new load.3005574004M1 bus1=RML1001712416.2.0,Phases=1,kv=0.127,kW=1.28606,pf=0.92,Vminpu=0.92,Vmaxpu=1.5,model=8,zipv=[0.5,0,0.5,1,0,0,0],daily=RES2_2,status=variable
new load.IP1340772M1 bus1=BBT4806437.1.2.0,Phases=2,kv=0.22,kW=0.11292,pf=0.92,Vminpu=0.92,Vmaxpu=1.5,model=2,daily=IP,status=variable,NumCust=0
new load.IP384453M1 bus1=BBT1206659.2.3.0,Phases=2,kv=0.22,kW=0.133,pf=0.92,Vminpu=0.92,Vmaxpu=1.5,model=2,daily=IP,status=variable,NumCust=0
new load.IP384460M1 bus1=BBT1206666.2.3.0,Phases=2,kv=0.22,kW=0.133,pf=0.92,Vminpu=0.92,Vmaxpu=1.5,model=2,daily=IP,status=variable,NumCust=0
new load.IP384467M1 bus1=BBT1206673.1.3.0,Phases=2,kv=0.22,kW=0.133,pf=0.92,Vminpu=0.92,Vmaxpu=1.5,model=2,daily=IP,status=variable,NumCust=0
new load.IP384474M1 bus1=BBT1206680.1.3.0,Phases=2,kv=0.22,kW=0.133,pf=0.92,Vminpu=0.92,Vmaxpu=1.5,model=2,daily=IP,status=variable,NumCust=0
new load.IP384481M1 bus1=BBT1206687.1.2.0,Phases=2,kv=0.22,kW=0.133,pf=0.92,Vminpu=0.92,Vmaxpu=1.5,model=2,daily=IP,status=variable,NumCust=0
new load.IP1281580M1 bus1=BBT3260165.1.3.0,Phases=2,kv=0.22,kW=0.11292,pf=0.92,Vminpu=0.92,Vmaxpu=1.5,model=2,daily=IP,status=variable,NumCust=0
new load.IP1281587M1 bus1=BBT3260158.2.3.0,Phases=2,kv=0.22,kW=0.11292,pf=0.92,Vminpu=0.92,Vmaxpu=1.5,model=2,daily=IP,status=variable,NumCust=0
new load.IP1281594M1 bus1=BBT3260172.1.2.0,Phases=2,kv=0.22,kW=0.11292,pf=0.92,Vminpu=0.92,Vmaxpu=1.5,model=2,daily=IP,status=variable,NumCust=0
new load.IP1282294M1 bus1=BBT3262454.1.2.0,Phases=2,kv=0.22,kW=0.11292,pf=0.92,Vminpu=0.92,Vmaxpu=1.5,model=2,daily=IP,status=variable,NumCust=0
new load.IP1356753M1 bus1=BBT5232072.1.3.0,Phases=2,kv=0.22,kW=0.11292,pf=0.92,Vminpu=0.92,Vmaxpu=1.5,model=2,daily=IP,status=variable,NumCust=0
new load.IP1340765M1 bus1=BBT4806444.1.2.0,Phases=2,kv=0.22,kW=0.11292,pf=0.92,Vminpu=0.92,Vmaxpu=1.5,model=2,daily=IP,status=variable,NumCust=0
new load.3013802412M1 bus1=RML1010926279.2.0,Phases=1,kv=0.127,kW=0.33344,pf=0.92,Vminpu=0.92,Vmaxpu=1.5,model=8,zipv=[0.5,0,0.5,1,0,0,0],daily=RES2_23,status=variable
new load.3014308391M1 bus1=RML1011125693.3.0,Phases=1,kv=0.127,kW=0.46378,pf=0.92,Vminpu=0.92,Vmaxpu=1.5,model=8,zipv=[0.5,0,0.5,1,0,0,0],daily=RES2_24,status=variable
new load.IP1281552M1 bus1=BBT3260130.2.3.0,Phases=2,kv=0.22,kW=0.11292,pf=0.92,Vminpu=0.92,Vmaxpu=1.5,model=2,daily=IP,status=variable,NumCust=0
new load.IP1281559M1 bus1=BBT3260137.1.2.0,Phases=2,kv=0.22,kW=0.11292,pf=0.92,Vminpu=0.92,Vmaxpu=1.5,model=2,daily=IP,status=variable,NumCust=0
new load.IP1281566M1 bus1=BBT3260144.1.3.0,Phases=2,kv=0.22,kW=0.11292,pf=0.92,Vminpu=0.92,Vmaxpu=1.5,model=2,daily=IP,status=variable,NumCust=0
new load.IP1281573M1 bus1=BBT3260151.1.2.0,Phases=2,kv=0.22,kW=0.11292,pf=0.92,Vminpu=0.92,Vmaxpu=1.5,model=2,daily=IP,status=variable,NumCust=0
new load.3012805573M1 bus1=RML1010474818.2.3.0,Phases=2,kv=0.22,kW=0.8848,pf=0.92,Vminpu=0.92,Vmaxpu=1.5,model=8,zipv=[0.5,0,0.5,1,0,0,0],daily=RES2_3,status=variable
new load.3012546662M1 bus1=RML1010357156.1.3.0,Phases=2,kv=0.22,kW=0.57522,pf=0.92,Vminpu=0.92,Vmaxpu=1.5,model=8,zipv=[0.5,0,0.5,1,0,0,0],daily=RES3_20,status=variable
new load.3012975846M1 bus1=RML1010537845.1.2.3.0,Phases=3,kv=0.22,kW=1.03776,pf=0.92,Vminpu=0.92,Vmaxpu=1.5,model=8,zipv=[0.5,0,0.5,1,0,0,0],daily=RES2_5,status=variable
new load.3012851821M1 bus1=RML1004211080.2.0,Phases=1,kv=0.127,kW=0.77924,pf=0.92,Vminpu=0.92,Vmaxpu=1.5,model=8,zipv=[0.5,0,0.5,1,0,0,0],daily=RES2_4,status=variable
new load.3013625729M1 bus1=RML1010537845.1.2.3.0,Phases=3,kv=0.22,kW=0.89924,pf=0.92,Vminpu=0.92,Vmaxpu=1.5,model=8,zipv=[0.5,0,0.5,1,0,0,0],daily=COM1_20,status=variable
new load.3013977296M1 bus1=RML1011001446.3.0,Phases=1,kv=0.127,kW=1.17188,pf=0.92,Vminpu=0.92,Vmaxpu=1.5,model=8,zipv=[0.5,0,0.5,1,0,0,0],daily=RES3_20,status=variable
new load.3012329319M1 bus1=RML1010235186.1.0,Phases=1,kv=0.127,kW=1.67738,pf=0.92,Vminpu=0.92,Vmaxpu=1.5,model=8,zipv=[0.5,0,0.5,1,0,0,0],daily=RES2_20,status=variable
new load.3012238735M1 bus1=RML1010193105.3.0,Phases=1,kv=0.127,kW=0.93998,pf=0.92,Vminpu=0.92,Vmaxpu=1.5,model=8,zipv=[0.5,0,0.5,1,0,0,0],daily=RES1_16,status=variable
new load.3012355670M1 bus1=RML1010263458.1.0,Phases=1,kv=0.127,kW=0.003,pf=0.92,Vminpu=0.92,Vmaxpu=1.5,model=8,zipv=[0.5,0,0.5,1,0,0,0],daily=RES1_18,status=variable
new load.3012592419M1 bus1=RML1010374594.2.0,Phases=1,kv=0.127,kW=0.74108,pf=0.92,Vminpu=0.92,Vmaxpu=1.5,model=8,zipv=[0.5,0,0.5,1,0,0,0],daily=RES2_1,status=variable
new load.3012769802M1 bus1=RML1010467720.3.0,Phases=1,kv=0.127,kW=1.52642,pf=0.92,Vminpu=0.92,Vmaxpu=1.5,model=8,zipv=[0.5,0,0.5,1,0,0,0],daily=RES3_3,status=variable
new load.3011562968M1 bus1=RML1006368338.1.0,Phases=1,kv=0.127,kW=1.1996,pf=0.92,Vminpu=0.92,Vmaxpu=1.5,model=8,zipv=[0.5,0,0.5,1,0,0,0],daily=RES3_4,status=variable
new load.3011564965M1 bus1=RML1006368338.1.0,Phases=1,kv=0.127,kW=0.14832,pf=0.92,Vminpu=0.92,Vmaxpu=1.5,model=8,zipv=[0.5,0,0.5,1,0,0,0],daily=COM1_5,status=variable
new load.3011591028M1 bus1=RML1006718968.2.0,Phases=1,kv=0.127,kW=0.91996,pf=0.92,Vminpu=0.92,Vmaxpu=1.5,model=8,zipv=[0.5,0,0.5,1,0,0,0],daily=RES2_5,status=variable
new load.3011684912M1 bus1=RML1006505538.1.0,Phases=1,kv=0.127,kW=0.9967,pf=0.92,Vminpu=0.92,Vmaxpu=1.5,model=8,zipv=[0.5,0,0.5,1,0,0,0],daily=RES2_6,status=variable
new load.3011655773M1 bus1=RML1006467248.1.2.0,Phases=2,kv=0.22,kW=3.3124,pf=0.92,Vminpu=0.92,Vmaxpu=1.5,model=8,zipv=[0.5,0,0.5,1,0,0,0],daily=RES3_6,status=variable
new load.3012329220M1 bus1=RML1010257018.1.0,Phases=1,kv=0.127,kW=0.96934,pf=0.92,Vminpu=0.92,Vmaxpu=1.5,model=8,zipv=[0.5,0,0.5,1,0,0,0],daily=RES2_20,status=variable
new load.3011382644M1 bus1=RML1004911269.2.0,Phases=1,kv=0.127,kW=0.81906,pf=0.92,Vminpu=0.92,Vmaxpu=1.5,model=8,zipv=[0.5,0,0.5,1,0,0,0],daily=RES2_2,status=variable
new load.3011434582M1 bus1=RML1006145402.1.0,Phases=1,kv=0.127,kW=1.17106,pf=0.92,Vminpu=0.92,Vmaxpu=1.5,model=8,zipv=[0.5,0,0.5,1,0,0,0],daily=RES2_3,status=variable
new load.3011407756M1 bus1=RML1006136960.2.3.0,Phases=2,kv=0.22,kW=0.31378,pf=0.92,Vminpu=0.92,Vmaxpu=1.5,model=8,zipv=[0.5,0,0.5,1,0,0,0],daily=RES1_2,status=variable
new load.3011549547M1 bus1=RML1006548084.1.0,Phases=1,kv=0.127,kW=0.98126,pf=0.92,Vminpu=0.92,Vmaxpu=1.5,model=8,zipv=[0.5,0,0.5,1,0,0,0],daily=RES2_4,status=variable
new load.3011587963M1 bus1=RML1006408140.1.0,Phases=1,kv=0.127,kW=0.56096,pf=0.92,Vminpu=0.92,Vmaxpu=1.5,model=8,zipv=[0.5,0,0.5,1,0,0,0],daily=RES2_5,status=variable
new load.3011476793M1 bus1=RML1006235842.2.0,Phases=1,kv=0.127,kW=1.41382,pf=0.92,Vminpu=0.92,Vmaxpu=1.5,model=8,zipv=[0.5,0,0.5,1,0,0,0],daily=RES3_4,status=variable
new load.3010896670M1 bus1=RML1004911269.2.0,Phases=1,kv=0.127,kW=0.7984,pf=0.92,Vminpu=0.92,Vmaxpu=1.5,model=8,zipv=[0.5,0,0.5,1,0,0,0],daily=RES1_17,status=variable
new load.3010911962M1 bus1=RML1004910254.1.0,Phases=1,kv=0.127,kW=0.68148,pf=0.92,Vminpu=0.92,Vmaxpu=1.5,model=8,zipv=[0.5,0,0.5,1,0,0,0],daily=RES2_18,status=variable
new load.3011115012M1 bus1=RML1005543101.1.2.0,Phases=2,kv=0.22,kW=0.33332,pf=0.92,Vminpu=0.92,Vmaxpu=1.5,model=8,zipv=[0.5,0,0.5,1,0,0,0],daily=RES1_23,status=variable
new load.3011179214M1 bus1=RML1005674652.2.0,Phases=1,kv=0.127,kW=0.4583,pf=0.92,Vminpu=0.92,Vmaxpu=1.5,model=8,zipv=[0.5,0,0.5,1,0,0,0],daily=RES2_27,status=variable
new load.3011388454M1 bus1=RML1006123891.1.0,Phases=1,kv=0.127,kW=1.2214,pf=0.92,Vminpu=0.92,Vmaxpu=1.5,model=8,zipv=[0.5,0,0.5,1,0,0,0],daily=RES2_2,status=variable
new load.3007575916M1 bus1=RML1004151930.3.0,Phases=1,kv=0.127,kW=0.11394,pf=0.92,Vminpu=0.92,Vmaxpu=1.5,model=8,zipv=[0.5,0,0.5,1,0,0,0],daily=RES1_18,status=variable
new load.3010291708M1 bus1=RML1004573701.1.0,Phases=1,kv=0.127,kW=0.83582,pf=0.92,Vminpu=0.92,Vmaxpu=1.5,model=8,zipv=[0.5,0,0.5,1,0,0,0],daily=RES2_5,status=variable
new load.3007734495M1 bus1=RML1004315289.1.0,Phases=1,kv=0.127,kW=0.56682,pf=0.92,Vminpu=0.92,Vmaxpu=1.5,model=8,zipv=[0.5,0,0.5,1,0,0,0],daily=RES1_1,status=variable
new load.3010048703M1 bus1=RML1004426218.2.0,Phases=1,kv=0.127,kW=1.30042,pf=0.92,Vminpu=0.92,Vmaxpu=1.5,model=8,zipv=[0.5,0,0.5,1,0,0,0],daily=RES2_2,status=variable
new load.3010225772M1 bus1=RML1004537077.3.0,Phases=1,kv=0.127,kW=1.29874,pf=0.92,Vminpu=0.92,Vmaxpu=1.5,model=8,zipv=[0.5,0,0.5,1,0,0,0],daily=RES2_4,status=variable
new load.3010472078M1 bus1=RML1004677602.2.0,Phases=1,kv=0.127,kW=1.46714,pf=0.92,Vminpu=0.92,Vmaxpu=1.5,model=8,zipv=[0.5,0,0.5,1,0,0,0],daily=RES2_7,status=variable
new load.3007221193M1 bus1=RML1004211080.2.0,Phases=1,kv=0.127,kW=0.56538,pf=0.92,Vminpu=0.92,Vmaxpu=1.5,model=8,zipv=[0.5,0,0.5,1,0,0,0],daily=RES2_10,status=variable
new load.3007243091M1 bus1=RML1004211535.1.0,Phases=1,kv=0.127,kW=0.90996,pf=0.92,Vminpu=0.92,Vmaxpu=1.5,model=8,zipv=[0.5,0,0.5,1,0,0,0],daily=RES2_11,status=variable
new load.3007283421M1 bus1=RML1003849915.3.0,Phases=1,kv=0.127,kW=0.62422,pf=0.92,Vminpu=0.92,Vmaxpu=1.5,model=8,zipv=[0.5,0,0.5,1,0,0,0],daily=RES1_12,status=variable
new load.3007525963M1 bus1=RML1010067467.3.0,Phases=1,kv=0.127,kW=1.02834,pf=0.92,Vminpu=0.92,Vmaxpu=1.5,model=8,zipv=[0.5,0,0.5,1,0,0,0],daily=RES2_20,status=variable
new load.3007604493M1 bus1=RML1004128123.3.0,Phases=1,kv=0.127,kW=0.43454,pf=0.92,Vminpu=0.92,Vmaxpu=1.5,model=8,zipv=[0.5,0,0.5,1,0,0,0],daily=RES1_20,status=variable
new load.3007610437M1 bus1=RML1004128361.1.0,Phases=1,kv=0.127,kW=0.41864,pf=0.92,Vminpu=0.92,Vmaxpu=1.5,model=8,zipv=[0.5,0,0.5,1,0,0,0],daily=RES1_21,status=variable
new load.3007216622M1 bus1=RML1004211311.2.0,Phases=1,kv=0.127,kW=0.66516,pf=0.92,Vminpu=0.92,Vmaxpu=1.5,model=8,zipv=[0.5,0,0.5,1,0,0,0],daily=RES2_10,status=variable
new load.3007217494M1 bus1=RML1004211318.2.0,Phases=1,kv=0.127,kW=0.97778,pf=0.92,Vminpu=0.92,Vmaxpu=1.5,model=8,zipv=[0.5,0,0.5,1,0,0,0],daily=RES2_10,status=variable
new load.3007217529M1 bus1=RML1004211297.2.0,Phases=1,kv=0.127,kW=0.26966,pf=0.92,Vminpu=0.92,Vmaxpu=1.5,model=8,zipv=[0.5,0,0.5,1,0,0,0],daily=RES1_11,status=variable
new load.3007218152M1 bus1=RML1004211339.2.0,Phases=1,kv=0.127,kW=0.33284,pf=0.92,Vminpu=0.92,Vmaxpu=1.5,model=8,zipv=[0.5,0,0.5,1,0,0,0],daily=RES3_11,status=variable
new load.3007238627M1 bus1=RML1004210842.1.0,Phases=1,kv=0.127,kW=1.12662,pf=0.92,Vminpu=0.92,Vmaxpu=1.5,model=8,zipv=[0.5,0,0.5,1,0,0,0],daily=RES2_11,status=variable
new load.3005596602M1 bus1=RML1001712423.3.0,Phases=1,kv=0.127,kW=0.95556,pf=0.92,Vminpu=0.92,Vmaxpu=1.5,model=8,zipv=[0.5,0,0.5,1,0,0,0],daily=RES2_2,status=variable
new load.3006326852M1 bus1=RML1003308311.3.0,Phases=1,kv=0.127,kW=0.49432,pf=0.92,Vminpu=0.92,Vmaxpu=1.5,model=8,zipv=[0.5,0,0.5,1,0,0,0],daily=RES2_22,status=variable
new load.3006559655M1 bus1=RML1003503380.1.0,Phases=1,kv=0.127,kW=0.08398,pf=0.92,Vminpu=0.92,Vmaxpu=1.5,model=8,zipv=[0.5,0,0.5,1,0,0,0],daily=RES1_1,status=variable
new load.3007111383M1 bus1=RML1003760266.1.0,Phases=1,kv=0.127,kW=1.14914,pf=0.92,Vminpu=0.92,Vmaxpu=1.5,model=8,zipv=[0.5,0,0.5,1,0,0,0],daily=RES2_9,status=variable
new load.3007225308M1 bus1=RML1004211283.3.0,Phases=1,kv=0.127,kW=1.37578,pf=0.92,Vminpu=0.92,Vmaxpu=1.5,model=8,zipv=[0.5,0,0.5,1,0,0,0],daily=RES2_11,status=variable
new load.3007216621M1 bus1=RML1004211332.3.0,Phases=1,kv=0.127,kW=0.84476,pf=0.92,Vminpu=0.92,Vmaxpu=1.5,model=8,zipv=[0.5,0,0.5,1,0,0,0],daily=RES2_10,status=variable
new load.3012448503M1 bus1=RML1010318554.1.0,Phases=1,kv=0.12,kW=0.43936,pf=0.92,Vminpu=0.92,Vmaxpu=1.5,model=8,zipv=[0.5,0,0.5,1,0,0,0],daily=RES2_23,status=variable
new load.3012199009M1 bus1=RML1010239366.1.2.0,Phases=2,kv=0.24,kW=0.16922,pf=0.92,Vminpu=0.92,Vmaxpu=1.5,model=8,zipv=[0.5,0,0.5,1,0,0,0],daily=COM1_20,status=variable
new load.3012439329M1 bus1=RML1010285422.1.2.0,Phases=2,kv=0.24,kW=0.56178,pf=0.92,Vminpu=0.92,Vmaxpu=1.5,model=8,zipv=[0.5,0,0.5,1,0,0,0],daily=RUR1_25,status=variable
new load.3012439304M1 bus1=RML1010286660.1.2.0,Phases=2,kv=0.24,kW=0.20056,pf=0.92,Vminpu=0.92,Vmaxpu=1.5,model=8,zipv=[0.5,0,0.5,1,0,0,0],daily=RES1_20,status=variable
new load.3012439387M1 bus1=RML1010287484.1.2.0,Phases=2,kv=0.24,kW=0.8858,pf=0.92,Vminpu=0.92,Vmaxpu=1.5,model=8,zipv=[0.5,0,0.5,1,0,0,0],daily=RES1_20,status=variable
new load.3012439239M1 bus1=RML1010287523.1.2.0,Phases=2,kv=0.24,kW=0.22842,pf=0.92,Vminpu=0.92,Vmaxpu=1.5,model=8,zipv=[0.5,0,0.5,1,0,0,0],daily=RES1_20,status=variable
new load.3012439394M1 bus1=RML1010287905.1.2.0,Phases=2,kv=0.24,kW=0.42896,pf=0.92,Vminpu=0.92,Vmaxpu=1.5,model=8,zipv=[0.5,0,0.5,1,0,0,0],daily=RES1_20,status=variable
new load.3012439391M1 bus1=RML1010288073.1.2.0,Phases=2,kv=0.24,kW=0.62396,pf=0.92,Vminpu=0.92,Vmaxpu=1.5,model=8,zipv=[0.5,0,0.5,1,0,0,0],daily=RES1_20,status=variable
new load.3012485874M1 bus1=RML1010320028.1.2.0,Phases=2,kv=0.24,kW=0.4149,pf=0.92,Vminpu=0.92,Vmaxpu=1.5,model=8,zipv=[0.5,0,0.5,1,0,0,0],daily=COM1_24,status=variable
new load.3012532555M1 bus1=RML1010453994.1.2.3.0,Phases=3,kv=0.22,kW=6.9892,pf=0.92,Vminpu=0.92,Vmaxpu=1.5,model=8,zipv=[0.5,0,0.5,1,0,0,0],daily=COM3_25,status=variable
new load.3002638395M1 bus1=RML1001616187.2.0,Phases=1,kv=0.12,kW=1.58522,pf=0.92,Vminpu=0.92,Vmaxpu=1.5,model=8,zipv=[0.5,0,0.5,1,0,0,0],daily=RES3_7,status=variable
new load.3002638396M1 bus1=RML1001616180.2.0,Phases=1,kv=0.12,kW=0.3068,pf=0.92,Vminpu=0.92,Vmaxpu=1.5,model=8,zipv=[0.5,0,0.5,1,0,0,0],daily=RES1_6,status=variable
new load.3002638397M1 bus1=RML1001616152.1.0,Phases=1,kv=0.12,kW=0.3422,pf=0.92,Vminpu=0.92,Vmaxpu=1.5,model=8,zipv=[0.5,0,0.5,1,0,0,0],daily=RES1_6,status=variable
new load.3002638398M1 bus1=RML1001616117.2.0,Phases=1,kv=0.12,kW=0.41372,pf=0.92,Vminpu=0.92,Vmaxpu=1.5,model=8,zipv=[0.5,0,0.5,1,0,0,0],daily=RES2_6,status=variable
new load.3002638399M1 bus1=RML1001616082.2.0,Phases=1,kv=0.12,kW=0.68954,pf=0.92,Vminpu=0.92,Vmaxpu=1.5,model=8,zipv=[0.5,0,0.5,1,0,0,0],daily=RES2_6,status=variable
new load.3002638400M1 bus1=RML1001616124.1.0,Phases=1,kv=0.12,kW=0.1888,pf=0.92,Vminpu=0.92,Vmaxpu=1.5,model=8,zipv=[0.5,0,0.5,1,0,0,0],daily=RES1_6,status=variable
new load.IP713908M1 bus1=BBT1148384.1.2.0,Phases=2,kv=0.24,kW=0.08708,pf=0.92,Vminpu=0.92,Vmaxpu=1.5,model=2,daily=IP,status=variable,NumCust=0
new load.IP713929M1 bus1=BBT1148426.1.2.0,Phases=2,kv=0.24,kW=0.08708,pf=0.92,Vminpu=0.92,Vmaxpu=1.5,model=2,daily=IP,status=variable,NumCust=0
new load.IP713936M1 bus1=BBT1148433.1.2.0,Phases=2,kv=0.24,kW=0.08708,pf=0.92,Vminpu=0.92,Vmaxpu=1.5,model=2,daily=IP,status=variable,NumCust=0
new load.IP713943M1 bus1=BBT1148419.1.2.0,Phases=2,kv=0.24,kW=0.08708,pf=0.92,Vminpu=0.92,Vmaxpu=1.5,model=2,daily=IP,status=variable,NumCust=0
new load.IP713964M1 bus1=BBT1148440.1.2.0,Phases=2,kv=0.24,kW=0.08708,pf=0.92,Vminpu=0.92,Vmaxpu=1.5,model=2,daily=IP,status=variable,NumCust=0
new load.IP713985M1 bus1=BBT1148405.1.2.0,Phases=2,kv=0.24,kW=0.08708,pf=0.92,Vminpu=0.92,Vmaxpu=1.5,model=2,daily=IP,status=variable,NumCust=0
new load.IP1214681M1 bus1=BBT2919188.1.2.0,Phases=2,kv=0.24,kW=0.11292,pf=0.92,Vminpu=0.92,Vmaxpu=1.5,model=2,daily=IP,status=variable,NumCust=0
new load.IP714125M1 bus1=BBT161660816.1.2.0,Phases=2,kv=0.24,kW=0.08708,pf=0.92,Vminpu=0.92,Vmaxpu=1.5,model=2,daily=IP,status=variable,NumCust=0
new load.IP714454M1 bus1=BBT1148412.1.2.0,Phases=2,kv=0.24,kW=0.08708,pf=0.92,Vminpu=0.92,Vmaxpu=1.5,model=2,daily=IP,status=variable,NumCust=0
new load.IP713887M1 bus1=BBT1148398.1.2.0,Phases=2,kv=0.24,kW=0.08708,pf=0.92,Vminpu=0.92,Vmaxpu=1.5,model=2,daily=IP,status=variable,NumCust=0
new load.IP713894M1 bus1=BBT1148391.1.2.0,Phases=2,kv=0.24,kW=0.08708,pf=0.92,Vminpu=0.92,Vmaxpu=1.5,model=2,daily=IP,status=variable,NumCust=0
new load.IP713901M1 bus1=BBT1148377.1.2.0,Phases=2,kv=0.24,kW=0.08708,pf=0.92,Vminpu=0.92,Vmaxpu=1.5,model=2,daily=IP,status=variable,NumCust=0
new load.IP1214646M1 bus1=BBT2919174.1.2.0,Phases=2,kv=0.24,kW=0.11292,pf=0.92,Vminpu=0.92,Vmaxpu=1.5,model=2,daily=IP,status=variable,NumCust=0
new load.IP1214653M1 bus1=BBT2919167.1.2.0,Phases=2,kv=0.24,kW=0.11292,pf=0.92,Vminpu=0.92,Vmaxpu=1.5,model=2,daily=IP,status=variable,NumCust=0
new load.IP1214660M1 bus1=BBT2919160.1.2.0,Phases=2,kv=0.24,kW=0.11292,pf=0.92,Vminpu=0.92,Vmaxpu=1.5,model=2,daily=IP,status=variable,NumCust=0
new load.IP1214667M1 bus1=BBT2919167.1.2.0,Phases=2,kv=0.24,kW=0.11292,pf=0.92,Vminpu=0.92,Vmaxpu=1.5,model=2,daily=IP,status=variable,NumCust=0
new load.IP1214674M1 bus1=BBT2919181.1.2.0,Phases=2,kv=0.24,kW=0.11292,pf=0.92,Vminpu=0.92,Vmaxpu=1.5,model=2,daily=IP,status=variable,NumCust=0
new load.3011731730M1 bus1=RML1006594046.2.0,Phases=1,kv=0.12,kW=0.00626,pf=0.92,Vminpu=0.92,Vmaxpu=1.5,model=8,zipv=[0.5,0,0.5,1,0,0,0],daily=RES2_6,status=variable
new load.3011911424M1 bus1=RML1006800343.1.0,Phases=1,kv=0.12,kW=1.73832,pf=0.92,Vminpu=0.92,Vmaxpu=1.5,model=8,zipv=[0.5,0,0.5,1,0,0,0],daily=RES3_10,status=variable
new load.3012455526M1 bus1=RML1010315216.1.2.0,Phases=2,kv=0.24,kW=0.39338,pf=0.92,Vminpu=0.92,Vmaxpu=1.5,model=8,zipv=[0.5,0,0.5,1,0,0,0],daily=RES2_24,status=variable
new load.3013751217M1 bus1=RML1010904850.1.0,Phases=1,kv=0.12,kW=0.25704,pf=0.92,Vminpu=0.92,Vmaxpu=1.5,model=8,zipv=[0.5,0,0.5,1,0,0,0],daily=RES2_22,status=variable
new load.3013888271M1 bus1=RML1010474573.1.0,Phases=1,kv=0.12,kW=0.50546,pf=0.92,Vminpu=0.92,Vmaxpu=1.5,model=8,zipv=[0.5,0,0.5,1,0,0,0],daily=RES2_25,status=variable
new load.3007749662M1 bus1=RML1004360488.1.0,Phases=1,kv=0.12,kW=0.11546,pf=0.92,Vminpu=0.92,Vmaxpu=1.5,model=8,zipv=[0.5,0,0.5,1,0,0,0],daily=RES1_1,status=variable
new load.3007728793M1 bus1=RML1004305524.2.0,Phases=1,kv=0.12,kW=0.54964,pf=0.92,Vminpu=0.92,Vmaxpu=1.5,model=8,zipv=[0.5,0,0.5,1,0,0,0],daily=RES2_1,status=variable
new load.3007727439M1 bus1=RML1005071821.2.0,Phases=1,kv=0.12,kW=0.74108,pf=0.92,Vminpu=0.92,Vmaxpu=1.5,model=8,zipv=[0.5,0,0.5,1,0,0,0],daily=RES2_1,status=variable
new load.3010289128M1 bus1=RML1004573722.1.0,Phases=1,kv=0.12,kW=2.17912,pf=0.92,Vminpu=0.92,Vmaxpu=1.5,model=8,zipv=[0.5,0,0.5,1,0,0,0],daily=RES3_5,status=variable
new load.3010766782M1 bus1=RML1004809594.1.0,Phases=1,kv=0.12,kW=0.54242,pf=0.92,Vminpu=0.92,Vmaxpu=1.5,model=8,zipv=[0.5,0,0.5,1,0,0,0],daily=RES1_14,status=variable
new load.3011203133M1 bus1=RML1005673217.2.0,Phases=1,kv=0.12,kW=0.34452,pf=0.92,Vminpu=0.92,Vmaxpu=1.5,model=8,zipv=[0.5,0,0.5,1,0,0,0],daily=RES2_28,status=variable
new load.3007277861M1 bus1=RML1003844861.1.0,Phases=1,kv=0.12,kW=1.46074,pf=0.92,Vminpu=0.92,Vmaxpu=1.5,model=8,zipv=[0.5,0,0.5,1,0,0,0],daily=RES2_12,status=variable
new load.3007581244M1 bus1=RML1004151881.2.0,Phases=1,kv=0.12,kW=0.17042,pf=0.92,Vminpu=0.92,Vmaxpu=1.5,model=8,zipv=[0.5,0,0.5,1,0,0,0],daily=RES1_19,status=variable
new load.3007504175M1 bus1=RML1004013491.1.0,Phases=1,kv=0.12,kW=1.03472,pf=0.92,Vminpu=0.92,Vmaxpu=1.5,model=8,zipv=[0.5,0,0.5,1,0,0,0],daily=RES2_19,status=variable
new load.3007596564M1 bus1=RML1004149921.1.0,Phases=1,kv=0.12,kW=0.76002,pf=0.92,Vminpu=0.92,Vmaxpu=1.5,model=8,zipv=[0.5,0,0.5,1,0,0,0],daily=RES3_19,status=variable
new load.3007618040M1 bus1=RML1004134185.2.0,Phases=1,kv=0.12,kW=0.33128,pf=0.92,Vminpu=0.92,Vmaxpu=1.5,model=8,zipv=[0.5,0,0.5,1,0,0,0],daily=RES2_24,status=variable
new load.3007736948M1 bus1=RML1004315338.2.0,Phases=1,kv=0.12,kW=3.8012,pf=0.92,Vminpu=0.92,Vmaxpu=1.5,model=8,zipv=[0.5,0,0.5,1,0,0,0],daily=RES3_1,status=variable
new load.3007187097M1 bus1=RML1004177340.2.0,Phases=1,kv=0.12,kW=0.89796,pf=0.92,Vminpu=0.92,Vmaxpu=1.5,model=8,zipv=[0.5,0,0.5,1,0,0,0],daily=RES2_10,status=variable
new load.3007187098M1 bus1=RML1004177354.2.0,Phases=1,kv=0.12,kW=0.75828,pf=0.92,Vminpu=0.92,Vmaxpu=1.5,model=8,zipv=[0.5,0,0.5,1,0,0,0],daily=RES2_10,status=variable
new load.3007180474M1 bus1=RML1004177333.1.0,Phases=1,kv=0.12,kW=0.439,pf=0.92,Vminpu=0.92,Vmaxpu=1.5,model=8,zipv=[0.5,0,0.5,1,0,0,0],daily=RES2_10,status=variable
new load.3006673053M1 bus1=RML1003598965.1.0,Phases=1,kv=0.12,kW=1.20254,pf=0.92,Vminpu=0.92,Vmaxpu=1.5,model=8,zipv=[0.5,0,0.5,1,0,0,0],daily=RES2_4,status=variable
new load.3006688802M1 bus1=RML1003607169.1.2.0,Phases=2,kv=0.24,kW=1.11596,pf=0.92,Vminpu=0.92,Vmaxpu=1.5,model=8,zipv=[0.5,0,0.5,1,0,0,0],daily=RES2_4,status=variable
new load.3006055983M1 bus1=RML1001616292.1.2.0,Phases=2,kv=0.24,kW=2.00868,pf=0.92,Vminpu=0.92,Vmaxpu=1.5,model=8,zipv=[0.5,0,0.5,1,0,0,0],daily=RES1_13,status=variable
new load.3005893366M1 bus1=RML1001616201.1.0,Phases=1,kv=0.12,kW=1.06086,pf=0.92,Vminpu=0.92,Vmaxpu=1.5,model=8,zipv=[0.5,0,0.5,1,0,0,0],daily=RES2_7,status=variable
new load.3006685035M1 bus1=RML1003605174.1.0,Phases=1,kv=0.12,kW=0.61776,pf=0.92,Vminpu=0.92,Vmaxpu=1.5,model=8,zipv=[0.5,0,0.5,1,0,0,0],daily=RES1_2,status=variable
new load.3006734373M1 bus1=RML1001616292.1.2.0,Phases=2,kv=0.24,kW=0.39828,pf=0.92,Vminpu=0.92,Vmaxpu=1.5,model=8,zipv=[0.5,0,0.5,1,0,0,0],daily=RES2_5,status=variable
new load.3005169561M1 bus1=RML1001616096.2.0,Phases=1,kv=0.12,kW=0.33996,pf=0.92,Vminpu=0.92,Vmaxpu=1.5,model=8,zipv=[0.5,0,0.5,1,0,0,0],daily=RES1_17,status=variable
new load.3005170818M1 bus1=RML1001616110.1.0,Phases=1,kv=0.12,kW=0.55698,pf=0.92,Vminpu=0.92,Vmaxpu=1.5,model=8,zipv=[0.5,0,0.5,1,0,0,0],daily=RES3_14,status=variable
new load.3004969319M1 bus1=RML1001616208.2.0,Phases=1,kv=0.12,kW=0.81896,pf=0.92,Vminpu=0.92,Vmaxpu=1.5,model=8,zipv=[0.5,0,0.5,1,0,0,0],daily=RES1_11,status=variable
new load.3005635705M1 bus1=RML1001616243.1.0,Phases=1,kv=0.12,kW=0.62456,pf=0.92,Vminpu=0.92,Vmaxpu=1.5,model=8,zipv=[0.5,0,0.5,1,0,0,0],daily=RES2_3,status=variable
new load.3005518365M1 bus1=RML1001616250.2.0,Phases=1,kv=0.12,kW=0.20998,pf=0.92,Vminpu=0.92,Vmaxpu=1.5,model=8,zipv=[0.5,0,0.5,1,0,0,0],daily=RES2_1,status=variable
new load.3005793106M1 bus1=RML1001616306.1.0,Phases=1,kv=0.12,kW=0.54974,pf=0.92,Vminpu=0.92,Vmaxpu=1.5,model=8,zipv=[0.5,0,0.5,1,0,0,0],daily=RES2_5,status=variable
new load.3004152513M1 bus1=RML1001616075.1.0,Phases=1,kv=0.12,kW=0.42246,pf=0.92,Vminpu=0.92,Vmaxpu=1.5,model=8,zipv=[0.5,0,0.5,1,0,0,0],daily=RES1_16,status=variable
new load.3004358607M1 bus1=RML1001616068.2.0,Phases=1,kv=0.12,kW=0.7527,pf=0.92,Vminpu=0.92,Vmaxpu=1.5,model=8,zipv=[0.5,0,0.5,1,0,0,0],daily=RES3_20,status=variable
new load.3004619480M1 bus1=RML1001616278.2.0,Phases=1,kv=0.12,kW=0.76484,pf=0.92,Vminpu=0.92,Vmaxpu=1.5,model=8,zipv=[0.5,0,0.5,1,0,0,0],daily=RES1_2,status=variable
new load.3004423396M1 bus1=RML1001616173.1.0,Phases=1,kv=0.12,kW=0.00442,pf=0.92,Vminpu=0.92,Vmaxpu=1.5,model=8,zipv=[0.5,0,0.5,1,0,0,0],daily=COM1_2,status=variable
new load.3004425297M1 bus1=RML1001616222.1.0,Phases=1,kv=0.12,kW=0.08028,pf=0.92,Vminpu=0.92,Vmaxpu=1.5,model=8,zipv=[0.5,0,0.5,1,0,0,0],daily=RES2_1,status=variable
new load.3003399771M1 bus1=RML1001616236.1.0,Phases=1,kv=0.12,kW=0.5604,pf=0.92,Vminpu=0.92,Vmaxpu=1.5,model=8,zipv=[0.5,0,0.5,1,0,0,0],daily=RES2_2,status=variable
new load.3003414652M1 bus1=RML1001616264.2.0,Phases=1,kv=0.12,kW=0.43036,pf=0.92,Vminpu=0.92,Vmaxpu=1.5,model=8,zipv=[0.5,0,0.5,1,0,0,0],daily=RES1_1,status=variable
new load.3003649374M1 bus1=RML1001616215.2.0,Phases=1,kv=0.12,kW=0.91956,pf=0.92,Vminpu=0.92,Vmaxpu=1.5,model=8,zipv=[0.5,0,0.5,1,0,0,0],daily=RES1_3,status=variable
new load.3004038363M1 bus1=RML1001616131.1.0,Phases=1,kv=0.12,kW=0.36856,pf=0.92,Vminpu=0.92,Vmaxpu=1.5,model=8,zipv=[0.5,0,0.5,1,0,0,0],daily=RES2_16,status=variable
new load.3004076304M1 bus1=RML1001616271.1.0,Phases=1,kv=0.12,kW=0.36426,pf=0.92,Vminpu=0.92,Vmaxpu=1.5,model=8,zipv=[0.5,0,0.5,1,0,0,0],daily=RES2_17,status=variable
new load.3004076305M1 bus1=RML1001616103.2.0,Phases=1,kv=0.12,kW=0.65664,pf=0.92,Vminpu=0.92,Vmaxpu=1.5,model=8,zipv=[0.5,0,0.5,1,0,0,0],daily=RES2_17,status=variable
new load.3002638401M1 bus1=RML1001616145.2.0,Phases=1,kv=0.12,kW=0.75222,pf=0.92,Vminpu=0.92,Vmaxpu=1.5,model=8,zipv=[0.5,0,0.5,1,0,0,0],daily=RES2_6,status=variable
new load.3002638402M1 bus1=RML1001616285.2.0,Phases=1,kv=0.12,kW=0.69618,pf=0.92,Vminpu=0.92,Vmaxpu=1.5,model=8,zipv=[0.5,0,0.5,1,0,0,0],daily=RES1_6,status=variable
new load.3002638403M1 bus1=RML1001616166.1.0,Phases=1,kv=0.12,kW=0.83372,pf=0.92,Vminpu=0.92,Vmaxpu=1.5,model=8,zipv=[0.5,0,0.5,1,0,0,0],daily=RES2_6,status=variable
new load.3002638404M1 bus1=RML1001616159.1.2.0,Phases=2,kv=0.24,kW=0.3964,pf=0.92,Vminpu=0.92,Vmaxpu=1.5,model=8,zipv=[0.5,0,0.5,1,0,0,0],daily=COM1_11,status=variable
new load.3002638433M1 bus1=RML1001616299.2.0,Phases=1,kv=0.12,kW=0.0118,pf=0.92,Vminpu=0.92,Vmaxpu=1.5,model=8,zipv=[0.5,0,0.5,1,0,0,0],daily=RES1_6,status=variable
new load.3003399770M1 bus1=RML1001616229.2.0,Phases=1,kv=0.12,kW=1.28118,pf=0.92,Vminpu=0.92,Vmaxpu=1.5,model=8,zipv=[0.5,0,0.5,1,0,0,0],daily=RES5_3,status=variable
new load.3011470776M1 bus1=RML1010782140.1.2.0,Phases=2,kv=0.24,kW=0.41368,pf=0.92,Vminpu=0.92,Vmaxpu=1.5,model=8,zipv=[0.5,0,0.5,1,0,0,0],daily=RES2_4,status=variable
new load.3011582121M1 bus1=RML1010782863.1.2.0,Phases=2,kv=0.24,kW=0.32734,pf=0.92,Vminpu=0.92,Vmaxpu=1.5,model=8,zipv=[0.5,0,0.5,1,0,0,0],daily=RUR1_11,status=variable