new line.10097569 bus1=BBT147818703.1.2.3.0,bus2=BBT147818710.1.2.3.0,Phases=3,Linecode=BT518_BT518_7_3_1,Length=0.000501000,Units=km
new line.10097590 bus1=BBT147818710.1.2.3.0,bus2=BBT147819046.1.2.3.0,Phases=3,Linecode=BT803_BT803_4_3_4,Length=0.032028000,Units=km
new line.10097597 bus1=BBT147818710.1.2.3.0,bus2=BBT147819053.1.2.3.0,Phases=3,Linecode=BT803_BT803_4_3_4,Length=0.032028000,Units=km
new line.10097604 bus1=BBT147819046.1.2.3.0,bus2=BBT147819060.1.2.3.0,Phases=3,Linecode=BT803_BT803_4_3_4,Length=0.028873000,Units=km
new line.10097611 bus1=BBT147819060.1.2.3.0,bus2=BBT147819340.1.2.3.0,Phases=3,Linecode=BT803_BT803_4_3_4,Length=0.028873000,Units=km
new line.10097618 bus1=BBT147819340.1.2.3.0,bus2=BBT147819361.1.2.3.0,Phases=3,Linecode=BT803_BT803_4_3_4,Length=0.040016000,Units=km
new line.10097625 bus1=BBT147819361.1.2.3.0,bus2=BBT147819368.1.2.3.0,Phases=3,Linecode=BT803_BT803_4_3_4,Length=0.040016000,Units=km
new line.10097639 bus1=BBT2246586.1.2.3.0,bus2=BBT147819676.1.2.3.0,Phases=3,Linecode=BT810_BT810_4_3_4,Length=0.036070000,Units=km
new line.10097667 bus1=BBT147819053.1.2.3.0,bus2=BBT147821265.1.2.3.0,Phases=3,Linecode=BT803_BT803_4_3_4,Length=0.040277000,Units=km
new line.10097674 bus1=BBT147819046.1.2.3.0,bus2=BBT147821272.1.2.3.0,Phases=3,Linecode=BT803_BT803_4_3_4,Length=0.040277000,Units=km
new line.10097681 bus1=BBT147821272.1.2.3.0,bus2=BBT147821321.1.2.3.0,Phases=3,Linecode=BT803_BT803_4_3_4,Length=0.040277000,Units=km
new line.10100215 bus1=BBT147897831.1.2.3.0,bus2=BBT147897838.1.2.3.0,Phases=3,Linecode=BT518_BT518_7_3_1,Length=0.000501000,Units=km
new line.1019486 bus1=BBT1093343.1.2.3.0,bus2=BBT1093350.1.2.3.0,Phases=3,Linecode=BT308_BT308_7_3_1,Length=0.000501000,Units=km
new line.1063852 bus1=BBT1141111.1.2.3.0,bus2=BBT1141104.1.2.3.0,Phases=3,Linecode=BT107_BT106_7_3_1,Length=0.039474000,Units=km
new line.1063859 bus1=BBT1141118.1.2.3.0,bus2=BBT1141111.1.2.3.0,Phases=3,Linecode=BT107_BT106_7_3_1,Length=0.036511000,Units=km
new line.1063866 bus1=BBT1141118.1.2.3.0,bus2=BBT1141125.1.2.3.0,Phases=3,Linecode=BT107_BT106_7_3_1,Length=0.032401000,Units=km
new line.1063873 bus1=BBT1141125.1.2.3.0,bus2=BBT1141132.1.2.3.0,Phases=3,Linecode=BT107_BT106_7_3_1,Length=0.032570000,Units=km
new line.1063880 bus1=BBT1141132.1.2.3.0,bus2=BBT1141139.1.2.3.0,Phases=3,Linecode=BT107_BT106_7_3_1,Length=0.028295000,Units=km
new line.1063887 bus1=BBT1141146.1.2.3.0,bus2=BBT1141118.1.2.3.0,Phases=3,Linecode=BT107_BT106_7_3_1,Length=0.025972000,Units=km
new line.1063894 bus1=BBT1141153.1.2.3.0,bus2=BBT1141146.1.2.3.0,Phases=3,Linecode=BT107_BT106_7_3_1,Length=0.028171000,Units=km
new line.1063901 bus1=BBT1141153.1.2.3.0,bus2=BBT1141181.1.2.3.0,Phases=3,Linecode=BT107_BT106_7_3_1,Length=0.044660000,Units=km
new line.1063908 bus1=BBT1141160.1.2.3.0,bus2=BBT1141153.1.2.3.0,Phases=3,Linecode=BT108_BT107_7_3_1,Length=0.039233000,Units=km
new line.1063915 bus1=BBT1141097.1.2.3.0,bus2=BBT1141160.1.2.3.0,Phases=3,Linecode=BT508_BT508_7_3_1,Length=0.000501000,Units=km
new line.1063922 bus1=BBT1141160.1.2.3.0,bus2=BBT1141167.1.2.3.0,Phases=3,Linecode=BT108_BT107_7_3_1,Length=0.033851000,Units=km
new line.1063929 bus1=BBT1141167.1.2.3.0,bus2=BBT1141174.1.2.3.0,Phases=3,Linecode=BT108_BT107_7_3_1,Length=0.039575000,Units=km
new line.1063936 bus1=BBT1141174.1.2.3.0,bus2=BBT1141188.1.2.3.0,Phases=3,Linecode=BT107_BT106_7_3_1,Length=0.037378000,Units=km
new line.1072077 bus1=BBT1148895.1.2.3.0,bus2=BBT2812347.1.2.3.0,Phases=3,Linecode=BT206_BT206_7_3_1,Length=0.049496000,Units=km
new line.1072084 bus1=BBT1148902.1.2.3.0,bus2=BBT1148895.1.2.3.0,Phases=3,Linecode=BT106_BT106_7_3_1,Length=0.027085000,Units=km
new line.1072091 bus1=BBT1148909.1.2.3.0,bus2=BBT1148902.1.2.3.0,Phases=3,Linecode=BT106_BT106_7_3_1,Length=0.026029000,Units=km
new line.1072098 bus1=BBT1148916.1.2.3.0,bus2=BBT1148909.1.2.3.0,Phases=3,Linecode=BT106_BT106_7_3_1,Length=0.065033000,Units=km
new line.1072105 bus1=BBT1148923.1.2.3.0,bus2=BBT1148916.1.2.3.0,Phases=3,Linecode=BT106_BT106_7_3_1,Length=0.023009000,Units=km
new line.1072112 bus1=BBT1148930.1.2.3.0,bus2=BBT1148923.1.2.3.0,Phases=3,Linecode=BT108_BT107_7_3_1,Length=0.021596000,Units=km
new line.1072119 bus1=BBT1148930.2.3.0,bus2=BBT1148937.2.3.0,Phases=2,Linecode=BT106_BT106_7_2_1,Length=0.022100000,Units=km
new line.1072126 bus1=BBT1148937.2.3.0,bus2=BBT1148944.2.3.0,Phases=2,Linecode=BT106_BT106_7_2_1,Length=0.028082000,Units=km
new line.1072133 bus1=BBT1148944.2.3.0,bus2=BBT1148951.2.3.0,Phases=2,Linecode=BT106_BT106_7_2_1,Length=0.030028000,Units=km
new line.1072140 bus1=BBT1148951.2.3.0,bus2=BBT1148965.2.3.0,Phases=2,Linecode=BT106_BT106_7_2_1,Length=0.034539000,Units=km
new line.1072147 bus1=BBT1148958.1.2.3.0,bus2=BBT1148930.1.2.3.0,Phases=3,Linecode=BT108_BT107_7_3_1,Length=0.024525000,Units=km
new line.1072154 bus1=BBT1148888.1.2.3.0,bus2=BBT1148958.1.2.3.0,Phases=3,Linecode=BT508_BT508_7_3_1,Length=0.000501000,Units=km
new line.1072161 bus1=BBT1148958.1.2.3.0,bus2=BBT1148972.1.2.3.0,Phases=3,Linecode=BT108_BT107_7_3_1,Length=0.028454000,Units=km
new line.1072168 bus1=BBT1148972.1.2.3.0,bus2=BBT1148986.1.2.3.0,Phases=3,Linecode=BT106_BT106_7_3_1,Length=0.029626000,Units=km
new line.1072175 bus1=BBT1148986.1.2.3.0,bus2=BBT1148979.1.2.3.0,Phases=3,Linecode=BT106_BT106_7_3_1,Length=0.037870000,Units=km
new line.1072182 bus1=BBT1148986.1.2.0,bus2=BBT1148993.1.2.0,Phases=2,Linecode=BT106_BT106_7_2_1,Length=0.026918000,Units=km
new line.1072189 bus1=BBT1148986.2.3.0,bus2=BBT1149000.2.3.0,Phases=2,Linecode=BT106_BT106_7_2_1,Length=0.026936000,Units=km
new line.1074933 bus1=BBT149992621.1.2.3.0,bus2=BBT5850235.1.2.3.0,Phases=3,Linecode=BT803_BT803_4_3_4,Length=0.044300000,Units=km
new line.1074940 bus1=BBT1151611.1.2.0,bus2=BBT1151604.1.2.0,Phases=2,Linecode=BT106_BT106_7_2_1,Length=0.022370000,Units=km
new line.1074947 bus1=BBT1151618.1.2.3.0,bus2=BBT1151611.1.2.3.0,Phases=3,Linecode=BT106_BT106_7_3_1,Length=0.029080000,Units=km
new line.1074954 bus1=BBT1151625.1.2.3.0,bus2=BBT1151618.1.2.3.0,Phases=3,Linecode=BT106_BT106_7_3_1,Length=0.029080000,Units=km
new line.1074961 bus1=BBT1151625.1.3.0,bus2=BBT1151653.1.3.0,Phases=2,Linecode=BT106_BT106_7_2_1,Length=0.024341000,Units=km
new line.1074968 bus1=BBT1151632.1.2.3.0,bus2=BBT1151625.1.2.3.0,Phases=3,Linecode=BT108_BT107_7_3_1,Length=0.034248000,Units=km
new line.1074975 bus1=BBT1151597.1.2.3.0,bus2=BBT1151632.1.2.3.0,Phases=3,Linecode=BT308_BT308_7_3_1,Length=0.000501000,Units=km
new line.1074982 bus1=BBT1151632.1.2.3.0,bus2=BBT1151639.1.2.3.0,Phases=3,Linecode=BT108_BT107_7_3_1,Length=0.030161000,Units=km
new line.1074996 bus1=BBT1151639.1.2.3.0,bus2=BBT1151646.1.2.3.0,Phases=3,Linecode=BT108_BT107_7_3_1,Length=0.038486000,Units=km
new line.1075003 bus1=BBT1151639.2.3.0,bus2=BBT1151660.2.3.0,Phases=2,Linecode=BT106_BT106_7_2_1,Length=0.026487000,Units=km
new line.1075059 bus1=BBT1151737.1.2.3.0,bus2=BBT1151730.1.2.3.0,Phases=3,Linecode=BT106_BT106_7_3_1,Length=0.035242000,Units=km
new line.1075066 bus1=BBT1151737.1.2.3.0,bus2=BBT5849997.1.2.3.0,Phases=3,Linecode=BT810_BT810_4_3_4,Length=0.045017000,Units=km
new line.1075073 bus1=BBT1151744.1.2.3.0,bus2=BBT1151737.1.2.3.0,Phases=3,Linecode=BT106_BT106_7_3_1,Length=0.032998000,Units=km
new line.1075080 bus1=BBT1151758.1.2.3.0,bus2=BBT1151744.1.2.3.0,Phases=3,Linecode=BT107_BT107_7_3_1,Length=0.034942000,Units=km
new line.1075087 bus1=BBT1151723.1.2.3.0,bus2=BBT1151758.1.2.3.0,Phases=3,Linecode=BT509_BT509_7_3_1,Length=0.000501000,Units=km
new line.1075094 bus1=BBT1151758.1.2.3.0,bus2=BBT1151786.1.2.3.0,Phases=3,Linecode=BT108_BT107_7_3_1,Length=0.034942000,Units=km
new line.1075101 bus1=BBT1151772.1.2.0,bus2=BBT1151765.1.2.0,Phases=2,Linecode=BT107_BT106_7_2_1,Length=0.031635000,Units=km
new line.1075108 bus1=BBT1151779.1.2.3.0,bus2=BBT1151751.1.2.3.0,Phases=3,Linecode=BT810_BT810_4_3_4,Length=0.035707000,Units=km
new line.1075115 bus1=BBT1151786.1.2.0,bus2=BBT1151772.1.2.0,Phases=2,Linecode=BT106_BT106_7_2_1,Length=0.030376000,Units=km
new line.1075122 bus1=BBT1151786.1.2.3.0,bus2=BBT1151793.1.2.3.0,Phases=3,Linecode=BT810_BT810_4_3_4,Length=0.041126000,Units=km
new line.1075129 bus1=BBT1151793.1.2.3.0,bus2=BBT1151800.1.2.3.0,Phases=3,Linecode=BT810_BT810_4_3_4,Length=0.030688000,Units=km
new line.1075143 bus1=BBT1151800.1.2.3.0,bus2=BBT1151807.1.2.3.0,Phases=3,Linecode=BT810_BT810_4_3_4,Length=0.027214000,Units=km
new line.1075150 bus1=BBT1151807.1.2.3.0,bus2=BBT1151779.1.2.3.0,Phases=3,Linecode=BT810_BT810_4_3_4,Length=0.035917000,Units=km
new line.1075157 bus1=BBT1151807.1.2.3.0,bus2=BBT1151828.1.2.3.0,Phases=3,Linecode=BT810_BT810_4_3_4,Length=0.036415000,Units=km
new line.1075171 bus1=BBT1151828.1.2.3.0,bus2=BBT1151835.1.2.3.0,Phases=3,Linecode=BT810_BT810_4_3_4,Length=0.028171000,Units=km
new line.1075178 bus1=BBT1151835.1.2.0,bus2=BBT1151814.1.2.0,Phases=2,Linecode=BT106_BT106_7_2_1,Length=0.029080000,Units=km
new line.1075206 bus1=BBT1151863.1.2.0,bus2=BBT175175242.1.2.0,Phases=2,Linecode=BT106_BT106_7_2_1,Length=0.028647000,Units=km
new line.1075220 bus1=BBT1151870.2.3.0,bus2=BBT1155167.2.3.0,Phases=2,Linecode=BT107_BT107_7_2_1,Length=0.041247000,Units=km
new line.1075269 bus1=BBT1151905.1.2.3.0,bus2=BBT1151898.1.2.3.0,Phases=3,Linecode=BT108_BT107_7_3_1,Length=0.033747000,Units=km
new line.1075276 bus1=BBT1151912.1.2.3.0,bus2=BBT1151905.1.2.3.0,Phases=3,Linecode=BT108_BT107_7_3_1,Length=0.033554000,Units=km
new line.1075283 bus1=BBT1151891.1.2.3.0,bus2=BBT1151919.1.2.3.0,Phases=3,Linecode=BT508_BT508_7_3_1,Length=0.000501000,Units=km
new line.1075290 bus1=BBT1151919.1.2.3.0,bus2=BBT1151912.1.2.3.0,Phases=3,Linecode=BT108_BT107_7_3_1,Length=0.029845000,Units=km
new line.1075297 bus1=BBT1151919.1.2.3.0,bus2=BBT1151926.1.2.3.0,Phases=3,Linecode=BT108_BT107_7_3_1,Length=0.032570000,Units=km
new line.1075304 bus1=BBT1151926.1.2.3.0,bus2=BBT5869625.1.2.3.0,Phases=3,Linecode=BT810_BT810_4_3_4,Length=0.041016000,Units=km
new line.1075311 bus1=BBT1151926.1.2.3.0,bus2=BBT1151933.1.2.3.0,Phases=3,Linecode=BT106_BT106_7_3_1,Length=0.036893000,Units=km
new line.1075409 bus1=BBT1152031.1.2.3.0,bus2=BBT1152024.1.2.3.0,Phases=3,Linecode=BT803_BT803_4_3_4,Length=0.033255000,Units=km
new line.1075416 bus1=BBT1152038.1.2.3.0,bus2=BBT1152031.1.2.3.0,Phases=3,Linecode=BT803_BT803_4_3_4,Length=0.034248000,Units=km
new line.1075423 bus1=BBT1152045.1.2.3.0,bus2=BBT1152038.1.2.3.0,Phases=3,Linecode=BT803_BT803_4_3_4,Length=0.030161000,Units=km
new line.1075430 bus1=BBT1152052.1.2.3.0,bus2=BBT1152045.1.2.3.0,Phases=3,Linecode=BT803_BT803_4_3_4,Length=0.032262000,Units=km
new line.1075437 bus1=BBT1152059.1.2.3.0,bus2=BBT1152052.1.2.3.0,Phases=3,Linecode=BT803_BT803_4_3_4,Length=0.032570000,Units=km
new line.1075444 bus1=BBT1152059.1.2.3.0,bus2=BBT1152066.1.2.3.0,Phases=3,Linecode=BT803_BT803_4_3_4,Length=0.025328000,Units=km
new line.1075451 bus1=BBT1152297.1.2.3.0,bus2=BBT1152311.1.2.3.0,Phases=3,Linecode=BT107_BT106_7_3_1,Length=0.035185000,Units=km
new line.1075458 bus1=BBT1152066.1.2.3.0,bus2=BBT1152080.1.2.3.0,Phases=3,Linecode=BT803_BT803_4_3_4,Length=0.024093000,Units=km
new line.1075465 bus1=BBT1152080.1.2.3.0,bus2=BBT1152073.1.2.3.0,Phases=3,Linecode=BT803_BT803_4_3_4,Length=0.032028000,Units=km
new line.1075472 bus1=BBT1152080.1.2.3.0,bus2=BBT1152087.1.2.3.0,Phases=3,Linecode=BT803_BT803_4_3_4,Length=0.031793000,Units=km
new line.1075479 bus1=BBT1152017.1.2.3.0,bus2=BBT1152059.1.2.3.0,Phases=3,Linecode=BT509_BT509_7_3_1,Length=0.000501000,Units=km
new line.1075486 bus1=BBT1152087.1.2.3.0,bus2=BBT1152094.1.2.3.0,Phases=3,Linecode=BT803_BT803_4_3_4,Length=0.038848000,Units=km
new line.1075500 bus1=BBT1152094.1.2.3.0,bus2=BBT1152101.1.2.3.0,Phases=3,Linecode=BT108_BT107_7_3_1,Length=0.029626000,Units=km
new line.1075507 bus1=BBT1152094.1.2.3.0,bus2=BBT1152108.1.2.3.0,Phases=3,Linecode=BT803_BT803_4_3_4,Length=0.029439000,Units=km
new line.1075514 bus1=BBT1152115.1.2.3.0,bus2=BBT27894985.1.2.3.0,Phases=3,Linecode=BT803_BT803_4_3_4,Length=0.029626000,Units=km
new line.1075521 bus1=BBT1152122.1.2.3.0,bus2=BBT1152115.1.2.3.0,Phases=3,Linecode=BT803_BT803_4_3_4,Length=0.026936000,Units=km
new line.1075528 bus1=BBT1152122.1.2.3.0,bus2=BBT1152129.1.2.3.0,Phases=3,Linecode=BT803_BT803_4_3_4,Length=0.029626000,Units=km
new line.1075535 bus1=BBT1152129.1.2.3.0,bus2=BBT1152136.1.2.3.0,Phases=3,Linecode=BT810_BT810_4_3_4,Length=0.030606000,Units=km
new line.1075542 bus1=BBT1152136.1.2.3.0,bus2=BBT2245942.1.2.3.0,Phases=3,Linecode=BT810_BT810_4_3_4,Length=0.034727000,Units=km
new line.1075577 bus1=BBT1152171.1.2.3.0,bus2=BBT5848877.1.2.3.0,Phases=3,Linecode=BT810_BT810_4_3_4,Length=0.059057000,Units=km
new line.1075584 bus1=BBT1152178.1.2.3.0,bus2=BBT1152171.1.2.3.0,Phases=3,Linecode=BT107_BT107_7_3_1,Length=0.034539000,Units=km
new line.1075591 bus1=BBT1152185.1.2.3.0,bus2=BBT1152178.1.2.3.0,Phases=3,Linecode=BT107_BT107_7_3_1,Length=0.032570000,Units=km
new line.1075598 bus1=BBT1152192.1.2.3.0,bus2=BBT1152164.1.2.3.0,Phases=3,Linecode=BT107_BT107_7_3_1,Length=0.037122000,Units=km
new line.1075605 bus1=BBT1152192.1.2.3.0,bus2=BBT1152185.1.2.3.0,Phases=3,Linecode=BT107_BT107_7_3_1,Length=0.034248000,Units=km
new line.1075612 bus1=BBT1152192.1.2.3.0,bus2=BBT1152199.1.2.3.0,Phases=3,Linecode=BT107_BT107_7_3_1,Length=0.015563000,Units=km
new line.1075619 bus1=BBT1152199.1.2.3.0,bus2=BBT1152206.1.2.3.0,Phases=3,Linecode=BT107_BT107_7_3_1,Length=0.034248000,Units=km
new line.1075626 bus1=BBT1152213.1.2.3.0,bus2=BBT1152192.1.2.3.0,Phases=3,Linecode=BT107_BT106_7_3_1,Length=0.028647000,Units=km
new line.1075640 bus1=BBT1152220.1.2.3.0,bus2=BBT5848870.1.2.3.0,Phases=3,Linecode=BT803_BT803_4_3_4,Length=0.025720000,Units=km
new line.1075647 bus1=BBT1152227.1.2.3.0,bus2=BBT1152220.1.2.3.0,Phases=3,Linecode=BT803_BT803_4_3_4,Length=0.036893000,Units=km
new line.1075654 bus1=BBT1152234.1.2.3.0,bus2=BBT1152213.1.2.3.0,Phases=3,Linecode=BT107_BT106_7_3_1,Length=0.029626000,Units=km
new line.1075661 bus1=BBT1152241.1.2.3.0,bus2=BBT1152227.1.2.3.0,Phases=3,Linecode=BT803_BT803_4_3_4,Length=0.033969000,Units=km
new line.1075668 bus1=BBT1152248.1.2.3.0,bus2=BBT1152234.1.2.3.0,Phases=3,Linecode=BT107_BT106_7_3_1,Length=0.011710000,Units=km
new line.1075675 bus1=BBT1152248.1.2.3.0,bus2=BBT1152255.1.2.3.0,Phases=3,Linecode=BT803_BT803_4_3_4,Length=0.014324000,Units=km
new line.1075682 bus1=BBT1152248.1.2.3.0,bus2=BBT1152276.1.2.3.0,Phases=3,Linecode=BT107_BT106_7_3_1,Length=0.019424000,Units=km
new line.1075689 bus1=BBT1152255.1.2.3.0,bus2=BBT1152241.1.2.3.0,Phases=3,Linecode=BT803_BT803_4_3_4,Length=0.034727000,Units=km
new line.1075696 bus1=BBT1152262.1.2.3.0,bus2=BBT1152248.1.2.3.0,Phases=3,Linecode=BT803_BT803_4_3_4,Length=0.021849000,Units=km
new line.1075703 bus1=BBT1152269.1.2.3.0,bus2=BBT1152262.1.2.3.0,Phases=3,Linecode=BT803_BT803_4_3_4,Length=0.031793000,Units=km
new line.1075710 bus1=BBT1152157.1.2.3.0,bus2=BBT1152269.1.2.3.0,Phases=3,Linecode=BT509_BT509_7_3_1,Length=0.000501000,Units=km
new line.1075717 bus1=BBT1152269.1.2.3.0,bus2=BBT1152283.1.2.3.0,Phases=3,Linecode=BT803_BT803_4_3_4,Length=0.032998000,Units=km
new line.1075724 bus1=BBT1152276.1.2.3.0,bus2=BBT1152304.1.2.3.0,Phases=3,Linecode=BT107_BT106_7_3_1,Length=0.029626000,Units=km
new line.1075731 bus1=BBT1152283.1.2.3.0,bus2=BBT1152290.1.2.3.0,Phases=3,Linecode=BT108_BT107_7_3_1,Length=0.032998000,Units=km
new line.1075738 bus1=BBT1152290.1.2.3.0,bus2=BBT1152297.1.2.3.0,Phases=3,Linecode=BT108_BT107_7_3_1,Length=0.031588000,Units=km
new line.1075745 bus1=BBT1152304.1.2.3.0,bus2=BBT1152318.1.2.3.0,Phases=3,Linecode=BT107_BT106_7_3_1,Length=0.024525000,Units=km
new line.1075752 bus1=BBT1152311.1.2.3.0,bus2=BBT1152339.1.2.3.0,Phases=3,Linecode=BT107_BT106_7_3_1,Length=0.033747000,Units=km
new line.1075759 bus1=BBT1152325.1.2.3.0,bus2=BBT2811241.1.2.3.0,Phases=3,Linecode=BT803_BT803_4_3_4,Length=0.026087000,Units=km
new line.1075766 bus1=BBT1152332.1.2.3.0,bus2=BBT1152325.1.2.3.0,Phases=3,Linecode=BT803_BT803_4_3_4,Length=0.034495000,Units=km
new line.1075773 bus1=BBT1152339.1.2.3.0,bus2=BBT1152360.1.2.3.0,Phases=3,Linecode=BT107_BT106_7_3_1,Length=0.039639000,Units=km
new line.1075780 bus1=BBT1152346.1.2.3.0,bus2=BBT1152332.1.2.3.0,Phases=3,Linecode=BT803_BT803_4_3_4,Length=0.029558000,Units=km
new line.1075787 bus1=BBT1152346.1.2.3.0,bus2=BBT1152353.1.2.3.0,Phases=3,Linecode=BT803_BT803_4_3_4,Length=0.033119000,Units=km
new line.1075794 bus1=BBT1152353.1.2.3.0,bus2=BBT140035389.1.2.3.0,Phases=3,Linecode=BT803_BT803_4_3_4,Length=0.032324000,Units=km
new line.1075801 bus1=BBT1152360.1.2.3.0,bus2=BBT2245935.1.2.3.0,Phases=3,Linecode=BT810_BT810_4_3_4,Length=0.029439000,Units=km
new line.1075808 bus1=BBT2245935.1.2.3.0,bus2=BBT5869632.1.2.3.0,Phases=3,Linecode=BT810_BT810_4_3_4,Length=0.039334000,Units=km
new line.1075864 bus1=BBT1152395.1.3.0,bus2=BBT1152388.1.3.0,Phases=2,Linecode=BT106_BT106_7_2_1,Length=0.043583000,Units=km
new line.1075871 bus1=BBT1152395.2.3.0,bus2=BBT1152430.2.3.0,Phases=2,Linecode=BT106_BT106_7_2_1,Length=0.033554000,Units=km
new line.1075878 bus1=BBT1152402.1.2.3.0,bus2=BBT1152395.1.2.3.0,Phases=3,Linecode=BT106_BT106_7_3_1,Length=0.033747000,Units=km
new line.1075892 bus1=BBT1152409.1.2.3.0,bus2=BBT1152402.1.2.3.0,Phases=3,Linecode=BT108_BT107_7_3_1,Length=0.033390000,Units=km
new line.1075899 bus1=BBT1152409.1.2.3.0,bus2=BBT1152444.1.2.3.0,Phases=3,Linecode=BT106_BT106_7_3_1,Length=0.032293000,Units=km
new line.1075906 bus1=BBT1152416.1.2.3.0,bus2=BBT1152409.1.2.3.0,Phases=3,Linecode=BT108_BT107_7_3_1,Length=0.036153000,Units=km
new line.1075913 bus1=BBT1152381.1.2.3.0,bus2=BBT1152416.1.2.3.0,Phases=3,Linecode=BT508_BT508_7_3_1,Length=0.000501000,Units=km
new line.1075920 bus1=BBT1152416.1.2.3.0,bus2=BBT1152423.1.2.3.0,Phases=3,Linecode=BT108_BT107_7_3_1,Length=0.034942000,Units=km
new line.1075934 bus1=BBT1152423.1.2.3.0,bus2=BBT1152437.1.2.3.0,Phases=3,Linecode=BT108_BT107_7_3_1,Length=0.042466000,Units=km
new line.1075941 bus1=BBT1152423.1.2.3.0,bus2=BBT1152458.1.2.3.0,Phases=3,Linecode=BT106_BT106_7_3_1,Length=0.031061000,Units=km
new line.1075948 bus1=BBT1152430.2.3.0,bus2=BBT1152451.2.3.0,Phases=2,Linecode=BT106_BT106_7_2_1,Length=0.024748000,Units=km
new line.1075955 bus1=BBT1152444.1.2.0,bus2=BBT1152465.1.2.0,Phases=2,Linecode=BT106_BT106_7_2_1,Length=0.027470000,Units=km
new line.1075962 bus1=BBT1152458.1.2.3.0,bus2=BBT1152472.1.2.3.0,Phases=3,Linecode=BT106_BT106_7_3_1,Length=0.027670000,Units=km
new line.1076074 bus1=BBT1152584.1.2.0,bus2=BBT1152577.1.2.0,Phases=2,Linecode=BT106_BT106_7_2_1,Length=0.033969000,Units=km
new line.1076081 bus1=BBT1152591.1.2.0,bus2=BBT1152584.1.2.0,Phases=2,Linecode=BT106_BT106_7_2_1,Length=0.032028000,Units=km
new line.1076088 bus1=BBT1152605.1.2.0,bus2=BBT1152598.1.2.0,Phases=2,Linecode=BT108_BT107_7_2_1,Length=0.025010000,Units=km
new line.1076095 bus1=BBT1152612.1.2.0,bus2=BBT1152605.1.2.0,Phases=2,Linecode=BT108_BT107_7_2_1,Length=0.036893000,Units=km
new line.1076102 bus1=BBT1152619.1.2.0,bus2=BBT1152591.1.2.0,Phases=2,Linecode=BT106_BT106_7_2_1,Length=0.032998000,Units=km
new line.1076109 bus1=BBT1152619.1.2.0,bus2=BBT1152612.1.2.0,Phases=2,Linecode=BT108_BT107_7_2_1,Length=0.041247000,Units=km
new line.1076116 bus1=BBT1152626.1.2.0,bus2=BBT1152619.1.2.0,Phases=2,Linecode=BT108_BT108_7_2_1,Length=0.037014000,Units=km
new line.1076123 bus1=BBT1152570.1.2.0,bus2=BBT1152626.1.2.0,Phases=2,Linecode=BT508_BT508_7_2_1,Length=0.000501000,Units=km
new line.1076130 bus1=BBT1152626.1.2.0,bus2=BBT1152633.1.2.0,Phases=2,Linecode=BT108_BT108_7_2_1,Length=0.036153000,Units=km
new line.1076137 bus1=BBT1152633.1.2.0,bus2=BBT1152640.1.2.0,Phases=2,Linecode=BT108_BT108_7_2_1,Length=0.036689000,Units=km
new line.1076144 bus1=BBT1152640.1.2.0,bus2=BBT1152647.1.2.0,Phases=2,Linecode=BT107_BT106_7_2_1,Length=0.032998000,Units=km
new line.1076151 bus1=BBT1152647.1.2.0,bus2=BBT1152654.1.2.0,Phases=2,Linecode=BT107_BT106_7_2_1,Length=0.033747000,Units=km
new line.1076158 bus1=BBT1152654.1.2.0,bus2=BBT1152661.1.2.0,Phases=2,Linecode=BT107_BT106_7_2_1,Length=0.031793000,Units=km
new line.1077103 bus1=BBT1153606.1.2.3.0,bus2=BBT1153599.1.2.3.0,Phases=3,Linecode=BT107_BT106_7_3_1,Length=0.028472000,Units=km
new line.1077110 bus1=BBT1153613.1.2.3.0,bus2=BBT3670848.1.2.3.0,Phases=3,Linecode=BT810_BT810_4_3_4,Length=0.045195000,Units=km
new line.1077117 bus1=BBT1153627.1.2.3.0,bus2=BBT1153606.1.2.3.0,Phases=3,Linecode=BT107_BT106_7_3_1,Length=0.029132000,Units=km
new line.1077124 bus1=BBT1153634.1.2.3.0,bus2=BBT1153613.1.2.3.0,Phases=3,Linecode=BT107_BT106_7_3_1,Length=0.043028000,Units=km
new line.1077131 bus1=BBT1153648.1.2.3.0,bus2=BBT1153620.1.2.3.0,Phases=3,Linecode=BT108_BT107_7_3_1,Length=0.034942000,Units=km
new line.1077138 bus1=BBT1153648.1.2.3.0,bus2=BBT1153641.1.2.3.0,Phases=3,Linecode=BT107_BT106_7_3_1,Length=0.035707000,Units=km
new line.1077145 bus1=BBT1153648.1.2.3.0,bus2=BBT1153662.1.2.3.0,Phases=3,Linecode=BT107_BT106_7_3_1,Length=0.028804000,Units=km
new line.1077152 bus1=BBT1153655.1.2.3.0,bus2=BBT1153627.1.2.3.0,Phases=3,Linecode=BT107_BT106_7_3_1,Length=0.034495000,Units=km
new line.1077159 bus1=BBT1153662.1.2.3.0,bus2=BBT1153669.1.2.3.0,Phases=3,Linecode=BT107_BT106_7_3_1,Length=0.031061000,Units=km
new line.1077166 bus1=BBT1153669.1.2.3.0,bus2=BBT1153676.1.2.3.0,Phases=3,Linecode=BT107_BT106_7_3_1,Length=0.030095000,Units=km
new line.1077173 bus1=BBT1153676.1.2.3.0,bus2=BBT1153634.1.2.3.0,Phases=3,Linecode=BT107_BT106_7_3_1,Length=0.037068000,Units=km
new line.1077180 bus1=BBT1153676.1.2.3.0,bus2=BBT1153704.1.2.3.0,Phases=3,Linecode=BT107_BT106_7_3_1,Length=0.035142000,Units=km
new line.1077187 bus1=BBT1153676.1.2.3.0,bus2=BBT3006611.1.2.3.0,Phases=3,Linecode=BT810_BT810_4_3_4,Length=0.032998000,Units=km
new line.1077194 bus1=BBT1153683.1.2.3.0,bus2=BBT1153648.1.2.3.0,Phases=3,Linecode=BT108_BT107_7_3_1,Length=0.033255000,Units=km
new line.1077201 bus1=BBT1153690.1.2.3.0,bus2=BBT1153655.1.2.3.0,Phases=3,Linecode=BT107_BT106_7_3_1,Length=0.031333000,Units=km
new line.1077208 bus1=BBT1153697.1.2.3.0,bus2=BBT1153683.1.2.3.0,Phases=3,Linecode=BT108_BT107_7_3_1,Length=0.025972000,Units=km
new line.1077215 bus1=BBT1153592.1.2.3.0,bus2=BBT1153697.1.2.3.0,Phases=3,Linecode=BT509_BT509_7_3_1,Length=0.000501000,Units=km
new line.1077222 bus1=BBT1153697.1.2.3.0,bus2=BBT1153718.1.2.3.0,Phases=3,Linecode=BT108_BT107_7_3_1,Length=0.026694000,Units=km
new line.1077229 bus1=BBT1153711.1.2.3.0,bus2=BBT1153690.1.2.3.0,Phases=3,Linecode=BT107_BT106_7_3_1,Length=0.034799000,Units=km
new line.1077236 bus1=BBT1153718.1.2.3.0,bus2=BBT1153739.1.2.3.0,Phases=3,Linecode=BT108_BT107_7_3_1,Length=0.028171000,Units=km
new line.1077250 bus1=BBT1153725.1.2.3.0,bus2=BBT1153711.1.2.3.0,Phases=3,Linecode=BT107_BT106_7_3_1,Length=0.032998000,Units=km
new line.1077257 bus1=BBT1153732.1.2.3.0,bus2=BBT1153725.1.2.3.0,Phases=3,Linecode=BT107_BT106_7_3_1,Length=0.024525000,Units=km
new line.1077264 bus1=BBT1153739.1.2.3.0,bus2=BBT1153732.1.2.3.0,Phases=3,Linecode=BT107_BT106_7_3_1,Length=0.023547000,Units=km
new line.1077271 bus1=BBT1153739.1.2.3.0,bus2=BBT1153746.1.2.3.0,Phases=3,Linecode=BT107_BT106_7_3_1,Length=0.036360000,Units=km
new line.1077285 bus1=BBT1153746.1.2.3.0,bus2=BBT1153753.1.2.3.0,Phases=3,Linecode=BT107_BT106_7_3_1,Length=0.041609000,Units=km
new line.1078496 bus1=BBT1154943.1.2.3.0,bus2=BBT1154936.1.2.3.0,Phases=3,Linecode=BT106_BT106_7_3_1,Length=0.025720000,Units=km
new line.1078503 bus1=BBT1154943.1.2.3.0,bus2=BBT1154957.1.2.3.0,Phases=3,Linecode=BT106_BT106_7_3_1,Length=0.037870000,Units=km
new line.1078510 bus1=BBT1154957.1.2.3.0,bus2=BBT1154985.1.2.3.0,Phases=3,Linecode=BT106_BT106_7_3_1,Length=0.031061000,Units=km
new line.1078517 bus1=BBT1154964.2.3.0,bus2=BBT1154950.2.3.0,Phases=2,Linecode=BT106_BT106_7_2_1,Length=0.021596000,Units=km
new line.1078524 bus1=BBT1154971.1.2.3.0,bus2=BBT1154943.1.2.3.0,Phases=3,Linecode=BT107_BT106_7_3_1,Length=0.015303000,Units=km
new line.1078531 bus1=BBT1154971.1.2.3.0,bus2=BBT1154964.1.2.3.0,Phases=3,Linecode=BT107_BT106_7_3_1,Length=0.020257000,Units=km
new line.1078538 bus1=BBT1154971.1.2.3.0,bus2=BBT1155006.1.2.3.0,Phases=3,Linecode=BT107_BT106_7_3_1,Length=0.013934000,Units=km
new line.1078545 bus1=BBT1154978.1.2.3.0,bus2=BBT1154971.1.2.3.0,Phases=3,Linecode=BT107_BT106_7_3_1,Length=0.007074000,Units=km
new line.1078552 bus1=BBT1154985.1.2.3.0,bus2=BBT1154992.1.2.3.0,Phases=3,Linecode=BT106_BT107_7_3_1,Length=0.032998000,Units=km
new line.1078559 bus1=BBT1154992.1.2.3.0,bus2=BBT1155013.1.2.3.0,Phases=3,Linecode=BT106_BT107_7_3_1,Length=0.031061000,Units=km
new line.1078566 bus1=BBT1154999.1.2.3.0,bus2=BBT1154978.1.2.3.0,Phases=3,Linecode=BT108_BT107_7_3_1,Length=0.035454000,Units=km
new line.1078573 bus1=BBT1154929.1.2.3.0,bus2=BBT1154999.1.2.3.0,Phases=3,Linecode=BT508_BT508_7_3_1,Length=0.000501000,Units=km
new line.1078580 bus1=BBT1154999.1.2.3.0,bus2=BBT1155020.1.2.3.0,Phases=3,Linecode=BT108_BT107_7_3_1,Length=0.037378000,Units=km
new line.1078587 bus1=BBT1155006.1.2.3.0,bus2=BBT1155041.1.2.3.0,Phases=3,Linecode=BT106_BT106_7_3_1,Length=0.032028000,Units=km
new line.1078594 bus1=BBT1155020.1.2.3.0,bus2=BBT1155027.1.2.3.0,Phases=3,Linecode=BT108_BT107_7_3_1,Length=0.033539000,Units=km
new line.1078601 bus1=BBT1155027.1.2.3.0,bus2=BBT1155034.1.2.3.0,Phases=3,Linecode=BT108_BT107_7_3_1,Length=0.020889000,Units=km
new line.1078608 bus1=BBT1155027.1.2.3.0,bus2=BBT1155048.1.2.3.0,Phases=3,Linecode=BT106_BT106_7_3_1,Length=0.039066000,Units=km
new line.1078615 bus1=BBT1155041.1.2.3.0,bus2=BBT1155055.1.2.3.0,Phases=3,Linecode=BT106_BT106_7_3_1,Length=0.033255000,Units=km
new line.1078622 bus1=BBT1155048.1.2.3.0,bus2=BBT1155083.1.2.3.0,Phases=3,Linecode=BT106_BT106_7_3_1,Length=0.034942000,Units=km
new line.1078629 bus1=BBT1155055.1.2.3.0,bus2=BBT1155062.1.2.3.0,Phases=3,Linecode=BT106_BT106_7_3_1,Length=0.029626000,Units=km
new line.1078636 bus1=BBT1155062.1.2.3.0,bus2=BBT2819375.1.2.3.0,Phases=3,Linecode=BT106_BT106_7_3_1,Length=0.032028000,Units=km
new line.1078643 bus1=BBT1155076.1.2.3.0,bus2=BBT1155069.1.2.3.0,Phases=3,Linecode=BT106_BT106_7_3_1,Length=0.030818000,Units=km
new line.1078650 bus1=BBT1155083.1.2.3.0,bus2=BBT1155076.1.2.3.0,Phases=3,Linecode=BT106_BT106_7_3_1,Length=0.024748000,Units=km
new line.1078657 bus1=BBT1155083.1.2.3.0,bus2=BBT1155090.1.2.3.0,Phases=3,Linecode=BT106_BT106_7_3_1,Length=0.041609000,Units=km
new line.1078664 bus1=BBT1155090.1.2.3.0,bus2=BBT1155097.1.2.3.0,Phases=3,Linecode=BT106_BT106_7_3_1,Length=0.034379000,Units=km
new line.1078671 bus1=BBT1155097.1.2.3.0,bus2=BBT1155104.1.2.3.0,Phases=3,Linecode=BT106_BT106_7_3_1,Length=0.037351000,Units=km
new line.1078678 bus1=BBT1155104.1.2.3.0,bus2=BBT1155111.1.2.3.0,Phases=3,Linecode=BT106_BT106_7_3_1,Length=0.035242000,Units=km
new line.1078685 bus1=BBT1155139.2.3.0,bus2=BBT1151870.2.3.0,Phases=2,Linecode=BT106_BT106_7_2_1,Length=0.034942000,Units=km
new line.1078692 bus1=BBT1155146.1.2.3.0,bus2=BBT1155132.1.2.3.0,Phases=3,Linecode=BT106_BT106_7_3_1,Length=0.005101000,Units=km
new line.1078699 bus1=BBT1155146.1.2.3.0,bus2=BBT1155153.1.2.3.0,Phases=3,Linecode=BT106_BT106_7_3_1,Length=0.005834000,Units=km
new line.1078706 bus1=BBT1155146.1.2.3.0,bus2=BBT1155139.1.2.3.0,Phases=3,Linecode=BT106_BT106_7_3_1,Length=0.023204000,Units=km
new line.1078713 bus1=BBT1155160.1.2.3.0,bus2=BBT1155146.1.2.3.0,Phases=3,Linecode=BT106_BT106_7_3_1,Length=0.028647000,Units=km
new line.1078720 bus1=BBT1155174.1.2.3.0,bus2=BBT1155160.1.2.3.0,Phases=3,Linecode=BT108_BT107_7_3_1,Length=0.029626000,Units=km
new line.1078727 bus1=BBT1155118.1.2.3.0,bus2=BBT1155174.1.2.3.0,Phases=3,Linecode=BT509_BT509_7_3_1,Length=0.000501000,Units=km
new line.1078734 bus1=BBT1155174.1.2.3.0,bus2=BBT1155188.1.2.3.0,Phases=3,Linecode=BT108_BT107_7_3_1,Length=0.032262000,Units=km
new line.1078741 bus1=BBT1155188.1.2.3.0,bus2=BBT1155181.1.2.3.0,Phases=3,Linecode=BT106_BT106_7_3_1,Length=0.032998000,Units=km
new line.1078748 bus1=BBT1155188.1.2.3.0,bus2=BBT1155195.1.2.3.0,Phases=3,Linecode=BT106_BT106_7_3_1,Length=0.037870000,Units=km
new line.1078762 bus1=BBT1155195.1.2.3.0,bus2=BBT1155202.1.2.3.0,Phases=3,Linecode=BT106_BT106_7_3_1,Length=0.032998000,Units=km
new line.1078769 bus1=BBT1155202.1.2.3.0,bus2=BBT1155209.1.2.3.0,Phases=3,Linecode=BT106_BT106_7_3_1,Length=0.028647000,Units=km
new line.1078776 bus1=BBT1169986.1.2.3.0,bus2=BBT1169979.1.2.3.0,Phases=3,Linecode=BT108_BT107_7_3_1,Length=0.030376000,Units=km
new line.1092608 bus1=BBT1169160.1.2.3.0,bus2=BBT1169153.1.2.3.0,Phases=3,Linecode=BT108_BT108_7_3_1,Length=0.031616000,Units=km
new line.1092615 bus1=BBT1169167.1.2.3.0,bus2=BBT1169160.1.2.3.0,Phases=3,Linecode=BT108_BT108_7_3_1,Length=0.029439000,Units=km
new line.1092622 bus1=BBT1169146.1.2.3.0,bus2=BBT1169167.1.2.3.0,Phases=3,Linecode=BT508_BT508_7_3_1,Length=0.000501000,Units=km
new line.1092629 bus1=BBT1169167.1.2.3.0,bus2=BBT1169174.1.2.3.0,Phases=3,Linecode=BT108_BT108_7_3_1,Length=0.037498000,Units=km
new line.1092636 bus1=BBT1169174.1.2.3.0,bus2=BBT1169181.1.2.3.0,Phases=3,Linecode=BT108_BT108_7_3_1,Length=0.029286000,Units=km
new line.1092643 bus1=BBT1169181.1.2.3.0,bus2=BBT1169188.1.2.3.0,Phases=3,Linecode=BT107_BT106_7_3_1,Length=0.035524000,Units=km
new line.1092650 bus1=BBT1169188.1.2.3.0,bus2=BBT1169195.1.2.3.0,Phases=3,Linecode=BT107_BT106_7_3_1,Length=0.031793000,Units=km
new line.1092790 bus1=BBT1169349.1.2.3.0,bus2=BBT1169342.1.2.3.0,Phases=3,Linecode=BT106_BT106_7_3_1,Length=0.036153000,Units=km
new line.1092804 bus1=BBT1169356.1.2.3.0,bus2=BBT1169363.1.2.3.0,Phases=3,Linecode=BT106_BT106_7_3_1,Length=0.024748000,Units=km
new line.1092811 bus1=BBT1169356.1.2.3.0,bus2=BBT1169349.1.2.3.0,Phases=3,Linecode=BT106_BT106_7_3_1,Length=0.019655000,Units=km
new line.1092818 bus1=BBT1169370.1.2.3.0,bus2=BBT1169356.1.2.3.0,Phases=3,Linecode=BT108_BT107_7_3_1,Length=0.032769000,Units=km
new line.1092825 bus1=BBT1169377.1.2.3.0,bus2=BBT1169370.1.2.3.0,Phases=3,Linecode=BT108_BT107_7_3_1,Length=0.030095000,Units=km