new line.CTR110473 bus1=BMT150564391.1.2.3,bus2=BMT150564392.1.2.3,Phases=3,LineCode=tieSwitch,Length=0.001,Units=km,switch=T !numEQ 91130
new line.CTR110480 bus1=BMT150564381.1.2.3,bus2=BMT150564603.1.2.3,Phases=3,LineCode=tieSwitch,Length=0.001,Units=km,switch=T !numEQ 91131
new line.CTR110494 bus1=BMT150564208.1.2.3,bus2=BMT161172087.1.2.3,Phases=3,LineCode=tieSwitch,Length=0.001,Units=km,switch=T !numEQ 91133
new line.CTR110501 bus1=BMT150564234.1.2.3,bus2=BMT174512304.1.2.3,Phases=3,LineCode=tieSwitch,Length=0.001,Units=km,switch=T !numEQ 91134
new line.CTR110508 bus1=BMT170322024.2,bus2=BMT170322027.2,Phases=1,LineCode=tieSwitch1,Length=0.001,Units=km,switch=T !numEQ 91135
new line.CTR121470 bus1=BMT176702487.1.2.3,bus2=BMT176702361.1.2.3,Phases=3,LineCode=tieSwitch,Length=0.001,Units=km,switch=T !numEQ 87363
open line.CTR121470 term=1
new line.CTR130017 bus1=BMT120605874.1.2.3,bus2=BMT149992486.1.2.3,Phases=3,LineCode=tieSwitch,Length=0.001,Units=km,switch=T !numEQ 203045
new line.CTR131263 bus1=BMT170321554.1.2.3,bus2=BMT170321561.1.2.3,Phases=3,LineCode=tieSwitch,Length=0.001,Units=km,switch=T !numEQ 123102
new line.CTR147853 bus1=BMT176724755.1.2.3,bus2=BMT176702766.1.2.3,Phases=3,LineCode=tieSwitch,Length=0.001,Units=km,switch=T !numEQ 52974
new line.CTR148056 bus1=BMT150564775.2,bus2=BMT165305321.2,Phases=1,LineCode=tieSwitch1,Length=0.001,Units=km,switch=T !numEQ 53043
new line.CTR148068 bus1=BMT176712780.1,bus2=BMT176713200.1,Phases=1,LineCode=tieSwitch1,Length=0.001,Units=km,switch=T !numEQ 67766
open line.CTR148068 term=1
new line.CTR148112 bus1=BMT150564281.3,bus2=BMT150564283.3,Phases=1,LineCode=tieSwitch1,Length=0.001,Units=km,switch=T !numEQ 53054
new line.CTR148140 bus1=BMT150564776.2,bus2=BMT150564793.2,Phases=1,LineCode=tieSwitch1,Length=0.001,Units=km,switch=T !numEQ 53058
new line.CTR148385 bus1=BMT170322786.1,bus2=BMT170322940.1,Phases=1,LineCode=tieSwitch1,Length=0.001,Units=km,switch=T !numEQ 53111
new line.CTR155364 bus1=BMT150564251.1.2.3,bus2=BMT150564252.1.2.3,Phases=3,LineCode=tieSwitch,Length=0.001,Units=km,switch=T !numEQ 51416
new line.CTR155378 bus1=BMT175917891.1.2.3,bus2=BMT170319357.1.2.3,Phases=3,LineCode=tieSwitch,Length=0.001,Units=km,switch=T !numEQ 51418
open line.CTR155378 term=1
new line.CTR155392 bus1=BMT170319914.1.2.3,bus2=BMT170319915.1.2.3,Phases=3,LineCode=tieSwitch,Length=0.001,Units=km,switch=T !numEQ 51420
new line.CTR155399 bus1=BMT170319911.1.2.3,bus2=BMT170319918.1.2.3,Phases=3,LineCode=tieSwitch,Length=0.001,Units=km,switch=T !numEQ 51422
new line.CTR155406 bus1=BMT170319907.1.2.3,bus2=BMT170319908.1.2.3,Phases=3,LineCode=tieSwitch,Length=0.001,Units=km,switch=T !numEQ 51424
new line.CTR155413 bus1=BMT170319898.1.2.3,bus2=BMT170319904.1.2.3,Phases=3,LineCode=tieSwitch,Length=0.001,Units=km,switch=T !numEQ 51425
new line.CTR155420 bus1=BMT170319891.1.2.3,bus2=BMT170319893.1.2.3,Phases=3,LineCode=tieSwitch,Length=0.001,Units=km,switch=T !numEQ 51426
new line.CTR155427 bus1=BMT170319886.1.2.3,bus2=BMT170319887.1.2.3,Phases=3,LineCode=tieSwitch,Length=0.001,Units=km,switch=T !numEQ 51427
new line.CTR155434 bus1=BMT170319881.1.2.3,bus2=BMT170319882.1.2.3,Phases=3,LineCode=tieSwitch,Length=0.001,Units=km,switch=T !numEQ 51428
new line.CTR155441 bus1=BMT170319871.1.2.3,bus2=BMT170319876.1.2.3,Phases=3,LineCode=tieSwitch,Length=0.001,Units=km,switch=T !numEQ 51429
new line.CTR155497 bus1=BMT120644990.1,bus2=BMT120645963.1,Phases=1,LineCode=tieSwitch1,Length=0.001,Units=km,switch=T !numEQ 51391
new line.CTR155504 bus1=BMT120646236.2,bus2=BMT120646243.2,Phases=1,LineCode=tieSwitch1,Length=0.001,Units=km,switch=T !numEQ 51396
new line.CTR155511 bus1=BMT120646250.2,bus2=BMT166228548.2,Phases=1,LineCode=tieSwitch1,Length=0.001,Units=km,switch=T !numEQ 51397
new line.CTR155518 bus1=BMT170320851.3,bus2=BMT170320864.3,Phases=1,LineCode=tieSwitch1,Length=0.001,Units=km,switch=T !numEQ 51399
new line.CTR155532 bus1=BMT120644871.1.2.3,bus2=BMT166640793.1.2.3,Phases=3,LineCode=tieSwitch,Length=0.001,Units=km,switch=T !numEQ 51390
new line.CTR155574 bus1=BMT150564413.1.2.3,bus2=BMT150564414.1.2.3,Phases=3,LineCode=tieSwitch,Length=0.001,Units=km,switch=T !numEQ 51410
new line.CTR155588 bus1=BMT150564332.1.2.3,bus2=BMT168116755.1.2.3,Phases=3,LineCode=tieSwitch,Length=0.001,Units=km,switch=T !numEQ 51412
new line.CTR155602 bus1=BMT120646222.2,bus2=BMT120647167.2,Phases=1,LineCode=tieSwitch1,Length=0.001,Units=km,switch=T !numEQ 51395
new line.CTR155609 bus1=BMT120646201.2,bus2=BMT160398830.2,Phases=1,LineCode=tieSwitch1,Length=0.001,Units=km,switch=T !numEQ 51392
new line.CTR155616 bus1=BMT120646264.2,bus2=BMT162068444.2,Phases=1,LineCode=tieSwitch1,Length=0.001,Units=km,switch=T !numEQ 51398
new line.CTR155623 bus1=BMT120646208.2,bus2=BMT120647181.2,Phases=1,LineCode=tieSwitch1,Length=0.001,Units=km,switch=T !numEQ 51393
new line.CTR155637 bus1=BMT170322634.2,bus2=BMT170322641.2,Phases=1,LineCode=tieSwitch1,Length=0.001,Units=km,switch=T !numEQ 51440
new line.CTR155651 bus1=BMT170322758.1,bus2=BMT173937776.1,Phases=1,LineCode=tieSwitch1,Length=0.001,Units=km,switch=T !numEQ 51442
new line.CTR155658 bus1=BMT170322761.1,bus2=BMT170323208.1,Phases=1,LineCode=tieSwitch1,Length=0.001,Units=km,switch=T !numEQ 51443
new line.CTR155665 bus1=BMT170322763.1,bus2=BMT170322765.1,Phases=1,LineCode=tieSwitch1,Length=0.001,Units=km,switch=T !numEQ 51444
new line.CTR155672 bus1=BMT170322769.1,bus2=BMT174570101.1,Phases=1,LineCode=tieSwitch1,Length=0.001,Units=km,switch=T !numEQ 216005
new line.CTR155679 bus1=BMT170322772.1,bus2=BMT170322964.1,Phases=1,LineCode=tieSwitch1,Length=0.001,Units=km,switch=T !numEQ 51446
new line.CTR155686 bus1=BMT170322778.1,bus2=BMT174443167.1,Phases=1,LineCode=tieSwitch1,Length=0.001,Units=km,switch=T !numEQ 51447
new line.CTR155700 bus1=BMT170322773.1,bus2=BMT170322775.1,Phases=1,LineCode=tieSwitch1,Length=0.001,Units=km,switch=T !numEQ 51453
new line.CTR156008 bus1=BMT150564564.1,bus2=BMT150564589.1,Phases=1,LineCode=tieSwitch1,Length=0.001,Units=km,switch=T !numEQ 51551
new line.CTR156015 bus1=BMT150564256.1.2.3,bus2=BMT166761990.1.2.3,Phases=3,LineCode=tieSwitch,Length=0.001,Units=km,switch=T !numEQ 51552
new line.CTR156029 bus1=BMT170321046.3,bus2=BMT170321059.3,Phases=1,LineCode=tieSwitch1,Length=0.001,Units=km,switch=T !numEQ 51554
new line.CTR156043 bus1=BMT170321834.3,bus2=BMT170321836.3,Phases=1,LineCode=tieSwitch1,Length=0.001,Units=km,switch=T !numEQ 51574
new line.CTR128540 bus1=BMT176397276.1.2.3,bus2=BMT6558845.1.2.3,Phases=3,LineCode=tieSwitch,Length=0.001,Units=km,switch=T !numEQ 40003
open line.CTR128540 term=1
new line.CTR13691 bus1=BMT170321235.1.2.3,bus2=BMT170321236.1.2.3,Phases=3,LineCode=tieSwitch,Length=0.001,Units=km,switch=T !numEQ 132344
new line.CTR142967 bus1=BMT170322165.2,bus2=BMT170322172.2,Phases=1,LineCode=tieSwitch1,Length=0.001,Units=km,switch=T !numEQ 53866
new line.CTR143240 bus1=BMT150564294.3,bus2=BMT150564296.3,Phases=1,LineCode=tieSwitch1,Length=0.001,Units=km,switch=T !numEQ 53925
new line.CTR143254 bus1=BMT170323087.1,bus2=BMT170323088.1,Phases=1,LineCode=tieSwitch1,Length=0.001,Units=km,switch=T !numEQ 53929
new line.CTR143436 bus1=BMT170319303.1.2.3,bus2=BMT170319418.1.2.3,Phases=3,LineCode=tieSwitch,Length=0.001,Units=km,switch=T !numEQ 53963
new line.CTR143443 bus1=BMT174970600.1.2.3,bus2=BMT170319528.1.2.3,Phases=3,LineCode=tieSwitch,Length=0.001,Units=km,switch=T !numEQ 53964
new line.CTR143513 bus1=BMT150564420.1.2.3,bus2=BMT150564426.1.2.3,Phases=3,LineCode=tieSwitch,Length=0.001,Units=km,switch=T !numEQ 53978
new line.CTR143947 bus1=BMT150564840.2,bus2=BMT150564842.2,Phases=1,LineCode=tieSwitch1,Length=0.001,Units=km,switch=T !numEQ 53793
new line.CTR149862 bus1=BMT170323394.1.2.3,bus2=BMT176726199.1.2.3,Phases=3,LineCode=tieSwitch,Length=0.001,Units=km,switch=T !numEQ 232713
new line.CTR149869 bus1=BMT170323389.1.2.3,bus2=BMT170323390.1.2.3,Phases=3,LineCode=tieSwitch,Length=0.001,Units=km,switch=T !numEQ 52576
new line.CTR149883 bus1=BMT170323380.2,bus2=BMT170323381.2,Phases=1,LineCode=tieSwitch1,Length=0.001,Units=km,switch=T !numEQ 52578
new line.CTR149967 bus1=BMT170322411.1,bus2=BMT170322422.1,Phases=1,LineCode=tieSwitch1,Length=0.001,Units=km,switch=T !numEQ 52588
new line.CTR150058 bus1=BMT170322750.1.2.3,bus2=BMT170322753.1.2.3,Phases=3,LineCode=tieSwitch,Length=0.001,Units=km,switch=T !numEQ 206972
new line.CTR150415 bus1=BMT170321558.1.2.3,bus2=BMT170322689.1.2.3,Phases=3,LineCode=tieSwitch,Length=0.001,Units=km,switch=T !numEQ 191318
new line.CTR150541 bus1=BMT170322394.1,bus2=BMT170322408.1,Phases=1,LineCode=tieSwitch1,Length=0.001,Units=km,switch=T !numEQ 52742
new line.CTR150975 bus1=BMT120635260.1,bus2=BMT147894905.1,Phases=1,LineCode=tieSwitch1,Length=0.001,Units=km,switch=T !numEQ 52522
new line.CTR150982 bus1=BMT170320987.3,bus2=BMT170321165.3,Phases=1,LineCode=tieSwitch1,Length=0.001,Units=km,switch=T !numEQ 52531
new line.CTR150989 bus1=BMT170320996.3,bus2=BMT170321144.3,Phases=1,LineCode=tieSwitch1,Length=0.001,Units=km,switch=T !numEQ 52532
new line.CTR151024 bus1=BMT150564254.1.2.3,bus2=BMT160834489.1.2.3,Phases=3,LineCode=tieSwitch,Length=0.001,Units=km,switch=T !numEQ 52535
new line.CTR151031 bus1=BMT120635204.1.2.3,bus2=BMT120635673.1.2.3,Phases=3,LineCode=tieSwitch,Length=0.001,Units=km,switch=T !numEQ 52536
new line.CTR151052 bus1=BMT170319684.1,bus2=BMT170321370.1,Phases=1,LineCode=tieSwitch1,Length=0.001,Units=km,switch=T !numEQ 52544
new line.CTR151066 bus1=BMT150564963.3,bus2=BMT150565057.3,Phases=1,LineCode=tieSwitch1,Length=0.001,Units=km,switch=T !numEQ 52548
new line.CTR151073 bus1=BMT150564967.2,bus2=BMT150565051.2,Phases=1,LineCode=tieSwitch1,Length=0.001,Units=km,switch=T !numEQ 52550
new line.CTR151087 bus1=BMT170321341.2,bus2=BMT170321350.2,Phases=1,LineCode=tieSwitch1,Length=0.001,Units=km,switch=T !numEQ 52552
new line.CTR151143 bus1=BMT170323232.2,bus2=BMT170323233.2,Phases=1,LineCode=tieSwitch1,Length=0.001,Units=km,switch=T !numEQ 376349
new line.CTR151185 bus1=BMT170323465.1.2.3,bus2=BMT171291725.1.2.3,Phases=3,LineCode=tieSwitch,Length=0.001,Units=km,switch=T !numEQ 52565
new line.CTR151192 bus1=BMT170319725.3,bus2=BMT174570529.3,Phases=1,LineCode=tieSwitch1,Length=0.001,Units=km,switch=T !numEQ 52567
new line.CTR151199 bus1=BMT170319699.1.2.3,bus2=BMT170321234.1.2.3,Phases=3,LineCode=tieSwitch,Length=0.001,Units=km,switch=T !numEQ 52549
new line.CTR151206 bus1=BMT150564225.3,bus2=BMT150565164.3,Phases=1,LineCode=tieSwitch1,Length=0.001,Units=km,switch=T !numEQ 52594
new line.CTR151213 bus1=BMT150565183.1,bus2=BMT150565224.1,Phases=1,LineCode=tieSwitch1,Length=0.001,Units=km,switch=T !numEQ 52597
new line.CTR151262 bus1=BMT120645858.2,bus2=BMT120645886.2,Phases=1,LineCode=tieSwitch1,Length=0.001,Units=km,switch=T !numEQ 52239
new line.CTR151346 bus1=BMT170322383.1.2.3,bus2=BMT170322384.1.2.3,Phases=3,LineCode=tieSwitch,Length=0.001,Units=km,switch=T !numEQ 52271
new line.CTR151353 bus1=BMT170321602.1.2.3,bus2=BMT176133977.1.2.3,Phases=3,LineCode=tieSwitch,Length=0.001,Units=km,switch=T !numEQ 52272
new line.CTR157240 bus1=BMT170322625.2,bus2=BMT170322627.2,Phases=1,LineCode=tieSwitch1,Length=0.001,Units=km,switch=T !numEQ 51206
new line.CTR157254 bus1=BMT150564276.1.2.3,bus2=BMT175350006.1.2.3,Phases=3,LineCode=tieSwitch,Length=0.001,Units=km,switch=T !numEQ 51210
new line.CTR157261 bus1=BMT150564686.2,bus2=BMT175350600.2,Phases=1,LineCode=tieSwitch1,Length=0.001,Units=km,switch=T !numEQ 51211
new line.CTR157268 bus1=BMT150564684.2,bus2=BMT150564922.2,Phases=1,LineCode=tieSwitch1,Length=0.001,Units=km,switch=T !numEQ 51212
new line.CTR157275 bus1=BMT175349181.1.2.3,bus2=BMT175350223.1.2.3,Phases=3,LineCode=tieSwitch,Length=0.001,Units=km,switch=T !numEQ 51213
new line.CTR157282 bus1=BMT150564711.2,bus2=BMT171295897.2,Phases=1,LineCode=tieSwitch1,Length=0.001,Units=km,switch=T !numEQ 51214
new line.CTR157296 bus1=BMT150564325.1,bus2=BMT150564627.1,Phases=1,LineCode=tieSwitch1,Length=0.001,Units=km,switch=T !numEQ 51216
new line.CTR157303 bus1=BMT150564253.1,bus2=BMT150565070.1,Phases=1,LineCode=tieSwitch1,Length=0.001,Units=km,switch=T !numEQ 51218
new line.CTR157310 bus1=BMT150564246.2,bus2=BMT150565076.2,Phases=1,LineCode=tieSwitch1,Length=0.001,Units=km,switch=T !numEQ 51219
new line.CTR157317 bus1=BMT170319274.1.2.3,bus2=BMT170319275.1.2.3,Phases=3,LineCode=tieSwitch,Length=0.001,Units=km,switch=T !numEQ 320734
new line.CTR157324 bus1=BMT170319272.1,bus2=BMT170319666.1,Phases=1,LineCode=tieSwitch1,Length=0.001,Units=km,switch=T !numEQ 320733
new line.CTR157331 bus1=BMT170319649.2,bus2=BMT176712597.2,Phases=1,LineCode=tieSwitch1,Length=0.001,Units=km,switch=T !numEQ 51226
new line.CTR157338 bus1=BMT170319456.1.2.3,bus2=BMT170319611.1.2.3,Phases=3,LineCode=tieSwitch,Length=0.001,Units=km,switch=T !numEQ 51227
new line.CTR100505 bus1=BMT120644822.1,bus2=BMT120647664.1,Phases=1,LineCode=tieSwitch1,Length=0.001,Units=km,switch=T !numEQ 105971
new line.CTR101184 bus1=BMT120644465.1.2.3,bus2=BMT120644493.1.2.3,Phases=3,LineCode=tieSwitch,Length=0.001,Units=km,switch=T !numEQ 104749
new line.CTR141973 bus1=BMT150564982.3,bus2=BMT150564988.3,Phases=1,LineCode=tieSwitch1,Length=0.001,Units=km,switch=T !numEQ 132651
new line.CTR141980 bus1=BMT150564997.3,bus2=BMT150565036.3,Phases=1,LineCode=tieSwitch1,Length=0.001,Units=km,switch=T !numEQ 132652
new line.CTR145907 bus1=BMT170323497.2,bus2=BMT174570200.2,Phases=1,LineCode=tieSwitch1,Length=0.001,Units=km,switch=T !numEQ 53414
new line.CTR145921 bus1=BMT170323554.1.2.3,bus2=BMT2093706.1.2.3,Phases=3,LineCode=tieSwitch,Length=0.001,Units=km,switch=T !numEQ 53417
new line.CTR145949 bus1=BMT170323542.1,bus2=BMT170323730.1,Phases=1,LineCode=tieSwitch1,Length=0.001,Units=km,switch=T !numEQ 53423
new line.CTR145956 bus1=BMT170323546.2,bus2=BMT170323762.2,Phases=1,LineCode=tieSwitch1,Length=0.001,Units=km,switch=T !numEQ 53424
new line.CTR146026 bus1=BMT120646404.2,bus2=BMT162260271.2,Phases=1,LineCode=tieSwitch1,Length=0.001,Units=km,switch=T !numEQ 53436
new line.CTR146054 bus1=BMT150564975.3,bus2=BMT175970392.3,Phases=1,LineCode=tieSwitch1,Length=0.001,Units=km,switch=T !numEQ 53442
new line.CTR146068 bus1=BMT170323639.2,bus2=BMT170323550.2,Phases=1,LineCode=tieSwitch1,Length=0.001,Units=km,switch=T !numEQ 53444
open line.CTR146068 term=1
new line.CTR146075 bus1=BMT170323549.3,bus2=BMT174844377.3,Phases=1,LineCode=tieSwitch1,Length=0.001,Units=km,switch=T !numEQ 53445
new line.CTR146747 bus1=BMT170322245.2,bus2=BMT170322247.2,Phases=1,LineCode=tieSwitch1,Length=0.001,Units=km,switch=T !numEQ 53319
new line.CTR146782 bus1=BMT176098419.1.2.3,bus2=BMT170319322.1.2.3,Phases=3,LineCode=tieSwitch,Length=0.001,Units=km,switch=T !numEQ 53327
open line.CTR146782 term=1
new line.CTR147041 bus1=BMT120646061.3,bus2=BMT120646075.3,Phases=1,LineCode=tieSwitch1,Length=0.001,Units=km,switch=T !numEQ 53380
new line.CTR14706 bus1=BMT170321409.1.2.3,bus2=BMT170324147.1.2.3,Phases=3,LineCode=tieSwitch,Length=0.001,Units=km,switch=T !numEQ 51553
new line.CTR147258 bus1=BMT120646397.2,bus2=BMT149481829.2,Phases=1,LineCode=tieSwitch1,Length=0.001,Units=km,switch=T !numEQ 53151
new line.CTR147265 bus1=BMT120646383.2,bus2=BMT120646488.2,Phases=1,LineCode=tieSwitch1,Length=0.001,Units=km,switch=T !numEQ 53152
new line.CTR147412 bus1=BMT170322967.1,bus2=BMT170322976.1,Phases=1,LineCode=tieSwitch1,Length=0.001,Units=km,switch=T !numEQ 240822
new line.CTR147433 bus1=BMT150564833.2,bus2=BMT150564835.2,Phases=1,LineCode=tieSwitch1,Length=0.001,Units=km,switch=T !numEQ 53188
new line.CTR147629 bus1=BMT122478752.2,bus2=BMT122478843.2,Phases=1,LineCode=tieSwitch1,Length=0.001,Units=km,switch=T !numEQ 53222
new line.CTR153439 bus1=BMT170322787.1,bus2=BMT175243041.1,Phases=1,LineCode=tieSwitch1,Length=0.001,Units=km,switch=T !numEQ 51875
new line.CTR153446 bus1=BMT170322790.1,bus2=BMT170322809.1,Phases=1,LineCode=tieSwitch1,Length=0.001,Units=km,switch=T !numEQ 51876
new line.CTR153453 bus1=BMT170322791.1,bus2=BMT170322792.1,Phases=1,LineCode=tieSwitch1,Length=0.001,Units=km,switch=T !numEQ 51877
new line.CTR153460 bus1=BMT170322795.1,bus2=BMT170322796.1,Phases=1,LineCode=tieSwitch1,Length=0.001,Units=km,switch=T !numEQ 51878
new line.CTR153516 bus1=BMT170321155.3,bus2=BMT170321157.3,Phases=1,LineCode=tieSwitch1,Length=0.001,Units=km,switch=T !numEQ 51888
new line.CTR153670 bus1=BMT170322325.2,bus2=BMT170322329.2,Phases=1,LineCode=tieSwitch1,Length=0.001,Units=km,switch=T !numEQ 51924
new line.CTR153677 bus1=BMT174864315.1.2.3,bus2=BMT170323456.1.2.3,Phases=3,LineCode=tieSwitch,Length=0.001,Units=km,switch=T !numEQ 51925
new line.CTR153691 bus1=BMT170323457.1.2.3,bus2=BMT170323462.1.2.3,Phases=3,LineCode=tieSwitch,Length=0.001,Units=km,switch=T !numEQ 51927
new line.CTR153698 bus1=BMT120645116.2,bus2=BMT120645186.2,Phases=1,LineCode=tieSwitch1,Length=0.001,Units=km,switch=T !numEQ 51928
new line.CTR153705 bus1=BMT170320989.3,bus2=BMT170321149.3,Phases=1,LineCode=tieSwitch1,Length=0.001,Units=km,switch=T !numEQ 51929
new line.CTR1539 bus1=BMT170319472.1,bus2=BMT170319609.1,Phases=1,LineCode=tieSwitch1,Length=0.001,Units=km,switch=T !numEQ 175696
new line.CTR153922 bus1=BMT170321004.3,bus2=BMT170321007.3,Phases=1,LineCode=tieSwitch1,Length=0.001,Units=km,switch=T !numEQ 51970
new line.CTR153929 bus1=BMT170323446.1.2.3,bus2=BMT170324057.1.2.3,Phases=3,LineCode=tieSwitch,Length=0.001,Units=km,switch=T !numEQ 51971
new line.CTR153943 bus1=BMT120644955.1.2.3,bus2=BMT120645977.1.2.3,Phases=3,LineCode=tieSwitch,Length=0.001,Units=km,switch=T !numEQ 51972
new line.CTR153950 bus1=BMT120645053.2,bus2=BMT120645851.2,Phases=1,LineCode=tieSwitch1,Length=0.001,Units=km,switch=T !numEQ 51973
new line.CTR153971 bus1=BMT170323486.1,bus2=BMT170324046.1,Phases=1,LineCode=tieSwitch1,Length=0.001,Units=km,switch=T !numEQ 51978
new line.CTR154006 bus1=BMT150564331.1,bus2=BMT150564606.1,Phases=1,LineCode=tieSwitch1,Length=0.001,Units=km,switch=T !numEQ 51681
new line.CTR154013 bus1=BMT150564382.3,bus2=BMT150564593.3,Phases=1,LineCode=tieSwitch1,Length=0.001,Units=km,switch=T !numEQ 51682
new line.CTR154020 bus1=BMT150564383.1,bus2=BMT150564561.1,Phases=1,LineCode=tieSwitch1,Length=0.001,Units=km,switch=T !numEQ 51683
new line.CTR154041 bus1=BMT150564232.2,bus2=BMT150564235.2,Phases=1,LineCode=tieSwitch1,Length=0.001,Units=km,switch=T !numEQ 51688
new line.CTR15455 bus1=BMT150565274.3,bus2=BMT150565278.3,Phases=1,LineCode=tieSwitch1,Length=0.001,Units=km,switch=T !numEQ 206868
new line.CTR154720 bus1=BMT170321060.3,bus2=BMT170321074.3,Phases=1,LineCode=tieSwitch1,Length=0.001,Units=km,switch=T !numEQ 51556
new line.CTR154727 bus1=BMT170321037.3,bus2=BMT170321091.3,Phases=1,LineCode=tieSwitch1,Length=0.001,Units=km,switch=T !numEQ 51557
new line.CTR154734 bus1=BMT120635995.1,bus2=BMT156978613.1,Phases=1,LineCode=tieSwitch1,Length=0.001,Units=km,switch=T !numEQ 51559
new line.CTR154741 bus1=BMT170321957.2,bus2=BMT170321959.2,Phases=1,LineCode=tieSwitch1,Length=0.001,Units=km,switch=T !numEQ 51562
new line.CTR154846 bus1=BMT150564968.1.2.3,bus2=BMT150564969.1.2.3,Phases=3,LineCode=tieSwitch,Length=0.001,Units=km,switch=T !numEQ 51594
new line.CTR160887 bus1=BMT170321916.2,bus2=BMT170322176.2,Phases=1,LineCode=tieSwitch1,Length=0.001,Units=km,switch=T !numEQ 50607
new line.CTR104985 bus1=BMT124686972.1,bus2=BMT124686986.1,Phases=1,LineCode=tieSwitch1,Length=0.001,Units=km,switch=T !numEQ 203007
new line.CTR111684 bus1=BMT124686734.1.2.3,bus2=BMT166331402.1.2.3,Phases=3,LineCode=tieSwitch,Length=0.001,Units=km,switch=T !numEQ 91101
new line.CTR111691 bus1=BMT176051211.2,bus2=BMT176054709.2,Phases=1,LineCode=tieSwitch1,Length=0.001,Units=km,switch=T !numEQ 91102
new line.CTR111698 bus1=BMT124686685.1.2.3,bus2=BMT176051207.1.2.3,Phases=3,LineCode=tieSwitch,Length=0.001,Units=km,switch=T !numEQ 91103
new line.CTR125115 bus1=BMT176397273.1.2.3,bus2=BMT176397297.1.2.3,Phases=3,LineCode=tieSwitch,Length=0.001,Units=km,switch=T !numEQ 69191
open line.CTR125115 term=1
new line.CTR144031 bus1=BMT170322379.2,bus2=BMT170322681.2,Phases=1,LineCode=tieSwitch1,Length=0.001,Units=km,switch=T !numEQ 53811
new line.CTR144780 bus1=BMT150564158.1,bus2=BMT150565286.1,Phases=1,LineCode=tieSwitch1,Length=0.001,Units=km,switch=T !numEQ 53703
new line.CTR144920 bus1=BMT120646257.2,bus2=BMT120646740.2,Phases=1,LineCode=tieSwitch1,Length=0.001,Units=km,switch=T !numEQ 53728
new line.CTR144934 bus1=BMT170319321.1.2.3,bus2=BMT175940096.1.2.3,Phases=3,LineCode=tieSwitch,Length=0.001,Units=km,switch=T !numEQ 53732
new line.CTR145046 bus1=BMT170319336.1.2.3,bus2=BMT170319337.1.2.3,Phases=3,LineCode=tieSwitch,Length=0.001,Units=km,switch=T !numEQ 53481
new line.CTR145060 bus1=BMT170319307.1.2.3,bus2=BMT170319331.1.2.3,Phases=3,LineCode=tieSwitch,Length=0.001,Units=km,switch=T !numEQ 53483
new line.CTR145361 bus1=BMT170322986.1,bus2=BMT170323072.1,Phases=1,LineCode=tieSwitch1,Length=0.001,Units=km,switch=T !numEQ 53564
new line.CTR145515 bus1=BMT170322226.3,bus2=BMT170322286.3,Phases=1,LineCode=tieSwitch1,Length=0.001,Units=km,switch=T !numEQ 53591
new line.CTR145725 bus1=BMT174525423.1.2.3,bus2=BMT170319482.1.2.3,Phases=3,LineCode=tieSwitch,Length=0.001,Units=km,switch=T !numEQ 53622
new line.CTR145893 bus1=BMT170323496.1.2.3,bus2=BMT170323508.1.2.3,Phases=3,LineCode=tieSwitch,Length=0.001,Units=km,switch=T !numEQ 132378
new line.CTR152613 bus1=BMT150564685.2,bus2=BMT150564708.2,Phases=1,LineCode=tieSwitch1,Length=0.001,Units=km,switch=T !numEQ 52258
new line.CTR152669 bus1=BMT120605909.1.2.3,bus2=BMT166270206.1.2.3,Phases=3,LineCode=tieSwitch,Length=0.001,Units=km,switch=T !numEQ 52020
new line.CTR152711 bus1=BMT120645060.2,bus2=BMT176009982.2,Phases=1,LineCode=tieSwitch1,Length=0.001,Units=km,switch=T !numEQ 51982
new line.CTR152998 bus1=BMT170323234.2,bus2=BMT170323283.2,Phases=1,LineCode=tieSwitch1,Length=0.001,Units=km,switch=T !numEQ 207123
new line.CTR159067 bus1=BMT170319865.1,bus2=BMT170320342.1,Phases=1,LineCode=tieSwitch1,Length=0.001,Units=km,switch=T !numEQ 194458
new line.CTR159081 bus1=BMT170321907.1,bus2=BMT170322360.1,Phases=1,LineCode=tieSwitch1,Length=0.001,Units=km,switch=T !numEQ 50778
new line.CTR159270 bus1=BMT170320766.2,bus2=BMT170320970.2,Phases=1,LineCode=tieSwitch1,Length=0.001,Units=km,switch=T !numEQ 50814
new line.CTR159284 bus1=BMT170320799.3,bus2=BMT170320813.3,Phases=1,LineCode=tieSwitch1,Length=0.001,Units=km,switch=T !numEQ 50817
new line.CTR159305 bus1=BMT170319808.1.2.3,bus2=BMT170320760.1.2.3,Phases=3,LineCode=tieSwitch,Length=0.001,Units=km,switch=T !numEQ 50820
new line.CTR159333 bus1=BMT170320785.1.2.3,bus2=BMT170320788.1.2.3,Phases=3,LineCode=tieSwitch,Length=0.001,Units=km,switch=T !numEQ 50824
new line.CTR159340 bus1=BMT170320795.1.2.3,bus2=BMT170320796.1.2.3,Phases=3,LineCode=tieSwitch,Length=0.001,Units=km,switch=T !numEQ 50825
new line.CTR159347 bus1=BMT170320801.2,bus2=BMT170320804.2,Phases=1,LineCode=tieSwitch1,Length=0.001,Units=km,switch=T !numEQ 50826
new line.CTR159354 bus1=BMT170320778.1.2.3,bus2=BMT170320947.1.2.3,Phases=3,LineCode=tieSwitch,Length=0.001,Units=km,switch=T !numEQ 50828
new line.CTR159361 bus1=BMT170320779.3,bus2=BMT174570063.3,Phases=1,LineCode=tieSwitch1,Length=0.001,Units=km,switch=T !numEQ 50829
new line.CTR159438 bus1=BMT170321328.2,bus2=BMT170321340.2,Phases=1,LineCode=tieSwitch1,Length=0.001,Units=km,switch=T !numEQ 50846
new line.CTR159480 bus1=BMT170321301.2,bus2=BMT170321302.2,Phases=1,LineCode=tieSwitch1,Length=0.001,Units=km,switch=T !numEQ 50847
new line.CTR159487 bus1=BMT170319448.1.2.3,bus2=BMT171522567.1.2.3,Phases=3,LineCode=tieSwitch,Length=0.001,Units=km,switch=T !numEQ 50857
new line.CTR159494 bus1=BMT120644255.1.2.3,bus2=BMT169430060.1.2.3,Phases=3,LineCode=tieSwitch,Length=0.001,Units=km,switch=T !numEQ 232722
new line.CTR1595 bus1=BMT176724624.1.2.3,bus2=BMT170321433.1.2.3,Phases=3,LineCode=tieSwitch,Length=0.001,Units=km,switch=T !numEQ 108762
open line.CTR1595 term=1
new line.CTR159522 bus1=BMT170321398.1.2.3,bus2=BMT170324162.1.2.3,Phases=3,LineCode=tieSwitch,Length=0.001,Units=km,switch=T !numEQ 50877
new line.CTR159536 bus1=BMT150564270.1,bus2=BMT150564950.1,Phases=1,LineCode=tieSwitch1,Length=0.001,Units=km,switch=T !numEQ 50588
new line.CTR159543 bus1=BMT150564269.3,bus2=BMT150564280.3,Phases=1,LineCode=tieSwitch1,Length=0.001,Units=km,switch=T !numEQ 50589
new line.CTR159557 bus1=BMT170319708.1.2.3,bus2=BMT170321189.1.2.3,Phases=3,LineCode=tieSwitch,Length=0.001,Units=km,switch=T !numEQ 50592
new line.CTR159571 bus1=BMT174970695.1.2.3,bus2=BMT170319541.1.2.3,Phases=3,LineCode=tieSwitch,Length=0.001,Units=km,switch=T !numEQ 50594
new line.CTR159578 bus1=BMT170319301.1.2.3,bus2=BMT173543121.1.2.3,Phases=3,LineCode=tieSwitch,Length=0.001,Units=km,switch=T !numEQ 50595
new line.CTR15959 bus1=BMT170321407.1.2.3,bus2=BMT175374781.1.2.3,Phases=3,LineCode=tieSwitch,Length=0.001,Units=km,switch=T !numEQ 235487
new line.CTR159606 bus1=BMT170319446.1.2.3,bus2=BMT176713872.1.2.3,Phases=3,LineCode=tieSwitch,Length=0.001,Units=km,switch=T !numEQ 50620
new line.CTR159634 bus1=BMT122478787.2,bus2=BMT122478808.2,Phases=1,LineCode=tieSwitch1,Length=0.001,Units=km,switch=T !numEQ 52048
new line.CTR159648 bus1=BMT150564220.1.2.3,bus2=BMT168377919.1.2.3,Phases=3,LineCode=tieSwitch,Length=0.001,Units=km,switch=T !numEQ 50622
new line.CTR159662 bus1=BMT174512315.1.2.3,bus2=BMT150564229.1.2.3,Phases=3,LineCode=tieSwitch,Length=0.001,Units=km,switch=T !numEQ 50624
new line.CTR159676 bus1=BMT150564681.2,bus2=BMT150564687.2,Phases=1,LineCode=tieSwitch1,Length=0.001,Units=km,switch=T !numEQ 50626
new line.CTR159683 bus1=BMT150564680.2,bus2=BMT150564930.2,Phases=1,LineCode=tieSwitch1,Length=0.001,Units=km,switch=T !numEQ 50627
new line.CTR159690 bus1=BMT170320782.1,bus2=BMT170320900.1,Phases=1,LineCode=tieSwitch1,Length=0.001,Units=km,switch=T !numEQ 50628
new line.CTR159697 bus1=BMT170320783.2,bus2=BMT170320897.2,Phases=1,LineCode=tieSwitch1,Length=0.001,Units=km,switch=T !numEQ 50629
new line.CTR159704 bus1=BMT170320794.3,bus2=BMT174570077.3,Phases=1,LineCode=tieSwitch1,Length=0.001,Units=km,switch=T !numEQ 50630
new line.CTR159711 bus1=BMT147901758.1.2.3,bus2=BMT170895736.1.2.3,Phases=3,LineCode=tieSwitch,Length=0.001,Units=km,switch=T !numEQ 314818
new line.CTR159718 bus1=BMT150564159.3,bus2=BMT150565271.3,Phases=1,LineCode=tieSwitch1,Length=0.001,Units=km,switch=T !numEQ 50636
new line.CTR159795 bus1=BMT170321956.2,bus2=BMT170321967.2,Phases=1,LineCode=tieSwitch1,Length=0.001,Units=km,switch=T !numEQ 50650
new line.CTR159802 bus1=BMT170321930.2,bus2=BMT170322127.2,Phases=1,LineCode=tieSwitch1,Length=0.001,Units=km,switch=T !numEQ 50656
new line.CTR159809 bus1=BMT170321582.1.2.3,bus2=BMT170322378.1.2.3,Phases=3,LineCode=tieSwitch,Length=0.001,Units=km,switch=T !numEQ 311282
new line.CTR159949 bus1=BMT170321600.3,bus2=BMT170321618.3,Phases=1,LineCode=tieSwitch1,Length=0.001,Units=km,switch=T !numEQ 50681
new line.CTR159963 bus1=BMT170321809.3,bus2=BMT170321820.3,Phases=1,LineCode=tieSwitch1,Length=0.001,Units=km,switch=T !numEQ 50684
new line.CTR160054 bus1=BMT170319644.2,bus2=BMT170319646.2,Phases=1,LineCode=tieSwitch1,Length=0.001,Units=km,switch=T !numEQ 50700
new line.CTR160061 bus1=BMT170321781.3,bus2=BMT170321787.3,Phases=1,LineCode=tieSwitch1,Length=0.001,Units=km,switch=T !numEQ 215922
new line.CTR160103 bus1=BMT170319710.1.2.3,bus2=BMT170319791.1.2.3,Phases=3,LineCode=tieSwitch,Length=0.001,Units=km,switch=T !numEQ 50715
new line.CTR160110 bus1=BMT170319814.1.2.3,bus2=BMT170319815.1.2.3,Phases=3,LineCode=tieSwitch,Length=0.001,Units=km,switch=T !numEQ 50718
new line.CTR160117 bus1=BMT170319809.1.2.3,bus2=BMT174311596.1.2.3,Phases=3,LineCode=tieSwitch,Length=0.001,Units=km,switch=T !numEQ 50717
new line.CTR160124 bus1=BMT170319820.1.2.3,bus2=BMT170319821.1.2.3,Phases=3,LineCode=tieSwitch,Length=0.001,Units=km,switch=T !numEQ 50719
new line.CTR160138 bus1=BMT170319822.1.2.3,bus2=BMT170319823.1.2.3,Phases=3,LineCode=tieSwitch,Length=0.001,Units=km,switch=T !numEQ 50721
new line.CTR160145 bus1=BMT170319826.1.2.3,bus2=BMT170319827.1.2.3,Phases=3,LineCode=tieSwitch,Length=0.001,Units=km,switch=T !numEQ 50722
new line.CTR160152 bus1=BMT170319830.1.2.3,bus2=BMT170319831.1.2.3,Phases=3,LineCode=tieSwitch,Length=0.001,Units=km,switch=T !numEQ 50723
new line.CTR160159 bus1=BMT170319833.1.2.3,bus2=BMT170319834.1.2.3,Phases=3,LineCode=tieSwitch,Length=0.001,Units=km,switch=T !numEQ 50724
new line.CTR160166 bus1=BMT170319837.1.2.3,bus2=BMT170319839.1.2.3,Phases=3,LineCode=tieSwitch,Length=0.001,Units=km,switch=T !numEQ 50726
new line.CTR160355 bus1=BMT120644710.1.2.3,bus2=BMT120644717.1.2.3,Phases=3,LineCode=tieSwitch,Length=0.001,Units=km,switch=T !numEQ 50509
new line.CTR160579 bus1=BMT170322345.2,bus2=BMT170322348.2,Phases=1,LineCode=tieSwitch1,Length=0.001,Units=km,switch=T !numEQ 50545
new line.CTR160593 bus1=BMT170321954.2,bus2=BMT170321955.2,Phases=1,LineCode=tieSwitch1,Length=0.001,Units=km,switch=T !numEQ 50550
new line.CTR160810 bus1=BMT162830405.1,bus2=BMT165295715.1,Phases=1,LineCode=tieSwitch1,Length=0.001,Units=km,switch=T !numEQ 50584
new line.CTR160817 bus1=BMT150564322.1,bus2=BMT150564660.1,Phases=1,LineCode=tieSwitch1,Length=0.001,Units=km,switch=T !numEQ 50585
new line.CTR160824 bus1=BMT150564342.2,bus2=BMT150564360.2,Phases=1,LineCode=tieSwitch1,Length=0.001,Units=km,switch=T !numEQ 50586
new line.CTR160831 bus1=BMT150564321.2,bus2=BMT161189843.2,Phases=1,LineCode=tieSwitch1,Length=0.001,Units=km,switch=T !numEQ 50587
new line.CTR160838 bus1=BMT150564489.1,bus2=BMT150564551.1,Phases=1,LineCode=tieSwitch1,Length=0.001,Units=km,switch=T !numEQ 50598
new line.CTR160873 bus1=BMT170322382.2,bus2=BMT170322666.2,Phases=1,LineCode=tieSwitch1,Length=0.001,Units=km,switch=T !numEQ 50605
new line.CTR17632 bus1=BMT170322764.1,bus2=BMT170323177.1,Phases=1,LineCode=tieSwitch1,Length=0.001,Units=km,switch=T !numEQ 182682