new line.RML10040835 bus1=BBT1169741.3.0,bus2=RML1010040835.3.0,Phases=1,Linecode=CABBTG02_4_1,Length=0.017000000,Units=km
new line.RML10040837 bus1=BBT147767974.2.0,bus2=RML1010040837.2.0,Phases=1,Linecode=CABBTG02_4_1,Length=0.017000000,Units=km
new line.RML10040840 bus1=BBT3670785.1.0,bus2=RML1010040840.1.0,Phases=1,Linecode=CABBTG01_4_1,Length=0.017000000,Units=km
new line.RML10040843 bus1=BBT146415749.1.2.3.0,bus2=RML1010040843.1.2.3.0,Phases=3,Linecode=CABBTG06_4_3,Length=0.017000000,Units=km
new line.RML10040847 bus1=BBT147821272.1.0,bus2=RML1010040847.1.0,Phases=1,Linecode=CABBTG01_4_1,Length=0.017000000,Units=km
new line.RML10040849 bus1=BBT5200628.1.0,bus2=RML1010040849.1.0,Phases=1,Linecode=CABBTG01_4_1,Length=0.017000000,Units=km
new line.RML10040850 bus1=BBT1198357.2.0,bus2=RML1010040850.2.0,Phases=1,Linecode=CABBTG01_4_1,Length=0.017000000,Units=km
new line.RML10040853 bus1=BBT141522749.1.0,bus2=RML1010040853.1.0,Phases=1,Linecode=CABBTG01_4_1,Length=0.017000000,Units=km
new line.RML10040858 bus1=BBT5850221.2.0,bus2=RML1010040858.2.0,Phases=1,Linecode=CABBTG01_4_1,Length=0.017000000,Units=km
new line.RML10040861 bus1=BBT5234375.2.0,bus2=RML1010040861.2.0,Phases=1,Linecode=CABBTG01_4_1,Length=0.017000000,Units=km
new line.RML10040866 bus1=BBT1198448.1.0,bus2=RML1010040866.1.0,Phases=1,Linecode=CABBTG02_4_1,Length=0.017000000,Units=km
new line.RML10040885 bus1=BBT3260522.1.0,bus2=RML1010040885.1.0,Phases=1,Linecode=CABBTG01_4_1,Length=0.017000000,Units=km
new line.RML10040888 bus1=BBT147767960.3.0,bus2=RML1010040888.3.0,Phases=1,Linecode=CABBTG01_4_1,Length=0.017000000,Units=km
new line.RML10041011 bus1=BBT4806661.1.0,bus2=RML1010041011.1.0,Phases=1,Linecode=CABBTG01_4_1,Length=0.017000000,Units=km
new line.RML10042548 bus1=BBT148288894.1.2.0,bus2=RML1010042548.1.2.0,Phases=2,Linecode=CABBT801_4_2,Length=0.017000000,Units=km
new line.RML10043583 bus1=BBT1244942.1.2.3.0,bus2=RML1010043583.1.2.3.0,Phases=3,Linecode=CABBTG08_4_3,Length=0.017000000,Units=km
new line.RML10056137 bus1=BBT5870815.2.0,bus2=RML1010056137.2.0,Phases=1,Linecode=CABBTG02_4_1,Length=0.017000000,Units=km
new line.RML10056139 bus1=BBT4807529.1.2.0,bus2=RML1010056139.1.2.0,Phases=2,Linecode=CABBTG05_4_2,Length=0.017000000,Units=km
new line.RML10056141 bus1=BBT5234984.2.0,bus2=RML1010056141.2.0,Phases=1,Linecode=CABBTG02_4_1,Length=0.017000000,Units=km
new line.RML10056142 bus1=BBT1154957.3.0,bus2=RML1010056142.3.0,Phases=1,Linecode=CABBTG02_4_1,Length=0.017000000,Units=km
new line.RML10056143 bus1=BBT5234487.2.0,bus2=RML1010056143.2.0,Phases=1,Linecode=CABBTG01_4_1,Length=0.017000000,Units=km
new line.RML10056145 bus1=BBT4807676.1.2.0,bus2=RML1010056145.1.2.0,Phases=2,Linecode=CABBTG05_4_2,Length=0.017000000,Units=km
new line.RML10056147 bus1=BBT135594393.3.0,bus2=RML1010056147.3.0,Phases=1,Linecode=CABBTG02_4_1,Length=0.017000000,Units=km
new line.RML10056150 bus1=BBT148358191.1.0,bus2=RML1010056150.1.0,Phases=1,Linecode=CABBTG01_4_1,Length=0.017000000,Units=km
new line.RML10056162 bus1=BBT1198840.1.2.0,bus2=RML1010056162.1.2.0,Phases=2,Linecode=CABBTG05_4_2,Length=0.017000000,Units=km
new line.RML10056164 bus1=BBT141637241.1.3.0,bus2=RML1010056164.1.3.0,Phases=2,Linecode=CABBTG05_4_2,Length=0.017000000,Units=km
new line.RML10056165 bus1=BBT3262783.1.0,bus2=RML1010056165.1.0,Phases=1,Linecode=CABBTG02_4_1,Length=0.017000000,Units=km
new line.RML10056166 bus1=BBT1196964.1.2.0,bus2=RML1010056166.1.2.0,Phases=2,Linecode=CABBTG05_4_2,Length=0.017000000,Units=km
new line.RML10056171 bus1=BBT148365195.1.0,bus2=RML1010056171.1.0,Phases=1,Linecode=CABBTG01_4_1,Length=0.017000000,Units=km
new line.RML10056188 bus1=BBT6369376.2.0,bus2=RML1010056188.2.0,Phases=1,Linecode=CABBTG02_4_1,Length=0.017000000,Units=km
new line.RML10056190 bus1=BBT2332077.2.0,bus2=RML1010056190.2.0,Phases=1,Linecode=CABBTG02_4_1,Length=0.017000000,Units=km
new line.RML10056198 bus1=BBT146777229.1.2.0,bus2=RML1010056198.1.2.0,Phases=2,Linecode=CABBTG05_4_2,Length=0.017000000,Units=km
new line.RML10056280 bus1=BBT148534686.1.2.0,bus2=RML1010056280.1.2.0,Phases=2,Linecode=CABBTG13_4_2,Length=0.017000000,Units=km
new line.RML10056333 bus1=BBT148358191.2.0,bus2=RML1010056333.2.0,Phases=1,Linecode=CABBTG01_4_1,Length=0.017000000,Units=km
new line.RML10056335 bus1=BBT146777600.1.0,bus2=RML1010056335.1.0,Phases=1,Linecode=CABBTG01_4_1,Length=0.017000000,Units=km
new line.RML10056336 bus1=BBT148392989.1.0,bus2=RML1010056336.1.0,Phases=1,Linecode=CABBTG01_4_1,Length=0.017000000,Units=km
new line.RML10056343 bus1=BBT2907617.2.0,bus2=RML1010056343.2.0,Phases=1,Linecode=CABBTG01_4_1,Length=0.017000000,Units=km
new line.RML10056347 bus1=BBT1150239.1.0,bus2=RML1010056347.1.0,Phases=1,Linecode=CABBTG02_4_1,Length=0.017000000,Units=km
new line.RML10056359 bus1=BBT139189306.2.0,bus2=RML1010056359.2.0,Phases=1,Linecode=CABBTG01_4_1,Length=0.017000000,Units=km
new line.RML10056374 bus1=BBT145407665.2.0,bus2=RML1010056374.2.0,Phases=1,Linecode=CABBTG02_4_1,Length=0.017000000,Units=km
new line.RML10056379 bus1=BBT2185259.1.0,bus2=RML1010056379.1.0,Phases=1,Linecode=CABBTG02_4_1,Length=0.017000000,Units=km
new line.RML10056383 bus1=BBT5234879.2.0,bus2=RML1010056383.2.0,Phases=1,Linecode=CABBTG01_4_1,Length=0.017000000,Units=km
new line.RML10056390 bus1=BBT1188732.1.0,bus2=RML1010056390.1.0,Phases=1,Linecode=CABBTG01_4_1,Length=0.017000000,Units=km
new line.RML10057727 bus1=BBT1103899.1.0,bus2=RML1010057727.1.0,Phases=1,Linecode=CABBTG01_4_1,Length=0.017000000,Units=km
new line.RML10057728 bus1=BBT5378036.3.0,bus2=RML1010057728.3.0,Phases=1,Linecode=CABBTG01_4_1,Length=0.017000000,Units=km
new line.RML10057729 bus1=BBT3670771.2.0,bus2=RML1010057729.2.0,Phases=1,Linecode=CABBTG01_4_1,Length=0.017000000,Units=km
new line.RML10057737 bus1=BBT3263833.2.0,bus2=RML1010057737.2.0,Phases=1,Linecode=CABBTG01_4_1,Length=0.017000000,Units=km
new line.RML10057738 bus1=BBT100976481.1.0,bus2=RML1010057738.1.0,Phases=1,Linecode=CABBTG01_4_1,Length=0.017000000,Units=km
new line.RML10057740 bus1=BBT1141174.1.0,bus2=RML1010057740.1.0,Phases=1,Linecode=CABBTG02_4_1,Length=0.017000000,Units=km
new line.RML10057930 bus1=BBT1204958.1.2.0,bus2=RML1010057930.1.2.0,Phases=2,Linecode=CABBTG05_4_2,Length=0.017000000,Units=km
new line.RML10057931 bus1=BBT1170441.1.2.0,bus2=RML1010057931.1.2.0,Phases=2,Linecode=CABBTG05_4_2,Length=0.017000000,Units=km
new line.RML10057932 bus1=BBT5199536.1.2.0,bus2=RML1010057932.1.2.0,Phases=2,Linecode=CABBTG05_4_2,Length=0.017000000,Units=km
new line.RML10057933 bus1=BBT147819368.2.0,bus2=RML1010057933.2.0,Phases=1,Linecode=CABBTG02_4_1,Length=0.017000000,Units=km
new line.RML10059091 bus1=BBT146564982.1.2.0,bus2=RML1010059091.1.2.0,Phases=2,Linecode=CABBTG05_4_2,Length=0.017000000,Units=km
new line.RML10059092 bus1=BBT146565178.1.2.0,bus2=RML1010059092.1.2.0,Phases=2,Linecode=CABBTG05_4_2,Length=0.017000000,Units=km
new line.RML10059093 bus1=BBT146565437.1.2.0,bus2=RML1010059093.1.2.0,Phases=2,Linecode=CABBTG05_4_2,Length=0.017000000,Units=km
new line.RML10059094 bus1=BBT146565500.1.2.0,bus2=RML1010059094.1.2.0,Phases=2,Linecode=CABBTG05_4_2,Length=0.017000000,Units=km
new line.RML10037341 bus1=BBT148084386.1.2.0,bus2=RML1010037341.1.2.0,Phases=2,Linecode=CABBTG05_4_2,Length=0.017000000,Units=km
new line.RML10055001 bus1=BBT148335210.1.2.0,bus2=RML1010055001.1.2.0,Phases=2,Linecode=CABBTG05_4_2,Length=0.017000000,Units=km
new line.RML10055134 bus1=BBT148335006.1.2.0,bus2=RML1010055134.1.2.0,Phases=2,Linecode=CABBTG05_4_2,Length=0.017000000,Units=km
new line.RML10055712 bus1=BBT1245026.1.2.0,bus2=RML1010055712.1.2.0,Phases=2,Linecode=CABBTG05_4_2,Length=0.017000000,Units=km
new line.RML10066007 bus1=BBT148735784.1.2.0,bus2=RML1010066007.1.2.0,Phases=2,Linecode=CABBTG05_4_2,Length=0.017000000,Units=km
new line.RML10067164 bus1=BBT3006471.2.0,bus2=RML1010067164.2.0,Phases=1,Linecode=CABBTG02_4_1,Length=0.017000000,Units=km
new line.RML10067166 bus1=BBT3006590.1.0,bus2=RML1010067166.1.0,Phases=1,Linecode=CABBTG02_4_1,Length=0.017000000,Units=km
new line.RML10067167 bus1=BBT2246628.3.0,bus2=RML1010067167.3.0,Phases=1,Linecode=CABBTG02_4_1,Length=0.017000000,Units=km
new line.RML10067169 bus1=BBT2246621.2.0,bus2=RML1010067169.2.0,Phases=1,Linecode=CABBTG02_4_1,Length=0.017000000,Units=km
new line.RML10067171 bus1=BBT2246733.1.0,bus2=RML1010067171.1.0,Phases=1,Linecode=CABBTG02_4_1,Length=0.017000000,Units=km
new line.RML10067173 bus1=BBT2246642.3.0,bus2=RML1010067173.3.0,Phases=1,Linecode=CABBTG02_4_1,Length=0.017000000,Units=km
new line.RML10067175 bus1=BBT2245669.3.0,bus2=RML1010067175.3.0,Phases=1,Linecode=CABBTG02_4_1,Length=0.017000000,Units=km
new line.RML10067177 bus1=BBT3670813.1.0,bus2=RML1010067177.1.0,Phases=1,Linecode=CABBTG02_4_1,Length=0.017000000,Units=km
new line.RML10067178 bus1=BBT3670813.1.0,bus2=RML1010067178.1.0,Phases=1,Linecode=CABBTG02_4_1,Length=0.017000000,Units=km
new line.RML10067179 bus1=BBT3670778.2.0,bus2=RML1010067179.2.0,Phases=1,Linecode=CABBTG02_4_1,Length=0.017000000,Units=km
new line.RML10067181 bus1=BBT1169377.2.3.0,bus2=RML1010067181.2.3.0,Phases=2,Linecode=CABBTG05_4_2,Length=0.017000000,Units=km
new line.RML10067187 bus1=BBT1169356.1.3.0,bus2=RML1010067187.1.3.0,Phases=2,Linecode=CABBTG05_4_2,Length=0.017000000,Units=km
new line.RML10067188 bus1=BBT1170462.1.2.3.0,bus2=RML1010067188.1.2.3.0,Phases=3,Linecode=CABBTG06_4_3,Length=0.017000000,Units=km
new line.RML10067190 bus1=BBT1155195.1.2.3.0,bus2=RML1010067190.1.2.3.0,Phases=3,Linecode=CABBTG10_4_3,Length=0.017000000,Units=km
new line.RML10067191 bus1=BBT1152227.3.0,bus2=RML1010067191.3.0,Phases=1,Linecode=CABBTG02_4_1,Length=0.017000000,Units=km
new line.RML10067193 bus1=BBT1152115.1.2.3.0,bus2=RML1010067193.1.2.3.0,Phases=3,Linecode=CABBTG06_4_3,Length=0.017000000,Units=km
new line.RML10067195 bus1=BBT1152430.2.3.0,bus2=RML1010067195.2.3.0,Phases=2,Linecode=CABBTG05_4_2,Length=0.017000000,Units=km
new line.RML10067221 bus1=BBT1194584.1.0,bus2=RML1010067221.1.0,Phases=1,Linecode=CABBTG01_4_1,Length=0.017000000,Units=km
new line.RML10067222 bus1=BBT1250976.1.2.0,bus2=RML1010067222.1.2.0,Phases=2,Linecode=CABBTG04_4_2,Length=0.017000000,Units=km
new line.RML10067315 bus1=BBT62462831.1.2.3.0,bus2=RML1010067315.1.2.3.0,Phases=3,Linecode=CABBTG11_4_3,Length=0.017000000,Units=km
new line.RML10067316 bus1=BBT1200653.3.0,bus2=RML1010067316.3.0,Phases=1,Linecode=CABBTG01_4_1,Length=0.017000000,Units=km
new line.RML10067317 bus1=BBT1201885.1.0,bus2=RML1010067317.1.0,Phases=1,Linecode=CABBTG01_4_1,Length=0.017000000,Units=km
new line.RML10067363 bus1=BBT1198455.3.0,bus2=RML1010067363.3.0,Phases=1,Linecode=CABBTG01_4_1,Length=0.017000000,Units=km
new line.RML10067366 bus1=BBT1193695.1.2.0,bus2=RML1010067366.1.2.0,Phases=2,Linecode=CABBTG04_4_2,Length=0.017000000,Units=km
new line.RML10067367 bus1=BBT1214772.1.2.0,bus2=RML1010067367.1.2.0,Phases=2,Linecode=CABBTG05_4_2,Length=0.017000000,Units=km
new line.RML10067369 bus1=BBT2822224.2.0,bus2=RML1010067369.2.0,Phases=1,Linecode=CABBTG02_4_1,Length=0.017000000,Units=km
new line.RML10067371 bus1=BBT1197496.1.2.0,bus2=RML1010067371.1.2.0,Phases=2,Linecode=CABBTG05_4_2,Length=0.017000000,Units=km
new line.RML10067372 bus1=BBT1197468.2.0,bus2=RML1010067372.2.0,Phases=1,Linecode=CABBTG02_4_1,Length=0.017000000,Units=km
new line.RML10067373 bus1=BBT1197167.1.2.3.0,bus2=RML1010067373.1.2.3.0,Phases=3,Linecode=CABBTG06_4_3,Length=0.017000000,Units=km
new line.RML10067375 bus1=BBT1197664.2.0,bus2=RML1010067375.2.0,Phases=1,Linecode=CABBTG02_4_1,Length=0.017000000,Units=km
new line.RML10067376 bus1=BBT1197587.3.0,bus2=RML1010067376.3.0,Phases=1,Linecode=CABBTG02_4_1,Length=0.017000000,Units=km
new line.RML10067377 bus1=BBT1197594.2.3.0,bus2=RML1010067377.2.3.0,Phases=2,Linecode=CABBTG05_4_2,Length=0.017000000,Units=km
new line.RML10067381 bus1=BBT1197552.2.3.0,bus2=RML1010067381.2.3.0,Phases=2,Linecode=CABBTG05_4_2,Length=0.017000000,Units=km
new line.RML10067382 bus1=BBT1088303.1.0,bus2=RML1010067382.1.0,Phases=1,Linecode=CABBTG02_4_1,Length=0.017000000,Units=km
new line.RML10067385 bus1=BBT1202543.1.0,bus2=RML1010067385.1.0,Phases=1,Linecode=CABBTG02_4_1,Length=0.017000000,Units=km
new line.RML10067386 bus1=BBT1205406.2.0,bus2=RML1010067386.2.0,Phases=1,Linecode=CABBTG02_4_1,Length=0.017000000,Units=km
new line.RML10067390 bus1=BBT1204090.1.0,bus2=RML1010067390.1.0,Phases=1,Linecode=CABBTG02_4_1,Length=0.017000000,Units=km
new line.RML10067391 bus1=BBT2819900.3.0,bus2=RML1010067391.3.0,Phases=1,Linecode=CABBTG02_4_1,Length=0.017000000,Units=km
new line.RML10067393 bus1=BBT1204174.3.0,bus2=RML1010067393.3.0,Phases=1,Linecode=CABBTG02_4_1,Length=0.017000000,Units=km
new line.RML10067394 bus1=BBT5233087.2.0,bus2=RML1010067394.2.0,Phases=1,Linecode=CABBTG02_4_1,Length=0.017000000,Units=km
new line.RML10067396 bus1=BBT128782574.1.0,bus2=RML1010067396.1.0,Phases=1,Linecode=CABBTG02_4_1,Length=0.017000000,Units=km
new line.RML10067398 bus1=BBT5233647.3.0,bus2=RML1010067398.3.0,Phases=1,Linecode=CABBTG02_4_1,Length=0.017000000,Units=km
new line.RML10067399 bus1=BBT5233647.3.0,bus2=RML1010067399.3.0,Phases=1,Linecode=CABBTG02_4_1,Length=0.017000000,Units=km
new line.RML10067401 bus1=BBT47538544.2.0,bus2=RML1010067401.2.0,Phases=1,Linecode=CABBTG02_4_1,Length=0.017000000,Units=km
new line.RML10067403 bus1=BBT1203908.2.0,bus2=RML1010067403.2.0,Phases=1,Linecode=CABBTG02_4_1,Length=0.017000000,Units=km
new line.RML10067427 bus1=BBT1195298.1.2.0,bus2=RML1010067427.1.2.0,Phases=2,Linecode=CABBTG05_4_2,Length=0.020000000,Units=km
new line.RML10067430 bus1=BBT1195396.2.0,bus2=RML1010067430.2.0,Phases=1,Linecode=CABBTG02_4_1,Length=0.017000000,Units=km
new line.RML10067434 bus1=BBT5234543.1.0,bus2=RML1010067434.1.0,Phases=1,Linecode=CABBTG02_4_1,Length=0.017000000,Units=km
new line.RML10067436 bus1=BBT5234501.1.0,bus2=RML1010067436.1.0,Phases=1,Linecode=CABBTG02_4_1,Length=0.017000000,Units=km
new line.RML10067439 bus1=BBT5234956.1.0,bus2=RML1010067439.1.0,Phases=1,Linecode=CABBTG02_4_1,Length=0.017000000,Units=km
new line.RML10067441 bus1=BBT1215262.1.0,bus2=RML1010067441.1.0,Phases=1,Linecode=CABBTG02_4_1,Length=0.017000000,Units=km
new line.RML10067444 bus1=BBT1205196.1.2.0,bus2=RML1010067444.1.2.0,Phases=2,Linecode=CABBTG05_4_2,Length=0.017000000,Units=km
new line.RML10067447 bus1=BBT4811106.1.0,bus2=RML1010067447.1.0,Phases=1,Linecode=CABBTG02_4_1,Length=0.017000000,Units=km
new line.RML10067450 bus1=BBT5199529.1.0,bus2=RML1010067450.1.0,Phases=1,Linecode=CABBTG02_4_1,Length=0.017000000,Units=km
new line.RML10067451 bus1=BBT3264057.1.0,bus2=RML1010067451.1.0,Phases=1,Linecode=CABBTG02_4_1,Length=0.017000000,Units=km
new line.RML10067452 bus1=BBT3260123.1.0,bus2=RML1010067452.1.0,Phases=1,Linecode=CABBTG02_4_1,Length=0.017000000,Units=km
new line.RML10067457 bus1=BBT5235026.3.0,bus2=RML1010067457.3.0,Phases=1,Linecode=CABBTG02_4_1,Length=0.017000000,Units=km
new line.RML10067460 bus1=BBT5235117.2.0,bus2=RML1010067460.2.0,Phases=1,Linecode=CABBTG01_4_1,Length=0.014000000,Units=km
new line.RML10067461 bus1=BBT5235124.1.0,bus2=RML1010067461.1.0,Phases=1,Linecode=CABBTG02_4_1,Length=0.017000000,Units=km
new line.RML10067463 bus1=BBT5235145.1.0,bus2=RML1010067463.1.0,Phases=1,Linecode=CABBTG02_4_1,Length=0.017000000,Units=km
new line.RML10067467 bus1=BBT5232072.3.0,bus2=RML1010067467.3.0,Phases=1,Linecode=CABBTG02_4_1,Length=0.017000000,Units=km
new line.RML10067472 bus1=BBT3263833.3.0,bus2=RML1010067472.3.0,Phases=1,Linecode=CABBTG02_4_1,Length=0.017000000,Units=km
new line.RML10067473 bus1=BBT5232072.2.0,bus2=RML1010067473.2.0,Phases=1,Linecode=CABBTG02_4_1,Length=0.017000000,Units=km
new line.RML10067474 bus1=BBT5234298.2.0,bus2=RML1010067474.2.0,Phases=1,Linecode=CABBTG02_4_1,Length=0.017000000,Units=km
new line.RML10067484 bus1=BBT4810371.2.0,bus2=RML1010067484.2.0,Phases=1,Linecode=CABBTG02_4_1,Length=0.030000000,Units=km
new line.RML10067486 bus1=BBT5234270.1.0,bus2=RML1010067486.1.0,Phases=1,Linecode=CABBTG02_4_1,Length=0.017000000,Units=km
new line.RML10067487 bus1=BBT148358033.1.0,bus2=RML1010067487.1.0,Phases=1,Linecode=CABBTG02_4_1,Length=0.017000000,Units=km
new line.RML10067490 bus1=BBT138462279.1.0,bus2=RML1010067490.1.0,Phases=1,Linecode=CABBTG02_4_1,Length=0.017000000,Units=km
new line.RML10067491 bus1=BBT138462482.2.0,bus2=RML1010067491.2.0,Phases=1,Linecode=CABBTG02_4_1,Length=0.017000000,Units=km
new line.RML10082190 bus1=BBT1224978.1.2.0,bus2=RML1010082190.1.2.0,Phases=2,Linecode=CABBTG05_4_2,Length=0.017000000,Units=km
new line.RML10095167 bus1=BBT1207282.1.2.0,bus2=RML1010095167.1.2.0,Phases=2,Linecode=CABBTG04_4_2,Length=0.014000000,Units=km
new line.RML10095180 bus1=BBT5233661.2.0,bus2=RML1010095180.2.0,Phases=1,Linecode=CABBTG01_4_1,Length=0.015000000,Units=km
new line.RML10096703 bus1=BBT145407896.1.0,bus2=RML1010096703.1.0,Phases=1,Linecode=CABBTG01_4_1,Length=0.017000000,Units=km
new line.RML10110387 bus1=BBT143193131.1.0,bus2=RML1010110387.1.0,Phases=1,Linecode=CABBTG02_4_1,Length=0.017000000,Units=km
new line.RML10112028 bus1=BBT1188935.3.0,bus2=RML1010112028.3.0,Phases=1,Linecode=CABBTG01_4_1,Length=0.017000000,Units=km
new line.RML10112086 bus1=BBT1198518.3.0,bus2=RML1010112086.3.0,Phases=1,Linecode=CABBTG01_4_1,Length=0.017000000,Units=km
new line.RML10112232 bus1=BBT144962647.2.0,bus2=RML1010112232.2.0,Phases=1,Linecode=CABBTG02_4_1,Length=0.017000000,Units=km
new line.RML10126125 bus1=BBT149149447.1.0,bus2=RML1010126125.1.0,Phases=1,Linecode=CABBTG02_4_1,Length=0.017000000,Units=km
new line.RML10126133 bus1=BBT4807697.1.2.0,bus2=RML1010126133.1.2.0,Phases=2,Linecode=CABBTG05_4_2,Length=0.017000000,Units=km
new line.RML10126251 bus1=BBT5234991.1.0,bus2=RML1010126251.1.0,Phases=1,Linecode=CABBTG02_4_1,Length=0.017000000,Units=km
new line.RML10126265 bus1=BBT144972531.2.0,bus2=RML1010126265.2.0,Phases=1,Linecode=CABBTG02_4_1,Length=0.017000000,Units=km
new line.RML10126268 bus1=BBT144972531.2.0,bus2=RML1010126268.2.0,Phases=1,Linecode=CABBTG02_4_1,Length=0.017000000,Units=km
new line.RML10126297 bus1=BBT2178399.1.0,bus2=RML1010126297.1.0,Phases=1,Linecode=CABBTG02_4_1,Length=0.017000000,Units=km
new line.RML10126339 bus1=BBT5234389.1.2.0,bus2=RML1010126339.1.2.0,Phases=2,Linecode=CABBTG05_4_2,Length=0.017000000,Units=km
new line.RML10126460 bus1=BBT1199022.2.0,bus2=RML1010126460.2.0,Phases=1,Linecode=CABBTG02_4_1,Length=0.017000000,Units=km
new line.RML10126495 bus1=BBT1187486.2.0,bus2=RML1010126495.2.0,Phases=1,Linecode=CABBTG02_4_1,Length=0.017000000,Units=km
new line.RML10126501 bus1=BBT1187451.1.0,bus2=RML1010126501.1.0,Phases=1,Linecode=CABBTG02_4_1,Length=0.017000000,Units=km
new line.RML10126552 bus1=BBT5234347.2.0,bus2=RML1010126552.2.0,Phases=1,Linecode=CABBTG02_4_1,Length=0.017000000,Units=km
new line.RML10126569 bus1=BBT128799437.2.0,bus2=RML1010126569.2.0,Phases=1,Linecode=CABBTG02_4_1,Length=0.017000000,Units=km
new line.RML10126584 bus1=BBT5676572.1.0,bus2=RML1010126584.1.0,Phases=1,Linecode=CABBTG02_4_1,Length=0.017000000,Units=km
new line.RML10126598 bus1=BBT5234221.1.0,bus2=RML1010126598.1.0,Phases=1,Linecode=CABBTG02_4_1,Length=0.017000000,Units=km
new line.RML10126619 bus1=BBT147767974.1.0,bus2=RML1010126619.1.0,Phases=1,Linecode=CABBTG02_4_1,Length=0.017000000,Units=km
new line.RML10126623 bus1=BBT147767974.1.0,bus2=RML1010126623.1.0,Phases=1,Linecode=CABBTG02_4_1,Length=0.017000000,Units=km
new line.RML10126632 bus1=BBT147767974.1.0,bus2=RML1010126632.1.0,Phases=1,Linecode=CABBTG02_4_1,Length=0.017000000,Units=km
new line.RML10126733 bus1=BBT3260522.1.0,bus2=RML1010126733.1.0,Phases=1,Linecode=CABBTG02_4_1,Length=0.017000000,Units=km
new line.RML10126739 bus1=BBT1197027.1.2.3.0,bus2=RML1010126739.1.2.3.0,Phases=3,Linecode=CABBTG06_4_3,Length=0.017000000,Units=km
new line.RML10126752 bus1=BBT3258093.3.0,bus2=RML1010126752.3.0,Phases=1,Linecode=CABBTG02_4_1,Length=0.017000000,Units=km
new line.RML10126760 bus1=BBT3258086.2.0,bus2=RML1010126760.2.0,Phases=1,Linecode=CABBTG02_4_1,Length=0.017000000,Units=km
new line.RML10126768 bus1=BBT1177343.2.0,bus2=RML1010126768.2.0,Phases=1,Linecode=CABBTG02_4_1,Length=0.017000000,Units=km
new line.RML10126778 bus1=BBT1202550.3.0,bus2=RML1010126778.3.0,Phases=1,Linecode=CABBTG02_4_1,Length=0.017000000,Units=km
new line.RML10126813 bus1=BBT3260088.3.0,bus2=RML1010126813.3.0,Phases=1,Linecode=CABBTG02_4_1,Length=0.017000000,Units=km
new line.RML10126858 bus1=BBT1203831.1.0,bus2=RML1010126858.1.0,Phases=1,Linecode=CABBTG02_4_1,Length=0.017000000,Units=km
new line.RML10126885 bus1=BBT3260263.1.0,bus2=RML1010126885.1.0,Phases=1,Linecode=CABBTG02_4_1,Length=0.017000000,Units=km
new line.RML10126927 bus1=BBT1088961.2.3.0,bus2=RML1010126927.2.3.0,Phases=2,Linecode=CABBTG05_4_2,Length=0.017000000,Units=km
new line.RML10126932 bus1=BBT1202655.1.0,bus2=RML1010126932.1.0,Phases=1,Linecode=CABBTG02_4_1,Length=0.017000000,Units=km
new line.RML10126975 bus1=BBT1201899.3.0,bus2=RML1010126975.3.0,Phases=1,Linecode=CABBTG02_4_1,Length=0.017000000,Units=km
new line.RML10127001 bus1=BBT1207891.3.0,bus2=RML1010127001.3.0,Phases=1,Linecode=CABBTG01_4_1,Length=0.017000000,Units=km
new line.RML10127011 bus1=BBT1207499.2.0,bus2=RML1010127011.2.0,Phases=1,Linecode=CABBTG02_4_1,Length=0.017000000,Units=km
new line.RML10127026 bus1=BBT165320701.1.2.0,bus2=RML1010127026.1.2.0,Phases=2,Linecode=CABBTG05_4_2,Length=0.017000000,Units=km
new line.RML10127035 bus1=BBT146951046.2.0,bus2=RML1010127035.2.0,Phases=1,Linecode=CABBTG02_4_1,Length=0.017000000,Units=km
new line.RML10067512 bus1=BBT5200439.2.0,bus2=RML1010067512.2.0,Phases=1,Linecode=CABBTG02_4_1,Length=0.017000000,Units=km
new line.RML10067516 bus1=BBT3258086.1.0,bus2=RML1010067516.1.0,Phases=1,Linecode=CABBTG01_4_1,Length=0.017000000,Units=km
new line.RML10067517 bus1=BBT5234207.1.0,bus2=RML1010067517.1.0,Phases=1,Linecode=CABBTG01_4_1,Length=0.017000000,Units=km
new line.RML10067519 bus1=BBT5234207.2.0,bus2=RML1010067519.2.0,Phases=1,Linecode=CABBTG01_4_1,Length=0.017000000,Units=km
new line.RML10067520 bus1=BBT1194206.2.0,bus2=RML1010067520.2.0,Phases=1,Linecode=CABBTG01_4_1,Length=0.017000000,Units=km
new line.RML10067521 bus1=BBT5233094.2.0,bus2=RML1010067521.2.0,Phases=1,Linecode=CABBTG01_4_1,Length=0.017000000,Units=km
new line.RML10067523 bus1=BBT1177392.1.0,bus2=RML1010067523.1.0,Phases=1,Linecode=CABBTG01_4_1,Length=0.017000000,Units=km
new line.RML10067525 bus1=BBT5621979.2.0,bus2=RML1010067525.2.0,Phases=1,Linecode=CABBTG01_4_1,Length=0.017000000,Units=km
new line.RML10067526 bus1=BBT3258079.2.0,bus2=RML1010067526.2.0,Phases=1,Linecode=CABBTG01_4_1,Length=0.017000000,Units=km
new line.RML10067528 bus1=BBT3258072.2.0,bus2=RML1010067528.2.0,Phases=1,Linecode=CABBTG01_4_1,Length=0.017000000,Units=km
new line.RML10067529 bus1=BBT5234214.1.0,bus2=RML1010067529.1.0,Phases=1,Linecode=CABBTG01_4_1,Length=0.017000000,Units=km
new line.RML10067531 bus1=BBT3262510.3.0,bus2=RML1010067531.3.0,Phases=1,Linecode=CABBTG01_4_1,Length=0.017000000,Units=km
new line.RML10067532 bus1=BBT4811148.1.2.0,bus2=RML1010067532.1.2.0,Phases=2,Linecode=CABBTG04_4_2,Length=0.017000000,Units=km
new line.RML10067534 bus1=BBT1187234.1.0,bus2=RML1010067534.1.0,Phases=1,Linecode=CABBTG01_4_1,Length=0.017000000,Units=km
new line.RML10067535 bus1=BBT5234389.1.0,bus2=RML1010067535.1.0,Phases=1,Linecode=CABBTG01_4_1,Length=0.017000000,Units=km
new line.RML10067588 bus1=BBT1108127.2.0,bus2=RML1010067588.2.0,Phases=1,Linecode=CABBTG01_4_1,Length=0.017000000,Units=km
new line.RML10067589 bus1=BBT5012986.1.0,bus2=RML1010067589.1.0,Phases=1,Linecode=CABBTG01_4_1,Length=0.017000000,Units=km
new line.RML10067608 bus1=BBT108238701.1.0,bus2=RML1010067608.1.0,Phases=1,Linecode=CABBTG01_4_1,Length=0.017000000,Units=km
new line.RML10067611 bus1=BBT1153928.1.0,bus2=RML1010067611.1.0,Phases=1,Linecode=CABBTG01_4_1,Length=0.017000000,Units=km
new line.RML10067616 bus1=BBT3090527.1.0,bus2=RML1010067616.1.0,Phases=1,Linecode=CABBTG01_4_1,Length=0.017000000,Units=km
new line.RML10067618 bus1=BBT2332378.1.0,bus2=RML1010067618.1.0,Phases=1,Linecode=CABBTG01_4_1,Length=0.017000000,Units=km
new line.RML10067621 bus1=BBT2907652.1.2.0,bus2=RML1010067621.1.2.0,Phases=2,Linecode=CABBTG04_4_2,Length=0.017000000,Units=km
new line.RML10067649 bus1=BBT137665819.1.2.0,bus2=RML1010067649.1.2.0,Phases=2,Linecode=CABBTG05_4_2,Length=0.017000000,Units=km
new line.RML10067651 bus1=BBT1216347.1.0,bus2=RML1010067651.1.0,Phases=1,Linecode=CABBTG02_4_1,Length=0.017000000,Units=km
new line.RML10068478 bus1=BBT149006907.1.2.0,bus2=RML1010068478.1.2.0,Phases=2,Linecode=CABBTG05_4_2,Length=0.017000000,Units=km
new line.RML10070595 bus1=BBT149052759.1.2.0,bus2=RML1010070595.1.2.0,Phases=2,Linecode=CABBTG05_4_2,Length=0.017000000,Units=km
new line.RML10083644 bus1=BBT149281683.1.2.0,bus2=RML1010083644.1.2.0,Phases=2,Linecode=CABBTG05_4_2,Length=0.017000000,Units=km
new line.RML10083901 bus1=BBT1152430.2.3.0,bus2=RML1010083901.2.3.0,Phases=2,Linecode=CABBTG05_4_2,Length=0.017000000,Units=km
new line.RML10083914 bus1=BBT1088933.1.0,bus2=RML1010083914.1.0,Phases=1,Linecode=CABBTG01_4_1,Length=0.017000000,Units=km
new line.RML10083944 bus1=BBT143193103.3.0,bus2=RML1010083944.3.0,Phases=1,Linecode=CABBTG01_4_1,Length=0.017000000,Units=km
new line.RML10084149 bus1=BBT3260011.2.0,bus2=RML1010084149.2.0,Phases=1,Linecode=CABBTG02_4_1,Length=0.017000000,Units=km
new line.RML10084151 bus1=BBT146811046.1.0,bus2=RML1010084151.1.0,Phases=1,Linecode=CABBTG02_4_1,Length=0.017000000,Units=km
new line.RML10084463 bus1=BBT64952017.1.0,bus2=RML1010084463.1.0,Phases=1,Linecode=CABBTG02_4_1,Length=0.017000000,Units=km
new line.RML10116313 bus1=BBT169891944.1.2.3.0,bus2=RML1010116313.1.2.3.0,Phases=3,Linecode=CABBTG08_4_3,Length=0.017000000,Units=km
new line.RML10131267 bus1=BBT5407352.2.0,bus2=RML1010131267.2.0,Phases=1,Linecode=CABBTG02_4_1,Length=0.017000000,Units=km
new line.RML10131289 bus1=BBT3260368.1.0,bus2=RML1010131289.1.0,Phases=1,Linecode=CABBTG01_4_1,Length=0.017000000,Units=km
new line.RML10131628 bus1=BBT4811274.1.2.0,bus2=RML1010131628.1.2.0,Phases=2,Linecode=CABBTG05_4_2,Length=0.017000000,Units=km
new line.RML10131654 bus1=BBT1206757.1.2.0,bus2=RML1010131654.1.2.0,Phases=2,Linecode=CABBTG05_4_2,Length=0.017000000,Units=km
new line.RML10132252 bus1=BBT2782058.2.0,bus2=RML1010132252.2.0,Phases=1,Linecode=CABBTG02_4_1,Length=0.017000000,Units=km
new line.RML10148271 bus1=BBT2782170.1.0,bus2=RML1010148271.1.0,Phases=1,Linecode=CABBTG02_4_1,Length=0.017000000,Units=km
new line.RML10148871 bus1=BBT2363129.2.0,bus2=RML1010148871.2.0,Phases=1,Linecode=CABBTG02_4_1,Length=0.017000000,Units=km
new line.RML10148872 bus1=BBT1201150.2.0,bus2=RML1010148872.2.0,Phases=1,Linecode=CABBTG02_4_1,Length=0.017000000,Units=km
new line.RML10164663 bus1=BBT1177301.1.0,bus2=RML1010164663.1.0,Phases=1,Linecode=CABBTG01_4_1,Length=0.017000000,Units=km
new line.RML10164671 bus1=BBT1193751.1.2.0,bus2=RML1010164671.1.2.0,Phases=2,Linecode=CABBTG05_4_2,Length=0.017000000,Units=km
new line.RML10164675 bus1=BBT5697068.1.0,bus2=RML1010164675.1.0,Phases=1,Linecode=CABBTG02_4_1,Length=0.017000000,Units=km
new line.RML10177105 bus1=BBT1108099.1.0,bus2=RML1010177105.1.0,Phases=1,Linecode=CABBTG01_4_1,Length=0.017000000,Units=km
new line.RML10177112 bus1=BBT1150134.2.3.0,bus2=RML1010177112.2.3.0,Phases=2,Linecode=CABBTG05_4_2,Length=0.017000000,Units=km
new line.RML10177113 bus1=BBT1149357.2.3.0,bus2=RML1010177113.2.3.0,Phases=2,Linecode=CABBTG05_4_2,Length=0.017000000,Units=km
new line.RML10177119 bus1=BBT1149427.1.2.0,bus2=RML1010177119.1.2.0,Phases=2,Linecode=CABBTG05_4_2,Length=0.017000000,Units=km
new line.RML10177123 bus1=BBT2332539.1.0,bus2=RML1010177123.1.0,Phases=1,Linecode=CABBTG02_4_1,Length=0.017000000,Units=km
new line.RML10177124 bus1=BBT2332539.1.0,bus2=RML1010177124.1.0,Phases=1,Linecode=CABBTG02_4_1,Length=0.017000000,Units=km
new line.RML10178502 bus1=BBT24121439.1.0,bus2=RML1010178502.1.0,Phases=1,Linecode=CABBTG02_4_1,Length=0.012000000,Units=km
new line.RML10178824 bus1=BBT149858247.1.2.0,bus2=RML1010178824.1.2.0,Phases=2,Linecode=CABBTG05_4_2,Length=0.017000000,Units=km
new line.RML10178829 bus1=BBT5234998.1.0,bus2=RML1010178829.1.0,Phases=1,Linecode=CABBTG02_4_1,Length=0.017000000,Units=km
new line.RML10178834 bus1=BBT1104879.1.2.0,bus2=RML1010178834.1.2.0,Phases=2,Linecode=CABBTG05_4_2,Length=0.017000000,Units=km
new line.RML10178838 bus1=BBT3404764.2.0,bus2=RML1010178838.2.0,Phases=1,Linecode=CABBTG02_4_1,Length=0.017000000,Units=km
new line.RML10178858 bus1=BBT141529140.1.0,bus2=RML1010178858.1.0,Phases=1,Linecode=CABBTG02_4_1,Length=0.017000000,Units=km
new line.RML10033431 bus1=BBT54525468.1.2.0,bus2=RML1010033431.1.2.0,Phases=2,Linecode=CABBTG05_4_2,Length=0.017000000,Units=km
new line.RML10033433 bus1=BBT1214758.1.0,bus2=RML1010033433.1.0,Phases=1,Linecode=CABBTG01_4_1,Length=0.017000000,Units=km
new line.RML10033437 bus1=BBT135594393.1.0,bus2=RML1010033437.1.0,Phases=1,Linecode=CABBTG02_4_1,Length=0.017000000,Units=km
new line.RML10033438 bus1=BBT146945747.2.0,bus2=RML1010033438.2.0,Phases=1,Linecode=CABBTG01_4_1,Length=0.017000000,Units=km
new line.RML10033440 bus1=BBT3262755.1.2.0,bus2=RML1010033440.1.2.0,Phases=2,Linecode=CABBTG05_4_2,Length=0.017000000,Units=km
new line.RML10033441 bus1=BBT146945747.2.0,bus2=RML1010033441.2.0,Phases=1,Linecode=CABBTG02_4_1,Length=0.017000000,Units=km
new line.RML10033442 bus1=BBT146945747.2.0,bus2=RML1010033442.2.0,Phases=1,Linecode=CABBTG02_4_1,Length=0.017000000,Units=km
new line.RML10033463 bus1=BBT19384721.2.0,bus2=RML1010033463.2.0,Phases=1,Linecode=CABBTG01_4_1,Length=0.017000000,Units=km
new line.RML10033467 bus1=BBT2782065.2.0,bus2=RML1010033467.2.0,Phases=1,Linecode=CABBTG02_4_1,Length=0.017000000,Units=km
new line.RML10035645 bus1=BBT148110579.1.2.0,bus2=RML1010035645.1.2.0,Phases=2,Linecode=CABBTG05_4_2,Length=0.017000000,Units=km
new line.RML10036147 bus1=BBT148125395.1.2.0,bus2=RML1010036147.1.2.0,Phases=2,Linecode=CABBTG05_4_2,Length=0.017000000,Units=km