new load.3009011177M1 bus1=BMT170321527.1.2.3,Phases=3,kv=13.8,kW=3.39718,pf=0.92,Vminpu=0.93,Vmaxpu=1.5,model=1,daily=A4-3,status=variable
new load.3009016208M1 bus1=BMT120644556.1.2.3,Phases=3,kv=13.8,kW=25.2342,pf=0.92,Vminpu=0.93,Vmaxpu=1.5,model=1,daily=A4-6,status=variable
new load.3009016817M1 bus1=BMT120644500.1.2.3,Phases=3,kv=13.8,kW=95.73948,pf=0.92,Vminpu=0.93,Vmaxpu=1.5,model=1,daily=A4-6,status=variable
new load.3009016818M1 bus1=BMT150565216.1.2.3,Phases=3,kv=13.8,kW=684.70392,pf=0.92,Vminpu=0.93,Vmaxpu=1.5,model=1,daily=A4-7,status=variable
new load.3009017450M1 bus1=BMT150564977.1.2.3,Phases=3,kv=13.8,kW=0.85192,pf=0.92,Vminpu=0.93,Vmaxpu=1.5,model=1,daily=A4-1,status=variable
new load.3009017488M1 bus1=BMT150565223.1.2.3,Phases=3,kv=13.8,kW=46.37144,pf=0.92,Vminpu=0.93,Vmaxpu=1.5,model=1,daily=A4-3,status=variable
new load.3009017874M1 bus1=BMT150565231.1.2.3,Phases=3,kv=13.8,kW=19.19404,pf=0.92,Vminpu=0.93,Vmaxpu=1.5,model=1,daily=A4-3,status=variable
new load.3010468250M1 bus1=BMT170323470.1.2.3,Phases=3,kv=13.8,kW=8.49294,pf=0.92,Vminpu=0.93,Vmaxpu=1.5,model=1,daily=A4-3,status=variable
new load.3010559384M1 bus1=BMT170321529.1.2.3,Phases=3,kv=13.8,kW=0.7564,pf=0.92,Vminpu=0.93,Vmaxpu=1.5,model=1,daily=A4-5,status=variable
new load.3010792708M1 bus1=BMT170322754.1.2.3,Phases=3,kv=13.8,kW=33.48982,pf=0.92,Vminpu=0.93,Vmaxpu=1.5,model=1,daily=A4-6,status=variable
new load.3011102486M1 bus1=BMT170324142.1.2.3,Phases=3,kv=13.8,kW=0.54486,pf=0.92,Vminpu=0.93,Vmaxpu=1.5,model=1,daily=A4-2,status=variable
new load.3011171319M1 bus1=BMT150343925.1.2.3,Phases=3,kv=13.8,kW=284.559,pf=0.92,Vminpu=0.93,Vmaxpu=1.5,model=1,daily=A4-6,status=variable
new load.3011287513M1 bus1=BMT150565261.1.2.3,Phases=3,kv=13.8,kW=18.93924,pf=0.92,Vminpu=0.93,Vmaxpu=1.5,model=1,daily=A4-3,status=variable
new load.3011474931M1 bus1=BMT170319501.1.2.3,Phases=3,kv=13.8,kW=84.63442,pf=0.92,Vminpu=0.93,Vmaxpu=1.5,model=1,daily=A4-2,status=variable
new load.3011871039M1 bus1=BMT166953076.1.2.3,Phases=3,kv=13.8,kW=770.58604,pf=0.92,Vminpu=0.93,Vmaxpu=1.5,model=1,daily=A4-7,status=variable
new load.3011891807M1 bus1=BMT170322752.1.2.3,Phases=3,kv=13.8,kW=39.09742,pf=0.92,Vminpu=0.93,Vmaxpu=1.5,model=1,daily=A4-6,status=variable
new load.3011983806M1 bus1=BMT174165315.1.2.3,Phases=3,kv=13.8,kW=5.88234,pf=0.92,Vminpu=0.93,Vmaxpu=1.5,model=1,daily=A4-7,status=variable
new load.3012166600M1 bus1=BMT170321471.1.2.3,Phases=3,kv=13.8,kW=165.54952,pf=0.92,Vminpu=0.93,Vmaxpu=1.5,model=1,daily=A4-6,status=variable
new load.3012588297M1 bus1=BMT170323339.1.2.3,Phases=3,kv=13.8,kW=361.17544,pf=0.92,Vminpu=0.93,Vmaxpu=1.5,model=1,daily=A4-7,status=variable
new load.3012617020M1 bus1=BMT151811444.1.2.3,Phases=3,kv=13.8,kW=478.82216,pf=0.92,Vminpu=0.93,Vmaxpu=1.5,model=1,daily=A4-7,status=variable
new load.3012688225M1 bus1=BMT170321533.1.2.3,Phases=3,kv=13.8,kW=0.7564,pf=0.92,Vminpu=0.93,Vmaxpu=1.5,model=1,daily=A4-5,status=variable
new load.3012688274M1 bus1=BMT170322721.1.2.3,Phases=3,kv=13.8,kW=1.46164,pf=0.92,Vminpu=0.93,Vmaxpu=1.5,model=1,daily=A4-4,status=variable
new load.3012840392M1 bus1=BMT170912744.1.2.3,Phases=3,kv=13.8,kW=26.30934,pf=0.92,Vminpu=0.93,Vmaxpu=1.5,model=1,daily=A4-4,status=variable
new load.3012961974M1 bus1=BMT170324146.1.2.3,Phases=3,kv=13.8,kW=7.08314,pf=0.92,Vminpu=0.93,Vmaxpu=1.5,model=1,daily=A4-2,status=variable
new load.3012991893M1 bus1=BMT170593092.1.2.3,Phases=3,kv=13.8,kW=242.67298,pf=0.92,Vminpu=0.93,Vmaxpu=1.5,model=1,daily=A4-6,status=variable
new load.3013250032M1 bus1=BMT170324122.1.2.3,Phases=3,kv=13.8,kW=211.42468,pf=0.92,Vminpu=0.93,Vmaxpu=1.5,model=1,daily=A4-6,status=variable
