new line.TR12115006 bus1=BMT170322056.2,bus2=BMT8708001B.2,Phases=1,Linecode=CAB202_3_1,Length=0.034012000,Units=km
new line.TR12115007 bus1=BMT8708001B.2,bus2=BMT8708002B.2,Phases=1,Linecode=CAB202_3_1,Length=0.149988000,Units=km
new line.TR12115008 bus1=BMT8708002B.2,bus2=BMT8708003B.2,Phases=1,Linecode=CAB202_3_1,Length=0.134998000,Units=km
new line.TR12115009 bus1=BMT8708003B.2,bus2=BMT170322057.2,Phases=1,Linecode=CAB202_3_1,Length=0.109381000,Units=km
new line.TR12115010 bus1=BMT170322057.2,bus2=BMT8708005B.2,Phases=1,Linecode=CAB202_3_1,Length=0.109381000,Units=km
new line.TR12115011 bus1=BMT8708005B.2,bus2=BMT8708007B.2,Phases=1,Linecode=CAB202_3_1,Length=0.080159000,Units=km
new line.TR12115012 bus1=BMT8708007B.2,bus2=BMT8708009B.2,Phases=1,Linecode=CAB202_3_1,Length=0.109696000,Units=km
new line.TR12115013 bus1=BMT8708009B.2,bus2=BMT8708014B.2,Phases=1,Linecode=CAB202_3_1,Length=0.126285000,Units=km
new line.TR12115014 bus1=BMT8708014B.2,bus2=BMT8708015B.2,Phases=1,Linecode=CAB202_3_1,Length=0.124083000,Units=km
new line.TR12115018 bus1=BMT170322057.2,bus2=BMT170322059.2,Phases=1,Linecode=CAB103_3_1,Length=0.010004000,Units=km
new line.TR12115838 bus1=BMT2985366B.1.2.3,bus2=BMT162333124.1.2.3,Phases=3,Linecode=CABA08_3_3,Length=0.024522000,Units=km
new line.TR12115839 bus1=BMT162333124.1.2.3,bus2=BMT176397171.1.2.3,Phases=3,Linecode=CABA08_3_3,Length=0.029841000,Units=km
new line.TR12115840 bus1=BMT176397336.1.2.3,bus2=BMT162332325.1.2.3,Phases=3,Linecode=CABA08_3_3,Length=0.023416000,Units=km
new line.TR12116673 bus1=BMT170322279.1,bus2=BMT2391934B.1,Phases=1,Linecode=CABA06_3_1,Length=0.043122000,Units=km
new line.TR12116674 bus1=BMT2391934B.1,bus2=BMT2391983B.1,Phases=1,Linecode=CABA06_3_1,Length=0.034073000,Units=km
new line.TR12116675 bus1=BMT2391983B.1,bus2=BMT2392004B.1,Phases=1,Linecode=CABA06_3_1,Length=0.042017000,Units=km
new line.TR12117343 bus1=BMT5283186B.2,bus2=BMT170322654.2,Phases=1,Linecode=CAB202_3_1,Length=0.124470000,Units=km
new line.TR12117344 bus1=BMT5283200B.2,bus2=BMT170322654.2,Phases=1,Linecode=CAB202_3_1,Length=0.035706000,Units=km
new line.TR12117357 bus1=BMT170322657.2,bus2=BMT8710037B.2,Phases=1,Linecode=CAB202_3_1,Length=0.138360000,Units=km
new line.TR12117358 bus1=BMT8710037B.2,bus2=BMT8710038B.2,Phases=1,Linecode=CAB202_3_1,Length=0.166061000,Units=km
new line.TR12117359 bus1=BMT8710038B.2,bus2=BMT8710039B.2,Phases=1,Linecode=CAB202_3_1,Length=0.254681000,Units=km
new line.TR12117360 bus1=BMT8710039B.2,bus2=BMT8710041B.2,Phases=1,Linecode=CAB202_3_1,Length=0.262276000,Units=km
new line.TR12117361 bus1=BMT8710041B.2,bus2=BMT170322658.2,Phases=1,Linecode=CAB202_3_1,Length=0.116943000,Units=km
new line.TR12126649 bus1=BMT8719690B.2,bus2=BMT8719691B.2,Phases=1,Linecode=CAB202_3_1,Length=0.167159000,Units=km
new line.TR12126650 bus1=BMT8719691B.2,bus2=BMT8719692B.2,Phases=1,Linecode=CAB202_3_1,Length=0.079789000,Units=km
new line.TR12126651 bus1=BMT8719692B.2,bus2=BMT8719694B.2,Phases=1,Linecode=CAB202_3_1,Length=0.176351000,Units=km
new line.TR12126652 bus1=BMT8719694B.2,bus2=BMT8719695B.2,Phases=1,Linecode=CAB202_3_1,Length=0.187380000,Units=km
new line.TR12126653 bus1=BMT8719695B.2,bus2=BMT8719698B.2,Phases=1,Linecode=CAB202_3_1,Length=0.170026000,Units=km
new line.TR12126654 bus1=BMT8719698B.2,bus2=BMT8719700B.2,Phases=1,Linecode=CAB202_3_1,Length=0.181290000,Units=km
new line.TR12126655 bus1=BMT8719700B.2,bus2=BMT8719702B.2,Phases=1,Linecode=CAB202_3_1,Length=0.143741000,Units=km
new line.TR12126656 bus1=BMT8719702B.2,bus2=BMT8719703B.2,Phases=1,Linecode=CAB202_3_1,Length=0.179373000,Units=km
new line.TR12126657 bus1=BMT8719703B.2,bus2=BMT8719704B.2,Phases=1,Linecode=CAB202_3_1,Length=0.097712000,Units=km
new line.TR12126658 bus1=BMT8719704B.2,bus2=BMT8719705B.2,Phases=1,Linecode=CAB202_3_1,Length=0.118875000,Units=km
new line.TR12126659 bus1=BMT8719705B.2,bus2=BMT8719706B.2,Phases=1,Linecode=CAB202_3_1,Length=0.066495000,Units=km
new line.TR12126660 bus1=BMT8719706B.2,bus2=BMT8719707B.2,Phases=1,Linecode=CAB202_3_1,Length=0.131084000,Units=km
new line.TR12126661 bus1=BMT8719707B.2,bus2=BMT8719708B.2,Phases=1,Linecode=CAB202_3_1,Length=0.164212000,Units=km
new line.TR12126662 bus1=BMT8719708B.2,bus2=BMT8719709B.2,Phases=1,Linecode=CAB202_3_1,Length=0.118404000,Units=km
new line.TR12126663 bus1=BMT8719709B.2,bus2=BMT170322549.2,Phases=1,Linecode=CAB202_3_1,Length=0.128598000,Units=km
new line.TR12126664 bus1=BMT170322549.2,bus2=BMT170322550.2,Phases=1,Linecode=CAB202_3_1,Length=0.109677000,Units=km
new line.TR12126665 bus1=BMT170322550.2,bus2=BMT8719718B.2,Phases=1,Linecode=CAB202_3_1,Length=0.065790000,Units=km
new line.TR12126666 bus1=BMT8719718B.2,bus2=BMT170322552.2,Phases=1,Linecode=CAB202_3_1,Length=0.155681000,Units=km
new line.TR12126843 bus1=BMT170322554.2,bus2=BMT8719925B.2,Phases=1,Linecode=CAB202_3_1,Length=0.139537000,Units=km
new line.TR12126862 bus1=BMT8719925B.2,bus2=BMT8719928B.2,Phases=1,Linecode=CAB202_3_1,Length=0.239339000,Units=km
new line.TR12126863 bus1=BMT8719928B.2,bus2=BMT8719931B.2,Phases=1,Linecode=CAB202_3_1,Length=0.250282000,Units=km
new line.TR12126864 bus1=BMT8719931B.2,bus2=BMT8719932B.2,Phases=1,Linecode=CAB202_3_1,Length=0.094637000,Units=km
new line.TR12126865 bus1=BMT8719932B.2,bus2=BMT8719935B.2,Phases=1,Linecode=CAB202_3_1,Length=0.210329000,Units=km
new line.TR12126866 bus1=BMT8719935B.2,bus2=BMT8719937B.2,Phases=1,Linecode=CAB202_3_1,Length=0.241865000,Units=km
new line.TR12126867 bus1=BMT8719937B.2,bus2=BMT8719939B.2,Phases=1,Linecode=CAB202_3_1,Length=0.171480000,Units=km
new line.TR12126868 bus1=BMT8719939B.2,bus2=BMT170322555.2,Phases=1,Linecode=CAB202_3_1,Length=0.270998000,Units=km
new line.TR12126869 bus1=BMT170322555.2,bus2=BMT170322556.2,Phases=1,Linecode=CAB202_3_1,Length=0.197388000,Units=km
new line.TR12126890 bus1=BMT170322549.2,bus2=BMT8720035B.2,Phases=1,Linecode=CAB103_3_1,Length=0.099339000,Units=km
new line.TR12126891 bus1=BMT8720035B.2,bus2=BMT170322551.2,Phases=1,Linecode=CAB103_3_1,Length=0.081918000,Units=km
new line.TR12126912 bus1=BMT170322550.2,bus2=BMT170322553.2,Phases=1,Linecode=CAB103_3_1,Length=0.048040000,Units=km
new line.TR12134716 bus1=BMT8728410B.1,bus2=BMT8728411B.1,Phases=1,Linecode=CAB202_3_1,Length=0.115993000,Units=km
new line.TR12134717 bus1=BMT8728411B.1,bus2=BMT8728412B.1,Phases=1,Linecode=CAB202_3_1,Length=0.148725000,Units=km
new line.TR12134718 bus1=BMT8728412B.1,bus2=BMT8728413B.1,Phases=1,Linecode=CAB202_3_1,Length=0.098498000,Units=km
new line.TR12134719 bus1=BMT8728413B.1,bus2=BMT8728415B.1,Phases=1,Linecode=CAB202_3_1,Length=0.202112000,Units=km
new line.TR12134720 bus1=BMT8728415B.1,bus2=BMT8728417B.1,Phases=1,Linecode=CAB202_3_1,Length=0.144048000,Units=km
new line.TR12134721 bus1=BMT8728417B.1,bus2=BMT8728419B.1,Phases=1,Linecode=CAB202_3_1,Length=0.118110000,Units=km
new line.TR12134722 bus1=BMT8728419B.1,bus2=BMT8728420B.1,Phases=1,Linecode=CAB202_3_1,Length=0.174557000,Units=km
new line.TR12134723 bus1=BMT8728420B.1,bus2=BMT170322426.1,Phases=1,Linecode=CAB202_3_1,Length=0.069231000,Units=km
new line.TR12134724 bus1=BMT170322426.1,bus2=BMT170322427.1,Phases=1,Linecode=CAB103_3_1,Length=0.056872000,Units=km
new line.TR12139456 bus1=BMT175773949.1,bus2=BMT8733427B.1,Phases=1,Linecode=CABA06_3_1,Length=0.040517000,Units=km
new line.TR12139457 bus1=BMT8733427B.1,bus2=BMT8733432B.1,Phases=1,Linecode=CABA06_3_1,Length=0.030691000,Units=km
new line.TR12139458 bus1=BMT8733432B.1,bus2=BMT8733436B.1,Phases=1,Linecode=CABA06_3_1,Length=0.022816000,Units=km
new line.TR12143228 bus1=BMT170321938.2,bus2=BMT8737901B.2,Phases=1,Linecode=CAB202_3_1,Length=0.082516000,Units=km
new line.TR12143246 bus1=BMT8737901B.2,bus2=BMT170321940.2,Phases=1,Linecode=CAB202_3_1,Length=0.196436000,Units=km
new line.TR1215038 bus1=BMT170321611.1.2.3,bus2=BMT3291847B.1.2.3,Phases=3,Linecode=CAB202_3_3,Length=0.139020000,Units=km
new line.TR1215080 bus1=BMT170321730.1,bus2=BMT170321732.1,Phases=1,Linecode=CAB203_3_1,Length=0.307393000,Units=km
new line.TR1215087 bus1=BMT170321730.1,bus2=BMT170321733.1,Phases=1,Linecode=CAB202_3_1,Length=0.197915000,Units=km
new line.TR1215094 bus1=BMT170321732.1,bus2=BMT1891336B.1,Phases=1,Linecode=CAB203_3_1,Length=0.120779000,Units=km
new line.TR1215101 bus1=BMT170321732.1,bus2=BMT170321735.1,Phases=1,Linecode=CAB202_3_1,Length=0.122535000,Units=km
new line.TR1215108 bus1=BMT1891336B.1,bus2=BMT170321734.1,Phases=1,Linecode=CAB203_3_1,Length=0.077278000,Units=km
new line.TR12117999 bus1=BMT8710655B.1.2.3,bus2=BMT170321468.1.2.3,Phases=3,Linecode=CAB203_3_3,Length=0.015269000,Units=km
new line.TR12117998 bus1=BMT170321467.1.2.3,bus2=BMT8710655B.1.2.3,Phases=3,Linecode=CAB203_3_3,Length=0.326974000,Units=km
new line.TR1215143 bus1=BMT170321747.1,bus2=BMT170321751.1,Phases=1,Linecode=CAB103_3_1,Length=0.048843000,Units=km
new line.TR1215150 bus1=BMT170321747.1,bus2=BMT170321752.1,Phases=1,Linecode=CAB203_3_1,Length=0.115784000,Units=km
new line.TR1215171 bus1=BMT170321722.3,bus2=BMT3127711B.3,Phases=1,Linecode=CAB202_3_1,Length=0.095556000,Units=km
new line.TR1215185 bus1=BMT170321711.3,bus2=BMT170321713.3,Phases=1,Linecode=CAB103_3_1,Length=0.053431000,Units=km
new line.TR12117997 bus1=BMT176724630.1.2.3,bus2=BMT170321442.1.2.3,Phases=3,Linecode=CAB103_3_3,Length=0.020815000,Units=km
new line.TR12115656 bus1=BMT2238795B.1.2.3,bus2=BMT170319345.1.2.3,Phases=3,Linecode=CABA06_3_3,Length=0.029743000,Units=km
new line.TR12115655 bus1=BMT2238788B.1.2.3,bus2=BMT2238795B.1.2.3,Phases=3,Linecode=CABA06_3_3,Length=0.037350000,Units=km
new line.TR12115654 bus1=BMT2238781B.1.2.3,bus2=BMT2238788B.1.2.3,Phases=3,Linecode=CABA06_3_3,Length=0.035749000,Units=km
new line.TR12115653 bus1=BMT2238774B.1.2.3,bus2=BMT2238781B.1.2.3,Phases=3,Linecode=CABA06_3_3,Length=0.028472000,Units=km
new line.TR1215276 bus1=BMT170321663.2,bus2=BMT170321664.2,Phases=1,Linecode=CAB202_3_1,Length=0.086343000,Units=km
new line.TR1215290 bus1=BMT1891476B.2,bus2=BMT170321666.2,Phases=1,Linecode=CAB203_3_1,Length=0.104482000,Units=km
new line.TR12115652 bus1=BMT895488B.1.2.3,bus2=BMT2238774B.1.2.3,Phases=3,Linecode=CABA06_3_3,Length=0.036410000,Units=km
new line.TR12115651 bus1=BMT170319343.1.2.3,bus2=BMT895488B.1.2.3,Phases=3,Linecode=CABA06_3_3,Length=0.033535000,Units=km
new line.TR12113872 bus1=BMT170320665.2,bus2=BMT170320666.2,Phases=1,Linecode=CAB202_3_1,Length=0.089838000,Units=km
new line.TR1215430 bus1=BMT170321879.3,bus2=BMT170321880.3,Phases=1,Linecode=CAB202_3_1,Length=0.147323000,Units=km
new line.TR1215437 bus1=BMT170321865.3,bus2=BMT170321866.3,Phases=1,Linecode=CAB202_3_1,Length=0.112989000,Units=km
new line.TR12113871 bus1=BMT8706648B.2,bus2=BMT170320665.2,Phases=1,Linecode=CAB202_3_1,Length=0.070736000,Units=km
new line.TR12113870 bus1=BMT8706647B.2,bus2=BMT8706648B.2,Phases=1,Linecode=CAB202_3_1,Length=0.091252000,Units=km
new line.TR12113869 bus1=BMT8706646B.2,bus2=BMT8706647B.2,Phases=1,Linecode=CAB202_3_1,Length=0.158865000,Units=km
new line.TR12113868 bus1=BMT170320664.2,bus2=BMT8706646B.2,Phases=1,Linecode=CAB202_3_1,Length=0.096372000,Units=km
new line.TR12112239 bus1=BMT170323357.1.2.3,bus2=BMT170323360.1.2.3,Phases=3,Linecode=CAB103_3_3,Length=0.040012000,Units=km
new line.TR12111264 bus1=BMT170323354.1.2.3,bus2=BMT170323358.1.2.3,Phases=3,Linecode=CAB202_3_3,Length=0.140842000,Units=km
new line.TR12110924 bus1=BMT170319431.1.2.3,bus2=BMT170319434.1.2.3,Phases=3,Linecode=CABA06_3_3,Length=0.040173000,Units=km
new line.TR12110909 bus1=BMT8703176B.1.2.3,bus2=BMT3417840B.1.2.3,Phases=3,Linecode=CABA06_3_3,Length=0.035745000,Units=km
new line.TR12110908 bus1=BMT3416468B.1.2.3,bus2=BMT8703176B.1.2.3,Phases=3,Linecode=CABA06_3_3,Length=0.036065000,Units=km
new line.TR12110863 bus1=BMT170319429.1.2.3,bus2=BMT170319430.1.2.3,Phases=3,Linecode=CABA06_3_3,Length=0.038611000,Units=km
new line.TR12110310 bus1=BMT8702593B.1,bus2=BMT170320754.1,Phases=1,Linecode=CAB202_3_1,Length=0.151400000,Units=km
new line.TR12110309 bus1=BMT8702592B.1,bus2=BMT8702593B.1,Phases=1,Linecode=CAB202_3_1,Length=0.156407000,Units=km
new line.TR12110308 bus1=BMT8702591B.1,bus2=BMT8702592B.1,Phases=1,Linecode=CAB202_3_1,Length=0.129858000,Units=km
new line.TR12110307 bus1=BMT8702590B.1,bus2=BMT8702591B.1,Phases=1,Linecode=CAB202_3_1,Length=0.122687000,Units=km
new line.TR12110306 bus1=BMT8702583B.1,bus2=BMT8702590B.1,Phases=1,Linecode=CAB202_3_1,Length=0.140765000,Units=km
new line.TR12110305 bus1=BMT8702582B.1,bus2=BMT8702583B.1,Phases=1,Linecode=CAB202_3_1,Length=0.133691000,Units=km
new line.TR12110304 bus1=BMT8702581B.1,bus2=BMT8702582B.1,Phases=1,Linecode=CAB202_3_1,Length=0.138641000,Units=km
new line.TR12110303 bus1=BMT8702579B.1,bus2=BMT8702581B.1,Phases=1,Linecode=CAB202_3_1,Length=0.177546000,Units=km
new line.TR12110302 bus1=BMT8702578B.1,bus2=BMT8702579B.1,Phases=1,Linecode=CAB202_3_1,Length=0.152121000,Units=km
new line.TR12110301 bus1=BMT8702577B.1,bus2=BMT8702578B.1,Phases=1,Linecode=CAB202_3_1,Length=0.142323000,Units=km
new line.TR12110300 bus1=BMT8702575B.1,bus2=BMT8702577B.1,Phases=1,Linecode=CAB202_3_1,Length=0.121866000,Units=km
new line.TR12110299 bus1=BMT8702573B.1,bus2=BMT8702575B.1,Phases=1,Linecode=CAB202_3_1,Length=0.136179000,Units=km
new line.TR12110298 bus1=BMT8702572B.1,bus2=BMT8702573B.1,Phases=1,Linecode=CAB202_3_1,Length=0.154209000,Units=km
new line.TR12110297 bus1=BMT8702571B.1,bus2=BMT8702572B.1,Phases=1,Linecode=CAB202_3_1,Length=0.144230000,Units=km
new line.TR12110296 bus1=BMT8702569B.1,bus2=BMT8702571B.1,Phases=1,Linecode=CAB202_3_1,Length=0.145146000,Units=km
new line.TR12110295 bus1=BMT8702567B.1,bus2=BMT8702569B.1,Phases=1,Linecode=CAB202_3_1,Length=0.131894000,Units=km
new line.TR12110294 bus1=BMT8702564B.1,bus2=BMT8702567B.1,Phases=1,Linecode=CAB202_3_1,Length=0.241950000,Units=km
new line.TR12110293 bus1=BMT8702563B.1,bus2=BMT8702564B.1,Phases=1,Linecode=CAB202_3_1,Length=0.099994000,Units=km
new line.TR12110292 bus1=BMT8702562B.1,bus2=BMT8702563B.1,Phases=1,Linecode=CAB202_3_1,Length=0.088986000,Units=km
new line.TR12110291 bus1=BMT8702561B.1,bus2=BMT8702562B.1,Phases=1,Linecode=CAB202_3_1,Length=0.111864000,Units=km
new line.TR12110290 bus1=BMT8702558B.1,bus2=BMT8702561B.1,Phases=1,Linecode=CAB202_3_1,Length=0.154228000,Units=km
new line.TR12110289 bus1=BMT8702553B.1,bus2=BMT8702558B.1,Phases=1,Linecode=CAB202_3_1,Length=0.131171000,Units=km
new line.TR12110288 bus1=BMT8702551B.1,bus2=BMT8702553B.1,Phases=1,Linecode=CAB202_3_1,Length=0.168296000,Units=km
new line.TR12110287 bus1=BMT8702548B.1,bus2=BMT8702551B.1,Phases=1,Linecode=CAB202_3_1,Length=0.102132000,Units=km
new line.TR12110286 bus1=BMT8702541B.1,bus2=BMT8702548B.1,Phases=1,Linecode=CAB202_3_1,Length=0.102221000,Units=km
new line.TR12110285 bus1=BMT8702531B.1,bus2=BMT8702541B.1,Phases=1,Linecode=CAB202_3_1,Length=0.140625000,Units=km
new line.TR12110284 bus1=BMT8702530B.1,bus2=BMT8702531B.1,Phases=1,Linecode=CAB202_3_1,Length=0.185324000,Units=km
new line.TR12110275 bus1=BMT170320753.1,bus2=BMT8702530B.1,Phases=1,Linecode=CAB202_3_1,Length=0.116014000,Units=km
new line.TR12110057 bus1=BMT8702438B.1,bus2=BMT162421408.1,Phases=1,Linecode=CAB202_3_1,Length=0.106059000,Units=km
new line.TR12110056 bus1=BMT8702443B.1,bus2=BMT8702438B.1,Phases=1,Linecode=CAB202_3_1,Length=0.120586000,Units=km
new line.TR12110055 bus1=BMT8702468B.1,bus2=BMT8702443B.1,Phases=1,Linecode=CAB202_3_1,Length=0.157368000,Units=km
new line.TR12110054 bus1=BMT8702467B.1,bus2=BMT8702468B.1,Phases=1,Linecode=CAB202_3_1,Length=0.153447000,Units=km
new line.TR12110053 bus1=BMT8702466B.1,bus2=BMT8702467B.1,Phases=1,Linecode=CAB202_3_1,Length=0.162225000,Units=km
new line.TR12110052 bus1=BMT8702465B.1,bus2=BMT8702466B.1,Phases=1,Linecode=CAB202_3_1,Length=0.143054000,Units=km
new line.TR12110051 bus1=BMT8702464B.1,bus2=BMT8702465B.1,Phases=1,Linecode=CAB202_3_1,Length=0.122071000,Units=km
new line.TR12110050 bus1=BMT8702463B.1,bus2=BMT8702464B.1,Phases=1,Linecode=CAB202_3_1,Length=0.145946000,Units=km
new line.TR12110049 bus1=BMT8702462B.1,bus2=BMT8702463B.1,Phases=1,Linecode=CAB202_3_1,Length=0.157063000,Units=km
new line.TR12110048 bus1=BMT8702461B.1,bus2=BMT8702462B.1,Phases=1,Linecode=CAB202_3_1,Length=0.099401000,Units=km
new line.TR12110047 bus1=BMT8702460B.1,bus2=BMT8702461B.1,Phases=1,Linecode=CAB202_3_1,Length=0.106942000,Units=km
new line.TR12110046 bus1=BMT8702459B.1,bus2=BMT8702460B.1,Phases=1,Linecode=CAB202_3_1,Length=0.129452000,Units=km
new line.TR12110045 bus1=BMT8702458B.1,bus2=BMT8702459B.1,Phases=1,Linecode=CAB202_3_1,Length=0.129169000,Units=km
new line.TR12110044 bus1=BMT8702457B.1,bus2=BMT8702458B.1,Phases=1,Linecode=CAB202_3_1,Length=0.126894000,Units=km
new line.TR12110043 bus1=BMT8702456B.1,bus2=BMT8702457B.1,Phases=1,Linecode=CAB202_3_1,Length=0.155042000,Units=km
new line.TR12110042 bus1=BMT8702455B.1,bus2=BMT8702456B.1,Phases=1,Linecode=CAB202_3_1,Length=0.060397000,Units=km
new line.TR12110041 bus1=BMT8702454B.1,bus2=BMT8702455B.1,Phases=1,Linecode=CAB202_3_1,Length=0.113180000,Units=km
new line.TR12110040 bus1=BMT8702453B.1,bus2=BMT8702454B.1,Phases=1,Linecode=CAB202_3_1,Length=0.107558000,Units=km
new line.TR12110039 bus1=BMT8702452B.1,bus2=BMT8702453B.1,Phases=1,Linecode=CAB202_3_1,Length=0.142184000,Units=km
new line.TR12110038 bus1=BMT8702451B.1,bus2=BMT8702452B.1,Phases=1,Linecode=CAB202_3_1,Length=0.106928000,Units=km
new line.TR12110037 bus1=BMT8702450B.1,bus2=BMT8702451B.1,Phases=1,Linecode=CAB202_3_1,Length=0.101865000,Units=km
new line.TR12110036 bus1=BMT8702449B.1,bus2=BMT8702450B.1,Phases=1,Linecode=CAB202_3_1,Length=0.126384000,Units=km
new line.TR12110035 bus1=BMT8702448B.1,bus2=BMT8702449B.1,Phases=1,Linecode=CAB202_3_1,Length=0.153434000,Units=km
new line.TR12110034 bus1=BMT8702446B.1,bus2=BMT8702448B.1,Phases=1,Linecode=CAB202_3_1,Length=0.135182000,Units=km
new line.TR12110033 bus1=BMT8702445B.1,bus2=BMT8702446B.1,Phases=1,Linecode=CAB202_3_1,Length=0.146206000,Units=km
new line.TR12110032 bus1=BMT162421407.1,bus2=BMT8702445B.1,Phases=1,Linecode=CAB202_3_1,Length=0.121579000,Units=km
new line.TR12109999 bus1=BMT7582182B.1,bus2=BMT148115975.1,Phases=1,Linecode=CAB202_3_1,Length=0.083052000,Units=km
new line.TR12109998 bus1=BMT7582175B.1,bus2=BMT148115975.1,Phases=1,Linecode=CAB202_3_1,Length=0.060811000,Units=km
new line.TR12109955 bus1=BMT170320565.2,bus2=BMT170320566.2,Phases=1,Linecode=CAB103_3_1,Length=0.073601000,Units=km
new line.TR12109954 bus1=BMT8702407B.2,bus2=BMT170320565.2,Phases=1,Linecode=CAB202_3_1,Length=0.142074000,Units=km
new line.TR12109953 bus1=BMT8702405B.2,bus2=BMT8702407B.2,Phases=1,Linecode=CAB202_3_1,Length=0.145006000,Units=km
new line.TR12109952 bus1=BMT8702404B.2,bus2=BMT8702405B.2,Phases=1,Linecode=CAB202_3_1,Length=0.162217000,Units=km
new line.TR12109951 bus1=BMT8702403B.2,bus2=BMT8702404B.2,Phases=1,Linecode=CAB202_3_1,Length=0.128595000,Units=km
new line.TR12109950 bus1=BMT8702402B.2,bus2=BMT8702403B.2,Phases=1,Linecode=CAB202_3_1,Length=0.162426000,Units=km
new line.TR12109949 bus1=BMT8702401B.2,bus2=BMT8702402B.2,Phases=1,Linecode=CAB202_3_1,Length=0.141181000,Units=km
new line.TR12109948 bus1=BMT8702400B.2,bus2=BMT8702401B.2,Phases=1,Linecode=CAB202_3_1,Length=0.157007000,Units=km
new line.TR12109946 bus1=BMT8702399B.2,bus2=BMT8702400B.2,Phases=1,Linecode=CAB202_3_1,Length=0.144787000,Units=km
new line.TR12109945 bus1=BMT8702398B.2,bus2=BMT8702399B.2,Phases=1,Linecode=CAB202_3_1,Length=0.163285000,Units=km
new line.TR12109944 bus1=BMT8702397B.2,bus2=BMT8702398B.2,Phases=1,Linecode=CAB202_3_1,Length=0.120253000,Units=km
new line.TR12109943 bus1=BMT8702396B.2,bus2=BMT8702397B.2,Phases=1,Linecode=CAB202_3_1,Length=0.127687000,Units=km
new line.TR12109942 bus1=BMT8702395B.2,bus2=BMT8702396B.2,Phases=1,Linecode=CAB202_3_1,Length=0.121873000,Units=km
new line.TR12109941 bus1=BMT8702394B.2,bus2=BMT8702395B.2,Phases=1,Linecode=CAB202_3_1,Length=0.134668000,Units=km
new line.TR12109940 bus1=BMT8702393B.2,bus2=BMT8702394B.2,Phases=1,Linecode=CAB202_3_1,Length=0.123050000,Units=km
new line.TR12109939 bus1=BMT8702392B.2,bus2=BMT8702393B.2,Phases=1,Linecode=CAB202_3_1,Length=0.215952000,Units=km
new line.TR12109938 bus1=BMT8702391B.2,bus2=BMT8702392B.2,Phases=1,Linecode=CAB202_3_1,Length=0.125649000,Units=km
new line.TR12109937 bus1=BMT8702390B.2,bus2=BMT8702391B.2,Phases=1,Linecode=CAB202_3_1,Length=0.133751000,Units=km
new line.TR1216144 bus1=BMT170322647.2,bus2=BMT170322648.2,Phases=1,Linecode=CAB202_3_1,Length=0.065977000,Units=km
new line.TR1216158 bus1=BMT170322648.2,bus2=BMT170322649.2,Phases=1,Linecode=CAB102_3_1,Length=0.050155000,Units=km
new line.TR12109936 bus1=BMT8702389B.2,bus2=BMT8702390B.2,Phases=1,Linecode=CAB202_3_1,Length=0.111648000,Units=km
new line.TR12109935 bus1=BMT8702388B.2,bus2=BMT8702389B.2,Phases=1,Linecode=CAB202_3_1,Length=0.116649000,Units=km
new line.TR12109934 bus1=BMT170320564.2,bus2=BMT8702388B.2,Phases=1,Linecode=CAB202_3_1,Length=0.103266000,Units=km
new line.TR12109311 bus1=BMT8701702B.2,bus2=BMT170320663.2,Phases=1,Linecode=CAB202_3_1,Length=0.126966000,Units=km
new line.TR12109310 bus1=BMT8701701B.2,bus2=BMT8701702B.2,Phases=1,Linecode=CAB202_3_1,Length=0.158297000,Units=km
new line.TR12109309 bus1=BMT8701700B.2,bus2=BMT8701701B.2,Phases=1,Linecode=CAB202_3_1,Length=0.122844000,Units=km
new line.TR12109308 bus1=BMT8701699B.2,bus2=BMT8701700B.2,Phases=1,Linecode=CAB202_3_1,Length=0.123806000,Units=km
new line.TR12109307 bus1=BMT170320662.2,bus2=BMT8701699B.2,Phases=1,Linecode=CAB202_3_1,Length=0.130705000,Units=km
new line.TR1215115 bus1=BMT170321738.1,bus2=BMT170321740.1,Phases=1,Linecode=CAB103_3_1,Length=0.073760000,Units=km
new line.TR1215031 bus1=BMT170321611.3,bus2=BMT170321613.3,Phases=1,Linecode=CAB202_3_1,Length=0.092729000,Units=km
new line.TR1215024 bus1=BMT170321610.1,bus2=BMT170321612.1,Phases=1,Linecode=CAB103_3_1,Length=0.058269000,Units=km
new line.TR1216354 bus1=BMT1892197B.2,bus2=BMT1892204B.2,Phases=1,Linecode=CAB203_3_1,Length=0.091300000,Units=km
new line.TR12163553 bus1=BMT161245890.1,bus2=BMT8760395B.1,Phases=1,Linecode=CAB202_3_1,Length=0.085492000,Units=km
new line.TR12163556 bus1=BMT8760395B.1,bus2=BMT8760396B.1,Phases=1,Linecode=CAB202_3_1,Length=0.141569000,Units=km
new line.TR12163557 bus1=BMT8760396B.1,bus2=BMT8760398B.1,Phases=1,Linecode=CAB202_3_1,Length=0.121910000,Units=km
new line.TR12163558 bus1=BMT8760398B.1,bus2=BMT8760399B.1,Phases=1,Linecode=CAB202_3_1,Length=0.136065000,Units=km
new line.TR1215017 bus1=BMT170321610.1.2.3,bus2=BMT170321611.1.2.3,Phases=3,Linecode=CAB202_3_3,Length=0.100696000,Units=km
new line.TR1215010 bus1=BMT170321763.3,bus2=BMT170321764.3,Phases=1,Linecode=CAB202_3_1,Length=0.104034000,Units=km
new line.TR1214968 bus1=BMT174704506.3,bus2=BMT174704507.3,Phases=1,Linecode=CAB202_3_1,Length=0.157927000,Units=km
new line.TR1214898 bus1=BMT175212961.1.2.3,bus2=BMT175212959.1.2.3,Phases=3,Linecode=CAB203_3_3,Length=0.086051000,Units=km
new line.TR1214870 bus1=BMT176133979.1.2.3,bus2=BMT170321903.1.2.3,Phases=3,Linecode=CAB202_3_3,Length=0.143064000,Units=km
new line.TR12148564 bus1=BMT8744485B.1.2.3,bus2=BMT170895740.1.2.3,Phases=3,Linecode=CAB202_3_3,Length=0.116761000,Units=km
new line.TR12148563 bus1=BMT8744484B.1.2.3,bus2=BMT8744485B.1.2.3,Phases=3,Linecode=CAB202_3_3,Length=0.123471000,Units=km
new line.TR12148562 bus1=BMT170895739.1.2.3,bus2=BMT8744484B.1.2.3,Phases=3,Linecode=CAB202_3_3,Length=0.132523000,Units=km
new line.TR12148556 bus1=BMT170895737.1.2.3,bus2=BMT170895739.1.2.3,Phases=3,Linecode=CAB103_3_3,Length=0.015658000,Units=km
new line.TR12148528 bus1=BMT8744465B.2,bus2=BMT8744469B.2,Phases=1,Linecode=CAB202_3_1,Length=0.156261000,Units=km
new line.TR12148527 bus1=BMT8744462B.2,bus2=BMT8744465B.2,Phases=1,Linecode=CAB202_3_1,Length=0.159079000,Units=km
new line.TR12148526 bus1=BMT8744458B.2,bus2=BMT8744462B.2,Phases=1,Linecode=CAB202_3_1,Length=0.112201000,Units=km
new line.TR12148521 bus1=BMT170320669.2,bus2=BMT8744458B.2,Phases=1,Linecode=CAB202_3_1,Length=0.256421000,Units=km
new line.TR12148408 bus1=BMT161358138.2,bus2=BMT8744052B.2,Phases=1,Linecode=CAB202_3_1,Length=0.267336000,Units=km
new line.TR1214793 bus1=BMT176134934.1.2.3,bus2=BMT1893205B.1.2.3,Phases=3,Linecode=CAB203_3_3,Length=0.131953000,Units=km
new line.TR12147457 bus1=BMT8743276B.3,bus2=BMT170320928.3,Phases=1,Linecode=CAB202_3_1,Length=0.179660000,Units=km
new line.TR12147452 bus1=BMT8743274B.3,bus2=BMT8743276B.3,Phases=1,Linecode=CAB202_3_1,Length=0.084925000,Units=km
new line.TR12147450 bus1=BMT8743273B.3,bus2=BMT8743274B.3,Phases=1,Linecode=CAB202_3_1,Length=0.088991000,Units=km
new line.TR12147449 bus1=BMT8743272B.3,bus2=BMT8743273B.3,Phases=1,Linecode=CAB202_3_1,Length=0.243574000,Units=km
new line.TR12147446 bus1=BMT8743271B.3,bus2=BMT8743272B.3,Phases=1,Linecode=CAB202_3_1,Length=0.091601000,Units=km
new line.TR12147442 bus1=BMT8743270B.3,bus2=BMT8743271B.3,Phases=1,Linecode=CAB202_3_1,Length=0.108702000,Units=km
new line.TR12147439 bus1=BMT8743269B.3,bus2=BMT8743270B.3,Phases=1,Linecode=CAB202_3_1,Length=0.171135000,Units=km
new line.TR12147434 bus1=BMT170320927.3,bus2=BMT8743269B.3,Phases=1,Linecode=CAB202_3_1,Length=0.215821000,Units=km
new line.TR12147424 bus1=BMT170320926.3,bus2=BMT170320927.3,Phases=1,Linecode=CAB103_3_1,Length=0.121139000,Units=km
new line.TR12147414 bus1=BMT8743266B.3,bus2=BMT170320926.3,Phases=1,Linecode=CAB202_3_1,Length=0.204794000,Units=km
new line.TR12147412 bus1=BMT8743262B.3,bus2=BMT8743266B.3,Phases=1,Linecode=CAB202_3_1,Length=0.106763000,Units=km
new line.TR12163942 bus1=BMT149992498.1.2.3,bus2=BMT149991308.1.2.3,Phases=3,Linecode=CABA06_3_3,Length=0.019321000,Units=km
new line.TR12163943 bus1=BMT149991323.1,bus2=BMT149991324.1,Phases=1,Linecode=CAB102_3_1,Length=0.100696000,Units=km
new line.TR12163967 bus1=BMT149991308.1.2.3,bus2=BMT149992499.1.2.3,Phases=3,Linecode=CABA06_3_3,Length=0.034942000,Units=km
new line.TR12147408 bus1=BMT170320925.3,bus2=BMT8743262B.3,Phases=1,Linecode=CAB202_3_1,Length=0.179855000,Units=km
new line.TR1216403 bus1=BMT1892239B.1,bus2=BMT170322409.1,Phases=1,Linecode=CAB203_3_1,Length=0.113092000,Units=km
new line.TR12164037 bus1=BMT170321910.1.2.3,bus2=BMT5820877B.1.2.3,Phases=3,Linecode=CAB202_3_3,Length=0.129428000,Units=km
new line.TR1216410 bus1=BMT170322409.1,bus2=BMT170322410.1,Phases=1,Linecode=CAB102_3_1,Length=0.060056000,Units=km
new line.TR12164216 bus1=BMT170321922.2,bus2=BMT170321923.2,Phases=1,Linecode=CAB202_3_1,Length=0.069944000,Units=km
new line.TR12164217 bus1=BMT170321924.2,bus2=BMT170321925.2,Phases=1,Linecode=CAB202_3_1,Length=0.071192000,Units=km
new line.TR12164250 bus1=BMT170322378.1.2.3,bus2=BMT5491478B.1.2.3,Phases=3,Linecode=CAB203_3_3,Length=0.114251000,Units=km
new line.TR12164328 bus1=BMT5703627B.1.2.3,bus2=BMT5703641B.1.2.3,Phases=3,Linecode=CAB208_3_3,Length=0.131713000,Units=km
new line.TR12164332 bus1=BMT5703788B.1.2.3,bus2=BMT5703802B.1.2.3,Phases=3,Linecode=CAB208_3_3,Length=0.131512000,Units=km
new line.TR12164342 bus1=BMT176724623.1.2.3,bus2=BMT176724626.1.2.3,Phases=3,Linecode=CAB108_3_3,Length=0.049664000,Units=km
new line.TR12164343 bus1=BMT176724626.1.2.3,bus2=BMT4895008B.1.2.3,Phases=3,Linecode=CAB208_3_3,Length=0.084078000,Units=km
new line.TR12164363 bus1=BMT4895043B.1.2.3,bus2=BMT8761483B.1.2.3,Phases=3,Linecode=CAB208_3_3,Length=0.040236000,Units=km
new line.TR12164364 bus1=BMT8761483B.1.2.3,bus2=BMT4895057B.1.2.3,Phases=3,Linecode=CAB208_3_3,Length=0.053025000,Units=km
new line.TR12147394 bus1=BMT170320924.3,bus2=BMT170320925.3,Phases=1,Linecode=CAB103_3_1,Length=0.023266000,Units=km
new line.TR12147016 bus1=BMT908900B.1.2.3,bus2=BMT8742970B.1.2.3,Phases=3,Linecode=CAB103_3_3,Length=0.025639000,Units=km
new line.TR12147015 bus1=BMT908879B.1.2.3,bus2=BMT8742970B.1.2.3,Phases=3,Linecode=CAB103_3_3,Length=0.007282000,Units=km
new line.TR12144931 bus1=BMT8739906B.1,bus2=BMT170322429.1,Phases=1,Linecode=CAB202_3_1,Length=0.143606000,Units=km
new line.TR12144930 bus1=BMT8739904B.1,bus2=BMT8739906B.1,Phases=1,Linecode=CAB202_3_1,Length=0.159263000,Units=km
new line.TR12144929 bus1=BMT8739902B.1,bus2=BMT8739904B.1,Phases=1,Linecode=CAB202_3_1,Length=0.161050000,Units=km
new line.TR12144928 bus1=BMT8739900B.1,bus2=BMT8739902B.1,Phases=1,Linecode=CAB202_3_1,Length=0.167316000,Units=km
new line.TR12144927 bus1=BMT8739898B.1,bus2=BMT8739900B.1,Phases=1,Linecode=CAB202_3_1,Length=0.165082000,Units=km
new line.TR1216501 bus1=BMT170322683.2,bus2=BMT170322684.2,Phases=1,Linecode=CAB102_3_1,Length=0.059433000,Units=km
new line.TR12165032 bus1=BMT159238790.3,bus2=BMT159238792.3,Phases=1,Linecode=CAB202_3_1,Length=0.103499000,Units=km
new line.TR1216515 bus1=BMT1892316B.2,bus2=BMT170322685.2,Phases=1,Linecode=CAB203_3_1,Length=0.120389000,Units=km
new line.TR1216522 bus1=BMT170322685.2,bus2=BMT170322686.2,Phases=1,Linecode=CAB102_3_1,Length=0.078118000,Units=km
new line.TR1216529 bus1=BMT174049878.1.2.3,bus2=BMT4864537B.1.2.3,Phases=3,Linecode=CAB203_3_3,Length=0.153218000,Units=km
new line.TR12144926 bus1=BMT170322428.1,bus2=BMT8739898B.1,Phases=1,Linecode=CAB202_3_1,Length=0.149532000,Units=km
new line.TR12139507 bus1=BMT8733462B.1,bus2=BMT175773951.1,Phases=1,Linecode=CABA06_3_1,Length=0.032939000,Units=km
new line.TR12139506 bus1=BMT8733460B.1,bus2=BMT8733462B.1,Phases=1,Linecode=CABA06_3_1,Length=0.039246000,Units=km
new line.TR12139505 bus1=BMT8733436B.1,bus2=BMT8733460B.1,Phases=1,Linecode=CABA06_3_1,Length=0.038922000,Units=km
new line.TR12136236 bus1=BMT8729943B.3,bus2=BMT170320822.3,Phases=1,Linecode=CAB202_3_1,Length=0.143719000,Units=km
new line.TR1216564 bus1=BMT174049875.1.2.3,bus2=BMT1892358B.1.2.3,Phases=3,Linecode=CAB203_3_3,Length=0.091122000,Units=km
new line.TR12136235 bus1=BMT8729942B.3,bus2=BMT8729943B.3,Phases=1,Linecode=CAB202_3_1,Length=0.113083000,Units=km
new line.TR12136234 bus1=BMT8729941B.3,bus2=BMT8729942B.3,Phases=1,Linecode=CAB202_3_1,Length=0.067494000,Units=km
new line.TR12136233 bus1=BMT8729940B.3,bus2=BMT8729941B.3,Phases=1,Linecode=CAB202_3_1,Length=0.169695000,Units=km