new line.TR10084859 bus1=BMT157929121.2,bus2=BMT1632556B.2,Phases=1,Linecode=CAB102_3_1,Length=0.024506000,Units=km
new line.TR10084866 bus1=BMT172280632.1.2.3,bus2=BMT1632563B.1.2.3,Phases=3,Linecode=CAB102_3_3,Length=0.007069000,Units=km
new line.TR10084873 bus1=BMT172280632.2,bus2=BMT100994280.2,Phases=1,Linecode=CAB102_3_1,Length=0.018104000,Units=km
new line.TR10084880 bus1=BMT172280632.2,bus2=BMT6147262B.2,Phases=1,Linecode=CAB103_3_1,Length=0.009052000,Units=km
new line.TR10084964 bus1=BMT6147759B.1.2.3,bus2=BMT1635944B.1.2.3,Phases=3,Linecode=CAB102_3_3,Length=0.007278000,Units=km
new line.TR10414818 bus1=BMT164296750.1.2.3,bus2=BMT1632955B.1.2.3,Phases=3,Linecode=CABA06_3_3,Length=0.033527000,Units=km
new line.TR10414825 bus1=BMT1632955B.1.2.3,bus2=BMT164296751.1.2.3,Phases=3,Linecode=CABA06_3_3,Length=0.034699000,Units=km
new line.TR10953272 bus1=BMT108682170.1,bus2=BMT7190696B.1,Phases=1,Linecode=CAB202_3_1,Length=0.304985000,Units=km
new line.TR10953293 bus1=BMT7190696B.1,bus2=BMT7190717B.1,Phases=1,Linecode=CAB202_3_1,Length=0.206144000,Units=km
new line.TR10953342 bus1=BMT7190717B.1,bus2=BMT7190752B.1,Phases=1,Linecode=CAB202_3_1,Length=0.241531000,Units=km
new line.TR10953349 bus1=BMT7190752B.1,bus2=BMT7190766B.1,Phases=1,Linecode=CAB202_3_1,Length=0.388419000,Units=km
new line.TR10953363 bus1=BMT7190766B.1,bus2=BMT108682177.1,Phases=1,Linecode=CAB202_3_1,Length=0.097043000,Units=km
new line.TR10956401 bus1=BMT100995358.2,bus2=BMT7193342B.2,Phases=1,Linecode=CAB103_3_1,Length=0.008060000,Units=km
new line.TR10956408 bus1=BMT7193342B.2,bus2=BMT100995365.2,Phases=1,Linecode=CAB103_3_1,Length=0.055134000,Units=km
new line.TR10956478 bus1=BMT100995365.2,bus2=BMT7193454B.2,Phases=1,Linecode=CAB202_3_1,Length=0.343272000,Units=km
new line.TR10956555 bus1=BMT7193454B.2,bus2=BMT7193468B.2,Phases=1,Linecode=CAB202_3_1,Length=0.076391000,Units=km
new line.TR10956562 bus1=BMT7193468B.2,bus2=BMT7193482B.2,Phases=1,Linecode=CAB202_3_1,Length=0.049378000,Units=km
new line.TR10956569 bus1=BMT7193482B.2,bus2=BMT7193503B.2,Phases=1,Linecode=CAB202_3_1,Length=0.051952000,Units=km
new line.TR10956576 bus1=BMT7193503B.2,bus2=BMT100995372.2,Phases=1,Linecode=CAB202_3_1,Length=0.351424000,Units=km
new line.TR10956590 bus1=BMT100995372.2,bus2=BMT100995379.2,Phases=1,Linecode=CAB202_3_1,Length=0.187484000,Units=km
new line.TR10958515 bus1=BMT100995372.2,bus2=BMT7195316B.2,Phases=1,Linecode=CAB202_3_1,Length=0.420184000,Units=km
new line.TR10958522 bus1=BMT7195316B.2,bus2=BMT7195330B.2,Phases=1,Linecode=CAB202_3_1,Length=0.049378000,Units=km
new line.TR10958529 bus1=BMT7195330B.2,bus2=BMT7195344B.2,Phases=1,Linecode=CAB202_3_1,Length=0.117879000,Units=km
new line.TR10958536 bus1=BMT7195344B.2,bus2=BMT100995386.2,Phases=1,Linecode=CAB202_3_1,Length=0.472327000,Units=km
new line.TR10958543 bus1=BMT100995386.2,bus2=BMT100995393.2,Phases=1,Linecode=CAB202_3_1,Length=0.111120000,Units=km
new line.TR10959131 bus1=BMT100995386.2,bus2=BMT7195505B.2,Phases=1,Linecode=CAB202_3_1,Length=0.170111000,Units=km
new line.TR10959138 bus1=BMT7195505B.2,bus2=BMT7195526B.2,Phases=1,Linecode=CAB202_3_1,Length=0.303597000,Units=km
new line.TR10959145 bus1=BMT7195526B.2,bus2=BMT7195533B.2,Phases=1,Linecode=CAB202_3_1,Length=0.062562000,Units=km
new line.TR10959152 bus1=BMT7195533B.2,bus2=BMT7195624B.2,Phases=1,Linecode=CAB202_3_1,Length=0.052325000,Units=km
new line.TR10959159 bus1=BMT7195624B.2,bus2=BMT100995400.2,Phases=1,Linecode=CAB202_3_1,Length=0.231128000,Units=km
new line.TR10959166 bus1=BMT100995400.2,bus2=BMT100995407.2,Phases=1,Linecode=CAB103_3_1,Length=0.042434000,Units=km
new line.TR10959320 bus1=BMT100995400.2,bus2=BMT7195932B.2,Phases=1,Linecode=CAB202_3_1,Length=0.136802000,Units=km
new line.TR10959327 bus1=BMT7195932B.2,bus2=BMT7195939B.2,Phases=1,Linecode=CAB202_3_1,Length=0.069263000,Units=km
new line.TR10959334 bus1=BMT7195939B.2,bus2=BMT7195946B.2,Phases=1,Linecode=CAB202_3_1,Length=0.053580000,Units=km
new line.TR10959341 bus1=BMT7195946B.2,bus2=BMT100995414.2,Phases=1,Linecode=CAB202_3_1,Length=0.026467000,Units=km
new line.TR10959467 bus1=BMT100995414.2,bus2=BMT7196142B.2,Phases=1,Linecode=CAB103_3_1,Length=0.025071000,Units=km
new line.TR10959474 bus1=BMT7196142B.2,bus2=BMT100995428.2,Phases=1,Linecode=CAB103_3_1,Length=0.018021000,Units=km
new line.TR10959579 bus1=BMT100995414.2,bus2=BMT7196261B.2,Phases=1,Linecode=CAB202_3_1,Length=0.147957000,Units=km
new line.TR10959586 bus1=BMT7196261B.2,bus2=BMT7196275B.2,Phases=1,Linecode=CAB202_3_1,Length=0.064388000,Units=km
new line.TR10959593 bus1=BMT7196275B.2,bus2=BMT7196282B.2,Phases=1,Linecode=CAB202_3_1,Length=0.051176000,Units=km
new line.TR10959600 bus1=BMT7196282B.2,bus2=BMT7196331B.2,Phases=1,Linecode=CAB202_3_1,Length=0.076391000,Units=km
new line.TR10959607 bus1=BMT7196331B.2,bus2=BMT7196345B.2,Phases=1,Linecode=CAB202_3_1,Length=0.046156000,Units=km
new line.TR10959614 bus1=BMT7196345B.2,bus2=BMT7196366B.2,Phases=1,Linecode=CAB202_3_1,Length=0.072153000,Units=km
new line.TR10959621 bus1=BMT7196366B.2,bus2=BMT100995435.2,Phases=1,Linecode=CAB202_3_1,Length=0.051990000,Units=km
new line.TR10959894 bus1=BMT100995400.2,bus2=BMT100995421.2,Phases=1,Linecode=CAB202_3_1,Length=0.120871000,Units=km
new line.TR10959901 bus1=BMT166269804.2,bus2=BMT7196576B.2,Phases=1,Linecode=CAB202_3_1,Length=0.153658000,Units=km
new line.TR10959908 bus1=BMT7196576B.2,bus2=BMT7196583B.2,Phases=1,Linecode=CAB202_3_1,Length=0.111586000,Units=km
new line.TR10959915 bus1=BMT7196583B.2,bus2=BMT7196618B.2,Phases=1,Linecode=CAB202_3_1,Length=0.078417000,Units=km
new line.TR10959964 bus1=BMT7196618B.2,bus2=BMT7196632B.2,Phases=1,Linecode=CAB202_3_1,Length=0.104979000,Units=km
new line.TR10960055 bus1=BMT7196632B.2,bus2=BMT166269805.2,Phases=1,Linecode=CAB202_3_1,Length=0.051643000,Units=km
new line.TR10960062 bus1=BMT166269805.2,bus2=BMT166269806.2,Phases=1,Linecode=CAB202_3_1,Length=0.151546000,Units=km
new line.TR12089582 bus1=BMT138921631.3,bus2=BMT138921645.3,Phases=1,Linecode=CAB202_3_1,Length=0.137830000,Units=km
new line.TR12290496 bus1=BMT163144424.2,bus2=BMT163144425.2,Phases=1,Linecode=CAB103_3_1,Length=0.021206000,Units=km
new line.TR12290497 bus1=BMT163144425.2,bus2=BMT8892454B.2,Phases=1,Linecode=CAB202_3_1,Length=0.051226000,Units=km
new line.TR12290498 bus1=BMT8892454B.2,bus2=BMT163144426.2,Phases=1,Linecode=CAB202_3_1,Length=0.092584000,Units=km
new line.TR12291039 bus1=BMT160750031.1,bus2=BMT8892851B.1,Phases=1,Linecode=CAB202_3_1,Length=0.065087000,Units=km
new line.TR10127384 bus1=BMT6220657B.1,bus2=BMT123639063.1,Phases=1,Linecode=CAB202_3_1,Length=0.155501000,Units=km
new line.TR10286578 bus1=BMT163931878.1,bus2=BMT6496863B.1,Phases=1,Linecode=CAB202_3_1,Length=0.036111000,Units=km
new line.TR10286585 bus1=BMT6496863B.1,bus2=BMT6496870B.1,Phases=1,Linecode=CAB202_3_1,Length=0.440204000,Units=km
new line.TR10286592 bus1=BMT6496870B.1,bus2=BMT6496877B.1,Phases=1,Linecode=CAB202_3_1,Length=0.426692000,Units=km
new line.TR10286599 bus1=BMT6496877B.1,bus2=BMT6496884B.1,Phases=1,Linecode=CAB202_3_1,Length=0.140105000,Units=km
new line.TR10286606 bus1=BMT6496884B.1,bus2=BMT163931879.1,Phases=1,Linecode=CAB202_3_1,Length=0.115336000,Units=km
new line.TR10286613 bus1=BMT163931879.1,bus2=BMT163931880.1,Phases=1,Linecode=CAB202_3_1,Length=0.100140000,Units=km
new line.TR10424961 bus1=BMT113326761.3,bus2=BMT6683308B.3,Phases=1,Linecode=CAB103_3_1,Length=0.079025000,Units=km
new line.TR10424968 bus1=BMT6683308B.3,bus2=BMT113326775.3,Phases=1,Linecode=CAB103_3_1,Length=0.067159000,Units=km
new line.TR10424975 bus1=BMT113326775.3,bus2=BMT6683322B.3,Phases=1,Linecode=CAB103_3_1,Length=0.053467000,Units=km
new line.TR10424982 bus1=BMT6683322B.3,bus2=BMT113326789.3,Phases=1,Linecode=CAB103_3_1,Length=0.032683000,Units=km
new line.TR10746352 bus1=BMT166108796.1,bus2=BMT166108798.1,Phases=1,Linecode=CAB202_3_1,Length=0.021015000,Units=km
new line.TR10748802 bus1=BMT172590271.1,bus2=BMT7010453B.1,Phases=1,Linecode=CAB103_3_1,Length=0.035833000,Units=km
new line.TR10748809 bus1=BMT7010453B.1,bus2=BMT172590273.1,Phases=1,Linecode=CAB103_3_1,Length=0.080621000,Units=km
new line.TR10752694 bus1=BMT101000307.1,bus2=BMT101000314.1,Phases=1,Linecode=CAB103_3_1,Length=0.068562000,Units=km
new line.TR10752715 bus1=BMT101000314.1,bus2=BMT7013967B.1,Phases=1,Linecode=CAB202_3_1,Length=0.090832000,Units=km
new line.TR10752722 bus1=BMT7013967B.1,bus2=BMT101000321.1,Phases=1,Linecode=CAB202_3_1,Length=0.084685000,Units=km
new line.TR10917775 bus1=BMT100996947.1,bus2=BMT7160197B.1,Phases=1,Linecode=CAB103_3_1,Length=0.016994000,Units=km
new line.TR10917796 bus1=BMT7160197B.1,bus2=BMT100996961.1,Phases=1,Linecode=CAB103_3_1,Length=0.049980000,Units=km
new line.TR10935086 bus1=BMT172590253.1,bus2=BMT172590256.1,Phases=1,Linecode=CAB202_3_1,Length=0.353648000,Units=km
new line.TR10935093 bus1=BMT172590256.1,bus2=BMT172590260.1,Phases=1,Linecode=CAB202_3_1,Length=0.051643000,Units=km
new line.TR10935100 bus1=BMT172590260.1,bus2=BMT172590261.1,Phases=1,Linecode=CAB202_3_1,Length=0.057848000,Units=km
new line.TR10935107 bus1=BMT172590260.1,bus2=BMT7175030B.1,Phases=1,Linecode=CAB202_3_1,Length=0.123443000,Units=km
new line.TR10935114 bus1=BMT7175030B.1,bus2=BMT7175037B.1,Phases=1,Linecode=CAB202_3_1,Length=0.319382000,Units=km
new line.TR10935121 bus1=BMT7175037B.1,bus2=BMT172590262.1,Phases=1,Linecode=CAB202_3_1,Length=0.134160000,Units=km
new line.TR11101588 bus1=BMT101000860.3,bus2=BMT7321351B.3,Phases=1,Linecode=CAB202_3_1,Length=0.416603000,Units=km
new line.TR11101595 bus1=BMT7321351B.3,bus2=BMT7321358B.3,Phases=1,Linecode=CAB202_3_1,Length=0.029057000,Units=km
new line.TR11101602 bus1=BMT7321358B.3,bus2=BMT101000867.3,Phases=1,Linecode=CAB202_3_1,Length=0.211032000,Units=km
new line.TR11114615 bus1=BMT100996982.1,bus2=BMT100996996.1,Phases=1,Linecode=CAB202_3_1,Length=0.102448000,Units=km
new line.TR11273207 bus1=BMT113326747.3,bus2=BMT113326754.3,Phases=1,Linecode=CAB202_3_1,Length=0.016993000,Units=km
new line.TR11273214 bus1=BMT113326754.3,bus2=BMT113326761.3,Phases=1,Linecode=CAB202_3_1,Length=0.139474000,Units=km
new line.TR11273235 bus1=BMT113326754.3,bus2=BMT113326768.3,Phases=1,Linecode=CAB202_3_1,Length=0.043445000,Units=km
new line.TR11284869 bus1=BMT2611331B.1,bus2=BMT7496393B.1,Phases=1,Linecode=CAB202_3_1,Length=0.129945000,Units=km
new line.TR11284876 bus1=BMT7496393B.1,bus2=BMT164631347.1,Phases=1,Linecode=CAB202_3_1,Length=0.079226000,Units=km
new line.TR11622206 bus1=BMT2838852B.1,bus2=BMT7822243B.1,Phases=1,Linecode=CAB103_3_1,Length=0.027155000,Units=km
new line.TR11622213 bus1=BMT6472454B.1,bus2=BMT7822243B.1,Phases=1,Linecode=CAB103_3_1,Length=0.023186000,Units=km
new line.TR11832556 bus1=BMT123639063.1,bus2=BMT123639077.1,Phases=1,Linecode=CAB202_3_1,Length=0.307455000,Units=km
new line.TR11832563 bus1=BMT123639077.1,bus2=BMT123639084.1,Phases=1,Linecode=CAB103_3_1,Length=0.005829000,Units=km
new line.TR11833347 bus1=BMT123639077.1,bus2=BMT7993302B.1,Phases=1,Linecode=CAB103_3_1,Length=0.080861000,Units=km
new line.TR11833354 bus1=BMT7993302B.1,bus2=BMT123639091.1,Phases=1,Linecode=CAB103_3_1,Length=0.036386000,Units=km
new line.TR12164927 bus1=BMT5769745B.1.2.3,bus2=BMT164117457.1.2.3,Phases=3,Linecode=CAB102_3_3,Length=0.011041000,Units=km
new line.TR12164928 bus1=BMT5769759B.1.2.3,bus2=BMT164117457.1.2.3,Phases=3,Linecode=CAB102_3_3,Length=0.030055000,Units=km
new line.TR12164939 bus1=BMT164117483.1.2.3,bus2=BMT8762191B.1.2.3,Phases=3,Linecode=CABA06_3_3,Length=0.037201000,Units=km
new line.TR12164940 bus1=BMT8762191B.1.2.3,bus2=BMT8762192B.1.2.3,Phases=3,Linecode=CABA06_3_3,Length=0.029399000,Units=km
new line.TR12164941 bus1=BMT8762192B.1.2.3,bus2=BMT8762194B.1.2.3,Phases=3,Linecode=CABA06_3_3,Length=0.044084000,Units=km
new line.TR12164942 bus1=BMT8762194B.1.2.3,bus2=BMT164117484.1.2.3,Phases=3,Linecode=CABA06_3_3,Length=0.044993000,Units=km
new line.TR12278474 bus1=BMT3860327B.1.2.3,bus2=BMT158829984.1.2.3,Phases=3,Linecode=CAB207_3_3,Length=0.068000000,Units=km
new line.TR12278475 bus1=BMT158829984.1.2.3,bus2=BMT158829985.1.2.3,Phases=3,Linecode=CAB207_3_3,Length=0.107377000,Units=km
new line.TR12278481 bus1=BMT158829984.1,bus2=BMT158829986.1,Phases=1,Linecode=CAB103_3_1,Length=0.033601000,Units=km
new line.TR12312241 bus1=BMT166632560.1.2.3,bus2=BMT155214534.1.2.3,Phases=3,Linecode=CABA06_3_3,Length=0.010046000,Units=km
new line.TR12312242 bus1=BMT156292867.1.2.3,bus2=BMT1717977B.1.2.3,Phases=3,Linecode=CABA06_3_3,Length=0.006706000,Units=km
new line.TR12312246 bus1=BMT1717977B.1.2.3,bus2=BMT1717984B.1.2.3,Phases=3,Linecode=CABA06_3_3,Length=0.028781000,Units=km
new line.TR12312252 bus1=BMT1717984B.1.2.3,bus2=BMT1717991B.1.2.3,Phases=3,Linecode=CABA06_3_3,Length=0.022127000,Units=km
new line.TR12312254 bus1=BMT1717991B.1.2.3,bus2=BMT1717998B.1.2.3,Phases=3,Linecode=CABA06_3_3,Length=0.044367000,Units=km
new line.TR12312255 bus1=BMT1717998B.1.2.3,bus2=BMT1718005B.1.2.3,Phases=3,Linecode=CABA06_3_3,Length=0.028781000,Units=km
new line.TR10172373 bus1=BMT6313470B.2,bus2=BMT101001553.2,Phases=1,Linecode=CAB202_3_1,Length=0.080496000,Units=km
new line.TR10178358 bus1=BMT154783412.2,bus2=BMT154783413.2,Phases=1,Linecode=CAB202_3_1,Length=0.010996000,Units=km
new line.TR10178365 bus1=BMT154783412.2,bus2=BMT154783414.2,Phases=1,Linecode=CAB203_3_1,Length=0.022353000,Units=km
new line.TR10178372 bus1=BMT154783414.2,bus2=BMT6322633B.2,Phases=1,Linecode=CAB202_3_1,Length=0.188283000,Units=km
new line.TR10178379 bus1=BMT6322633B.2,bus2=BMT6322640B.2,Phases=1,Linecode=CAB202_3_1,Length=0.125161000,Units=km
new line.TR10178386 bus1=BMT6322640B.2,bus2=BMT6322647B.2,Phases=1,Linecode=CAB202_3_1,Length=0.289265000,Units=km
new line.TR10178393 bus1=BMT6322647B.2,bus2=BMT6322654B.2,Phases=1,Linecode=CAB202_3_1,Length=0.071360000,Units=km
new line.TR10178400 bus1=BMT6322654B.2,bus2=BMT6322661B.2,Phases=1,Linecode=CAB202_3_1,Length=0.223934000,Units=km
new line.TR10178407 bus1=BMT6322661B.2,bus2=BMT154783415.2,Phases=1,Linecode=CAB202_3_1,Length=0.105184000,Units=km
new line.TR10180857 bus1=BMT162153455.1,bus2=BMT162153456.1,Phases=1,Linecode=CAB202_3_1,Length=0.065716000,Units=km
new line.TR10180864 bus1=BMT162153455.1,bus2=BMT162153457.1,Phases=1,Linecode=CAB202_3_1,Length=0.445402000,Units=km
new line.TR10180871 bus1=BMT162153457.1,bus2=BMT162153458.1,Phases=1,Linecode=CAB202_3_1,Length=0.116009000,Units=km
new line.TR10180878 bus1=BMT162153457.1,bus2=BMT6326406B.1,Phases=1,Linecode=CAB202_3_1,Length=0.087896000,Units=km
new line.TR10180976 bus1=BMT6326406B.1,bus2=BMT162153459.1,Phases=1,Linecode=CAB202_3_1,Length=0.127729000,Units=km
new line.TR10185764 bus1=BMT6335758B.1,bus2=BMT6335765B.1,Phases=1,Linecode=CABA06_3_1,Length=0.052447000,Units=km
new line.TR10185771 bus1=BMT6335765B.1,bus2=BMT159223299.1,Phases=1,Linecode=CABA06_3_1,Length=0.059658000,Units=km
new line.TR10500820 bus1=BMT172667664.1,bus2=BMT172667667.1,Phases=1,Linecode=CAB103_3_1,Length=0.072971000,Units=km
new line.TR11412437 bus1=BMT3060542B.3,bus2=BMT7618998B.3,Phases=1,Linecode=CAB103_3_1,Length=0.019715000,Units=km
new line.TR11412444 bus1=BMT3060570B.3,bus2=BMT7618998B.3,Phases=1,Linecode=CAB103_3_1,Length=0.025797000,Units=km
new line.TR11418072 bus1=BMT100994595.1.2.3,bus2=BMT7624619B.1.2.3,Phases=3,Linecode=CABA06_3_3,Length=0.021923000,Units=km
new line.TR11418079 bus1=BMT3938041B.1.2.3,bus2=BMT7624619B.1.2.3,Phases=3,Linecode=CABA06_3_3,Length=0.020607000,Units=km
new line.TR11428817 bus1=BMT101001483.3,bus2=BMT7634650B.3,Phases=1,Linecode=CAB103_3_1,Length=0.026466000,Units=km
new line.TR11428824 bus1=BMT7634650B.3,bus2=BMT101001497.3,Phases=1,Linecode=CAB103_3_1,Length=0.023528000,Units=km
new line.TR11428845 bus1=BMT7634657B.3,bus2=BMT4608767B.3,Phases=1,Linecode=CAB103_3_1,Length=0.045170000,Units=km
new line.TR11428859 bus1=BMT7634664B.3,bus2=BMT7634657B.3,Phases=1,Linecode=CAB103_3_1,Length=0.029535000,Units=km
new line.TR11428866 bus1=BMT101001469.3,bus2=BMT101001476.3,Phases=1,Linecode=CAB202_3_1,Length=0.041384000,Units=km
new line.TR11428873 bus1=BMT101001476.3,bus2=BMT7634664B.3,Phases=1,Linecode=CAB103_3_1,Length=0.025485000,Units=km
new line.TR11429097 bus1=BMT3551074B.1.2.3,bus2=BMT7634972B.1.2.3,Phases=3,Linecode=CAB207_3_3,Length=0.035762000,Units=km
new line.TR11429111 bus1=BMT7634972B.1.2.3,bus2=BMT7634979B.1.2.3,Phases=3,Linecode=CAB207_3_3,Length=0.032189000,Units=km
new line.TR11429118 bus1=BMT7634979B.1.2.3,bus2=BMT100993986.1.2.3,Phases=3,Linecode=CAB207_3_3,Length=0.037574000,Units=km
new line.TR12007346 bus1=BMT1470835C.1.2.3,bus2=BMT8140540C.1.2.3,Phases=3,Linecode=CABA08_3_3,Length=0.013596000,Units=km
new line.TR12007388 bus1=BMT1470821C.1.2.3,bus2=BMT152955416.1.2.3,Phases=3,Linecode=CABA08_3_3,Length=0.015805000,Units=km
new line.TR12007395 bus1=BMT8140540C.1.2.3,bus2=BMT152955416.1.2.3,Phases=3,Linecode=CABA08_3_3,Length=0.010436000,Units=km
new line.TR12195935 bus1=BMT172849096.1.2.3,bus2=BMT8797200B.1.2.3,Phases=3,Linecode=CABA06_3_3,Length=0.017713000,Units=km
new line.TR12195936 bus1=BMT8797200B.1.2.3,bus2=BMT1631408B.1.2.3,Phases=3,Linecode=CABA06_3_3,Length=0.016273000,Units=km
new line.TR12195937 bus1=BMT1631408B.1.2.3,bus2=BMT1631401B.1.2.3,Phases=3,Linecode=CABA06_3_3,Length=0.035157000,Units=km
new line.TR12195938 bus1=BMT1631401B.1.2.3,bus2=BMT1631394B.1.2.3,Phases=3,Linecode=CABA06_3_3,Length=0.029109000,Units=km
new line.TR12195939 bus1=BMT1631394B.1.2.3,bus2=BMT1631387B.1.2.3,Phases=3,Linecode=CABA06_3_3,Length=0.038260000,Units=km
new line.TR12195940 bus1=BMT1631387B.1.2.3,bus2=BMT1631380B.1.2.3,Phases=3,Linecode=CABA06_3_3,Length=0.044254000,Units=km
new line.TR12195941 bus1=BMT1631380B.1.2.3,bus2=BMT4182747B.1.2.3,Phases=3,Linecode=CABA06_3_3,Length=0.015805000,Units=km
new line.TR12195942 bus1=BMT4182747B.1.2.3,bus2=BMT4182775B.1.2.3,Phases=3,Linecode=CABA06_3_3,Length=0.029518000,Units=km
new line.TR12195943 bus1=BMT4182775B.1.2.3,bus2=BMT172849102.1.2.3,Phases=3,Linecode=CABA06_3_3,Length=0.025010000,Units=km
new line.TR12314454 bus1=BMT3195215C.1.2.3,bus2=BMT3195222C.1.2.3,Phases=3,Linecode=CABA08_3_3,Length=0.030071000,Units=km
new line.TR12314459 bus1=BMT3195222C.1.2.3,bus2=BMT3195229C.1.2.3,Phases=3,Linecode=CABA08_3_3,Length=0.024990000,Units=km
new line.TR12314460 bus1=BMT3195229C.1.2.3,bus2=BMT3195236C.1.2.3,Phases=3,Linecode=CABA08_3_3,Length=0.022127000,Units=km
new line.TR12314461 bus1=BMT3195236C.1.2.3,bus2=BMT3400735C.1.2.3,Phases=3,Linecode=CABA08_3_3,Length=0.038103000,Units=km
new line.TR12314514 bus1=BMT1450535B.1.2.3,bus2=BMT8916227B.1.2.3,Phases=3,Linecode=CABA08_3_3,Length=0.013148000,Units=km
new line.TR12314515 bus1=BMT8916227B.1.2.3,bus2=BMT155756928.1.2.3,Phases=3,Linecode=CABA08_3_3,Length=0.016273000,Units=km
new line.TR12316827 bus1=BMT1454420C.1.2.3,bus2=BMT163629333.1.2.3,Phases=3,Linecode=CABA08_3_3,Length=0.030794000,Units=km
new line.TR12316911 bus1=BMT166108797.1.2.3,bus2=BMT155377237.1.2.3,Phases=3,Linecode=CAB207_3_3,Length=0.349313000,Units=km
new line.TR12316913 bus1=BMT166109276.2,bus2=BMT166109277.2,Phases=1,Linecode=CAB202_3_1,Length=0.060810000,Units=km
new line.TR12317146 bus1=BMT166109273.2,bus2=BMT166109274.2,Phases=1,Linecode=CAB202_3_1,Length=0.003604000,Units=km
new line.TR12317147 bus1=BMT166109274.2,bus2=BMT166109275.2,Phases=1,Linecode=CAB202_3_1,Length=0.279938000,Units=km
new line.TR12317150 bus1=BMT166109274.2,bus2=BMT166109276.2,Phases=1,Linecode=CAB103_3_1,Length=0.052332000,Units=km
new line.TR12318004 bus1=BMT155756928.1.2.3,bus2=BMT3195215C.1.2.3,Phases=3,Linecode=CABA08_3_3,Length=0.049749000,Units=km
new line.TR10387098 bus1=BMT154296193.1.2.3,bus2=BMT154296194.1.2.3,Phases=3,Linecode=CAB104_3_3,Length=0.002236000,Units=km
new line.TR10387105 bus1=BMT154296194.1.2.3,bus2=BMT154296195.1.2.3,Phases=3,Linecode=CAB104_3_3,Length=0.024688000,Units=km
new line.TR10718870 bus1=BMT100999439.3,bus2=BMT6981004B.3,Phases=1,Linecode=CAB202_3_1,Length=0.134939000,Units=km
new line.TR10718877 bus1=BMT6981004B.3,bus2=BMT100999453.3,Phases=1,Linecode=CAB202_3_1,Length=0.136427000,Units=km
new line.TR10735012 bus1=BMT172590271.1,bus2=BMT172590272.1,Phases=1,Linecode=CAB202_3_1,Length=0.197417000,Units=km
new line.TR10735047 bus1=BMT2607054B.1,bus2=BMT6997727B.1,Phases=1,Linecode=CAB202_3_1,Length=0.509137000,Units=km
new line.TR10735054 bus1=BMT6997727B.1,bus2=BMT172590271.1,Phases=1,Linecode=CAB202_3_1,Length=0.248114000,Units=km
new line.TR10911454 bus1=BMT163127619.1,bus2=BMT7154534B.1,Phases=1,Linecode=CAB202_3_1,Length=0.297887000,Units=km
new line.TR10911475 bus1=BMT7154534B.1,bus2=BMT7154576B.1,Phases=1,Linecode=CAB202_3_1,Length=0.337034000,Units=km
new line.TR10911636 bus1=BMT7154576B.1,bus2=BMT159421044.1,Phases=1,Linecode=CAB202_3_1,Length=0.291240000,Units=km
new line.TR10911699 bus1=BMT159509158.1,bus2=BMT7154807B.1,Phases=1,Linecode=CAB202_3_1,Length=0.040776000,Units=km
new line.TR10911734 bus1=BMT7154807B.1,bus2=BMT159509159.1,Phases=1,Linecode=CAB202_3_1,Length=0.331233000,Units=km
new line.TR11050719 bus1=BMT166109747.2,bus2=BMT166109750.2,Phases=1,Linecode=CAB202_3_1,Length=0.086456000,Units=km
new line.TR11050726 bus1=BMT4695490B.2,bus2=BMT166109750.2,Phases=1,Linecode=CAB202_3_1,Length=0.305344000,Units=km
new line.TR11050831 bus1=BMT166109750.2,bus2=BMT166109752.2,Phases=1,Linecode=CAB103_3_1,Length=0.079276000,Units=km
new line.TR11959613 bus1=BMT101001798.1.2.3,bus2=BMT5993164B.1.2.3,Phases=3,Linecode=CABA06_3_3,Length=0.028308000,Units=km
new line.TR11959620 bus1=BMT5993164B.1.2.3,bus2=BMT172009416.1.2.3,Phases=3,Linecode=CABA06_3_3,Length=0.040443000,Units=km
new line.TR11959627 bus1=BMT172009416.1.2.3,bus2=BMT5993178B.1.2.3,Phases=3,Linecode=CABA06_3_3,Length=0.034468000,Units=km
new line.TR11959683 bus1=BMT5993178B.1.2.3,bus2=BMT5993171B.1.2.3,Phases=3,Linecode=CABA06_3_3,Length=0.032267000,Units=km
new line.TR11959718 bus1=BMT5822112B.1.2.3,bus2=BMT5822105B.1.2.3,Phases=3,Linecode=CABA06_3_3,Length=0.033942000,Units=km
new line.TR11959739 bus1=BMT5822105B.1.2.3,bus2=BMT5822098B.1.2.3,Phases=3,Linecode=CABA06_3_3,Length=0.033002000,Units=km
new line.TR11959760 bus1=BMT5822098B.1.2.3,bus2=BMT1634663B.1.2.3,Phases=3,Linecode=CABA06_3_3,Length=0.028149000,Units=km
new line.TR11959795 bus1=BMT1634663B.1.2.3,bus2=BMT172009418.1.2.3,Phases=3,Linecode=CABA06_3_3,Length=0.026915000,Units=km
new line.TR12148783 bus1=BMT159421044.1,bus2=BMT8744631B.1,Phases=1,Linecode=CAB202_3_1,Length=0.075136000,Units=km
new line.TR12148784 bus1=BMT8744631B.1,bus2=BMT8744633B.1,Phases=1,Linecode=CAB202_3_1,Length=0.045468000,Units=km
new line.TR12148786 bus1=BMT8744633B.1,bus2=BMT8744636B.1,Phases=1,Linecode=CAB202_3_1,Length=0.027448000,Units=km
new line.TR12148787 bus1=BMT8744636B.1,bus2=BMT163127620.1,Phases=1,Linecode=CAB202_3_1,Length=0.241407000,Units=km
new line.TR12148788 bus1=BMT163127620.1,bus2=BMT163127621.1,Phases=1,Linecode=CAB103_3_1,Length=0.040788000,Units=km
new line.TR12148789 bus1=BMT163127621.1,bus2=BMT8744640B.1,Phases=1,Linecode=CAB103_3_1,Length=0.036782000,Units=km
new line.TR12148790 bus1=BMT8744640B.1,bus2=BMT163127622.1,Phases=1,Linecode=CAB103_3_1,Length=0.064449000,Units=km
new line.TR12187705 bus1=BMT164997980.1.2.3,bus2=BMT164997982.1.2.3,Phases=3,Linecode=CAB107_3_3,Length=0.027008000,Units=km
new line.TR12187708 bus1=BMT1636700B.1.2.3,bus2=BMT164997980.1.2.3,Phases=3,Linecode=CAB107_3_3,Length=0.008059000,Units=km
new line.TR12187711 bus1=BMT1717487B.1.2.3,bus2=BMT164997980.1.2.3,Phases=3,Linecode=CAB107_3_3,Length=0.033942000,Units=km
new line.TR12187712 bus1=BMT164997980.1.2.3,bus2=BMT1717501B.1.2.3,Phases=3,Linecode=CAB107_3_3,Length=0.005998000,Units=km
new line.TR12188036 bus1=BMT1632990B.1.2.3,bus2=BMT163789777.1.2.3,Phases=3,Linecode=CABA06_3_3,Length=0.017486000,Units=km
new line.TR12188037 bus1=BMT1632997B.1,bus2=BMT163789777.1,Phases=1,Linecode=CAB102_3_1,Length=0.012078000,Units=km
new line.TR12304000 bus1=BMT171866000.2,bus2=BMT171866003.2,Phases=1,Linecode=CAB202_3_1,Length=0.283921000,Units=km
new line.TR12304001 bus1=BMT171866003.2,bus2=BMT171866004.2,Phases=1,Linecode=CAB202_3_1,Length=0.083964000,Units=km
new line.TR12304004 bus1=BMT171866003.2,bus2=BMT8905411B.2,Phases=1,Linecode=CAB202_3_1,Length=0.054061000,Units=km
new line.TR12304005 bus1=BMT8905411B.2,bus2=BMT8905412B.2,Phases=1,Linecode=CAB202_3_1,Length=0.178801000,Units=km
new line.TR12304006 bus1=BMT8905412B.2,bus2=BMT171866005.2,Phases=1,Linecode=CAB202_3_1,Length=0.068848000,Units=km
new line.TR12304527 bus1=BMT157327847.3,bus2=BMT157327849.3,Phases=1,Linecode=CAB103_3_1,Length=0.015028000,Units=km
new line.TR12304528 bus1=BMT157327847.3,bus2=BMT8905813B.3,Phases=1,Linecode=CAB103_3_1,Length=0.002828000,Units=km
new line.TR12304529 bus1=BMT8905813B.3,bus2=BMT157327850.3,Phases=1,Linecode=CAB103_3_1,Length=0.028291000,Units=km
new line.TR12304895 bus1=BMT163565371.1.2.3,bus2=BMT8906126B.1.2.3,Phases=3,Linecode=CABA08_3_3,Length=0.015647000,Units=km
new line.TR12304897 bus1=BMT8906126B.1.2.3,bus2=BMT163566370.1.2.3,Phases=3,Linecode=CABA08_3_3,Length=0.013034000,Units=km
new line.TR12305275 bus1=BMT3400735C.1.2.3,bus2=BMT3400728C.1.2.3,Phases=3,Linecode=CABA08_3_3,Length=0.024032000,Units=km
new line.TR12305277 bus1=BMT3400728C.1.2.3,bus2=BMT163629331.1.2.3,Phases=3,Linecode=CABA08_3_3,Length=0.024990000,Units=km
new line.TR12305279 bus1=BMT163629331.1.2.3,bus2=BMT2605640C.1.2.3,Phases=3,Linecode=CABA08_3_3,Length=0.027882000,Units=km
new line.TR12305281 bus1=BMT2605640C.1.2.3,bus2=BMT155369407.1.2.3,Phases=3,Linecode=CABA08_3_3,Length=0.033513000,Units=km
new line.TR12305284 bus1=BMT155369407.1.2.3,bus2=BMT1454420C.1.2.3,Phases=3,Linecode=CABA08_3_3,Length=0.024342000,Units=km
new line.TR12417349 bus1=BMT2607355B.1,bus2=BMT158830595.1,Phases=1,Linecode=CAB202_3_1,Length=0.093900000,Units=km
new line.TR12417350 bus1=BMT158830595.1,bus2=BMT3860215B.1,Phases=1,Linecode=CAB202_3_1,Length=0.105637000,Units=km
new line.TR12417356 bus1=BMT158830595.1,bus2=BMT9023343B.1,Phases=1,Linecode=CAB103_3_1,Length=0.052816000,Units=km
new line.TR12417357 bus1=BMT9023343B.1,bus2=BMT9023344B.1,Phases=1,Linecode=CAB103_3_1,Length=0.032002000,Units=km
new line.TR10199386 bus1=BMT157327854.3,bus2=BMT157327855.3,Phases=1,Linecode=CAB203_3_1,Length=0.031894000,Units=km
new line.TR10199491 bus1=BMT166086279.2,bus2=BMT5957338B.2,Phases=1,Linecode=CAB103_3_1,Length=0.042411000,Units=km
new line.TR10550646 bus1=BMT166109275.2,bus2=BMT6810869B.2,Phases=1,Linecode=CAB202_3_1,Length=0.045632000,Units=km
new line.TR10550653 bus1=BMT6810869B.2,bus2=BMT166109279.2,Phases=1,Linecode=CAB202_3_1,Length=0.129347000,Units=km
new line.TR10717631 bus1=BMT3527036B.1,bus2=BMT172590270.1,Phases=1,Linecode=CAB202_3_1,Length=0.056986000,Units=km
new line.TR10717638 bus1=BMT172590270.1,bus2=BMT3527043B.1,Phases=1,Linecode=CAB202_3_1,Length=0.083208000,Units=km
new line.TR11022334 bus1=BMT172957933.1,bus2=BMT7252079B.1,Phases=1,Linecode=CAB202_3_1,Length=0.105276000,Units=km
new line.TR11022341 bus1=BMT7252079B.1,bus2=BMT172957934.1,Phases=1,Linecode=CAB202_3_1,Length=0.043946000,Units=km
new line.TR11726121 bus1=BMT173123226.1.2.3,bus2=BMT1635846B.1.2.3,Phases=3,Linecode=CAB103_3_3,Length=0.033228000,Units=km
new line.TR11726128 bus1=BMT1635846B.1.2.3,bus2=BMT1635853B.1.2.3,Phases=3,Linecode=CAB103_3_3,Length=0.037321000,Units=km
new line.TR11919538 bus1=BMT166072458.1,bus2=BMT166072460.1,Phases=1,Linecode=CAB202_3_1,Length=0.350385000,Units=km
new line.TR11919895 bus1=BMT150778567.1.2.3,bus2=BMT8068034B.1.2.3,Phases=3,Linecode=CAB207_3_3,Length=0.082063000,Units=km
new line.TR11919909 bus1=BMT8068034B.1.2.3,bus2=BMT8068027B.1.2.3,Phases=3,Linecode=CAB207_3_3,Length=0.071998000,Units=km
new line.TR11919937 bus1=BMT8068027B.1.2.3,bus2=BMT8068020B.1.2.3,Phases=3,Linecode=CAB207_3_3,Length=0.108121000,Units=km
new line.TR11919951 bus1=BMT8068020B.1.2.3,bus2=BMT173126674.1.2.3,Phases=3,Linecode=CAB207_3_3,Length=0.068089000,Units=km
new line.TR11920315 bus1=BMT173126672.1.2.3,bus2=BMT8068349B.1.2.3,Phases=3,Linecode=CAB207_3_3,Length=0.364003000,Units=km
new line.TR11920406 bus1=BMT8068349B.1.2.3,bus2=BMT8068342B.1.2.3,Phases=3,Linecode=CAB207_3_3,Length=0.109028000,Units=km
new line.TR11920434 bus1=BMT8068342B.1.2.3,bus2=BMT8068328B.1.2.3,Phases=3,Linecode=CAB207_3_3,Length=0.091050000,Units=km
new line.TR11920448 bus1=BMT8068328B.1.2.3,bus2=BMT8068321B.1.2.3,Phases=3,Linecode=CAB207_3_3,Length=0.102036000,Units=km
new line.TR11920455 bus1=BMT8068321B.1.2.3,bus2=BMT8068314B.1.2.3,Phases=3,Linecode=CAB207_3_3,Length=0.083020000,Units=km
new line.TR11920462 bus1=BMT8068314B.1.2.3,bus2=BMT8068300B.1.2.3,Phases=3,Linecode=CAB207_3_3,Length=0.143954000,Units=km
new line.TR11920469 bus1=BMT8068300B.1.2.3,bus2=BMT150778567.1.2.3,Phases=3,Linecode=CAB207_3_3,Length=0.083182000,Units=km
new line.TR12184365 bus1=BMT172009403.1.2.3,bus2=BMT172009402.1.2.3,Phases=3,Linecode=CAB103_3_3,Length=0.017685000,Units=km
new line.TR12184366 bus1=BMT172009402.1,bus2=BMT172009404.1,Phases=1,Linecode=CAB103_3_1,Length=0.075929000,Units=km
new line.TR12184374 bus1=BMT172009403.1.2.3,bus2=BMT8783947B.1.2.3,Phases=3,Linecode=CABA06_3_3,Length=0.029720000,Units=km
new line.TR12184375 bus1=BMT8783947B.1.2.3,bus2=BMT8783952B.1.2.3,Phases=3,Linecode=CABA06_3_3,Length=0.032880000,Units=km
new line.TR12184376 bus1=BMT8783952B.1.2.3,bus2=BMT8783953B.1.2.3,Phases=3,Linecode=CABA06_3_3,Length=0.031940000,Units=km
new line.TR12184377 bus1=BMT8783953B.1.2.3,bus2=BMT172009406.1.2.3,Phases=3,Linecode=CABA06_3_3,Length=0.031004000,Units=km
new line.TR12184379 bus1=BMT172009406.1.2.3,bus2=BMT8783955B.1.2.3,Phases=3,Linecode=CAB202_3_3,Length=0.114564000,Units=km
new line.TR12184380 bus1=BMT8783955B.1.2.3,bus2=BMT172009407.1.2.3,Phases=3,Linecode=CAB202_3_3,Length=0.051844000,Units=km
new line.TR12184404 bus1=BMT172009400.1.2.3,bus2=BMT172009402.1.2.3,Phases=3,Linecode=CAB202_3_3,Length=0.126098000,Units=km