new line.10570946 bus1=BBT2795053.1.2.0,bus2=BBT2795060.1.2.0,Phases=2,Linecode=BT518_BT518_7_2_1,Length=0.000500000,Units=km
new line.10571023 bus1=BBT2795011.1.2.0,bus2=BBT2795018.1.2.0,Phases=2,Linecode=BT518_BT518_7_2_1,Length=0.000500000,Units=km
new line.10571093 bus1=BBT2794997.1.2.0,bus2=BBT2795004.1.2.0,Phases=2,Linecode=BT518_BT518_7_2_1,Length=0.000500000,Units=km
new line.10573375 bus1=BBT2795935.1.2.3.0,bus2=BBT2795942.1.2.3.0,Phases=3,Linecode=BT810_BT810_4_3_4,Length=0.040009000,Units=km
new line.10573396 bus1=BBT2795928.1.2.3.0,bus2=BBT2795935.1.2.3.0,Phases=3,Linecode=BT810_BT810_4_3_4,Length=0.040009000,Units=km
new line.10573417 bus1=BBT2795921.1.2.3.0,bus2=BBT2795928.1.2.3.0,Phases=3,Linecode=BT810_BT810_4_3_4,Length=0.030794000,Units=km
new line.10573431 bus1=BBT2795858.1.2.3.0,bus2=BBT2795893.1.2.3.0,Phases=3,Linecode=BT810_BT810_4_3_4,Length=0.032190000,Units=km
new line.10573466 bus1=BBT2795676.1.2.3.0,bus2=BBT2795851.1.2.3.0,Phases=3,Linecode=BT810_BT810_4_3_4,Length=0.022838000,Units=km
new line.10573473 bus1=BBT2795676.1.2.3.0,bus2=BBT3047172.1.2.3.0,Phases=3,Linecode=BT810_BT810_4_3_4,Length=0.033513000,Units=km
new line.10573494 bus1=BBT2795669.1.2.3.0,bus2=BBT2795676.1.2.3.0,Phases=3,Linecode=BT803_BT803_4_3_4,Length=0.034656000,Units=km
new line.10573515 bus1=BBT2795655.1.2.3.0,bus2=BBT2795669.1.2.3.0,Phases=3,Linecode=BT803_BT803_4_3_4,Length=0.030451000,Units=km
new line.10573536 bus1=BBT2795648.1.2.3.0,bus2=BBT2795655.1.2.3.0,Phases=3,Linecode=BT803_BT803_4_3_4,Length=0.034001000,Units=km
new line.10573543 bus1=BBT2795641.1.2.3.0,bus2=BBT2795648.1.2.3.0,Phases=3,Linecode=BT508_BT508_7_3_1,Length=0.000500000,Units=km
new line.10573550 bus1=BBT2795648.1.2.3.0,bus2=BBT2795683.1.2.3.0,Phases=3,Linecode=BT803_BT803_4_3_4,Length=0.031004000,Units=km
new line.10573571 bus1=BBT2795683.1.2.3.0,bus2=BBT2795690.1.2.3.0,Phases=3,Linecode=BT803_BT803_4_3_4,Length=0.029057000,Units=km
new line.10573599 bus1=BBT2795690.1.2.3.0,bus2=BBT2795697.1.2.3.0,Phases=3,Linecode=BT803_BT803_4_3_4,Length=0.030055000,Units=km
new line.10573634 bus1=BBT2795697.1.2.3.0,bus2=BBT2795704.1.2.3.0,Phases=3,Linecode=BT810_BT810_4_3_4,Length=0.026915000,Units=km
new line.10573648 bus1=BBT2795704.1.2.3.0,bus2=BBT2795711.1.2.3.0,Phases=3,Linecode=BT810_BT810_4_3_4,Length=0.032003000,Units=km
new line.10573669 bus1=BBT2795711.1.2.3.0,bus2=BBT2795718.1.2.3.0,Phases=3,Linecode=BT810_BT810_4_3_4,Length=0.007613000,Units=km
new line.10573690 bus1=BBT2795718.1.2.3.0,bus2=BBT2795725.1.2.3.0,Phases=3,Linecode=BT810_BT810_4_3_4,Length=0.021087000,Units=km
new line.10573753 bus1=BBT2795809.1.2.3.0,bus2=BBT2795816.1.2.3.0,Phases=3,Linecode=BT810_BT810_4_3_4,Length=0.025070000,Units=km
new line.10573774 bus1=BBT2795802.1.2.3.0,bus2=BBT2795809.1.2.3.0,Phases=3,Linecode=BT810_BT810_4_3_4,Length=0.032050000,Units=km
new line.10573802 bus1=BBT2795795.1.2.3.0,bus2=BBT2795802.1.2.3.0,Phases=3,Linecode=BT810_BT810_4_3_4,Length=0.032003000,Units=km
new line.10573823 bus1=BBT2795788.1.2.3.0,bus2=BBT2795795.1.2.3.0,Phases=3,Linecode=BT803_BT803_4_3_4,Length=0.030005000,Units=km
new line.10573837 bus1=BBT2795634.1.2.3.0,bus2=BBT2795788.1.2.3.0,Phases=3,Linecode=BT803_BT803_4_3_4,Length=0.028060000,Units=km
new line.10573844 bus1=BBT2795627.1.2.3.0,bus2=BBT2795634.1.2.3.0,Phases=3,Linecode=BT518_BT518_7_3_1,Length=0.000500000,Units=km
new line.10573851 bus1=BBT2795634.1.2.3.0,bus2=BBT2795732.1.2.3.0,Phases=3,Linecode=BT803_BT803_4_3_4,Length=0.025010000,Units=km
new line.10573872 bus1=BBT2795732.1.2.3.0,bus2=BBT2795739.1.2.3.0,Phases=3,Linecode=BT803_BT803_4_3_4,Length=0.026067000,Units=km
new line.10573900 bus1=BBT2795739.1.2.3.0,bus2=BBT2795746.1.2.3.0,Phases=3,Linecode=BT803_BT803_4_3_4,Length=0.030055000,Units=km
new line.10573921 bus1=BBT2795746.1.2.3.0,bus2=BBT2795753.1.2.3.0,Phases=3,Linecode=BT810_BT810_4_3_4,Length=0.030055000,Units=km
new line.10573942 bus1=BBT2795753.1.2.3.0,bus2=BBT2795760.1.2.3.0,Phases=3,Linecode=BT810_BT810_4_3_4,Length=0.030055000,Units=km
new line.10573956 bus1=BBT2795760.1.2.3.0,bus2=BBT2795767.1.2.3.0,Phases=3,Linecode=BT810_BT810_4_3_4,Length=0.025797000,Units=km
new line.10573963 bus1=BBT2795767.1.2.3.0,bus2=BBT2795774.1.2.3.0,Phases=3,Linecode=BT810_BT810_4_3_4,Length=0.039608000,Units=km
new line.10573977 bus1=BBT2795774.1.2.3.0,bus2=BBT4816303.1.2.3.0,Phases=3,Linecode=BT810_BT810_4_3_4,Length=0.034192000,Units=km
new line.10573998 bus1=BBT2795851.1.2.3.0,bus2=BBT2795921.1.2.3.0,Phases=3,Linecode=BT810_BT810_4_3_4,Length=0.011176000,Units=km
new line.10574005 bus1=BBT2795851.1.2.3.0,bus2=BBT2795858.1.2.3.0,Phases=3,Linecode=BT810_BT810_4_3_4,Length=0.015805000,Units=km
new line.10574012 bus1=BBT2795851.1.2.3.0,bus2=BBT2795914.1.2.3.0,Phases=3,Linecode=BT810_BT810_4_3_4,Length=0.018104000,Units=km
new line.10576532 bus1=BBT2794983.1.2.0,bus2=BBT2797167.1.2.0,Phases=2,Linecode=BT518_BT518_7_2_1,Length=0.000500000,Units=km
new line.10576553 bus1=BBT2794990.1.2.0,bus2=BBT2797174.1.2.0,Phases=2,Linecode=BT518_BT518_7_2_1,Length=0.000500000,Units=km
new line.10576567 bus1=BBT23238070.2.0,bus2=BBT23238077.2.0,Phases=1,Linecode=BT816_BT816_4_1_2,Length=0.026009000,Units=km
new line.10576630 bus1=BBT2794976.1.2.0,bus2=BBT2797216.1.2.0,Phases=2,Linecode=BT518_BT518_7_2_1,Length=0.000500000,Units=km
new line.10576735 bus1=BBT2794969.1.2.0,bus2=BBT2797223.1.2.0,Phases=2,Linecode=BT513_BT513_7_2_1,Length=0.000500000,Units=km
new line.10785902 bus1=BBT2832804.1.2.3.0,bus2=BBT2832811.1.2.3.0,Phases=3,Linecode=BT803_BT803_4_3_4,Length=0.014555000,Units=km
new line.11115721 bus1=BBT2916286.2.0,bus2=BBT23238070.2.0,Phases=1,Linecode=BT816_BT816_4_1_2,Length=0.019842000,Units=km
new line.11115728 bus1=BBT2916279.1.2.0,bus2=BBT2916286.1.2.0,Phases=2,Linecode=BT518_BT518_7_2_1,Length=0.000500000,Units=km
new line.11438554 bus1=BBT3005655.1.2.3.0,bus2=BBT2222999.1.2.3.0,Phases=3,Linecode=BT803_BT803_4_3_4,Length=0.015258000,Units=km
new line.11438610 bus1=BBT3005550.1.2.3.0,bus2=BBT3005585.1.2.3.0,Phases=3,Linecode=BT810_BT810_4_3_4,Length=0.032236000,Units=km
new line.11438617 bus1=BBT3005550.1.2.3.0,bus2=BBT3005557.1.2.3.0,Phases=3,Linecode=BT803_BT803_4_3_4,Length=0.036041000,Units=km
new line.11438638 bus1=BBT3005557.1.2.3.0,bus2=BBT3005564.1.2.3.0,Phases=3,Linecode=BT803_BT803_4_3_4,Length=0.033273000,Units=km
new line.11438673 bus1=BBT3005564.1.2.3.0,bus2=BBT3005578.1.2.3.0,Phases=3,Linecode=BT803_BT803_4_3_4,Length=0.038260000,Units=km
new line.11438750 bus1=BBT3005543.1.2.3.0,bus2=BBT3005550.1.2.3.0,Phases=3,Linecode=BT803_BT803_4_3_4,Length=0.033602000,Units=km
new line.11438778 bus1=BBT3005536.1.2.3.0,bus2=BBT3005543.1.2.3.0,Phases=3,Linecode=BT803_BT803_4_3_4,Length=0.039430000,Units=km
new line.11438806 bus1=BBT3005529.1.2.3.0,bus2=BBT3005536.1.2.3.0,Phases=3,Linecode=BT803_BT803_4_3_4,Length=0.031893000,Units=km
new line.11438841 bus1=BBT3005501.1.2.3.0,bus2=BBT3005529.1.2.3.0,Phases=3,Linecode=BT803_BT803_4_3_4,Length=0.034468000,Units=km
new line.11438848 bus1=BBT3005494.1.2.3.0,bus2=BBT3005501.1.2.3.0,Phases=3,Linecode=BT518_BT518_7_3_1,Length=0.000500000,Units=km
new line.11438855 bus1=BBT3005501.1.2.3.0,bus2=BBT3005592.1.2.3.0,Phases=3,Linecode=BT803_BT803_4_3_4,Length=0.038063000,Units=km
new line.11438960 bus1=BBT3005592.1.2.3.0,bus2=BBT3005599.1.2.3.0,Phases=3,Linecode=BT803_BT803_4_3_4,Length=0.033602000,Units=km
new line.11438981 bus1=BBT3005599.1.2.3.0,bus2=BBT3005606.1.2.3.0,Phases=3,Linecode=BT803_BT803_4_3_4,Length=0.034656000,Units=km
new line.11439044 bus1=BBT3005606.1.2.3.0,bus2=BBT3005613.1.2.3.0,Phases=3,Linecode=BT803_BT803_4_3_4,Length=0.035832000,Units=km
new line.11439065 bus1=BBT3005613.1.2.3.0,bus2=BBT3005627.1.2.3.0,Phases=3,Linecode=BT803_BT803_4_3_4,Length=0.036344000,Units=km
new line.11439086 bus1=BBT3005627.1.2.3.0,bus2=BBT3005634.1.2.3.0,Phases=3,Linecode=BT810_BT810_4_3_4,Length=0.035426000,Units=km
new line.11439093 bus1=BBT3005627.1.2.3.0,bus2=BBT3005641.1.2.3.0,Phases=3,Linecode=BT810_BT810_4_3_4,Length=0.032298000,Units=km
new line.11439205 bus1=BBT3005641.1.2.3.0,bus2=BBT3005648.1.2.3.0,Phases=3,Linecode=BT810_BT810_4_3_4,Length=0.034771000,Units=km
new line.12018392 bus1=BBT3172136.1.2.3.0,bus2=BBT3172143.1.2.3.0,Phases=3,Linecode=BT810_BT810_4_3_4,Length=0.033228000,Units=km
new line.12018420 bus1=BBT3172129.1.2.3.0,bus2=BBT90633188.1.2.3.0,Phases=3,Linecode=BT810_BT810_4_3_4,Length=0.014860000,Units=km
new line.12568690 bus1=BBT3366386.1.2.0,bus2=BBT3366393.1.2.0,Phases=2,Linecode=BT801_BT801_4_2_3,Length=0.081367000,Units=km
new line.12568704 bus1=BBT3366393.1.2.0,bus2=BBT3366400.1.2.0,Phases=2,Linecode=BT801_BT801_4_2_3,Length=0.054062000,Units=km
new line.12568732 bus1=BBT3366407.1.2.0,bus2=BBT3366414.1.2.0,Phases=2,Linecode=BT801_BT801_4_2_3,Length=0.063614000,Units=km
new line.12568753 bus1=BBT3366414.1.2.0,bus2=BBT3366421.1.2.0,Phases=2,Linecode=BT801_BT801_4_2_3,Length=0.042621000,Units=km
new line.12953193 bus1=BBT3507926.1.2.0,bus2=BBT3507933.1.2.0,Phases=2,Linecode=BT808_BT808_4_2_3,Length=0.015226000,Units=km
new line.12953214 bus1=BBT3507933.1.2.0,bus2=BBT3507940.1.2.0,Phases=2,Linecode=BT808_BT808_4_2_3,Length=0.019917000,Units=km
new line.12953235 bus1=BBT3507940.1.2.0,bus2=BBT3507947.1.2.0,Phases=2,Linecode=BT808_BT808_4_2_3,Length=0.017993000,Units=km
new line.12953277 bus1=BBT3507919.1.2.0,bus2=BBT2030597.1.2.0,Phases=2,Linecode=BT108_BT107_7_2_1,Length=0.033002000,Units=km
new line.12953284 bus1=BBT3507919.1.2.0,bus2=BBT3507926.1.2.0,Phases=2,Linecode=BT808_BT808_4_2_3,Length=0.020117000,Units=km
new line.12958919 bus1=BBT3510432.1.2.0,bus2=BBT3510439.1.2.0,Phases=2,Linecode=BT808_BT808_4_2_3,Length=0.059590000,Units=km
new line.12958954 bus1=BBT3510397.1.2.0,bus2=BBT3510432.1.2.0,Phases=2,Linecode=BT808_BT808_4_2_3,Length=0.039795000,Units=km
new line.12958982 bus1=BBT3510446.1.2.0,bus2=BBT3510453.1.2.0,Phases=2,Linecode=BT807_BT807_4_2_3,Length=0.058830000,Units=km
new line.12959017 bus1=BBT3510390.1.2.0,bus2=BBT3510397.1.2.0,Phases=2,Linecode=BT807_BT807_4_2_3,Length=0.059110000,Units=km
new line.12959066 bus1=BBT3510376.1.2.0,bus2=BBT3510390.1.2.0,Phases=2,Linecode=BT807_BT807_4_2_3,Length=0.063044000,Units=km
new line.12959087 bus1=BBT3510369.1.2.0,bus2=BBT3510446.1.2.0,Phases=2,Linecode=BT807_BT807_4_2_3,Length=0.052322000,Units=km
new line.12959094 bus1=BBT3510369.1.2.0,bus2=BBT3510376.1.2.0,Phases=2,Linecode=BT807_BT807_4_2_3,Length=0.052977000,Units=km
new line.12959101 bus1=BBT3510362.1.2.0,bus2=BBT3510369.1.2.0,Phases=2,Linecode=BT513_BT513_7_2_1,Length=0.000500000,Units=km
new line.12959143 bus1=BBT3510453.1.2.0,bus2=BBT3510460.1.2.0,Phases=2,Linecode=BT808_BT808_4_2_3,Length=0.063761000,Units=km
new line.12959178 bus1=BBT3510460.1.2.0,bus2=BBT3510467.1.2.0,Phases=2,Linecode=BT808_BT808_4_2_3,Length=0.059815000,Units=km
new line.12959227 bus1=BBT3510467.1.2.0,bus2=BBT3510474.1.2.0,Phases=2,Linecode=BT808_BT808_4_2_3,Length=0.031767000,Units=km
new line.12959248 bus1=BBT3510474.1.2.0,bus2=BBT6025574.1.2.0,Phases=2,Linecode=BT808_BT808_4_2_3,Length=0.007613000,Units=km
new line.12959269 bus1=BBT3510586.1.2.0,bus2=BBT3510593.1.2.0,Phases=2,Linecode=BT808_BT808_4_2_3,Length=0.071975000,Units=km
new line.12959290 bus1=BBT3510565.1.2.0,bus2=BBT3510586.1.2.0,Phases=2,Linecode=BT808_BT808_4_2_3,Length=0.058830000,Units=km
new line.12959311 bus1=BBT3510558.1.2.0,bus2=BBT3510565.1.2.0,Phases=2,Linecode=BT807_BT807_4_2_3,Length=0.047655000,Units=km
new line.12959346 bus1=BBT3510558.1.2.0,bus2=BBT3510551.1.2.0,Phases=2,Linecode=BT807_BT807_4_2_3,Length=0.056269000,Units=km
new line.12959367 bus1=BBT3510551.1.2.0,bus2=BBT3510544.1.2.0,Phases=2,Linecode=BT807_BT807_4_2_3,Length=0.046990000,Units=km
new line.12959409 bus1=BBT3510544.1.2.0,bus2=BBT3510537.1.2.0,Phases=2,Linecode=BT807_BT807_4_2_3,Length=0.025228000,Units=km
new line.12959423 bus1=BBT3510537.1.2.0,bus2=BBT3510530.1.2.0,Phases=2,Linecode=BT807_BT807_4_2_3,Length=0.022013000,Units=km
new line.12959437 bus1=BBT3510530.1.2.0,bus2=BBT3510523.1.2.0,Phases=2,Linecode=BT807_BT807_4_2_3,Length=0.021922000,Units=km
new line.12959465 bus1=BBT3510523.1.2.0,bus2=BBT3510502.1.2.0,Phases=2,Linecode=BT807_BT807_4_2_3,Length=0.050781000,Units=km
new line.12959472 bus1=BBT3510495.1.2.0,bus2=BBT3510558.1.2.0,Phases=2,Linecode=BT513_BT513_7_2_1,Length=0.000500000,Units=km
new line.12959479 bus1=BBT3510502.1.2.0,bus2=BBT3510600.1.2.0,Phases=2,Linecode=BT807_BT807_4_2_3,Length=0.059438000,Units=km
new line.12959507 bus1=BBT3510600.1.2.0,bus2=BBT3510607.1.2.0,Phases=2,Linecode=BT807_BT807_4_2_3,Length=0.049223000,Units=km
new line.12959528 bus1=BBT3510607.1.2.0,bus2=BBT3510614.1.2.0,Phases=2,Linecode=BT808_BT808_4_2_3,Length=0.060513000,Units=km
new line.12959556 bus1=BBT3510614.1.2.0,bus2=BBT3510621.1.2.0,Phases=2,Linecode=BT808_BT808_4_2_3,Length=0.058284000,Units=km
new line.12959570 bus1=BBT3510621.1.2.0,bus2=BBT3510628.1.2.0,Phases=2,Linecode=BT808_BT808_4_2_3,Length=0.034698000,Units=km
new line.12967445 bus1=BBT7490835.1.2.0,bus2=BBT2221536.1.2.0,Phases=2,Linecode=BT107_BT107_7_2_1,Length=0.017993000,Units=km
new line.12967452 bus1=BBT7490835.1.2.0,bus2=BBT7490863.1.2.0,Phases=2,Linecode=BT808_BT808_4_2_3,Length=0.022195000,Units=km
new line.12983055 bus1=BBT3521058.1.2.3.0,bus2=BBT4877644.1.2.3.0,Phases=3,Linecode=BT810_BT810_4_3_4,Length=0.026009000,Units=km
new line.13777877 bus1=BBT3837668.1.0,bus2=BBT3837675.1.0,Phases=1,Linecode=BT106_BT106_7_1_1,Length=0.052181000,Units=km
new line.13785248 bus1=BBT3840601.1.2.0,bus2=BBT3840615.1.2.0,Phases=2,Linecode=BT808_BT808_4_2_3,Length=0.048002000,Units=km
new line.13785276 bus1=BBT3840615.1.2.0,bus2=BBT3840622.1.2.0,Phases=2,Linecode=BT808_BT808_4_2_3,Length=0.044704000,Units=km
new line.13785283 bus1=BBT3840622.1.2.0,bus2=BBT3840629.1.2.0,Phases=2,Linecode=BT808_BT808_4_2_3,Length=0.033408000,Units=km
new line.13785360 bus1=BBT3840650.1.2.3.0,bus2=BBT3840671.1.2.3.0,Phases=3,Linecode=BT810_BT810_4_3_4,Length=0.045775000,Units=km
new line.13785374 bus1=BBT3840671.2.3.0,bus2=BBT3840678.2.3.0,Phases=2,Linecode=BT808_BT808_4_2_3,Length=0.037681000,Units=km
new line.13785381 bus1=BBT3840671.1.2.3.0,bus2=BBT3840692.1.2.3.0,Phases=3,Linecode=BT810_BT810_4_3_4,Length=0.044401000,Units=km
new line.13785395 bus1=BBT3840678.2.3.0,bus2=BBT3840685.2.3.0,Phases=2,Linecode=BT808_BT808_4_2_3,Length=0.041745000,Units=km
new line.13785416 bus1=BBT3840692.1.2.3.0,bus2=BBT3840699.1.2.3.0,Phases=3,Linecode=BT810_BT810_4_3_4,Length=0.039947000,Units=km
new line.13785423 bus1=BBT3840699.1.2.3.0,bus2=BBT3840706.1.2.3.0,Phases=3,Linecode=BT810_BT810_4_3_4,Length=0.043994000,Units=km
new line.13785437 bus1=BBT3840706.1.2.3.0,bus2=BBT3840734.1.2.3.0,Phases=3,Linecode=BT810_BT810_4_3_4,Length=0.031004000,Units=km
new line.13785451 bus1=BBT3840734.1.2.0,bus2=BBT3840769.1.2.0,Phases=2,Linecode=BT808_BT808_4_2_3,Length=0.029988000,Units=km
new line.13785465 bus1=BBT3840769.1.2.0,bus2=BBT3840776.1.2.0,Phases=2,Linecode=BT808_BT808_4_2_3,Length=0.043721000,Units=km
new line.13785479 bus1=BBT3840776.1.2.0,bus2=BBT3840783.1.2.0,Phases=2,Linecode=BT808_BT808_4_2_3,Length=0.043721000,Units=km
new line.13786956 bus1=BBT3841203.1.2.0,bus2=BBT3841210.1.2.0,Phases=2,Linecode=BT814_BT814_4_2_3,Length=0.062622000,Units=km
new line.13792381 bus1=BBT3844297.1.2.0,bus2=BBT3009568.1.2.0,Phases=2,Linecode=BT807_BT807_4_2_3,Length=0.047362000,Units=km
new line.13792388 bus1=BBT3009526.1.2.0,bus2=BBT3844297.1.2.0,Phases=2,Linecode=BT518_BT518_7_2_1,Length=0.000500000,Units=km
new line.13792395 bus1=BBT3844297.1.2.0,bus2=BBT3844374.1.2.0,Phases=2,Linecode=BT807_BT807_4_2_3,Length=0.039645000,Units=km
new line.13792402 bus1=BBT3844374.1.2.0,bus2=BBT3844451.1.2.0,Phases=2,Linecode=BT807_BT807_4_2_3,Length=0.042468000,Units=km
new line.13792423 bus1=BBT3844451.1.2.0,bus2=BBT3844486.1.2.0,Phases=2,Linecode=BT807_BT807_4_2_3,Length=0.042503000,Units=km
new line.13792437 bus1=BBT3844486.1.2.0,bus2=BBT3844521.1.2.0,Phases=2,Linecode=BT808_BT808_4_2_3,Length=0.041214000,Units=km
new line.13792444 bus1=BBT3844521.1.2.0,bus2=BBT3844528.1.2.0,Phases=2,Linecode=BT808_BT808_4_2_3,Length=0.038063000,Units=km
new line.13792458 bus1=BBT3844528.1.2.0,bus2=BBT3844542.1.2.0,Phases=2,Linecode=BT808_BT808_4_2_3,Length=0.034972000,Units=km
new line.13792472 bus1=BBT3844542.1.2.0,bus2=BBT3844549.1.2.0,Phases=2,Linecode=BT808_BT808_4_2_3,Length=0.046629000,Units=km
new line.13792507 bus1=BBT3844549.1.2.0,bus2=BBT3844556.1.2.0,Phases=2,Linecode=BT808_BT808_4_2_3,Length=0.042173000,Units=km
new line.13792549 bus1=BBT3844556.1.2.0,bus2=BBT3844563.1.2.0,Phases=2,Linecode=BT808_BT808_4_2_3,Length=0.044703000,Units=km
new line.13792605 bus1=BBT3844500.1.2.0,bus2=BBT3844507.1.2.0,Phases=2,Linecode=BT808_BT808_4_2_3,Length=0.038572000,Units=km
new line.13792619 bus1=BBT3844493.1.2.0,bus2=BBT3844500.1.2.0,Phases=2,Linecode=BT808_BT808_4_2_3,Length=0.035496000,Units=km
new line.13792885 bus1=BBT3844584.2.3.0,bus2=BBT3844591.2.3.0,Phases=2,Linecode=BT808_BT808_4_2_3,Length=0.045467000,Units=km
new line.13792955 bus1=BBT3844591.2.3.0,bus2=BBT3844598.2.3.0,Phases=2,Linecode=BT808_BT808_4_2_3,Length=0.044803000,Units=km
new line.13792969 bus1=BBT3844598.2.3.0,bus2=BBT3844605.2.3.0,Phases=2,Linecode=BT808_BT808_4_2_3,Length=0.044703000,Units=km
new line.13793011 bus1=BBT3844626.1.2.3.0,bus2=BBT3844612.1.2.3.0,Phases=3,Linecode=BT803_BT803_4_3_4,Length=0.049989000,Units=km
new line.13793018 bus1=BBT3844633.1.2.3.0,bus2=BBT3844626.1.2.3.0,Phases=3,Linecode=BT803_BT803_4_3_4,Length=0.052017000,Units=km
new line.13793039 bus1=BBT3844633.1.2.3.0,bus2=BBT3844640.1.2.3.0,Phases=3,Linecode=BT803_BT803_4_3_4,Length=0.045026000,Units=km
new line.13793053 bus1=BBT3844640.1.2.0,bus2=BBT3844647.1.2.0,Phases=2,Linecode=BT808_BT808_4_2_3,Length=0.054015000,Units=km
new line.13793067 bus1=BBT3844647.1.2.0,bus2=BBT3844654.1.2.0,Phases=2,Linecode=BT808_BT808_4_2_3,Length=0.051018000,Units=km
new line.13793081 bus1=BBT3844654.1.2.0,bus2=BBT3844661.1.2.0,Phases=2,Linecode=BT808_BT808_4_2_3,Length=0.037039000,Units=km
new line.13796595 bus1=BBT3845683.2.0,bus2=BBT3845690.2.0,Phases=1,Linecode=BT811_BT811_4_1_3,Length=0.119173000,Units=km
new line.13802041 bus1=BBT3847076.1.2.0,bus2=BBT21511065.1.2.0,Phases=2,Linecode=BT814_BT814_4_2_3,Length=0.055585000,Units=km
new line.13803070 bus1=BBT3847524.1.0,bus2=BBT3847545.1.0,Phases=1,Linecode=BT811_BT811_4_1_3,Length=0.079970000,Units=km
new line.13803147 bus1=BBT3847559.1.0,bus2=BBT161057027.1.0,Phases=1,Linecode=BT811_BT811_4_1_3,Length=0.015994000,Units=km
new line.14095936 bus1=BBT3966076.1.2.0,bus2=BBT3966083.1.2.0,Phases=2,Linecode=BT518_BT518_7_2_1,Length=0.000500000,Units=km
new line.14096188 bus1=BBT3966090.1.2.0,bus2=BBT3966097.1.2.0,Phases=2,Linecode=BT518_BT518_7_2_1,Length=0.000500000,Units=km
new line.14096195 bus1=BBT3966097.1.2.0,bus2=BBT3966104.1.2.0,Phases=2,Linecode=BT808_BT808_4_2_3,Length=0.027009000,Units=km
new line.14096223 bus1=BBT3966104.1.2.0,bus2=BBT3966111.1.2.0,Phases=2,Linecode=BT808_BT808_4_2_3,Length=0.030469000,Units=km
new line.14096237 bus1=BBT3966111.1.2.0,bus2=BBT3966118.1.2.0,Phases=2,Linecode=BT808_BT808_4_2_3,Length=0.039810000,Units=km
new line.14096377 bus1=BBT21705217.1.2.0,bus2=BBT21705224.1.2.0,Phases=2,Linecode=BT518_BT518_7_2_1,Length=0.000500000,Units=km
new line.14096412 bus1=BBT3966132.1.2.0,bus2=BBT3966139.1.2.0,Phases=2,Linecode=BT518_BT518_7_2_1,Length=0.000500000,Units=km
new line.14096811 bus1=BBT3966314.1.2.0,bus2=BBT3966321.1.2.0,Phases=2,Linecode=BT513_BT509_7_2_1,Length=0.000500000,Units=km
new line.14097098 bus1=BBT3966475.1.2.0,bus2=BBT3966482.1.2.0,Phases=2,Linecode=BT518_BT518_7_2_1,Length=0.000500000,Units=km
new line.14097217 bus1=BBT3966587.2.0,bus2=BBT3966594.2.0,Phases=1,Linecode=BT808_BT808_4_1_3,Length=0.089107000,Units=km
new line.14097224 bus1=BBT3966580.1.2.0,bus2=BBT3966587.1.2.0,Phases=2,Linecode=BT518_BT518_7_2_1,Length=0.000500000,Units=km
new line.14097273 bus1=BBT3966608.2.0,bus2=BBT3966615.2.0,Phases=1,Linecode=BT808_BT808_4_1_3,Length=0.076450000,Units=km
new line.14097280 bus1=BBT3966601.1.2.0,bus2=BBT3966608.1.2.0,Phases=2,Linecode=BT518_BT518_7_2_1,Length=0.000500000,Units=km
new line.14105393 bus1=BBT3969422.1.2.0,bus2=BBT3969429.1.2.0,Phases=2,Linecode=BT518_BT518_7_2_1,Length=0.000500000,Units=km
new line.14105400 bus1=BBT3969429.2.0,bus2=BBT3969436.2.0,Phases=1,Linecode=BT808_BT808_4_1_3,Length=0.032561000,Units=km
new line.14105582 bus1=BBT3969450.1.2.0,bus2=BBT3969457.1.2.0,Phases=2,Linecode=BT518_BT518_7_2_1,Length=0.000500000,Units=km
new line.14105645 bus1=BBT3969541.1.2.0,bus2=BBT3969548.1.2.0,Phases=2,Linecode=BT518_BT518_7_2_1,Length=0.000500000,Units=km
new line.14105652 bus1=BBT3969548.1.2.0,bus2=BBT3969569.1.2.0,Phases=2,Linecode=BT808_BT808_4_2_3,Length=0.061694000,Units=km
new line.14309730 bus1=BBT4048991.1.2.3.0,bus2=BBT4048984.1.2.3.0,Phases=3,Linecode=BT803_BT803_4_3_4,Length=0.029518000,Units=km
new line.14309744 bus1=BBT4048998.1.2.3.0,bus2=BBT4048991.1.2.3.0,Phases=3,Linecode=BT803_BT803_4_3_4,Length=0.025010000,Units=km
new line.14309751 bus1=BBT4048998.1.2.3.0,bus2=BBT4049019.1.2.3.0,Phases=3,Linecode=BT803_BT803_4_3_4,Length=0.030055000,Units=km
new line.14309772 bus1=BBT4049019.1.2.3.0,bus2=BBT4049117.1.2.3.0,Phases=3,Linecode=BT803_BT803_4_3_4,Length=0.031372000,Units=km
new line.14309793 bus1=BBT4049117.1.2.3.0,bus2=BBT4049145.1.2.3.0,Phases=3,Linecode=BT803_BT803_4_3_4,Length=0.054567000,Units=km
new line.14310423 bus1=BBT4050167.1.2.0,bus2=BBT4050174.1.2.0,Phases=2,Linecode=BT808_BT808_4_2_3,Length=0.048250000,Units=km
new line.14310444 bus1=BBT4050174.1.2.0,bus2=BBT4829239.1.2.0,Phases=2,Linecode=BT808_BT808_4_2_3,Length=0.024321000,Units=km
new line.14310458 bus1=BBT4050181.1.2.0,bus2=BBT4050195.1.2.0,Phases=2,Linecode=BT808_BT808_4_2_3,Length=0.045523000,Units=km
new line.14310465 bus1=BBT4050195.1.2.0,bus2=BBT4050202.1.2.0,Phases=2,Linecode=BT808_BT808_4_2_3,Length=0.046671000,Units=km
new line.14310479 bus1=BBT4050202.1.2.0,bus2=BBT23466809.1.2.0,Phases=2,Linecode=BT808_BT808_4_2_3,Length=0.032743000,Units=km
new line.14310633 bus1=BBT4050349.1.2.0,bus2=BBT4050356.1.2.0,Phases=2,Linecode=BT808_BT808_4_2_3,Length=0.038572000,Units=km
new line.10724596 bus1=BBT2821842.1.2.3.0,bus2=BBT2821849.1.2.3.0,Phases=3,Linecode=BT810_BT810_4_3_4,Length=0.023844000,Units=km
new line.10724617 bus1=BBT2821849.1.2.3.0,bus2=BBT2821856.1.2.3.0,Phases=3,Linecode=BT810_BT810_4_3_4,Length=0.036110000,Units=km
new line.10724631 bus1=BBT2821856.1.2.3.0,bus2=BBT3017828.1.2.3.0,Phases=3,Linecode=BT810_BT810_4_3_4,Length=0.036221000,Units=km
new line.11393145 bus1=BBT2994294.1.2.3.0,bus2=BBT2994287.1.2.3.0,Phases=3,Linecode=BT803_BT803_4_3_4,Length=0.039036000,Units=km
new line.11393159 bus1=BBT2994294.1.2.3.0,bus2=BBT2994301.1.2.3.0,Phases=3,Linecode=BT803_BT803_4_3_4,Length=0.034045000,Units=km
new line.11393187 bus1=BBT2994301.1.2.3.0,bus2=BBT7492620.1.2.3.0,Phases=3,Linecode=BT803_BT803_4_3_4,Length=0.033123000,Units=km
new line.11393194 bus1=BBT2994301.1.2.3.0,bus2=BBT7493180.1.2.3.0,Phases=3,Linecode=BT803_BT803_4_3_4,Length=0.037787000,Units=km
new line.11393208 bus1=BBT2994308.1.2.3.0,bus2=BBT2832825.1.2.3.0,Phases=3,Linecode=BT107_BT108_7_3_1,Length=0.011398000,Units=km
new line.11584931 bus1=BBT3047172.1.2.3.0,bus2=BBT3047179.1.2.3.0,Phases=3,Linecode=BT810_BT810_4_3_4,Length=0.040984000,Units=km
new line.11584952 bus1=BBT3047179.1.2.3.0,bus2=BBT3047186.1.2.3.0,Phases=3,Linecode=BT810_BT810_4_3_4,Length=0.040246000,Units=km
new line.11880681 bus1=BBT3127623.1.2.0,bus2=BBT3127630.1.2.0,Phases=2,Linecode=BT801_BT801_4_2_3,Length=0.025446000,Units=km
new line.12483024 bus1=BBT25157757.1.2.0,bus2=BBT25157764.1.2.0,Phases=2,Linecode=BT518_BT518_7_2_1,Length=0.000500000,Units=km
new line.12483031 bus1=BBT25157764.1.2.0,bus2=BBT25157771.1.2.0,Phases=2,Linecode=BT808_BT808_4_2_3,Length=0.058388000,Units=km
new line.12483255 bus1=BBT3329853.1.2.0,bus2=BBT3329860.1.2.0,Phases=2,Linecode=BT518_BT518_7_2_1,Length=0.000500000,Units=km
new line.12483262 bus1=BBT3329860.1.2.0,bus2=BBT3333857.1.2.0,Phases=2,Linecode=BT808_BT808_4_2_3,Length=0.051174000,Units=km
new line.12483269 bus1=BBT3329860.1.2.0,bus2=BBT3333871.1.2.0,Phases=2,Linecode=BT808_BT808_4_2_3,Length=0.036110000,Units=km
new line.12489905 bus1=BBT3333871.1.2.0,bus2=BBT3333878.1.2.0,Phases=2,Linecode=BT808_BT808_4_2_3,Length=0.025169000,Units=km
new line.12941846 bus1=BBT11280544.1.2.0,bus2=BBT11280593.1.2.0,Phases=2,Linecode=BT808_BT808_4_2_3,Length=0.058283000,Units=km
new line.13123790 bus1=BBT3573873.1.2.0,bus2=BBT3573985.1.2.0,Phases=2,Linecode=BT801_BT801_4_2_3,Length=0.054547000,Units=km
new line.13126541 bus1=BBT3575021.1.2.0,bus2=BBT3575028.1.2.0,Phases=2,Linecode=BT801_BT801_4_2_3,Length=0.056118000,Units=km
new line.13138742 bus1=BBT3966643.1.2.0,bus2=BBT3966650.1.2.0,Phases=2,Linecode=BT518_BT518_7_2_1,Length=0.000500000,Units=km
new line.13139022 bus1=BBT3579599.1.2.3.0,bus2=BBT3579606.1.2.3.0,Phases=3,Linecode=BT514_BT514_7_3_1,Length=0.000500000,Units=km
new line.13824574 bus1=BBT2283710.1.2.0,bus2=BBT3855581.1.2.0,Phases=2,Linecode=BT518_BT518_7_2_1,Length=0.000500000,Units=km
new line.13828767 bus1=BBT3857226.1.2.0,bus2=BBT3857233.1.2.0,Phases=2,Linecode=BT518_BT518_7_2_1,Length=0.000500000,Units=km
new line.13829096 bus1=BBT3857282.1.2.0,bus2=BBT3857289.1.2.0,Phases=2,Linecode=BT518_BT518_7_2_1,Length=0.000500000,Units=km
new line.13829103 bus1=BBT3857289.1.2.0,bus2=BBT3857296.1.2.0,Phases=2,Linecode=BT808_BT808_4_2_3,Length=0.065167000,Units=km
new line.13829110 bus1=BBT3857289.1.2.0,bus2=BBT3857303.1.2.0,Phases=2,Linecode=BT808_BT808_4_2_3,Length=0.031004000,Units=km
new line.13829173 bus1=BBT3857303.1.2.0,bus2=BBT3857310.1.2.0,Phases=2,Linecode=BT808_BT808_4_2_3,Length=0.049347000,Units=km
new line.14383202 bus1=BBT4109611.1.2.0,bus2=BBT4109618.1.2.0,Phases=2,Linecode=BT518_BT518_7_2_1,Length=0.000500000,Units=km
new line.14383307 bus1=BBT4109653.1.2.0,bus2=BBT4109660.1.2.0,Phases=2,Linecode=BT518_BT518_7_2_1,Length=0.000500000,Units=km
new line.14383356 bus1=BBT4109716.1.2.0,bus2=BBT4109723.1.2.0,Phases=2,Linecode=BT518_BT518_7_2_1,Length=0.000500000,Units=km
new line.14663384 bus1=BBT4362766.1.2.0,bus2=BBT4362773.1.2.0,Phases=2,Linecode=BT518_BT518_7_2_1,Length=0.000500000,Units=km
new line.14663846 bus1=BBT4363242.1.2.0,bus2=BBT4363249.1.2.0,Phases=2,Linecode=BT518_BT518_7_2_1,Length=0.000500000,Units=km
new line.14843179 bus1=BBT4614836.1.2.3.0,bus2=BBT4614843.1.2.3.0,Phases=3,Linecode=BT514_BT514_7_3_1,Length=0.000500000,Units=km
new line.14851131 bus1=BBT5463803.2.0,bus2=BBT5463824.2.0,Phases=1,Linecode=BT816_BT816_4_1_2,Length=0.096346000,Units=km
new line.14851138 bus1=BBT5463803.1.2.0,bus2=BBT5463810.1.2.0,Phases=2,Linecode=BT814_BT814_4_2_3,Length=0.039809000,Units=km
new line.14851145 bus1=BBT4627681.2.0,bus2=BBT4627688.2.0,Phases=1,Linecode=BT816_BT816_4_1_2,Length=0.060787000,Units=km
new line.15005964 bus1=BBT4871127.1.2.0,bus2=BBT4871134.1.2.0,Phases=2,Linecode=BT808_BT808_4_2_3,Length=0.032437000,Units=km
new line.15005971 bus1=BBT4871127.1.2.0,bus2=BBT22015814.1.2.0,Phases=2,Linecode=BT808_BT808_4_2_3,Length=0.052017000,Units=km
new line.15005978 bus1=BBT4871120.1.2.0,bus2=BBT4871127.1.2.0,Phases=2,Linecode=BT808_BT808_4_2_3,Length=0.034656000,Units=km
new line.15005985 bus1=BBT4871113.1.2.0,bus2=BBT4871120.1.2.0,Phases=2,Linecode=BT808_BT808_4_2_3,Length=0.042527000,Units=km
new line.15005992 bus1=BBT4871106.1.2.0,bus2=BBT4871113.1.2.0,Phases=2,Linecode=BT807_BT807_4_2_3,Length=0.042173000,Units=km
new line.15005999 bus1=BBT4871099.1.2.0,bus2=BBT4871106.1.2.0,Phases=2,Linecode=BT513_BT513_7_2_1,Length=0.000500000,Units=km
new line.15006006 bus1=BBT4871106.1.2.0,bus2=BBT4871141.1.2.0,Phases=2,Linecode=BT807_BT807_4_2_3,Length=0.040295000,Units=km
new line.15006013 bus1=BBT4871141.1.2.0,bus2=BBT4871148.1.2.0,Phases=2,Linecode=BT807_BT807_4_2_3,Length=0.039303000,Units=km
new line.15006020 bus1=BBT4871141.1.2.0,bus2=BBT22015667.1.2.0,Phases=2,Linecode=BT808_BT808_4_2_3,Length=0.056580000,Units=km
new line.15006027 bus1=BBT4871148.1.2.0,bus2=BBT4871155.1.2.0,Phases=2,Linecode=BT808_BT808_4_2_3,Length=0.044265000,Units=km
new line.15006034 bus1=BBT4871155.1.2.0,bus2=BBT4871162.1.2.0,Phases=2,Linecode=BT808_BT808_4_2_3,Length=0.031244000,Units=km
new line.15006041 bus1=BBT4871162.1.2.0,bus2=BBT4871169.1.2.0,Phases=2,Linecode=BT808_BT808_4_2_3,Length=0.042562000,Units=km
new line.15006762 bus1=BBT4873808.1.2.0,bus2=BBT4873815.1.2.0,Phases=2,Linecode=BT808_BT808_4_2_3,Length=0.024688000,Units=km
new line.15008407 bus1=BBT4877686.1.2.3.0,bus2=BBT4877693.1.2.3.0,Phases=3,Linecode=BT810_BT810_4_3_4,Length=0.043399000,Units=km
new line.15008414 bus1=BBT4877693.1.2.3.0,bus2=BBT4877700.1.2.3.0,Phases=3,Linecode=BT810_BT810_4_3_4,Length=0.033986000,Units=km
new line.15008421 bus1=BBT4877700.1.2.3.0,bus2=BBT4877707.1.2.3.0,Phases=3,Linecode=BT810_BT810_4_3_4,Length=0.039341000,Units=km
new line.15008428 bus1=BBT4877644.1.2.3.0,bus2=BBT4877651.1.2.3.0,Phases=3,Linecode=BT810_BT810_4_3_4,Length=0.027063000,Units=km
new line.15008435 bus1=BBT4877658.1.2.3.0,bus2=BBT4877665.1.2.3.0,Phases=3,Linecode=BT810_BT810_4_3_4,Length=0.031244000,Units=km
new line.15008442 bus1=BBT4877714.1.2.3.0,bus2=BBT4877721.1.2.3.0,Phases=3,Linecode=BT803_BT803_4_3_4,Length=0.018241000,Units=km
new line.15008449 bus1=BBT4877721.1.2.3.0,bus2=BBT4877728.1.2.3.0,Phases=3,Linecode=BT810_BT810_4_3_4,Length=0.023336000,Units=km
new line.15989359 bus1=BBT7058893.1.2.0,bus2=BBT2222320.1.2.0,Phases=2,Linecode=BT807_BT807_4_2_3,Length=0.017023000,Units=km
new line.10604973 bus1=BBT2803859.1.2.0,bus2=BBT2803866.1.2.0,Phases=2,Linecode=BT518_BT518_7_2_1,Length=0.000500000,Units=km
new line.12291014 bus1=BBT3259741.1.2.0,bus2=BBT3259748.1.2.0,Phases=2,Linecode=BT518_BT518_7_2_1,Length=0.000500000,Units=km
new line.12303600 bus1=BBT3264179.1.2.0,bus2=BBT3264186.1.2.0,Phases=2,Linecode=BT518_BT518_7_2_1,Length=0.000500000,Units=km