! manter este comentario para compatibilidade do C#
new circuit.alimIIGU118 bus1=BMT163565371.1.2.3,basekv=13.800000000,pu=1.040000000