new line.CTR141499 bus1=BMT150778121.3,bus2=BMT164588108.3,Phases=1,LineCode=tieSwitch1,Length=0.001,Units=km,switch=T !numEQ 119488
new line.CTR3998 bus1=BMT100996513.1,bus2=BMT123639042.1,Phases=1,LineCode=tieSwitch1,Length=0.001,Units=km,switch=T !numEQ 49643
new line.CTR432524 bus1=BMT100996933.3,bus2=BMT100997920.3,Phases=1,LineCode=tieSwitch1,Length=0.001,Units=km,switch=T !numEQ 49416
new line.CTR432566 bus1=BMT100996716.3,bus2=BMT100998361.3,Phases=1,LineCode=tieSwitch1,Length=0.001,Units=km,switch=T !numEQ 49434
new line.CTR432615 bus1=BMT100996646.2,bus2=BMT100998396.2,Phases=1,LineCode=tieSwitch1,Length=0.001,Units=km,switch=T !numEQ 49475
new line.CTR432993 bus1=BMT101001350.2,bus2=BMT101001385.2,Phases=1,LineCode=tieSwitch1,Length=0.001,Units=km,switch=T !numEQ 49586
new line.CTR433000 bus1=BMT101001273.1.2.3,bus2=BMT172273075.1.2.3,Phases=3,LineCode=tieSwitch,Length=0.001,Units=km,switch=T !numEQ 49588
new line.CTR433070 bus1=BMT100994287.1.2.3,bus2=BMT166008466.1.2.3,Phases=3,LineCode=tieSwitch,Length=0.001,Units=km,switch=T !numEQ 49611
new line.CTR433273 bus1=BMT100996429.1.2.3,bus2=BMT100995792.1.2.3,Phases=3,LineCode=tieSwitch,Length=0.001,Units=km,switch=T !numEQ 49680
open line.CTR433273 term=1
new line.CTR434659 bus1=BMT100994420.1.2.3,bus2=BMT100994441.1.2.3,Phases=3,LineCode=tieSwitch,Length=0.001,Units=km,switch=T !numEQ 51111
new line.CTR435233 bus1=BMT101002043.3,bus2=BMT101002113.3,Phases=1,LineCode=tieSwitch1,Length=0.001,Units=km,switch=T !numEQ 51473
new line.CTR435254 bus1=BMT100996044.1.2.3,bus2=BMT150867657.1.2.3,Phases=3,LineCode=tieSwitch,Length=0.001,Units=km,switch=T !numEQ 51487
new line.CTR480229 bus1=BMT101001777.1.2.3,bus2=BMT171865994.1.2.3,Phases=3,LineCode=tieSwitch,Length=0.001,Units=km,switch=T !numEQ 49476
new line.CTR53047 bus1=BMT100994140.1.2.3,bus2=BMT156028757.1.2.3,Phases=3,LineCode=tieSwitch,Length=0.001,Units=km,switch=T !numEQ 49065
new line.CTR727658 bus1=BMT100997003.1,bus2=BMT163127619.1,Phases=1,LineCode=tieSwitch1,Length=0.001,Units=km,switch=T !numEQ 219149
new line.CTR730437 bus1=BMT108682114.1,bus2=BMT108682170.1,Phases=1,LineCode=tieSwitch1,Length=0.001,Units=km,switch=T !numEQ 219148
new line.CTR730577 bus1=BMT100995323.2,bus2=BMT100995351.2,Phases=1,LineCode=tieSwitch1,Length=0.001,Units=km,switch=T !numEQ 219151
new line.CTR730808 bus1=BMT100995421.2,bus2=BMT166269804.2,Phases=1,LineCode=tieSwitch1,Length=0.001,Units=km,switch=T !numEQ 219152
new line.CTR863088 bus1=BMT153647453.3,bus2=BMT153647458.3,Phases=1,LineCode=tieSwitch1,Length=0.001,Units=km,switch=T !numEQ 237975
new line.CTR876792 bus1=BMT157783712.2,bus2=BMT157783852.2,Phases=1,LineCode=tieSwitch1,Length=0.001,Units=km,switch=T !numEQ 247792
new line.CTR877519 bus1=BMT158050283.1.2.3,bus2=BMT158055065.1.2.3,Phases=3,LineCode=tieSwitch,Length=0.001,Units=km,switch=T !numEQ 233699
new line.CTR891582 bus1=BMT163789775.1.2.3,bus2=BMT164296750.1.2.3,Phases=3,LineCode=tieSwitch,Length=0.001,Units=km,switch=T !numEQ 260101
new line.CTR892583 bus1=BMT164117457.1.2.3,bus2=BMT164117483.1.2.3,Phases=3,LineCode=tieSwitch,Length=0.001,Units=km,switch=T !numEQ 244921
new line.CTR905727 bus1=BMT168574354.3,bus2=BMT168579257.3,Phases=1,LineCode=tieSwitch1,Length=0.001,Units=km,switch=T !numEQ 247797
new line.CTR919548 bus1=BMT173126669.1.2.3,bus2=BMT173126670.1.2.3,Phases=3,LineCode=tieSwitch,Length=0.001,Units=km,switch=T !numEQ 322104
new line.CTRR32862 bus1=BMT151686964.1.2.3,bus2=BMT151686946.1.2.3,Phases=3,LineCode=tieSwitch,Length=0.001,Units=km,switch=T !numEQ 124639
open line.CTRR32862 term=1
new line.CTR153637 bus1=BMT100994378.1.2.3,bus2=BMT100994588.1.2.3,Phases=3,LineCode=tieSwitch,Length=0.001,Units=km,switch=T !numEQ 138025
new line.CTR220284 bus1=BMT156874241.3,bus2=BMT157327839.3,Phases=1,LineCode=tieSwitch1,Length=0.001,Units=km,switch=T !numEQ 70800
new line.CTR270663 bus1=BMT100993755.1.2.3,bus2=BMT135265090.1.2.3,Phases=3,LineCode=tieSwitch,Length=0.001,Units=km,switch=T !numEQ 187126
new line.CTR369797 bus1=BMT100993979.3,bus2=BMT101001469.3,Phases=1,LineCode=tieSwitch1,Length=0.001,Units=km,switch=T !numEQ 138487
new line.CTR445425 bus1=BMT100998991.3,bus2=BMT101000363.3,Phases=1,LineCode=tieSwitch1,Length=0.001,Units=km,switch=T !numEQ 73524
new line.CTR445761 bus1=BMT100993867.1.2.3,bus2=BMT172828338.1.2.3,Phases=3,LineCode=tieSwitch,Length=0.001,Units=km,switch=T !numEQ 73747
new line.CTR48539 bus1=BMT100996793.2,bus2=BMT100998032.2,Phases=1,LineCode=tieSwitch1,Length=0.001,Units=km,switch=T !numEQ 51482
new line.CTR537118 bus1=BMT101001749.1.2.3,bus2=BMT101001812.1.2.3,Phases=3,LineCode=tieSwitch,Length=0.001,Units=km,switch=T !numEQ 133330
new line.CTR538945 bus1=BMT100998172.3,bus2=BMT100998333.3,Phases=1,LineCode=tieSwitch1,Length=0.001,Units=km,switch=T !numEQ 73755
new line.CTR816628 bus1=BMT163963155.3,bus2=BMT163963163.3,Phases=1,LineCode=tieSwitch1,Length=0.001,Units=km,switch=T !numEQ 310088
new line.CTR878426 bus1=BMT158376165.1,bus2=BMT158376229.1,Phases=1,LineCode=tieSwitch1,Length=0.001,Units=km,switch=T !numEQ 248173
new line.CTR893396 bus1=BMT164411065.1,bus2=BMT164411067.1,Phases=1,LineCode=tieSwitch1,Length=0.001,Units=km,switch=T !numEQ 261073
new line.CTRR33422 bus1=BMT101000671.3,bus2=BMT121428099.3,Phases=1,LineCode=tieSwitch1,Length=0.001,Units=km,switch=T !numEQ 48880
new line.CTR234823 bus1=BMT100996954.1,bus2=BMT162153451.1,Phases=1,LineCode=tieSwitch1,Length=0.001,Units=km,switch=T !numEQ 49355
new line.CTR235236 bus1=BMT100993671.2,bus2=BMT137054927.2,Phases=1,LineCode=tieSwitch1,Length=0.001,Units=km,switch=T !numEQ 49188
new line.CTR235362 bus1=BMT100997325.1,bus2=BMT172667662.1,Phases=1,LineCode=tieSwitch1,Length=0.001,Units=km,switch=T !numEQ 49147
new line.CTR235677 bus1=BMT100994875.2,bus2=BMT165575177.2,Phases=1,LineCode=tieSwitch1,Length=0.001,Units=km,switch=T !numEQ 48997
new line.CTR235824 bus1=BMT100995750.1.2.3,bus2=BMT160112089.1.2.3,Phases=3,LineCode=tieSwitch,Length=0.001,Units=km,switch=T !numEQ 48958
new line.CTR236503 bus1=BMT100996723.1.2.3,bus2=BMT156874335.1.2.3,Phases=3,LineCode=tieSwitch,Length=0.001,Units=km,switch=T !numEQ 48817
new line.CTR236713 bus1=BMT100999124.2,bus2=BMT162773466.2,Phases=1,LineCode=tieSwitch1,Length=0.001,Units=km,switch=T !numEQ 48729
new line.CTR236727 bus1=BMT100999243.1,bus2=BMT165928697.1,Phases=1,LineCode=tieSwitch1,Length=0.001,Units=km,switch=T !numEQ 48731
new line.CTR236881 bus1=BMT100996058.1.2.3,bus2=BMT164560599.1.2.3,Phases=3,LineCode=tieSwitch,Length=0.001,Units=km,switch=T !numEQ 48694
new line.CTR236895 bus1=BMT100996114.3,bus2=BMT160515906.3,Phases=1,LineCode=tieSwitch1,Length=0.001,Units=km,switch=T !numEQ 48696
new line.CTR236909 bus1=BMT100994161.1.2.3,bus2=BMT150379856.1.2.3,Phases=3,LineCode=tieSwitch,Length=0.001,Units=km,switch=T !numEQ 48698
new line.CTR236923 bus1=BMT100994182.1.2.3,bus2=BMT100995743.1.2.3,Phases=3,LineCode=tieSwitch,Length=0.001,Units=km,switch=T !numEQ 48699
new line.CTR236937 bus1=BMT100995974.1,bus2=BMT165198400.1,Phases=1,LineCode=tieSwitch1,Length=0.001,Units=km,switch=T !numEQ 48701
new line.CTR236951 bus1=BMT100994322.1.2.3,bus2=BMT163789774.1.2.3,Phases=3,LineCode=tieSwitch,Length=0.001,Units=km,switch=T !numEQ 48703
new line.CTR236965 bus1=BMT100994371.1.2.3,bus2=BMT164049682.1.2.3,Phases=3,LineCode=tieSwitch,Length=0.001,Units=km,switch=T !numEQ 48705
new line.CTR236979 bus1=BMT173127268.1,bus2=BMT173135836.1,Phases=1,LineCode=tieSwitch1,Length=0.001,Units=km,switch=T !numEQ 48707
new line.CTR236993 bus1=BMT100994392.1.2.3,bus2=BMT173123221.1.2.3,Phases=3,LineCode=tieSwitch,Length=0.001,Units=km,switch=T !numEQ 48708
new line.CTR237007 bus1=BMT111601317.1.2.3,bus2=BMT158195958.1.2.3,Phases=3,LineCode=tieSwitch,Length=0.001,Units=km,switch=T !numEQ 48711
new line.CTR237287 bus1=BMT100998802.1,bus2=BMT158830594.1,Phases=1,LineCode=tieSwitch1,Length=0.001,Units=km,switch=T !numEQ 48631
new line.CTR237301 bus1=BMT101000447.3,bus2=BMT138921582.3,Phases=1,LineCode=tieSwitch1,Length=0.001,Units=km,switch=T !numEQ 48632
new line.CTR29457 bus1=BMT100998809.1.2.3,bus2=BMT101000811.1.2.3,Phases=3,LineCode=tieSwitch,Length=0.001,Units=km,switch=T !numEQ 165399
new line.CTR514585 bus1=BMT172280629.1.2.3,bus2=BMT100994252.1.2.3,Phases=3,LineCode=tieSwitch,Length=0.001,Units=km,switch=T !numEQ 48700
new line.CTR741196 bus1=BMT100998753.3,bus2=BMT101000860.3,Phases=1,LineCode=tieSwitch1,Length=0.001,Units=km,switch=T !numEQ 224327
new line.CTR807899 bus1=BMT120338080.1.2.3,bus2=BMT157595709.1.2.3,Phases=3,LineCode=tieSwitch,Length=0.001,Units=km,switch=T !numEQ 305863
new line.CTR807913 bus1=BMT120340082.1.2.3,bus2=BMT152955413.1.2.3,Phases=3,LineCode=tieSwitch,Length=0.001,Units=km,switch=T !numEQ 305862
new line.CTR867610 bus1=BMT163566370.1.2.3,bus2=BMT163629314.1.2.3,Phases=3,LineCode=tieSwitch,Length=0.001,Units=km,switch=T !numEQ 165872
new line.CTR868412 bus1=BMT155214534.1.2.3,bus2=BMT156292867.1.2.3,Phases=3,LineCode=tieSwitch,Length=0.001,Units=km,switch=T !numEQ 237696
new line.CTR868699 bus1=BMT163629315.1.2.3,bus2=BMT163629332.1.2.3,Phases=3,LineCode=tieSwitch,Length=0.001,Units=km,switch=T !numEQ 241870
new line.CTR882508 bus1=BMT159847544.2,bus2=BMT168253875.2,Phases=1,LineCode=tieSwitch1,Length=0.001,Units=km,switch=T !numEQ 251126
new line.CTR227144 bus1=BMT100996905.1.2.3,bus2=BMT100996926.1.2.3,Phases=3,LineCode=tieSwitch,Length=0.001,Units=km,switch=T !numEQ 48646
new line.CTR301372 bus1=BMT100996023.1,bus2=BMT163931875.1,Phases=1,LineCode=tieSwitch1,Length=0.001,Units=km,switch=T !numEQ 205007
new line.CTR341041 bus1=BMT101001595.1.2.3,bus2=BMT101001623.1.2.3,Phases=3,LineCode=tieSwitch,Length=0.001,Units=km,switch=T !numEQ 133258
new line.CTR37647 bus1=BMT100997598.1,bus2=BMT171270429.1,Phases=1,LineCode=tieSwitch1,Length=0.001,Units=km,switch=T !numEQ 70165
new line.CTR494187 bus1=BMT100994056.1.2.3,bus2=BMT100994063.1.2.3,Phases=3,LineCode=tieSwitch,Length=0.001,Units=km,switch=T !numEQ 143297
new line.CTR54055 bus1=BMT101000664.1,bus2=BMT101000734.1,Phases=1,LineCode=tieSwitch1,Length=0.001,Units=km,switch=T !numEQ 48722
new line.CTR54083 bus1=BMT100998935.1.2.3,bus2=BMT166072455.1.2.3,Phases=3,LineCode=tieSwitch,Length=0.001,Units=km,switch=T !numEQ 48723
new line.CTR54111 bus1=BMT100999082.1,bus2=BMT159880144.1,Phases=1,LineCode=tieSwitch1,Length=0.001,Units=km,switch=T !numEQ 48725
new line.CTR54167 bus1=BMT101000230.1,bus2=BMT101000293.1,Phases=1,LineCode=tieSwitch1,Length=0.001,Units=km,switch=T !numEQ 48727
new line.CTR54223 bus1=BMT100993965.2,bus2=BMT101001518.2,Phases=1,LineCode=tieSwitch1,Length=0.001,Units=km,switch=T !numEQ 48685
new line.CTR54279 bus1=BMT100993902.1.2.3,bus2=BMT172009399.1.2.3,Phases=3,LineCode=tieSwitch,Length=0.001,Units=km,switch=T !numEQ 48688
new line.CTR54335 bus1=BMT100996534.1.2.3,bus2=BMT167048868.1.2.3,Phases=3,LineCode=tieSwitch,Length=0.001,Units=km,switch=T !numEQ 48713
new line.CTR701513 bus1=BMT155377237.2,bus2=BMT166109273.2,Phases=1,LineCode=tieSwitch1,Length=0.001,Units=km,switch=T !numEQ 214974
new line.CTR754104 bus1=BMT100996786.3,bus2=BMT113326747.3,Phases=1,LineCode=tieSwitch1,Length=0.001,Units=km,switch=T !numEQ 284223
new line.CTR757331 bus1=BMT158996019.1.2.3,bus2=BMT158997529.1.2.3,Phases=3,LineCode=tieSwitch,Length=0.001,Units=km,switch=T !numEQ 284287
new line.CTR865758 bus1=BMT154502605.2,bus2=BMT163144423.2,Phases=1,LineCode=tieSwitch1,Length=0.001,Units=km,switch=T !numEQ 238138
new line.CTR865841 bus1=BMT154532782.1,bus2=BMT160750031.1,Phases=1,LineCode=tieSwitch1,Length=0.001,Units=km,switch=T !numEQ 237709
new line.CTR866956 bus1=BMT154783387.2,bus2=BMT154783411.2,Phases=1,LineCode=tieSwitch1,Length=0.001,Units=km,switch=T !numEQ 202757
new line.CTR880874 bus1=BMT159208135.1,bus2=BMT159223298.1,Phases=1,LineCode=tieSwitch1,Length=0.001,Units=km,switch=T !numEQ 234394
new line.CTR881222 bus1=BMT159357072.1.2.3,bus2=BMT172957928.1.2.3,Phases=3,LineCode=tieSwitch,Length=0.001,Units=km,switch=T !numEQ 255807
new line.CTR881406 bus1=BMT159421044.1,bus2=BMT159509158.1,Phases=1,LineCode=tieSwitch1,Length=0.001,Units=km,switch=T !numEQ 126173
new line.CTR115172 bus1=BMT100999621.2,bus2=BMT100999649.2,Phases=1,LineCode=tieSwitch1,Length=0.001,Units=km,switch=T !numEQ 48636
new line.CTR217736 bus1=BMT172760885.1.2.3,bus2=BMT172714324.1.2.3,Phases=3,LineCode=tieSwitch,Length=0.001,Units=km,switch=T !numEQ 78258
new line.CTR219276 bus1=BMT100998235.3,bus2=BMT157030825.3,Phases=1,LineCode=tieSwitch1,Length=0.001,Units=km,switch=T !numEQ 73827
new line.CTR320181 bus1=BMT150778567.1,bus2=BMT164631336.1,Phases=1,LineCode=tieSwitch1,Length=0.001,Units=km,switch=T !numEQ 109678
new line.CTR428135 bus1=BMT101001077.2,bus2=BMT160416245.2,Phases=1,LineCode=tieSwitch1,Length=0.001,Units=km,switch=T !numEQ 48368
new line.CTR428359 bus1=BMT163629329.1.2.3,bus2=BMT156686335.1.2.3,Phases=3,LineCode=tieSwitch,Length=0.001,Units=km,switch=T !numEQ 48441
open line.CTR428359 term=1
new line.CTR428387 bus1=BMT100993916.1.2.3,bus2=BMT100993923.1.2.3,Phases=3,LineCode=tieSwitch,Length=0.001,Units=km,switch=T !numEQ 48449
new line.CTR428905 bus1=BMT100993769.1.2.3,bus2=BMT172849089.1.2.3,Phases=3,LineCode=tieSwitch,Length=0.001,Units=km,switch=T !numEQ 48604
new line.CTR428926 bus1=BMT100993748.1.2.3,bus2=BMT100993839.1.2.3,Phases=3,LineCode=tieSwitch,Length=0.001,Units=km,switch=T !numEQ 48611
new line.CTR430284 bus1=BMT101001049.1.2.3,bus2=BMT165105686.1.2.3,Phases=3,LineCode=tieSwitch,Length=0.001,Units=km,switch=T !numEQ 48712
new line.CTR430333 bus1=BMT100994098.1.2.3,bus2=BMT152818968.1.2.3,Phases=3,LineCode=tieSwitch,Length=0.001,Units=km,switch=T !numEQ 48691
new line.CTR430340 bus1=BMT100996051.1.2.3,bus2=BMT160534302.1.2.3,Phases=3,LineCode=tieSwitch,Length=0.001,Units=km,switch=T !numEQ 48693
new line.CTR430361 bus1=BMT164997983.1.2.3,bus2=BMT100996401.1.2.3,Phases=3,LineCode=tieSwitch,Length=0.001,Units=km,switch=T !numEQ 48704
new line.CTR430368 bus1=BMT100994434.1,bus2=BMT172467197.1,Phases=1,LineCode=tieSwitch1,Length=0.001,Units=km,switch=T !numEQ 48706
new line.CTR430375 bus1=BMT100996422.1.2.3,bus2=BMT173128147.1.2.3,Phases=3,LineCode=tieSwitch,Length=0.001,Units=km,switch=T !numEQ 48709
new line.CTR430382 bus1=BMT100996618.2,bus2=BMT151564573.2,Phases=1,LineCode=tieSwitch1,Length=0.001,Units=km,switch=T !numEQ 48714
new line.CTR430403 bus1=BMT100998956.3,bus2=BMT158484384.3,Phases=1,LineCode=tieSwitch1,Length=0.001,Units=km,switch=T !numEQ 48720
new line.CTR430410 bus1=BMT100998844.1.2.3,bus2=BMT158702279.1.2.3,Phases=3,LineCode=tieSwitch,Length=0.001,Units=km,switch=T !numEQ 48721
new line.CTR430431 bus1=BMT100997108.1,bus2=BMT100997570.1,Phases=1,LineCode=tieSwitch1,Length=0.001,Units=km,switch=T !numEQ 48724
new line.CTR430438 bus1=BMT100996870.3,bus2=BMT100997983.3,Phases=1,LineCode=tieSwitch1,Length=0.001,Units=km,switch=T !numEQ 48726
new line.CTR430445 bus1=BMT100999103.2,bus2=BMT166109725.2,Phases=1,LineCode=tieSwitch1,Length=0.001,Units=km,switch=T !numEQ 48728
new line.CTR430452 bus1=BMT100999138.2,bus2=BMT100999614.2,Phases=1,LineCode=tieSwitch1,Length=0.001,Units=km,switch=T !numEQ 48730
new line.CTR431306 bus1=BMT100994938.2,bus2=BMT166086250.2,Phases=1,LineCode=tieSwitch1,Length=0.001,Units=km,switch=T !numEQ 48998
new line.CTR431369 bus1=BMT100997129.1,bus2=BMT100997556.1,Phases=1,LineCode=tieSwitch1,Length=0.001,Units=km,switch=T !numEQ 49020
new line.CTR431474 bus1=BMT100999306.3,bus2=BMT100999404.3,Phases=1,LineCode=tieSwitch1,Length=0.001,Units=km,switch=T !numEQ 49046
new line.CTR431509 bus1=BMT100993930.2,bus2=BMT101001637.2,Phases=1,LineCode=tieSwitch1,Length=0.001,Units=km,switch=T !numEQ 49058
new line.CTR431614 bus1=BMT100995666.3,bus2=BMT100995715.3,Phases=1,LineCode=tieSwitch1,Length=0.001,Units=km,switch=T !numEQ 49091
new line.CTR431684 bus1=BMT100999327.1,bus2=BMT100999376.1,Phases=1,LineCode=tieSwitch1,Length=0.001,Units=km,switch=T !numEQ 49115
new line.CTR431698 bus1=BMT100997206.1.2.3,bus2=BMT151686962.1.2.3,Phases=3,LineCode=tieSwitch,Length=0.001,Units=km,switch=T !numEQ 49119
new line.CTR432111 bus1=BMT100996940.3,bus2=BMT100997892.3,Phases=1,LineCode=tieSwitch1,Length=0.001,Units=km,switch=T !numEQ 49235
new line.CTR432146 bus1=BMT100994154.2,bus2=BMT130462803.2,Phases=1,LineCode=tieSwitch1,Length=0.001,Units=km,switch=T !numEQ 49261
new line.CTR474881 bus1=BMT100996639.1.2.3,bus2=BMT164117456.1.2.3,Phases=3,LineCode=tieSwitch,Length=0.001,Units=km,switch=T !numEQ 48715
new line.CTR52417 bus1=BMT100998830.1.2.3,bus2=BMT166108795.1.2.3,Phases=3,LineCode=tieSwitch,Length=0.001,Units=km,switch=T !numEQ 49210
new line.CTR674150 bus1=BMT100996163.1,bus2=BMT100996170.1,Phases=1,LineCode=tieSwitch1,Length=0.001,Units=km,switch=T !numEQ 179506
new line.CTR860606 bus1=BMT152955416.1.2.3,bus2=BMT152955417.1.2.3,Phases=3,LineCode=tieSwitch,Length=0.001,Units=km,switch=T !numEQ 234334
new line.CTR904883 bus1=BMT168261971.2,bus2=BMT172557336.2,Phases=1,LineCode=tieSwitch1,Length=0.001,Units=km,switch=T !numEQ 250747
new line.CTR917630 bus1=BMT172557339.2,bus2=BMT172627073.2,Phases=1,LineCode=tieSwitch1,Length=0.001,Units=km,switch=T !numEQ 322360
new line.CTR231988 bus1=BMT101001686.1.2.3,bus2=BMT101001966.1.2.3,Phases=3,LineCode=tieSwitch,Length=0.001,Units=km,switch=T !numEQ 51127
new line.CTR232282 bus1=BMT100993783.2,bus2=BMT161025606.2,Phases=1,LineCode=tieSwitch1,Length=0.001,Units=km,switch=T !numEQ 50869
new line.CTR233577 bus1=BMT100993986.1.2.3,bus2=BMT164997976.1.2.3,Phases=3,LineCode=tieSwitch,Length=0.001,Units=km,switch=T !numEQ 49679
new line.CTR233822 bus1=BMT150915184.1.2.3,bus2=BMT160649534.1.2.3,Phases=3,LineCode=tieSwitch,Length=0.001,Units=km,switch=T !numEQ 49587
new line.CTR233829 bus1=BMT154296197.1.2.3,bus2=BMT100994119.1.2.3,Phases=3,LineCode=tieSwitch,Length=0.001,Units=km,switch=T !numEQ 49589
new line.CTR234473 bus1=BMT101000244.1,bus2=BMT131577812.1,Phases=1,LineCode=tieSwitch1,Length=0.001,Units=km,switch=T !numEQ 49433
new line.CTR350491 bus1=BMT100993972.1.2.3,bus2=BMT100993993.1.2.3,Phases=3,LineCode=tieSwitch,Length=0.001,Units=km,switch=T !numEQ 49238
new line.CTR383335 bus1=BMT100996877.3,bus2=BMT100997969.3,Phases=1,LineCode=tieSwitch1,Length=0.001,Units=km,switch=T !numEQ 48987
new line.CTR419518 bus1=BMT100999040.3,bus2=BMT101000328.3,Phases=1,LineCode=tieSwitch1,Length=0.001,Units=km,switch=T !numEQ 49089
new line.CTR457570 bus1=BMT100995477.2,bus2=BMT100995491.2,Phases=1,LineCode=tieSwitch1,Length=0.001,Units=km,switch=T !numEQ 167104
new line.CTR553323 bus1=BMT101002106.3,bus2=BMT165201900.3,Phases=1,LineCode=tieSwitch1,Length=0.001,Units=km,switch=T !numEQ 49624
new line.CTR553603 bus1=BMT100997360.1,bus2=BMT100997402.1,Phases=1,LineCode=tieSwitch1,Length=0.001,Units=km,switch=T !numEQ 49612
new line.CTR555045 bus1=BMT100994189.1.2.3,bus2=BMT172280622.1.2.3,Phases=3,LineCode=tieSwitch,Length=0.001,Units=km,switch=T !numEQ 49088
new line.CTR555073 bus1=BMT149022041.2,bus2=BMT149022061.2,Phases=1,LineCode=tieSwitch1,Length=0.001,Units=km,switch=T !numEQ 49090
new line.CTR556543 bus1=BMT100998445.3,bus2=BMT166600968.3,Phases=1,LineCode=tieSwitch1,Length=0.001,Units=km,switch=T !numEQ 48716
new line.CTR556599 bus1=BMT100996562.1.2.3,bus2=BMT100998690.1.2.3,Phases=3,LineCode=tieSwitch,Length=0.001,Units=km,switch=T !numEQ 48719
new line.CTR556753 bus1=BMT100993727.3,bus2=BMT155838915.3,Phases=1,LineCode=tieSwitch1,Length=0.001,Units=km,switch=T !numEQ 48601
new line.CTR557495 bus1=BMT100993622.1.2.3,bus2=BMT172760880.1.2.3,Phases=3,LineCode=tieSwitch,Length=0.001,Units=km,switch=T !numEQ 48415
new line.CTR557621 bus1=BMT100997017.1,bus2=BMT165966669.1,Phases=1,LineCode=tieSwitch1,Length=0.001,Units=km,switch=T !numEQ 48374
new line.CTR55812 bus1=BMT100994868.2,bus2=BMT100995505.2,Phases=1,LineCode=tieSwitch1,Length=0.001,Units=km,switch=T !numEQ 49149
new line.CTR660724 bus1=BMT101001035.3,bus2=BMT101001147.3,Phases=1,LineCode=tieSwitch1,Length=0.001,Units=km,switch=T !numEQ 128746
new line.CTR660752 bus1=BMT101001154.3,bus2=BMT101001161.3,Phases=1,LineCode=tieSwitch1,Length=0.001,Units=km,switch=T !numEQ 128747
new line.CTR857228 bus1=BMT152005969.1,bus2=BMT152005980.1,Phases=1,LineCode=tieSwitch1,Length=0.001,Units=km,switch=T !numEQ 126353
new line.CTR871676 bus1=BMT156218086.2,bus2=BMT156375084.2,Phases=1,LineCode=tieSwitch1,Length=0.001,Units=km,switch=T !numEQ 238076
new line.CTRR12069 bus1=BMT100996443.1.2.3,bus2=BMT173128385.1.2.3,Phases=3,LineCode=tieSwitch,Length=0.001,Units=km,switch=T !numEQ 73527
new line.CTRR12748 bus1=BMT100994070.1.2.3,bus2=BMT154296193.1.2.3,Phases=3,LineCode=tieSwitch,Length=0.001,Units=km,switch=T !numEQ 180741
new line.CTR104483 bus1=BMT160749477.1,bus2=BMT160749486.1,Phases=1,LineCode=tieSwitch1,Length=0.001,Units=km,switch=T !numEQ 10430
new line.CTR209152705 bus1=BMT2209152706.1.2.3,bus2=BMT2212862181.1.2.3,Phases=3,LineCode=tieSwitch,Length=0.001,Units=km,switch=T !numEQ 
new line.CTR209152871 bus1=BMT2212862181.1.2.3,bus2=BMT2209152219.1.2.3,Phases=3,LineCode=tieSwitch,Length=0.001,Units=km,switch=T !numEQ 
new line.CTR209153007 bus1=BMT2209153010.1.2.3,bus2=BMT2209152706.1.2.3,Phases=3,LineCode=tieSwitch,Length=0.001,Units=km,switch=T !numEQ 
new line.CTR278503 bus1=BMT101001602.1.2.3,bus2=BMT101001609.1.2.3,Phases=3,LineCode=tieSwitch,Length=0.001,Units=km,switch=T !numEQ 185751
new line.CTR381739 bus1=BMT100993937.1.2.3,bus2=BMT101001574.1.2.3,Phases=3,LineCode=tieSwitch,Length=0.001,Units=km,switch=T !numEQ 130457
new line.CTR415696 bus1=BMT100995022.2,bus2=BMT165487270.2,Phases=1,LineCode=tieSwitch1,Length=0.001,Units=km,switch=T !numEQ 167103
new line.CTR454105 bus1=BMT100994672.2,bus2=BMT100995540.2,Phases=1,LineCode=tieSwitch1,Length=0.001,Units=km,switch=T !numEQ 49187
new line.CTR454112 bus1=BMT173128387.1.2.3,bus2=BMT173123230.1.2.3,Phases=3,LineCode=tieSwitch,Length=0.001,Units=km,switch=T !numEQ 49610
open line.CTR454112 term=1
new line.CTR551069 bus1=BMT100994042.3,bus2=BMT100996338.3,Phases=1,LineCode=tieSwitch1,Length=0.001,Units=km,switch=T !numEQ 51448
new line.CTR551769 bus1=BMT100993692.1.2.3,bus2=BMT166632558.1.2.3,Phases=3,LineCode=tieSwitch,Length=0.001,Units=km,switch=T !numEQ 51009
new line.CTR654928 bus1=BMT100995197.2,bus2=BMT168261966.2,Phases=1,LineCode=tieSwitch1,Length=0.001,Units=km,switch=T !numEQ 164155
new line.CTR898759 bus1=BMT166295613.3,bus2=BMT168574350.3,Phases=1,LineCode=tieSwitch1,Length=0.001,Units=km,switch=T !numEQ 305768
new line.CTR899772 bus1=BMT166600979.3,bus2=BMT169064700.3,Phases=1,LineCode=tieSwitch1,Length=0.001,Units=km,switch=T !numEQ 261166
new line.CTRR39649 bus1=BMT166565364.1.2.3,bus2=BMT166565394.1.2.3,Phases=3,LineCode=tieSwitch,Length=0.001,Units=km,switch=T !numEQ 261109
new line.CTRR40227 bus1=BMT100995785.3,bus2=BMT149925936.3,Phases=1,LineCode=tieSwitch1,Length=0.001,Units=km,switch=T !numEQ 49331
new line.CTR163073 bus1=BMT101001798.1.2.3,bus2=BMT101001826.1.2.3,Phases=3,LineCode=tieSwitch,Length=0.001,Units=km,switch=T !numEQ 128727
new line.CTR237679 bus1=BMT101001756.1,bus2=BMT101001938.1,Phases=1,LineCode=tieSwitch1,Length=0.001,Units=km,switch=T !numEQ 48511
new line.CTR238043 bus1=BMT100997178.1,bus2=BMT172590252.1,Phases=1,LineCode=tieSwitch1,Length=0.001,Units=km,switch=T !numEQ 48367
new line.CTR238085 bus1=BMT100997143.3,bus2=BMT100997542.3,Phases=1,LineCode=tieSwitch1,Length=0.001,Units=km,switch=T !numEQ 48373
new line.CTR239261 bus1=BMT100997479.1,bus2=BMT172170272.1,Phases=1,LineCode=tieSwitch1,Length=0.001,Units=km,switch=T !numEQ 48063
new line.CTR4236 bus1=BMT100996660.1,bus2=BMT100998375.1,Phases=1,LineCode=tieSwitch1,Length=0.001,Units=km,switch=T !numEQ 209144
new line.CTR427554 bus1=BMT172849093.1.2.3,bus2=BMT172849094.1.2.3,Phases=3,LineCode=tieSwitch,Length=0.001,Units=km,switch=T !numEQ 48181
new line.CTR717676 bus1=BMT101001525.2,bus2=BMT101001532.2,Phases=1,LineCode=tieSwitch1,Length=0.001,Units=km,switch=T !numEQ 219963
new line.CTR874039 bus1=BMT156873703.1.2.3,bus2=BMT156873704.1.2.3,Phases=3,LineCode=tieSwitch,Length=0.001,Units=km,switch=T !numEQ 237935
new line.CTR887935 bus1=BMT162153460.1,bus2=BMT162153461.1,Phases=1,LineCode=tieSwitch1,Length=0.001,Units=km,switch=T !numEQ 251349
new line.CTRR20196 bus1=BMT100993790.1.2.3,bus2=BMT100993860.1.2.3,Phases=3,LineCode=tieSwitch,Length=0.001,Units=km,switch=T !numEQ 48444
new line.CTRR21379 bus1=BMT100994280.2,bus2=BMT157929121.2,Phases=1,LineCode=tieSwitch1,Length=0.001,Units=km,switch=T !numEQ 48697
new line.CTRR43123 bus1=BMT172760884.1.2.3,bus2=BMT172703685.1.2.3,Phases=3,LineCode=tieSwitch,Length=0.001,Units=km,switch=T !numEQ 319108
