new line.RML10000733 bus1=BBT3009841.1.2.0,bus2=RML1060000733.1.2.0,Phases=2,Linecode=CABBTG04_4_2,Length=0.017000000,Units=km
new line.RML10000761 bus1=BBT7489435.1.2.0,bus2=RML1060000761.1.2.0,Phases=2,Linecode=CABBTG04_4_2,Length=0.017000000,Units=km
new line.RML10000901 bus1=BBT2347599.1.2.0,bus2=RML1060000901.1.2.0,Phases=2,Linecode=CABBTG05_4_2,Length=0.017000000,Units=km
new line.RML10000915 bus1=BBT2222894.1.0,bus2=RML1060000915.1.0,Phases=1,Linecode=CABBTG01_4_1,Length=0.017000000,Units=km
new line.RML10003799 bus1=BBT2283395.1.0,bus2=RML1060003799.1.0,Phases=1,Linecode=CABBTG02_4_1,Length=0.017000000,Units=km
new line.RML10004338 bus1=BBT27630122.1.2.0,bus2=RML1060004338.1.2.0,Phases=2,Linecode=CABBTG05_4_2,Length=0.017000000,Units=km
new line.RML10004772 bus1=BBT2283549.1.2.0,bus2=RML1060004772.1.2.0,Phases=2,Linecode=CABBTG05_4_2,Length=0.017000000,Units=km
new line.RML10005171 bus1=BBT2278719.1.2.0,bus2=RML1060005171.1.2.0,Phases=2,Linecode=CABBTG05_4_2,Length=0.017000000,Units=km
new line.RML10005444 bus1=BBT130697933.2.0,bus2=RML1060005444.2.0,Phases=1,Linecode=CABBTG02_4_1,Length=0.017000000,Units=km
new line.RML10006361 bus1=BBT2279811.1.2.0,bus2=RML1060006361.1.2.0,Phases=2,Linecode=CABBTG05_4_2,Length=0.017000000,Units=km
new line.RML10007243 bus1=BBT4451386.1.2.0,bus2=RML1060007243.1.2.0,Phases=2,Linecode=CABBTG05_4_2,Length=0.017000000,Units=km
new line.RML10010379 bus1=BBT7492389.1.0,bus2=RML1060010379.1.0,Phases=1,Linecode=CABBTG01_4_1,Length=0.017000000,Units=km
new line.RML10010386 bus1=BBT3844654.1.2.0,bus2=RML1060010386.1.2.0,Phases=2,Linecode=CABBTG05_4_2,Length=0.017000000,Units=km
new line.RML10013753 bus1=BBT3483216.2.0,bus2=RML1060013753.2.0,Phases=1,Linecode=CABBTG02_4_1,Length=0.017000000,Units=km
new line.RML10019171 bus1=BBT22015730.1.2.0,bus2=RML1060019171.1.2.0,Phases=2,Linecode=CABBTG04_4_2,Length=0.017000000,Units=km
new line.RML10034098 bus1=BBT2220094.1.0,bus2=RML1060034098.1.0,Phases=1,Linecode=CABBTG02_4_1,Length=0.017000000,Units=km
new line.RML10034164 bus1=BBT110015061.1.2.3.0,bus2=RML1060034164.1.2.3.0,Phases=3,Linecode=CABBTG06_4_3,Length=0.017000000,Units=km
new line.RML10038693 bus1=BBT2225253.1.2.0,bus2=RML1060038693.1.2.0,Phases=2,Linecode=CABBTG05_4_2,Length=0.017000000,Units=km
new line.RML10041248 bus1=BBT3466598.1.0,bus2=RML1060041248.1.0,Phases=1,Linecode=CABBTG02_4_1,Length=0.017000000,Units=km
new line.RML10041337 bus1=BBT2287021.1.2.3.0,bus2=RML1060041337.1.2.3.0,Phases=3,Linecode=CABBTG06_4_3,Length=0.017000000,Units=km
new line.RML10046504 bus1=BBT131581830.1.2.0,bus2=RML1060046504.1.2.0,Phases=2,Linecode=CABBTG05_4_2,Length=0.017000000,Units=km
new line.RML10046748 bus1=BBT2225491.1.2.0,bus2=RML1060046748.1.2.0,Phases=2,Linecode=CABBTG05_4_2,Length=0.017000000,Units=km
new line.RML10046750 bus1=BBT148325104.1.2.0,bus2=RML1060046750.1.2.0,Phases=2,Linecode=CABBTG05_4_2,Length=0.017000000,Units=km
new line.RML10046802 bus1=BBT2222208.1.2.3.0,bus2=RML1060046802.1.2.3.0,Phases=3,Linecode=CABBTG06_4_3,Length=0.017000000,Units=km
new line.RML10047587 bus1=BBT2221137.1.0,bus2=RML1060047587.1.0,Phases=1,Linecode=CABBTG01_4_1,Length=0.017000000,Units=km
new line.RML10051564 bus1=BBT2223825.1.2.0,bus2=RML1060051564.1.2.0,Phases=2,Linecode=CABBTG05_4_2,Length=0.017000000,Units=km
new line.RML10051583 bus1=BBT2224518.1.2.3.0,bus2=RML1060051583.1.2.3.0,Phases=3,Linecode=CABBTG06_4_3,Length=0.017000000,Units=km
new line.RML10051588 bus1=BBT2036687.1.0,bus2=RML1060051588.1.0,Phases=1,Linecode=CABBTG01_4_1,Length=0.017000000,Units=km
new line.RML10054073 bus1=BBT2337785.1.2.0,bus2=RML1060054073.1.2.0,Phases=2,Linecode=CABBTG05_4_2,Length=0.017000000,Units=km
new line.RML10054076 bus1=BBT2224945.1.2.0,bus2=RML1060054076.1.2.0,Phases=2,Linecode=CABBTG05_4_2,Length=0.017000000,Units=km
new line.RML10054093 bus1=BBT2220563.1.2.3.0,bus2=RML1060054093.1.2.3.0,Phases=3,Linecode=CABBTG06_4_3,Length=0.017000000,Units=km
new line.RML10054097 bus1=BBT2346010.1.2.0,bus2=RML1060054097.1.2.0,Phases=2,Linecode=CABBTG05_4_2,Length=0.017000000,Units=km
new line.RML10054643 bus1=BBT2346031.1.2.3.0,bus2=RML1060054643.1.2.3.0,Phases=3,Linecode=CABBTG06_4_3,Length=0.017000000,Units=km
new line.RML10054646 bus1=BBT2346031.1.2.3.0,bus2=RML1060054646.1.2.3.0,Phases=3,Linecode=CABBTG06_4_3,Length=0.017000000,Units=km
new line.RML10054881 bus1=BBT2221697.1.2.0,bus2=RML1060054881.1.2.0,Phases=2,Linecode=CABBTG05_4_2,Length=0.017000000,Units=km
new line.RML10054970 bus1=BBT2293181.1.0,bus2=RML1060054970.1.0,Phases=1,Linecode=CABBTG01_4_1,Length=0.017000000,Units=km
new line.RML10057995 bus1=BBT7209701.1.2.0,bus2=RML1060057995.1.2.0,Phases=2,Linecode=CABBTG05_4_2,Length=0.017000000,Units=km
new line.RML10058421 bus1=BBT4425822.2.0,bus2=RML1060058421.2.0,Phases=1,Linecode=CABBTG01_4_1,Length=0.017000000,Units=km
new line.RML10058422 bus1=BBT7930806.2.0,bus2=RML1060058422.2.0,Phases=1,Linecode=CABBTG02_4_1,Length=0.017000000,Units=km
new line.RML10062151 bus1=BBT3167334.1.2.0,bus2=RML1060062151.1.2.0,Phases=2,Linecode=CABBTG05_4_2,Length=0.017000000,Units=km
new line.RML10063166 bus1=BBT2221123.2.0,bus2=RML1060063166.2.0,Phases=1,Linecode=CABBTG02_4_1,Length=0.017000000,Units=km
new line.RML10063219 bus1=BBT2220836.1.0,bus2=RML1060063219.1.0,Phases=1,Linecode=CABBTG02_4_1,Length=0.017000000,Units=km
new line.RML10064031 bus1=BBT2324996.2.0,bus2=RML1060064031.2.0,Phases=1,Linecode=CABBTG01_4_1,Length=0.017000000,Units=km
new line.RML10064621 bus1=BBT2325304.1.2.0,bus2=RML1060064621.1.2.0,Phases=2,Linecode=CABBTG05_4_2,Length=0.017000000,Units=km
new line.RML10069095 bus1=BBT149022246.1.2.0,bus2=RML1060069095.1.2.0,Phases=2,Linecode=CABBTG05_4_2,Length=0.017000000,Units=km
new line.RML10069144 bus1=BBT4418388.1.2.0,bus2=RML1060069144.1.2.0,Phases=2,Linecode=CABBTG05_4_2,Length=0.017000000,Units=km
new line.RML10071530 bus1=BBT172170052.1.2.0,bus2=RML1060071530.1.2.0,Phases=2,Linecode=CABBTG05_4_2,Length=0.017000000,Units=km
new line.RML10071531 bus1=BBT172170052.1.2.0,bus2=RML1060071531.1.2.0,Phases=2,Linecode=CABBTG05_4_2,Length=0.017000000,Units=km
new line.RML10073500 bus1=BBT2220640.1.2.3.0,bus2=RML1060073500.1.2.3.0,Phases=3,Linecode=CABBTG06_4_3,Length=0.017000000,Units=km
new line.RML10077586 bus1=BBT6516687.3.0,bus2=RML1060077586.3.0,Phases=1,Linecode=CABBTG01_4_1,Length=0.017000000,Units=km
new line.RML10077605 bus1=BBT2221396.1.2.0,bus2=RML1060077605.1.2.0,Phases=2,Linecode=CABBTG05_4_2,Length=0.017000000,Units=km
new line.RML10078112 bus1=BBT2336980.1.0,bus2=RML1060078112.1.0,Phases=1,Linecode=CABBTG02_4_1,Length=0.017000000,Units=km
new line.RML10082595 bus1=BBT3836142.1.2.0,bus2=RML1060082595.1.2.0,Phases=2,Linecode=CABBTG04_4_2,Length=0.017000000,Units=km
new line.RML10083888 bus1=BBT2223678.1.2.0,bus2=RML1060083888.1.2.0,Phases=2,Linecode=CABBTG05_4_2,Length=0.017000000,Units=km
new line.RML10085080 bus1=BBT2221802.1.2.3.0,bus2=RML1060085080.1.2.3.0,Phases=3,Linecode=CABBTG06_4_3,Length=0.017000000,Units=km
new line.RML10085297 bus1=BBT2221130.1.2.0,bus2=RML1060085297.1.2.0,Phases=2,Linecode=CABBTG05_4_2,Length=0.015000000,Units=km
new line.RML10085594 bus1=BBT3009813.2.0,bus2=RML1060085594.2.0,Phases=1,Linecode=CABBTG02_4_1,Length=0.017000000,Units=km
new line.RML10085629 bus1=BBT7491745.1.2.0,bus2=RML1060085629.1.2.0,Phases=2,Linecode=CABBTG05_4_2,Length=0.017000000,Units=km
new line.RML10085995 bus1=BBT2219429.1.3.0,bus2=RML1060085995.1.3.0,Phases=2,Linecode=CABBTG05_4_2,Length=0.019000000,Units=km
new line.RML10086185 bus1=BBT2221137.1.2.0,bus2=RML1060086185.1.2.0,Phases=2,Linecode=CABBTG05_4_2,Length=0.008000000,Units=km
new line.RML10086199 bus1=BBT22015667.1.2.0,bus2=RML1060086199.1.2.0,Phases=2,Linecode=CABBTG05_4_2,Length=0.008000000,Units=km
new line.RML10086224 bus1=BBT7494153.1.0,bus2=RML1060086224.1.0,Phases=1,Linecode=CABBTG02_4_1,Length=0.017000000,Units=km
new line.RML10086246 bus1=BBT2346157.1.2.0,bus2=RML1060086246.1.2.0,Phases=2,Linecode=CABBTG05_4_2,Length=0.017000000,Units=km
new line.RML10086273 bus1=BBT2220451.1.2.3.0,bus2=RML1060086273.1.2.3.0,Phases=3,Linecode=CABBTG06_4_3,Length=0.014000000,Units=km
new line.RML10086365 bus1=BBT28114599.1.2.0,bus2=RML1060086365.1.2.0,Phases=2,Linecode=CABBTG05_4_2,Length=0.025000000,Units=km
new line.RML10086393 bus1=BBT3009561.1.0,bus2=RML1060086393.1.0,Phases=1,Linecode=CABBTG02_4_1,Length=0.008000000,Units=km
new line.RML10086647 bus1=BBT2219093.1.2.0,bus2=RML1060086647.1.2.0,Phases=2,Linecode=CABBTG05_4_2,Length=0.016000000,Units=km
new line.RML10086797 bus1=BBT47634568.1.2.0,bus2=RML1060086797.1.2.0,Phases=2,Linecode=CABBTG05_4_2,Length=0.015000000,Units=km
new line.RML10086809 bus1=BBT3855329.2.0,bus2=RML1060086809.2.0,Phases=1,Linecode=CABBTG02_4_1,Length=0.026000000,Units=km
new line.RML10087060 bus1=BBT2220899.1.2.0,bus2=RML1060087060.1.2.0,Phases=2,Linecode=CABBTG05_4_2,Length=0.006000000,Units=km
new line.RML10087097 bus1=BBT22015737.1.2.0,bus2=RML1060087097.1.2.0,Phases=2,Linecode=CABBTG05_4_2,Length=0.008000000,Units=km
new line.RML10087205 bus1=BBT2795676.1.0,bus2=RML1060087205.1.0,Phases=1,Linecode=CABBTG02_4_1,Length=0.015000000,Units=km
new line.RML10087207 bus1=BBT3844605.2.0,bus2=RML1060087207.2.0,Phases=1,Linecode=CABBTG02_4_1,Length=0.030000000,Units=km
new line.RML10087986 bus1=BBT3844605.2.0,bus2=RML1060087986.2.0,Phases=1,Linecode=CABBTG02_4_1,Length=0.011000000,Units=km
new line.RML10088111 bus1=BBT2222474.1.2.3.0,bus2=RML1060088111.1.2.3.0,Phases=3,Linecode=CABBTG12_4_3,Length=0.006000000,Units=km
new line.RML10088119 bus1=BBT2267463.1.2.0,bus2=RML1060088119.1.2.0,Phases=2,Linecode=CABBTG05_4_2,Length=0.006000000,Units=km
new line.RML10088232 bus1=BBT3844598.2.0,bus2=RML1060088232.2.0,Phases=1,Linecode=CABBTG02_4_1,Length=0.016000000,Units=km
new line.RML10088365 bus1=BBT2835933.1.2.3.0,bus2=RML1060088365.1.2.3.0,Phases=3,Linecode=CABBTG08_4_3,Length=0.019000000,Units=km
new line.RML10091189 bus1=BBT2308406.1.0,bus2=RML1060091189.1.0,Phases=1,Linecode=CABBTG02_4_1,Length=0.017000000,Units=km
new line.RML10091244 bus1=BBT2226184.1.0,bus2=RML1060091244.1.0,Phases=1,Linecode=CABBTG02_4_1,Length=0.015000000,Units=km
new line.RML10091782 bus1=BBT2225967.1.2.3.0,bus2=RML1060091782.1.2.3.0,Phases=3,Linecode=CABBTG06_4_3,Length=0.017000000,Units=km
new line.RML10092011 bus1=BBT2223125.1.2.3.0,bus2=RML1060092011.1.2.3.0,Phases=3,Linecode=CABBTG06_4_3,Length=0.017000000,Units=km
new line.RML10092117 bus1=BBT2037625.1.0,bus2=RML1060092117.1.0,Phases=1,Linecode=CABBTG02_4_1,Length=0.017000000,Units=km
new line.RML10092238 bus1=BBT2340606.2.0,bus2=RML1060092238.2.0,Phases=1,Linecode=CABBTG02_4_1,Length=0.017000000,Units=km
new line.RML10092318 bus1=BBT2325297.1.0,bus2=RML1060092318.1.0,Phases=1,Linecode=CABBTG01_4_1,Length=0.017000000,Units=km
new line.RML10092738 bus1=BBT2345296.1.2.0,bus2=RML1060092738.1.2.0,Phases=2,Linecode=CABBTG05_4_2,Length=0.017000000,Units=km
new line.RML10092893 bus1=BBT2032179.1.2.0,bus2=RML1060092893.1.2.0,Phases=2,Linecode=CABBTG05_4_2,Length=0.017000000,Units=km
new line.RML10092936 bus1=BBT2221802.1.2.3.0,bus2=RML1060092936.1.2.3.0,Phases=3,Linecode=CABBTG07_4_3,Length=0.017000000,Units=km
new line.RML10093184 bus1=BBT27630290.2.0,bus2=RML1060093184.2.0,Phases=1,Linecode=CABBTG02_4_1,Length=0.017000000,Units=km
new line.RML10093283 bus1=BBT3167089.1.2.0,bus2=RML1060093283.1.2.0,Phases=2,Linecode=CABBTG05_4_2,Length=0.017000000,Units=km
new line.RML10093412 bus1=BBT3167089.1.2.0,bus2=RML1060093412.1.2.0,Phases=2,Linecode=CABBTG04_4_2,Length=0.017000000,Units=km
new line.RML10093771 bus1=BBT4744840.1.2.0,bus2=RML1060093771.1.2.0,Phases=2,Linecode=CABBTG05_4_2,Length=0.017000000,Units=km
new line.RML10094265 bus1=BBT2342846.1.2.0,bus2=RML1060094265.1.2.0,Phases=2,Linecode=CABBTG05_4_2,Length=0.017000000,Units=km
new line.RML10094973 bus1=BBT2223055.1.2.0,bus2=RML1060094973.1.2.0,Phases=2,Linecode=CABBTG05_4_2,Length=0.017000000,Units=km
new line.RML10095067 bus1=BBT2345044.1.2.0,bus2=RML1060095067.1.2.0,Phases=2,Linecode=CABBTG05_4_2,Length=0.017000000,Units=km
new line.RML10095089 bus1=BBT2223146.1.2.0,bus2=RML1060095089.1.2.0,Phases=2,Linecode=CABBTG05_4_2,Length=0.017000000,Units=km
new line.RML10095169 bus1=BBT2324842.1.2.0,bus2=RML1060095169.1.2.0,Phases=2,Linecode=CABBTG05_4_2,Length=0.017000000,Units=km
new line.RML10095210 bus1=BBT3558550.1.2.0,bus2=RML1060095210.1.2.0,Phases=2,Linecode=CABBTG05_4_2,Length=0.017000000,Units=km
new line.RML10095431 bus1=BBT2795746.1.2.0,bus2=RML1060095431.1.2.0,Phases=2,Linecode=CABBTG05_4_2,Length=0.017000000,Units=km
new line.RML10095555 bus1=BBT3005648.1.2.0,bus2=RML1060095555.1.2.0,Phases=2,Linecode=CABBTG05_4_2,Length=0.017000000,Units=km
new line.RML10095562 bus1=BBT2223629.1.2.0,bus2=RML1060095562.1.2.0,Phases=2,Linecode=CABBTG05_4_2,Length=0.017000000,Units=km
new line.RML10096108 bus1=BBT28114599.1.2.0,bus2=RML1060096108.1.2.0,Phases=2,Linecode=CABBTG05_4_2,Length=0.017000000,Units=km
new line.RML10096215 bus1=BBT7489127.1.2.3.0,bus2=RML1060096215.1.2.3.0,Phases=3,Linecode=CABBTG06_4_3,Length=0.009000000,Units=km
new line.RML10096253 bus1=BBT2287063.1.2.0,bus2=RML1060096253.1.2.0,Phases=2,Linecode=CABBTG05_4_2,Length=0.026000000,Units=km
new line.RML10096330 bus1=BBT2223041.1.2.0,bus2=RML1060096330.1.2.0,Phases=2,Linecode=CABBTG05_4_2,Length=0.013000000,Units=km
new line.RML10098341 bus1=BBT2219590.1.0,bus2=RML1060098341.1.0,Phases=1,Linecode=CABBTG02_4_1,Length=0.017000000,Units=km
new line.RML10110928 bus1=BBT2324394.1.2.0,bus2=RML1060110928.1.2.0,Phases=2,Linecode=CABBTG05_4_2,Length=0.017000000,Units=km
new line.RML10139173 bus1=BBT2325185.1.0,bus2=RML1060139173.1.0,Phases=1,Linecode=CABBTG02_4_1,Length=0.017000000,Units=km
new line.RML10145509 bus1=BBT2222985.3.0,bus2=RML1060145509.3.0,Phases=1,Linecode=CABBTG02_4_1,Length=0.017000000,Units=km
new line.RML10148002 bus1=BBT7198186.1.0,bus2=RML1060148002.1.0,Phases=1,Linecode=CABBTG02_4_1,Length=0.017000000,Units=km
new line.RML10148960 bus1=BBT2223496.1.2.3.0,bus2=RML1060148960.1.2.3.0,Phases=3,Linecode=CABBTG06_4_3,Length=0.017000000,Units=km
new line.RML10149128 bus1=BBT2333410.1.0,bus2=RML1060149128.1.0,Phases=1,Linecode=CABBTG02_4_1,Length=0.017000000,Units=km
new line.RML10149190 bus1=BBT3036224.1.2.0,bus2=RML1060149190.1.2.0,Phases=2,Linecode=CABBTG04_4_2,Length=0.017000000,Units=km
new line.RML10149194 bus1=BBT2225967.1.2.0,bus2=RML1060149194.1.2.0,Phases=2,Linecode=CABBTG04_4_2,Length=0.017000000,Units=km
new line.RML10149195 bus1=BBT2337918.3.0,bus2=RML1060149195.3.0,Phases=1,Linecode=CABBTG01_4_1,Length=0.017000000,Units=km
new line.RML10149338 bus1=BBT2222495.1.3.0,bus2=RML1060149338.1.3.0,Phases=2,Linecode=CABBTG05_4_2,Length=0.017000000,Units=km
new line.RML10150701 bus1=BBT4859283.1.0,bus2=RML1060150701.1.0,Phases=1,Linecode=CABBTG02_4_1,Length=0.017000000,Units=km
new line.RML10151780 bus1=BBT152954754.1.2.3.0,bus2=RML1060151780.1.2.3.0,Phases=3,Linecode=CABBTG06_4_3,Length=0.017000000,Units=km
new line.RML10151807 bus1=BBT4744840.1.2.0,bus2=RML1060151807.1.2.0,Phases=2,Linecode=CABBTG04_4_2,Length=0.017000000,Units=km
new line.RML10151897 bus1=BBT2220360.1.2.0,bus2=RML1060151897.1.2.0,Phases=2,Linecode=CABBTG05_4_2,Length=0.017000000,Units=km
new line.RML10151935 bus1=BBT4877826.1.2.3.0,bus2=RML1060151935.1.2.3.0,Phases=3,Linecode=CABBTG06_4_3,Length=0.017000000,Units=km
new line.RML10153033 bus1=BBT3466528.1.0,bus2=RML1060153033.1.0,Phases=1,Linecode=CABBTG02_4_1,Length=0.017000000,Units=km
new line.RML10153171 bus1=BBT2220885.1.0,bus2=RML1060153171.1.0,Phases=1,Linecode=CABBTG02_4_1,Length=0.017000000,Units=km
new line.RML10153234 bus1=BBT3359617.1.2.0,bus2=RML1060153234.1.2.0,Phases=2,Linecode=CABBTG04_4_2,Length=0.017000000,Units=km
new line.RML10153292 bus1=BBT2222985.1.2.0,bus2=RML1060153292.1.2.0,Phases=2,Linecode=CABBTG04_4_2,Length=0.017000000,Units=km
new line.RML10153363 bus1=BBT2292152.1.2.0,bus2=RML1060153363.1.2.0,Phases=2,Linecode=CABBTG04_4_2,Length=0.017000000,Units=km
new line.RML10154917 bus1=BBT29916602.1.2.3.0,bus2=RML1060154917.1.2.3.0,Phases=3,Linecode=CABBTG06_4_3,Length=0.017000000,Units=km
new line.RML10161404 bus1=BBT3482957.2.0,bus2=RML1060161404.2.0,Phases=1,Linecode=CABBTG02_4_1,Length=0.017000000,Units=km
new line.RML10165146 bus1=BBT148490325.1.0,bus2=RML1060165146.1.0,Phases=1,Linecode=CABBTG02_4_1,Length=0.017000000,Units=km
new line.RML10186172 bus1=BBT2338898.1.2.0,bus2=RML1060186172.1.2.0,Phases=2,Linecode=CABBTG05_4_2,Length=0.017000000,Units=km
new line.RML10186174 bus1=BBT2220493.1.2.0,bus2=RML1060186174.1.2.0,Phases=2,Linecode=CABBTG05_4_2,Length=0.017000000,Units=km
new line.RML10186219 bus1=BBT2220493.1.2.0,bus2=RML1060186219.1.2.0,Phases=2,Linecode=CABBTG05_4_2,Length=0.017000000,Units=km
new line.RML10186707 bus1=BBT2306922.1.2.0,bus2=RML1060186707.1.2.0,Phases=2,Linecode=CABBTG05_4_2,Length=0.017000000,Units=km
new line.RML10187552 bus1=BBT2317121.1.2.0,bus2=RML1060187552.1.2.0,Phases=2,Linecode=CABBTG05_4_2,Length=0.017000000,Units=km
new line.RML10189941 bus1=BBT62352915.2.0,bus2=RML1060189941.2.0,Phases=1,Linecode=CABBTG02_4_1,Length=0.017000000,Units=km
new line.RML10191654 bus1=BBT2344799.2.0,bus2=RML1060191654.2.0,Phases=1,Linecode=CABBTG01_4_1,Length=0.017000000,Units=km
new line.RML10192046 bus1=BBT3167089.1.2.0,bus2=RML1060192046.1.2.0,Phases=2,Linecode=CABBTG04_4_2,Length=0.017000000,Units=km
new line.RML10196897 bus1=BBT2226044.1.2.0,bus2=RML1060196897.1.2.0,Phases=2,Linecode=CABBTG05_4_2,Length=0.017000000,Units=km
new line.RML10197037 bus1=BBT149459504.1.2.0,bus2=RML1060197037.1.2.0,Phases=2,Linecode=CABBTG05_4_2,Length=0.017000000,Units=km
new line.RML10197113 bus1=BBT2346206.1.2.0,bus2=RML1060197113.1.2.0,Phases=2,Linecode=CABBTG05_4_2,Length=0.017000000,Units=km
new line.RML10197116 bus1=BBT28114879.1.0,bus2=RML1060197116.1.0,Phases=1,Linecode=CABBTG02_4_1,Length=0.017000000,Units=km
new line.RML10197120 bus1=BBT6516715.1.0,bus2=RML1060197120.1.0,Phases=1,Linecode=CABBTG02_4_1,Length=0.017000000,Units=km
new line.RML10197437 bus1=BBT130447396.1.2.0,bus2=RML1060197437.1.2.0,Phases=2,Linecode=CABBT801_4_2,Length=0.017000000,Units=km
new line.RML10197452 bus1=BBT3009666.1.2.0,bus2=RML1060197452.1.2.0,Phases=2,Linecode=CABBTG05_4_2,Length=0.017000000,Units=km
new line.RML10197456 bus1=BBT2221284.1.2.0,bus2=RML1060197456.1.2.0,Phases=2,Linecode=CABBTG05_4_2,Length=0.017000000,Units=km
new line.RML10198990 bus1=BBT86523698.2.0,bus2=RML1060198990.2.0,Phases=1,Linecode=CABBTG02_4_1,Length=0.017000000,Units=km
new line.RML10200524 bus1=BBT23255983.1.0,bus2=RML1060200524.1.0,Phases=1,Linecode=CABBTG02_4_1,Length=0.017000000,Units=km
new line.RML10200525 bus1=BBT23255983.1.0,bus2=RML1060200525.1.0,Phases=1,Linecode=CABBTG02_4_1,Length=0.017000000,Units=km
new line.RML10200526 bus1=BBT2283535.1.0,bus2=RML1060200526.1.0,Phases=1,Linecode=CABBTG02_4_1,Length=0.017000000,Units=km
new line.RML10200527 bus1=BBT22015814.1.2.0,bus2=RML1060200527.1.2.0,Phases=2,Linecode=CABBTG05_4_2,Length=0.017000000,Units=km
new line.RML10200542 bus1=BBT22015681.1.0,bus2=RML1060200542.1.0,Phases=1,Linecode=CABBTG02_4_1,Length=0.017000000,Units=km
new line.RML10200543 bus1=BBT2221256.1.0,bus2=RML1060200543.1.0,Phases=1,Linecode=CABBTG02_4_1,Length=0.017000000,Units=km
new line.RML10204450 bus1=BBT2795760.1.0,bus2=RML1060204450.1.0,Phases=1,Linecode=CABBTG02_4_1,Length=0.017000000,Units=km
new line.RML10206911 bus1=BBT2220612.1.2.3.0,bus2=RML1060206911.1.2.3.0,Phases=3,Linecode=CABBTG11_4_3,Length=0.017000000,Units=km
new line.RML10207083 bus1=BBT3009659.1.2.0,bus2=RML1060207083.1.2.0,Phases=2,Linecode=CABBTG04_4_2,Length=0.017000000,Units=km
new line.RML10208831 bus1=BBT2325360.2.0,bus2=RML1060208831.2.0,Phases=1,Linecode=CABBTG02_4_1,Length=0.017000000,Units=km
new line.RML10209019 bus1=BBT3005543.1.2.0,bus2=RML1060209019.1.2.0,Phases=2,Linecode=CABBTG05_4_2,Length=0.017000000,Units=km
new line.RML10210111 bus1=BBT2337897.2.3.0,bus2=RML1060210111.2.3.0,Phases=2,Linecode=CABBTG05_4_2,Length=0.017000000,Units=km
new line.RML10210116 bus1=BBT3005536.1.2.0,bus2=RML1060210116.1.2.0,Phases=2,Linecode=CABBTG05_4_2,Length=0.017000000,Units=km
new line.RML10213508 bus1=BBT2221417.1.2.0,bus2=RML1060213508.1.2.0,Phases=2,Linecode=CABBTG05_4_2,Length=0.017000000,Units=km
new line.RML10214981 bus1=BBT2795809.1.2.3.0,bus2=RML1060214981.1.2.3.0,Phases=3,Linecode=CABBTG06_4_3,Length=0.017000000,Units=km
new line.RML10214985 bus1=BBT2224868.1.0,bus2=RML1060214985.1.0,Phases=1,Linecode=CABBTG02_4_1,Length=0.017000000,Units=km
new line.RML10215047 bus1=BBT2220528.1.2.0,bus2=RML1060215047.1.2.0,Phases=2,Linecode=CABBTG05_4_2,Length=0.017000000,Units=km
new line.RML10215076 bus1=BBT2219933.1.2.0,bus2=RML1060215076.1.2.0,Phases=2,Linecode=CABBTG05_4_2,Length=0.017000000,Units=km
new line.RML10215472 bus1=BBT2219394.1.2.0,bus2=RML1060215472.1.2.0,Phases=2,Linecode=CABBTG05_4_2,Length=0.017000000,Units=km
new line.RML10216911 bus1=BBT3844591.2.0,bus2=RML1060216911.2.0,Phases=1,Linecode=CABBTG02_4_1,Length=0.017000000,Units=km
new line.RML10220004 bus1=BBT150926938.1.2.3.0,bus2=RML1060220004.1.2.3.0,Phases=3,Linecode=CABBTG06_4_3,Length=0.017000000,Units=km
new line.RML10220375 bus1=BBT6516603.1.2.0,bus2=RML1060220375.1.2.0,Phases=2,Linecode=CABBTG05_4_2,Length=0.017000000,Units=km
new line.RML10221826 bus1=BBT2222894.1.0,bus2=RML1060221826.1.0,Phases=1,Linecode=CABBTG02_4_1,Length=0.017000000,Units=km
new line.RML10222098 bus1=BBT3005529.1.2.0,bus2=RML1060222098.1.2.0,Phases=2,Linecode=CABBTG05_4_2,Length=0.017000000,Units=km
new line.RML10222113 bus1=BBT2795697.1.0,bus2=RML1060222113.1.0,Phases=1,Linecode=CABBTG02_4_1,Length=0.017000000,Units=km
new line.RML10222194 bus1=BBT3047186.3.0,bus2=RML1060222194.3.0,Phases=1,Linecode=CABBTG02_4_1,Length=0.017000000,Units=km
new line.RML10222304 bus1=BBT3047179.1.0,bus2=RML1060222304.1.0,Phases=1,Linecode=CABBTG02_4_1,Length=0.017000000,Units=km
new line.RML10228033 bus1=BBT2293209.1.2.0,bus2=RML1060228033.1.2.0,Phases=2,Linecode=CABBTG04_4_2,Length=0.017000000,Units=km
new line.RML10229632 bus1=BBT3359610.1.2.0,bus2=RML1060229632.1.2.0,Phases=2,Linecode=CABBTG05_4_2,Length=0.017000000,Units=km
new line.RML10229668 bus1=BBT2355215.1.0,bus2=RML1060229668.1.0,Phases=1,Linecode=CABBTG02_4_1,Length=0.017000000,Units=km
new line.RML10235082 bus1=BBT4334192.1.0,bus2=RML1060235082.1.0,Phases=1,Linecode=CABBTG02_4_1,Length=0.017000000,Units=km
new line.RML10235093 bus1=BBT3825418.1.2.0,bus2=RML1060235093.1.2.0,Phases=2,Linecode=CABBTG05_4_2,Length=0.017000000,Units=km
new line.RML10236049 bus1=BBT27630318.1.2.0,bus2=RML1060236049.1.2.0,Phases=2,Linecode=CABBTG05_4_2,Length=0.017000000,Units=km
new line.RML10240603 bus1=BBT3009841.1.0,bus2=RML1060240603.1.0,Phases=1,Linecode=CABBTG02_4_1,Length=0.017000000,Units=km
new line.RML10240622 bus1=BBT2226107.1.0,bus2=RML1060240622.1.0,Phases=1,Linecode=CABBTG02_4_1,Length=0.017000000,Units=km
new line.RML10240625 bus1=BBT2339087.1.2.0,bus2=RML1060240625.1.2.0,Phases=2,Linecode=CABBTG05_4_2,Length=0.017000000,Units=km
new line.RML10240740 bus1=BBT2344918.1.2.0,bus2=RML1060240740.1.2.0,Phases=2,Linecode=CABBTG05_4_2,Length=0.017000000,Units=km
new line.RML10243955 bus1=BBT2835940.1.2.3.0,bus2=RML1060243955.1.2.3.0,Phases=3,Linecode=CABBTG06_4_3,Length=0.017000000,Units=km
new line.RML10261353 bus1=BBT2225162.1.2.3.0,bus2=RML1060261353.1.2.3.0,Phases=3,Linecode=CABBTG06_4_3,Length=0.017000000,Units=km
new line.RML10262585 bus1=BBT2022218.1.2.3.0,bus2=RML1060262585.1.2.3.0,Phases=3,Linecode=CABBTG06_4_3,Length=0.017000000,Units=km
new line.RML10266195 bus1=BBT2355215.1.2.0,bus2=RML1060266195.1.2.0,Phases=2,Linecode=CABBTG05_4_2,Length=0.017000000,Units=km
new line.RML10266243 bus1=BBT3009827.1.0,bus2=RML1060266243.1.0,Phases=1,Linecode=CABBTG02_4_1,Length=0.017000000,Units=km
new line.RML10266245 bus1=BBT2346038.1.2.3.0,bus2=RML1060266245.1.2.3.0,Phases=3,Linecode=CABBTG06_4_3,Length=0.017000000,Units=km
new line.RML10266585 bus1=BBT2222180.1.2.0,bus2=RML1060266585.1.2.0,Phases=2,Linecode=CABBTG05_4_2,Length=0.017000000,Units=km
new line.RML10267400 bus1=BBT6683917.2.0,bus2=RML1060267400.2.0,Phases=1,Linecode=CABBTG02_4_1,Length=0.017000000,Units=km
new line.RML10267433 bus1=BBT4425829.2.0,bus2=RML1060267433.2.0,Phases=1,Linecode=CABBTG02_4_1,Length=0.017000000,Units=km
new line.RML10267530 bus1=BBT7489309.1.2.0,bus2=RML1060267530.1.2.0,Phases=2,Linecode=CABBTG05_4_2,Length=0.017000000,Units=km
new line.RML10267786 bus1=BBT2338814.1.2.0,bus2=RML1060267786.1.2.0,Phases=2,Linecode=CABBTG05_4_2,Length=0.017000000,Units=km
new line.RML10267970 bus1=BBT2225141.3.0,bus2=RML1060267970.3.0,Phases=1,Linecode=CABBTG02_4_1,Length=0.017000000,Units=km
new line.RML10268379 bus1=BBT2283283.1.2.0,bus2=RML1060268379.1.2.0,Phases=2,Linecode=CABBTG05_4_2,Length=0.017000000,Units=km
new line.RML10270166 bus1=BBT122911364.1.2.0,bus2=RML1060270166.1.2.0,Phases=2,Linecode=CABBTG05_4_2,Length=0.017000000,Units=km
new line.RML10273297 bus1=BBT151794789.1.0,bus2=RML1060273297.1.0,Phases=1,Linecode=CABBTG02_4_1,Length=0.017000000,Units=km
new line.RML10273300 bus1=BBT2359121.1.0,bus2=RML1060273300.1.0,Phases=1,Linecode=CABBTG02_4_1,Length=0.017000000,Units=km
new line.RML10285864 bus1=BBT6516624.2.0,bus2=RML1060285864.2.0,Phases=1,Linecode=CABBTG02_4_1,Length=0.017000000,Units=km
new line.RML10289703 bus1=BBT151788707.1.0,bus2=RML1060289703.1.0,Phases=1,Linecode=CABBTG02_4_1,Length=0.017000000,Units=km
new line.RML10291523 bus1=BBT2324800.1.2.0,bus2=RML1060291523.1.2.0,Phases=2,Linecode=CABBTG05_4_2,Length=0.017000000,Units=km
new line.RML10291695 bus1=BBT2287035.1.3.0,bus2=RML1060291695.1.3.0,Phases=2,Linecode=CABBTG05_4_2,Length=0.017000000,Units=km
new line.RML10291712 bus1=BBT3005564.1.2.3.0,bus2=RML1060291712.1.2.3.0,Phases=3,Linecode=CABBTG06_4_3,Length=0.017000000,Units=km
new line.RML10291714 bus1=BBT3005557.1.0,bus2=RML1060291714.1.0,Phases=1,Linecode=CABBTG02_4_1,Length=0.017000000,Units=km
new line.RML10292595 bus1=BBT3294643.1.2.0,bus2=RML1060292595.1.2.0,Phases=2,Linecode=CABBTG05_4_2,Length=0.017000000,Units=km
new line.RML10304223 bus1=BBT2224777.1.0,bus2=RML1060304223.1.0,Phases=1,Linecode=CABBTG02_4_1,Length=0.017000000,Units=km
new line.RML10304446 bus1=BBT2346031.1.2.0,bus2=RML1060304446.1.2.0,Phases=2,Linecode=CABBTG05_4_2,Length=0.017000000,Units=km
new line.RML10304576 bus1=BBT2221382.1.0,bus2=RML1060304576.1.0,Phases=1,Linecode=CABBTG02_4_1,Length=0.017000000,Units=km
new line.RML10317078 bus1=BBT3465023.1.0,bus2=RML1060317078.1.0,Phases=1,Linecode=CABBTG02_4_1,Length=0.017000000,Units=km
new line.RML10317286 bus1=BBT2924714.1.2.3.0,bus2=RML1060317286.1.2.3.0,Phases=3,Linecode=CABBTG06_4_3,Length=0.017000000,Units=km
new line.RML10317372 bus1=BBT2037674.1.2.0,bus2=RML1060317372.1.2.0,Phases=2,Linecode=CABBTG05_4_2,Length=0.017000000,Units=km
new line.RML10317556 bus1=BBT2221298.1.2.0,bus2=RML1060317556.1.2.0,Phases=2,Linecode=CABBTG05_4_2,Length=0.017000000,Units=km
new line.RML10324144 bus1=BBT2283591.1.2.0,bus2=RML1060324144.1.2.0,Phases=2,Linecode=CABBTG05_4_2,Length=0.017000000,Units=km
new line.RML10325860 bus1=BBT2219128.1.2.0,bus2=RML1060325860.1.2.0,Phases=2,Linecode=CABBTG05_4_2,Length=0.017000000,Units=km
new line.RML10331143 bus1=BBT2224749.1.0,bus2=RML1060331143.1.0,Phases=1,Linecode=CABBTG02_4_1,Length=0.017000000,Units=km
new line.RML10331810 bus1=BBT149022246.1.2.0,bus2=RML1060331810.1.2.0,Phases=2,Linecode=CABBTG05_4_2,Length=0.017000000,Units=km
new line.RML10333631 bus1=BBT3844612.3.0,bus2=RML1060333631.3.0,Phases=1,Linecode=CABBTG02_4_1,Length=0.017000000,Units=km
new line.RML10333650 bus1=BBT2286671.2.0,bus2=RML1060333650.2.0,Phases=1,Linecode=CABBTG02_4_1,Length=0.017000000,Units=km
new line.RML10333706 bus1=BBT2222201.1.2.0,bus2=RML1060333706.1.2.0,Phases=2,Linecode=CABBTG05_4_2,Length=0.017000000,Units=km
new line.RML10337952 bus1=BBT151210951.1.2.3.0,bus2=RML1060337952.1.2.3.0,Phases=3,Linecode=CABBTG06_4_3,Length=0.017000000,Units=km
new line.RML10341346 bus1=BBT6516687.1.2.0,bus2=RML1060341346.1.2.0,Phases=2,Linecode=CABBTG05_4_2,Length=0.017000000,Units=km
new line.RML10341362 bus1=BBT7279148.1.2.0,bus2=RML1060341362.1.2.0,Phases=2,Linecode=CABBTG05_4_2,Length=0.017000000,Units=km
new line.RML10341446 bus1=BBT2347606.1.2.0,bus2=RML1060341446.1.2.0,Phases=2,Linecode=CABBTG05_4_2,Length=0.017000000,Units=km
new line.RML10341451 bus1=BBT2220584.1.2.3.0,bus2=RML1060341451.1.2.3.0,Phases=3,Linecode=CABBTG06_4_3,Length=0.017000000,Units=km
new line.RML10341555 bus1=BBT3855315.2.0,bus2=RML1060341555.2.0,Phases=1,Linecode=CABBTG02_4_1,Length=0.017000000,Units=km
new line.RML10341556 bus1=BBT2337778.1.2.3.0,bus2=RML1060341556.1.2.3.0,Phases=3,Linecode=CABBTG06_4_3,Length=0.017000000,Units=km
new line.RML10349076 bus1=BBT2292831.1.2.0,bus2=RML1060349076.1.2.0,Phases=2,Linecode=CABBT811_4_2,Length=0.017000000,Units=km
new line.RML10349326 bus1=BBT2292831.1.0,bus2=RML1060349326.1.0,Phases=1,Linecode=CABBTG02_4_1,Length=0.017000000,Units=km
new line.RML10349329 bus1=BBT2324513.3.0,bus2=RML1060349329.3.0,Phases=1,Linecode=CABBTG02_4_1,Length=0.017000000,Units=km
new line.RML10350259 bus1=BBT7491745.1.2.0,bus2=RML1060350259.1.2.0,Phases=2,Linecode=CABBTG05_4_2,Length=0.017000000,Units=km
new line.RML10350450 bus1=BBT2795683.1.2.3.0,bus2=RML1060350450.1.2.3.0,Phases=3,Linecode=CABBTG08_4_3,Length=0.017000000,Units=km
new line.RML10350466 bus1=BBT7073299.1.0,bus2=RML1060350466.1.0,Phases=1,Linecode=CABBTG02_4_1,Length=0.017000000,Units=km
new line.RML10355675 bus1=BBT2344036.1.2.0,bus2=RML1060355675.1.2.0,Phases=2,Linecode=CABBTG05_4_2,Length=0.017000000,Units=km
new line.RML10355680 bus1=BBT2222362.1.2.0,bus2=RML1060355680.1.2.0,Phases=2,Linecode=CABBTG05_4_2,Length=0.017000000,Units=km
new line.RML10356167 bus1=BBT2795760.1.0,bus2=RML1060356167.1.0,Phases=1,Linecode=CABBTG02_4_1,Length=0.017000000,Units=km
new line.RML10356336 bus1=BBT2221361.1.2.0,bus2=RML1060356336.1.2.0,Phases=2,Linecode=CABBTG05_4_2,Length=0.017000000,Units=km