new load.3000270025M1 bus1=RML1054009588.1.2.3.0,Phases=3,kv=0.22,kW=0.14908,pf=0.92,Vminpu=0.92,Vmaxpu=1.5,model=1,daily=COM1_7,status=variable
new load.3000270026M1 bus1=RML1054009581.1.2.3.0,Phases=3,kv=0.22,kW=1.0761,pf=0.92,Vminpu=0.92,Vmaxpu=1.5,model=1,daily=RES3_4,status=variable
new load.3000270027M1 bus1=RML1054009490.1.2.0,Phases=2,kv=0.22,kW=0.8621,pf=0.92,Vminpu=0.92,Vmaxpu=1.5,model=1,daily=RES3_4,status=variable
new load.3000270029M1 bus1=RML1054009490.1.2.0,Phases=2,kv=0.22,kW=1.48978,pf=0.92,Vminpu=0.92,Vmaxpu=1.5,model=1,daily=RES2_4,status=variable
new load.3000270030M1 bus1=RML1053414098.1.2.0,Phases=2,kv=0.24,kW=1.27832,pf=0.92,Vminpu=0.92,Vmaxpu=1.5,model=1,daily=RES2_4,status=variable
new load.3000270031M1 bus1=RML1053414091.1.2.0,Phases=2,kv=0.24,kW=1.19838,pf=0.92,Vminpu=0.92,Vmaxpu=1.5,model=1,daily=RES3_4,status=variable
new load.3000270032M1 bus1=RML1053414035.1.0,Phases=1,kv=0.12,kW=0.53824,pf=0.92,Vminpu=0.92,Vmaxpu=1.5,model=1,daily=RES2_4,status=variable
new load.3000270034M1 bus1=RML1053407679.1.2.0,Phases=2,kv=0.22,kW=1.31678,pf=0.92,Vminpu=0.92,Vmaxpu=1.5,model=1,daily=RES2_4,status=variable
new load.3000270035M1 bus1=RML1055450776.1.2.0,Phases=2,kv=0.22,kW=1.5211,pf=0.92,Vminpu=0.92,Vmaxpu=1.5,model=1,daily=RES4_6,status=variable
new load.3000270036M1 bus1=RML1053409604.1.2.0,Phases=2,kv=0.24,kW=0.61862,pf=0.92,Vminpu=0.92,Vmaxpu=1.5,model=1,daily=RES1_2,status=variable
new load.3000270037M1 bus1=RML1053409723.1.2.0,Phases=2,kv=0.24,kW=1.19182,pf=0.92,Vminpu=0.92,Vmaxpu=1.5,model=1,daily=RES2_4,status=variable
new load.3000270038M1 bus1=RML1053409695.1.2.0,Phases=2,kv=0.24,kW=1.01496,pf=0.92,Vminpu=0.92,Vmaxpu=1.5,model=1,daily=RES3_4,status=variable
new load.3000270044M1 bus1=RML1053409576.1.2.0,Phases=2,kv=0.24,kW=0.88426,pf=0.92,Vminpu=0.92,Vmaxpu=1.5,model=1,daily=RES2_4,status=variable
new load.3000270045M1 bus1=RML1053409569.1.2.0,Phases=2,kv=0.24,kW=0.1571,pf=0.92,Vminpu=0.92,Vmaxpu=1.5,model=1,daily=RES1_2,status=variable
new load.3000270047M1 bus1=RML1053409555.1.2.0,Phases=2,kv=0.24,kW=1.44172,pf=0.92,Vminpu=0.92,Vmaxpu=1.5,model=1,daily=RES2_4,status=variable
new load.3000270049M1 bus1=RML1054008937.1.2.3.0,Phases=3,kv=0.22,kW=0.60552,pf=0.92,Vminpu=0.92,Vmaxpu=1.5,model=1,daily=RES2_4,status=variable
new load.3000270052M1 bus1=RML1054009007.2.3.0,Phases=2,kv=0.22,kW=0.78814,pf=0.92,Vminpu=0.92,Vmaxpu=1.5,model=1,daily=RES2_4,status=variable
new load.3000270053M1 bus1=RML1054009035.1.2.3.0,Phases=3,kv=0.22,kW=0.54006,pf=0.92,Vminpu=0.92,Vmaxpu=1.5,model=1,daily=RES1_2,status=variable
new load.3000270054M1 bus1=RML1054009063.1.0,Phases=1,kv=0.127,kW=0.85542,pf=0.92,Vminpu=0.92,Vmaxpu=1.5,model=1,daily=RES2_4,status=variable
new load.3000270055M1 bus1=RML1054009014.1.2.0,Phases=2,kv=0.22,kW=0.37992,pf=0.92,Vminpu=0.92,Vmaxpu=1.5,model=1,daily=IND1_10,status=variable
new load.3000270056M1 bus1=RML1054009049.1.2.3.0,Phases=3,kv=0.22,kW=0.8362,pf=0.92,Vminpu=0.92,Vmaxpu=1.5,model=1,daily=RES2_4,status=variable
new load.3000270057M1 bus1=RML1054009049.1.2.3.0,Phases=3,kv=0.22,kW=0.90338,pf=0.92,Vminpu=0.92,Vmaxpu=1.5,model=1,daily=RES1_2,status=variable
new load.3000270058M1 bus1=RML1054009084.2.3.0,Phases=2,kv=0.22,kW=0.36074,pf=0.92,Vminpu=0.92,Vmaxpu=1.5,model=1,daily=RES3_4,status=variable
new load.3000270059M1 bus1=RML1054009056.2.0,Phases=1,kv=0.127,kW=0.79536,pf=0.92,Vminpu=0.92,Vmaxpu=1.5,model=1,daily=RES1_2,status=variable
new load.3000270060M1 bus1=RML1054009042.1.2.0,Phases=2,kv=0.22,kW=0.80736,pf=0.92,Vminpu=0.92,Vmaxpu=1.5,model=1,daily=RES2_4,status=variable
new load.3000270061M1 bus1=RML1054008972.1.2.3.0,Phases=3,kv=0.22,kW=0.173,pf=0.92,Vminpu=0.92,Vmaxpu=1.5,model=1,daily=RES2_4,status=variable
new load.3000270062M1 bus1=RML1053409716.2.0,Phases=1,kv=0.12,kW=0.61862,pf=0.92,Vminpu=0.92,Vmaxpu=1.5,model=1,daily=RES1_2,status=variable
new load.3000270063M1 bus1=RML1053414056.1.2.0,Phases=2,kv=0.24,kW=0.84446,pf=0.92,Vminpu=0.92,Vmaxpu=1.5,model=1,daily=RES1_2,status=variable
new load.3000270065M1 bus1=RML1054009560.1.2.3.0,Phases=3,kv=0.22,kW=0.53608,pf=0.92,Vminpu=0.92,Vmaxpu=1.5,model=1,daily=RES4_6,status=variable
new load.3000270066M1 bus1=RML1053407658.1.2.0,Phases=2,kv=0.22,kW=1.46742,pf=0.92,Vminpu=0.92,Vmaxpu=1.5,model=1,daily=RES3_4,status=variable
new load.3000270068M1 bus1=RML1054009574.1.2.0,Phases=2,kv=0.22,kW=1.27832,pf=0.92,Vminpu=0.92,Vmaxpu=1.5,model=1,daily=RES2_4,status=variable
new load.3000270069M1 bus1=RML1054009567.1.2.0,Phases=2,kv=0.22,kW=0.71036,pf=0.92,Vminpu=0.92,Vmaxpu=1.5,model=1,daily=COM1_7,status=variable
new load.3000270070M1 bus1=RML1054009518.1.2.3.0,Phases=3,kv=0.22,kW=0.3011,pf=0.92,Vminpu=0.92,Vmaxpu=1.5,model=1,daily=COM1_7,status=variable
new load.3000270071M1 bus1=RML1054009504.1.2.3.0,Phases=3,kv=0.22,kW=1.14376,pf=0.92,Vminpu=0.92,Vmaxpu=1.5,model=1,daily=RES2_4,status=variable
new load.3000270072M1 bus1=RML1054009287.1.2.3.0,Phases=3,kv=0.22,kW=1.04554,pf=0.92,Vminpu=0.92,Vmaxpu=1.5,model=1,daily=RES3_4,status=variable
new load.3000270073M1 bus1=RML1054009217.1.0,Phases=1,kv=0.127,kW=1.52822,pf=0.92,Vminpu=0.92,Vmaxpu=1.5,model=1,daily=RES2_4,status=variable
new load.3000270074M1 bus1=RML1054009238.1.0,Phases=1,kv=0.127,kW=0.48914,pf=0.92,Vminpu=0.92,Vmaxpu=1.5,model=1,daily=RES3_4,status=variable
new load.3000270076M1 bus1=RML1054009231.1.2.3.0,Phases=3,kv=0.22,kW=1.19838,pf=0.92,Vminpu=0.92,Vmaxpu=1.5,model=1,daily=RES3_4,status=variable
new load.3000270077M1 bus1=RML1054009273.1.2.0,Phases=2,kv=0.22,kW=1.12454,pf=0.92,Vminpu=0.92,Vmaxpu=1.5,model=1,daily=RES2_4,status=variable
new load.3000270079M1 bus1=RML1054009259.1.2.3.0,Phases=3,kv=0.22,kW=0.24548,pf=0.92,Vminpu=0.92,Vmaxpu=1.5,model=1,daily=RES1_2,status=variable
new load.3000270080M1 bus1=RML1054009245.1.2.3.0,Phases=3,kv=0.22,kW=0.05502,pf=0.92,Vminpu=0.92,Vmaxpu=1.5,model=1,daily=RES3_4,status=variable
new load.3000270082M1 bus1=RML1054009210.1.2.3.0,Phases=3,kv=0.22,kW=1.99192,pf=0.92,Vminpu=0.92,Vmaxpu=1.5,model=1,daily=RES5_6,status=variable
new load.3000270083M1 bus1=RML1054009210.1.2.3.0,Phases=3,kv=0.22,kW=1.63396,pf=0.92,Vminpu=0.92,Vmaxpu=1.5,model=1,daily=RES2_4,status=variable
new load.3000270084M1 bus1=RML1054009196.1.2.3.0,Phases=3,kv=0.22,kW=1.30716,pf=0.92,Vminpu=0.92,Vmaxpu=1.5,model=1,daily=RES2_4,status=variable
new load.3000627885M1 bus1=RML1053814848.3.0,Phases=1,kv=0.127,kW=0.472,pf=0.92,Vminpu=0.92,Vmaxpu=1.5,model=1,daily=RES1_11,status=variable
new load.3000627886M1 bus1=RML1053814855.1.3.0,Phases=2,kv=0.22,kW=0.63786,pf=0.92,Vminpu=0.92,Vmaxpu=1.5,model=1,daily=RES3_11,status=variable
new load.3000627887M1 bus1=RML1053814876.1.3.0,Phases=2,kv=0.22,kW=0.71286,pf=0.92,Vminpu=0.92,Vmaxpu=1.5,model=1,daily=RES2_10,status=variable
new load.3000627888M1 bus1=RML1053814820.1.3.0,Phases=2,kv=0.22,kW=0.7857,pf=0.92,Vminpu=0.92,Vmaxpu=1.5,model=1,daily=RES3_11,status=variable
new load.3000627890M1 bus1=RML1053814785.2.3.0,Phases=2,kv=0.22,kW=0.63958,pf=0.92,Vminpu=0.92,Vmaxpu=1.5,model=1,daily=RES2_10,status=variable
new load.3000627891M1 bus1=RML1053814757.1.3.0,Phases=2,kv=0.22,kW=0.7595,pf=0.92,Vminpu=0.92,Vmaxpu=1.5,model=1,daily=RES2_10,status=variable
new load.3000627892M1 bus1=RML1053814792.1.0,Phases=1,kv=0.127,kW=0.65898,pf=0.92,Vminpu=0.92,Vmaxpu=1.5,model=1,daily=RES3_11,status=variable
new load.3000627894M1 bus1=RML1053814771.2.3.0,Phases=2,kv=0.22,kW=1.026,pf=0.92,Vminpu=0.92,Vmaxpu=1.5,model=1,daily=RES2_10,status=variable
new load.3000628007M1 bus1=RML1053807960.1.2.0,Phases=2,kv=0.24,kW=1.18776,pf=0.92,Vminpu=0.92,Vmaxpu=1.5,model=1,daily=RES4_12,status=variable
new load.3000628008M1 bus1=RML1053807890.1.0,Phases=1,kv=0.12,kW=0.41972,pf=0.92,Vminpu=0.92,Vmaxpu=1.5,model=1,daily=RES2_10,status=variable
new load.3000628009M1 bus1=RML1053807897.1.2.0,Phases=2,kv=0.24,kW=0.93272,pf=0.92,Vminpu=0.92,Vmaxpu=1.5,model=1,daily=RES2_10,status=variable
new load.3000628010M1 bus1=RML1053807883.1.2.0,Phases=2,kv=0.24,kW=0.66282,pf=0.92,Vminpu=0.92,Vmaxpu=1.5,model=1,daily=RES1_11,status=variable
new load.3000628011M1 bus1=RML1053807876.1.2.0,Phases=2,kv=0.24,kW=0.71302,pf=0.92,Vminpu=0.92,Vmaxpu=1.5,model=1,daily=RES1_11,status=variable
new load.3000628012M1 bus1=RML1053807841.2.0,Phases=1,kv=0.12,kW=0.66624,pf=0.92,Vminpu=0.92,Vmaxpu=1.5,model=1,daily=RES2_10,status=variable
new load.3000628015M1 bus1=RML1053807848.1.2.0,Phases=2,kv=0.24,kW=0.57026,pf=0.92,Vminpu=0.92,Vmaxpu=1.5,model=1,daily=RES3_11,status=variable
new load.3000628017M1 bus1=RML1053890231.1.2.0,Phases=2,kv=0.24,kW=1.07264,pf=0.92,Vminpu=0.92,Vmaxpu=1.5,model=1,daily=RES2_10,status=variable
new load.3000628018M1 bus1=RML1053890224.1.2.0,Phases=2,kv=0.24,kW=0.43184,pf=0.92,Vminpu=0.92,Vmaxpu=1.5,model=1,daily=RES1_11,status=variable
new load.3000628019M1 bus1=RML1053890210.1.2.0,Phases=2,kv=0.24,kW=0.98424,pf=0.92,Vminpu=0.92,Vmaxpu=1.5,model=1,daily=RES3_11,status=variable
new load.3000628020M1 bus1=RML1053890238.1.2.0,Phases=2,kv=0.24,kW=0.8328,pf=0.92,Vminpu=0.92,Vmaxpu=1.5,model=1,daily=RES2_10,status=variable
new load.3000628021M1 bus1=RML1053890203.1.0,Phases=1,kv=0.12,kW=0.80682,pf=0.92,Vminpu=0.92,Vmaxpu=1.5,model=1,daily=RES3_11,status=variable
new load.3000628024M1 bus1=RML1053808233.2.0,Phases=1,kv=0.12,kW=0.38642,pf=0.92,Vminpu=0.92,Vmaxpu=1.5,model=1,daily=RES2_10,status=variable
new load.3000628025M1 bus1=RML1053810109.2.0,Phases=1,kv=0.12,kW=0.83946,pf=0.92,Vminpu=0.92,Vmaxpu=1.5,model=1,daily=RES2_10,status=variable
new load.3000628027M1 bus1=RML1053810165.1.2.0,Phases=2,kv=0.24,kW=0.50634,pf=0.92,Vminpu=0.92,Vmaxpu=1.5,model=1,daily=RES2_10,status=variable
new load.3000628028M1 bus1=RML1053810158.1.2.0,Phases=2,kv=0.24,kW=1.00602,pf=0.92,Vminpu=0.92,Vmaxpu=1.5,model=1,daily=RES2_10,status=variable
new load.3000628029M1 bus1=RML1053810158.1.2.0,Phases=2,kv=0.24,kW=0.44188,pf=0.92,Vminpu=0.92,Vmaxpu=1.5,model=1,daily=RES1_11,status=variable
new load.3000628031M1 bus1=RML1053809920.1.2.0,Phases=2,kv=0.24,kW=0.89942,pf=0.92,Vminpu=0.92,Vmaxpu=1.5,model=1,daily=RES2_10,status=variable
new load.3000628032M1 bus1=RML1053810130.1.2.0,Phases=2,kv=0.24,kW=0.11046,pf=0.92,Vminpu=0.92,Vmaxpu=1.5,model=1,daily=RES1_11,status=variable
new load.3000628033M1 bus1=RML1053808163.2.0,Phases=1,kv=0.12,kW=0.6126,pf=0.92,Vminpu=0.92,Vmaxpu=1.5,model=1,daily=RES1_11,status=variable
new load.3000628034M1 bus1=RML1053808170.1.2.0,Phases=2,kv=0.24,kW=0.87864,pf=0.92,Vminpu=0.92,Vmaxpu=1.5,model=1,daily=RES3_11,status=variable
new load.3000628035M1 bus1=RML1053808149.2.0,Phases=1,kv=0.12,kW=0.9194,pf=0.92,Vminpu=0.92,Vmaxpu=1.5,model=1,daily=RES2_10,status=variable
new load.3000628036M1 bus1=RML1053808121.1.2.0,Phases=2,kv=0.24,kW=1.13926,pf=0.92,Vminpu=0.92,Vmaxpu=1.5,model=1,daily=RES2_10,status=variable
new load.3000628037M1 bus1=RML1053808051.1.2.0,Phases=2,kv=0.24,kW=1.03932,pf=0.92,Vminpu=0.92,Vmaxpu=1.5,model=1,daily=RES2_10,status=variable
new load.3000628038M1 bus1=RML1053808058.1.2.0,Phases=2,kv=0.24,kW=0.57296,pf=0.92,Vminpu=0.92,Vmaxpu=1.5,model=1,daily=RES2_10,status=variable
new load.3000628039M1 bus1=RML1053808065.2.0,Phases=1,kv=0.12,kW=0.71954,pf=0.92,Vminpu=0.92,Vmaxpu=1.5,model=1,daily=RES2_10,status=variable
new load.3000628040M1 bus1=RML1053808107.1.2.0,Phases=2,kv=0.24,kW=0.74618,pf=0.92,Vminpu=0.92,Vmaxpu=1.5,model=1,daily=RES2_10,status=variable
new load.3000628042M1 bus1=RML1053807981.1.2.0,Phases=2,kv=0.24,kW=0.52222,pf=0.92,Vminpu=0.92,Vmaxpu=1.5,model=1,daily=RES1_11,status=variable
new load.3000628044M1 bus1=RML1053805384.1.2.0,Phases=2,kv=0.22,kW=0.80614,pf=0.92,Vminpu=0.92,Vmaxpu=1.5,model=1,daily=RES2_10,status=variable
new load.3000628046M1 bus1=RML1053808023.1.0,Phases=1,kv=0.12,kW=0.65278,pf=0.92,Vminpu=0.92,Vmaxpu=1.5,model=1,daily=RES1_11,status=variable
new load.3000628047M1 bus1=RML1053808044.2.0,Phases=1,kv=0.12,kW=0.78616,pf=0.92,Vminpu=0.92,Vmaxpu=1.5,model=1,daily=RES2_10,status=variable
new load.3000628048M1 bus1=RML1053807785.2.0,Phases=1,kv=0.12,kW=0.64624,pf=0.92,Vminpu=0.92,Vmaxpu=1.5,model=1,daily=RES2_10,status=variable
new load.3000628049M1 bus1=RML1053807792.1.2.0,Phases=2,kv=0.24,kW=0.50634,pf=0.92,Vminpu=0.92,Vmaxpu=1.5,model=1,daily=RES2_10,status=variable
new load.3000628050M1 bus1=RML1053807799.1.2.0,Phases=2,kv=0.24,kW=0.63958,pf=0.92,Vminpu=0.92,Vmaxpu=1.5,model=1,daily=RES2_10,status=variable
new load.3000628053M1 bus1=RML1053807743.1.2.0,Phases=2,kv=0.24,kW=0.95272,pf=0.92,Vminpu=0.92,Vmaxpu=1.5,model=1,daily=RES2_10,status=variable
new load.3000628054M1 bus1=RML1053807736.1.0,Phases=1,kv=0.12,kW=0.12052,pf=0.92,Vminpu=0.92,Vmaxpu=1.5,model=1,daily=RES1_11,status=variable
new load.3000628055M1 bus1=RML1053807729.1.2.0,Phases=2,kv=0.24,kW=0.53298,pf=0.92,Vminpu=0.92,Vmaxpu=1.5,model=1,daily=RES2_10,status=variable
new load.3000628056M1 bus1=RML1053807722.2.0,Phases=1,kv=0.12,kW=0.97936,pf=0.92,Vminpu=0.92,Vmaxpu=1.5,model=1,daily=RES2_10,status=variable
new load.3000628057M1 bus1=RML1053807673.1.0,Phases=1,kv=0.12,kW=0.72234,pf=0.92,Vminpu=0.92,Vmaxpu=1.5,model=1,daily=RES3_11,status=variable
new load.3000628058M1 bus1=RML1053807701.1.2.0,Phases=2,kv=0.24,kW=0.05022,pf=0.92,Vminpu=0.92,Vmaxpu=1.5,model=1,daily=RES1_11,status=variable
new load.3000628059M1 bus1=RML1053807687.1.2.0,Phases=2,kv=0.24,kW=0.77304,pf=0.92,Vminpu=0.92,Vmaxpu=1.5,model=1,daily=RES3_11,status=variable
new load.3000628060M1 bus1=RML1053807708.1.2.0,Phases=2,kv=0.24,kW=0.69288,pf=0.92,Vminpu=0.92,Vmaxpu=1.5,model=1,daily=RES2_10,status=variable
new load.3000628061M1 bus1=RML1053807694.1.0,Phases=1,kv=0.12,kW=0.7595,pf=0.92,Vminpu=0.92,Vmaxpu=1.5,model=1,daily=RES2_10,status=variable
new load.3000628062M1 bus1=RML1053807715.1.0,Phases=1,kv=0.12,kW=0.51112,pf=0.92,Vminpu=0.92,Vmaxpu=1.5,model=1,daily=RES3_11,status=variable
new load.3000628063M1 bus1=RML1053805412.3.0,Phases=1,kv=0.127,kW=0.61294,pf=0.92,Vminpu=0.92,Vmaxpu=1.5,model=1,daily=RES2_10,status=variable
new load.3000628064M1 bus1=RML1053805440.2.3.0,Phases=2,kv=0.22,kW=0.57242,pf=0.92,Vminpu=0.92,Vmaxpu=1.5,model=1,daily=RES1_11,status=variable
new load.3000628065M1 bus1=RML1053805419.1.0,Phases=1,kv=0.127,kW=0.6729,pf=0.92,Vminpu=0.92,Vmaxpu=1.5,model=1,daily=RES2_10,status=variable
new load.3000628066M1 bus1=RML1053805426.1.0,Phases=1,kv=0.127,kW=0.6729,pf=0.92,Vminpu=0.92,Vmaxpu=1.5,model=1,daily=RES2_10,status=variable
new load.3000628067M1 bus1=RML1053805447.1.2.3.0,Phases=3,kv=0.22,kW=0.93938,pf=0.92,Vminpu=0.92,Vmaxpu=1.5,model=1,daily=RES2_10,status=variable
new load.3000628070M1 bus1=RML1053805356.1.2.3.0,Phases=3,kv=0.22,kW=0.55298,pf=0.92,Vminpu=0.92,Vmaxpu=1.5,model=1,daily=RES2_10,status=variable
new load.3000628072M1 bus1=RML1053805405.1.2.0,Phases=2,kv=0.22,kW=0.69294,pf=0.92,Vminpu=0.92,Vmaxpu=1.5,model=1,daily=RES1_11,status=variable
new load.3000628073M1 bus1=RML1053805286.1.0,Phases=1,kv=0.127,kW=0.62264,pf=0.92,Vminpu=0.92,Vmaxpu=1.5,model=1,daily=RES1_11,status=variable
new load.3000628074M1 bus1=RML1053805398.1.0,Phases=1,kv=0.127,kW=0.60256,pf=0.92,Vminpu=0.92,Vmaxpu=1.5,model=1,daily=RES1_11,status=variable
new load.3000628076M1 bus1=RML1053805258.1.2.3.0,Phases=3,kv=0.22,kW=0.73312,pf=0.92,Vminpu=0.92,Vmaxpu=1.5,model=1,daily=RES1_11,status=variable
new load.3000628077M1 bus1=RML1053805216.1.2.3.0,Phases=3,kv=0.22,kW=0.78616,pf=0.92,Vminpu=0.92,Vmaxpu=1.5,model=1,daily=RES2_10,status=variable
new load.3000628078M1 bus1=RML1053805272.1.2.3.0,Phases=3,kv=0.22,kW=0.85278,pf=0.92,Vminpu=0.92,Vmaxpu=1.5,model=1,daily=RES2_10,status=variable
new load.3000628079M1 bus1=RML1060946535.1.3.0,Phases=2,kv=0.22,kW=0.70298,pf=0.92,Vminpu=0.92,Vmaxpu=1.5,model=1,daily=RES1_11,status=variable
new load.3000628080M1 bus1=RML1053805202.2.3.0,Phases=2,kv=0.22,kW=0.70298,pf=0.92,Vminpu=0.92,Vmaxpu=1.5,model=1,daily=RES1_11,status=variable
new load.3000628081M1 bus1=RML1053805181.1.0,Phases=1,kv=0.127,kW=0.55298,pf=0.92,Vminpu=0.92,Vmaxpu=1.5,model=1,daily=RES2_10,status=variable
new load.3000628082M1 bus1=RML1053805188.2.0,Phases=1,kv=0.127,kW=0.4017,pf=0.92,Vminpu=0.92,Vmaxpu=1.5,model=1,daily=RES1_11,status=variable
new load.3000628083M1 bus1=RML1053805146.2.0,Phases=1,kv=0.127,kW=0.46888,pf=0.92,Vminpu=0.92,Vmaxpu=1.5,model=1,daily=RES3_11,status=variable
new load.3000628084M1 bus1=RML1053805153.1.3.0,Phases=2,kv=0.22,kW=0.52802,pf=0.92,Vminpu=0.92,Vmaxpu=1.5,model=1,daily=RES3_11,status=variable
new load.3000628087M1 bus1=RML1053805076.1.3.0,Phases=2,kv=0.22,kW=1.25252,pf=0.92,Vminpu=0.92,Vmaxpu=1.5,model=1,daily=RES2_10,status=variable
new load.3000628089M1 bus1=RML1053805230.1.2.3.0,Phases=3,kv=0.22,kW=0.46636,pf=0.92,Vminpu=0.92,Vmaxpu=1.5,model=1,daily=RES2_10,status=variable
new load.3000628090M1 bus1=RML1053805314.2.0,Phases=1,kv=0.127,kW=0.77282,pf=0.92,Vminpu=0.92,Vmaxpu=1.5,model=1,daily=RES2_10,status=variable
new load.3000628093M1 bus1=RML1053807757.1.2.0,Phases=2,kv=0.24,kW=0.55964,pf=0.92,Vminpu=0.92,Vmaxpu=1.5,model=1,daily=RES2_10,status=variable
new load.3000628094M1 bus1=RML1053807806.1.2.0,Phases=2,kv=0.24,kW=1.04598,pf=0.92,Vminpu=0.92,Vmaxpu=1.5,model=1,daily=RES2_10,status=variable
new load.3000628095M1 bus1=RML1053807834.1.2.0,Phases=2,kv=0.24,kW=0.36886,pf=0.92,Vminpu=0.92,Vmaxpu=1.5,model=1,daily=COM1_17,status=variable
new load.3000628096M1 bus1=RML1053806434.1.0,Phases=1,kv=0.12,kW=0.67956,pf=0.92,Vminpu=0.92,Vmaxpu=1.5,model=1,daily=RES2_10,status=variable
new load.3000628097M1 bus1=RML1053806357.1.0,Phases=1,kv=0.12,kW=0.4064,pf=0.92,Vminpu=0.92,Vmaxpu=1.5,model=1,daily=RES2_10,status=variable
new load.3000628098M1 bus1=RML1053806294.2.0,Phases=1,kv=0.12,kW=0.85278,pf=0.92,Vminpu=0.92,Vmaxpu=1.5,model=1,daily=RES2_10,status=variable
new load.3000628100M1 bus1=RML1053806308.1.0,Phases=1,kv=0.12,kW=0.8026,pf=0.92,Vminpu=0.92,Vmaxpu=1.5,model=1,daily=RES3_11,status=variable
new load.3000628103M1 bus1=RML1053806343.2.0,Phases=1,kv=0.12,kW=0.01004,pf=0.92,Vminpu=0.92,Vmaxpu=1.5,model=1,daily=RES1_11,status=variable
new load.3000628104M1 bus1=RML1053806350.1.2.0,Phases=2,kv=0.24,kW=0.3314,pf=0.92,Vminpu=0.92,Vmaxpu=1.5,model=1,daily=RES1_11,status=variable
new load.3000628106M1 bus1=RML1053806441.1.2.0,Phases=2,kv=0.24,kW=0.8661,pf=0.92,Vminpu=0.92,Vmaxpu=1.5,model=1,daily=RES2_10,status=variable
new load.3000628107M1 bus1=RML1053806427.2.0,Phases=1,kv=0.12,kW=0.6729,pf=0.92,Vminpu=0.92,Vmaxpu=1.5,model=1,daily=RES2_10,status=variable
new load.3000628108M1 bus1=RML1053806476.1.0,Phases=1,kv=0.12,kW=0.8195,pf=0.92,Vminpu=0.92,Vmaxpu=1.5,model=1,daily=RES3_11,status=variable
new load.3000628109M1 bus1=RML1053806462.2.0,Phases=1,kv=0.12,kW=0.71302,pf=0.92,Vminpu=0.92,Vmaxpu=1.5,model=1,daily=RES1_11,status=variable
new load.3000628110M1 bus1=RML1053806455.2.0,Phases=1,kv=0.12,kW=0.48204,pf=0.92,Vminpu=0.92,Vmaxpu=1.5,model=1,daily=RES1_11,status=variable
new load.3000628111M1 bus1=RML1053807162.1.0,Phases=1,kv=0.12,kW=0.57962,pf=0.92,Vminpu=0.92,Vmaxpu=1.5,model=1,daily=RES2_10,status=variable
new load.3000628112M1 bus1=RML1053807169.2.0,Phases=1,kv=0.12,kW=0.69288,pf=0.92,Vminpu=0.92,Vmaxpu=1.5,model=1,daily=RES2_10,status=variable
new load.3000628113M1 bus1=RML1053807190.1.2.0,Phases=2,kv=0.24,kW=0.46044,pf=0.92,Vminpu=0.92,Vmaxpu=1.5,model=1,daily=RES3_11,status=variable
new load.3000628114M1 bus1=RML1060995304.1.2.0,Phases=2,kv=0.24,kW=0.73286,pf=0.92,Vminpu=0.92,Vmaxpu=1.5,model=1,daily=RES2_10,status=variable
new load.3000628115M1 bus1=RML1053807113.1.0,Phases=1,kv=0.12,kW=0.6829,pf=0.92,Vminpu=0.92,Vmaxpu=1.5,model=1,daily=RES1_11,status=variable
new load.3000628116M1 bus1=RML1053807092.1.2.0,Phases=2,kv=0.24,kW=0.61294,pf=0.92,Vminpu=0.92,Vmaxpu=1.5,model=1,daily=RES2_10,status=variable
new load.3000628118M1 bus1=RML1053806959.1.2.0,Phases=2,kv=0.24,kW=0.87276,pf=0.92,Vminpu=0.92,Vmaxpu=1.5,model=1,daily=RES2_10,status=variable
new load.3000628121M1 bus1=RML1053806987.1.0,Phases=1,kv=0.12,kW=1.03266,pf=0.92,Vminpu=0.92,Vmaxpu=1.5,model=1,daily=RES2_10,status=variable
new load.3000628123M1 bus1=RML1053807099.2.0,Phases=1,kv=0.12,kW=0.9727,pf=0.92,Vminpu=0.92,Vmaxpu=1.5,model=1,daily=RES2_10,status=variable
new load.3000628124M1 bus1=RML1053807183.1.2.0,Phases=2,kv=0.24,kW=0.56238,pf=0.92,Vminpu=0.92,Vmaxpu=1.5,model=1,daily=RES1_11,status=variable
new load.3000628126M1 bus1=RML1053807127.1.0,Phases=1,kv=0.12,kW=1.08596,pf=0.92,Vminpu=0.92,Vmaxpu=1.5,model=1,daily=RES2_10,status=variable
new load.3000628127M1 bus1=RML1053807141.2.0,Phases=1,kv=0.12,kW=0.59294,pf=0.92,Vminpu=0.92,Vmaxpu=1.5,model=1,daily=RES2_10,status=variable
new load.3000628129M1 bus1=RML1053807036.1.0,Phases=1,kv=0.12,kW=0.4597,pf=0.92,Vminpu=0.92,Vmaxpu=1.5,model=1,daily=RES2_10,status=variable
new load.3000628130M1 bus1=RML1053807134.2.0,Phases=1,kv=0.12,kW=0.94606,pf=0.92,Vminpu=0.92,Vmaxpu=1.5,model=1,daily=RES2_10,status=variable
new load.3000628132M1 bus1=RML1053805741.1.0,Phases=1,kv=0.12,kW=0.23098,pf=0.92,Vminpu=0.92,Vmaxpu=1.5,model=1,daily=RES1_11,status=variable
new load.3000628133M1 bus1=RML1053805720.1.0,Phases=1,kv=0.12,kW=0.52632,pf=0.92,Vminpu=0.92,Vmaxpu=1.5,model=1,daily=RES2_10,status=variable
new load.3000628134M1 bus1=RML1053805699.1.0,Phases=1,kv=0.12,kW=0.8737,pf=0.92,Vminpu=0.92,Vmaxpu=1.5,model=1,daily=RES1_11,status=variable
new load.3000628135M1 bus1=RML1053805762.1.0,Phases=1,kv=0.12,kW=0.52632,pf=0.92,Vminpu=0.92,Vmaxpu=1.5,model=1,daily=RES2_10,status=variable
new load.3000628137M1 bus1=RML1053805860.2.0,Phases=1,kv=0.12,kW=0.87942,pf=0.92,Vminpu=0.92,Vmaxpu=1.5,model=1,daily=RES2_10,status=variable
new load.3000628146M1 bus1=RML1053807610.1.2.0,Phases=2,kv=0.24,kW=0.41972,pf=0.92,Vminpu=0.92,Vmaxpu=1.5,model=1,daily=RES2_10,status=variable
new load.3000628147M1 bus1=RML1053807561.1.2.0,Phases=2,kv=0.24,kW=1.20866,pf=0.92,Vminpu=0.92,Vmaxpu=1.5,model=1,daily=RES4_12,status=variable
new load.3000628149M1 bus1=RML1053807540.1.2.0,Phases=2,kv=0.24,kW=0.56238,pf=0.92,Vminpu=0.92,Vmaxpu=1.5,model=1,daily=RES1_11,status=variable
new load.3000628152M1 bus1=RML1053808604.1.2.0,Phases=2,kv=0.24,kW=0.41972,pf=0.92,Vminpu=0.92,Vmaxpu=1.5,model=1,daily=RES2_10,status=variable
new load.3000628154M1 bus1=RML1053808548.1.0,Phases=1,kv=0.12,kW=1.11928,pf=0.92,Vminpu=0.92,Vmaxpu=1.5,model=1,daily=RES2_10,status=variable
new load.3000628156M1 bus1=RML1053808513.1.0,Phases=1,kv=0.12,kW=0.57872,pf=0.92,Vminpu=0.92,Vmaxpu=1.5,model=1,daily=RES3_11,status=variable
new load.3000628159M1 bus1=RML1053808597.1.2.0,Phases=2,kv=0.24,kW=0.59252,pf=0.92,Vminpu=0.92,Vmaxpu=1.5,model=1,daily=RES1_11,status=variable
new load.3000628160M1 bus1=RML1053808611.1.2.0,Phases=2,kv=0.24,kW=0.45304,pf=0.92,Vminpu=0.92,Vmaxpu=1.5,model=1,daily=RES2_10,status=variable
new load.3000628162M1 bus1=RML1053809269.2.0,Phases=1,kv=0.12,kW=0.73952,pf=0.92,Vminpu=0.92,Vmaxpu=1.5,model=1,daily=RES2_10,status=variable
new load.3000628163M1 bus1=RML1053809073.1.2.0,Phases=2,kv=0.24,kW=0.93272,pf=0.92,Vminpu=0.92,Vmaxpu=1.5,model=1,daily=RES2_10,status=variable
new load.3000628169M1 bus1=RML1053808989.2.0,Phases=1,kv=0.12,kW=0.68622,pf=0.92,Vminpu=0.92,Vmaxpu=1.5,model=1,daily=RES2_10,status=variable
new load.3000628170M1 bus1=RML1053809038.1.0,Phases=1,kv=0.12,kW=0.50634,pf=0.92,Vminpu=0.92,Vmaxpu=1.5,model=1,daily=RES2_10,status=variable
new load.3000628171M1 bus1=RML1053809059.1.2.0,Phases=2,kv=0.24,kW=0.30128,pf=0.92,Vminpu=0.92,Vmaxpu=1.5,model=1,daily=RES1_11,status=variable
new load.3000628172M1 bus1=RML1053809031.1.2.0,Phases=2,kv=0.24,kW=0.74618,pf=0.92,Vminpu=0.92,Vmaxpu=1.5,model=1,daily=RES2_10,status=variable
new load.3000813713M1 bus1=RML1053961533.1.2.0,Phases=2,kv=0.24,kW=0.15662,pf=0.92,Vminpu=0.92,Vmaxpu=1.5,model=1,daily=RUR1_18,status=variable
new load.3000813714M1 bus1=RML1053961526.1.2.0,Phases=2,kv=0.24,kW=0.1967,pf=0.92,Vminpu=0.92,Vmaxpu=1.5,model=1,daily=RUR1_18,status=variable
new load.3000813715M1 bus1=RML1053961484.1.2.0,Phases=2,kv=0.24,kW=0.00364,pf=0.92,Vminpu=0.92,Vmaxpu=1.5,model=1,daily=RUR1_18,status=variable
new load.3000813716M1 bus1=RML1053937803.1.2.0,Phases=2,kv=0.24,kW=0.18576,pf=0.92,Vminpu=0.92,Vmaxpu=1.5,model=1,daily=RUR1_18,status=variable
new load.3000813717M1 bus1=RML1053937810.1.2.0,Phases=2,kv=0.24,kW=0.13112,pf=0.92,Vminpu=0.92,Vmaxpu=1.5,model=1,daily=RUR1_18,status=variable
new load.3000813718M1 bus1=RML1053961379.1.2.0,Phases=2,kv=0.24,kW=0.75824,pf=0.92,Vminpu=0.92,Vmaxpu=1.5,model=1,daily=RUR2_21,status=variable
new load.3000813720M1 bus1=RML1053937418.1.2.0,Phases=2,kv=0.24,kW=0.32782,pf=0.92,Vminpu=0.92,Vmaxpu=1.5,model=1,daily=RUR1_18,status=variable
new load.3000813722M1 bus1=RML1053937320.1.2.0,Phases=2,kv=0.24,kW=0.38246,pf=0.92,Vminpu=0.92,Vmaxpu=1.5,model=1,daily=RUR1_18,status=variable
new load.3000813723M1 bus1=RML1053937313.1.2.0,Phases=2,kv=0.24,kW=0.98322,pf=0.92,Vminpu=0.92,Vmaxpu=1.5,model=1,daily=RUR2_21,status=variable
new load.3000813724M1 bus1=RML1053937299.1.2.0,Phases=2,kv=0.24,kW=0.5155,pf=0.92,Vminpu=0.92,Vmaxpu=1.5,model=1,daily=RUR3_17,status=variable
new load.3000813725M1 bus1=RML1053937327.1.2.0,Phases=2,kv=0.24,kW=0.59828,pf=0.92,Vminpu=0.92,Vmaxpu=1.5,model=1,daily=RES1_16,status=variable
new load.3000813726M1 bus1=RML1053937341.1.2.0,Phases=2,kv=0.24,kW=0.65564,pf=0.92,Vminpu=0.92,Vmaxpu=1.5,model=1,daily=RUR1_18,status=variable
new load.3000813727M1 bus1=RML1053937355.1.2.0,Phases=2,kv=0.24,kW=0.37882,pf=0.92,Vminpu=0.92,Vmaxpu=1.5,model=1,daily=RUR1_18,status=variable
new load.3000813728M1 bus1=RML1053937348.1.2.0,Phases=2,kv=0.24,kW=0.44802,pf=0.92,Vminpu=0.92,Vmaxpu=1.5,model=1,daily=RUR1_18,status=variable
new load.3000813729M1 bus1=RML1053937362.1.2.0,Phases=2,kv=0.24,kW=0.45134,pf=0.92,Vminpu=0.92,Vmaxpu=1.5,model=1,daily=RES1_16,status=variable
new load.3000813731M1 bus1=RML1053937404.1.2.0,Phases=2,kv=0.24,kW=0.17844,pf=0.92,Vminpu=0.92,Vmaxpu=1.5,model=1,daily=RES1_16,status=variable
new load.3000813732M1 bus1=RML1053937397.1.2.0,Phases=2,kv=0.24,kW=0.76622,pf=0.92,Vminpu=0.92,Vmaxpu=1.5,model=1,daily=RES1_16,status=variable
new load.3000813734M1 bus1=RML1053937369.1.2.0,Phases=2,kv=0.24,kW=0.20034,pf=0.92,Vminpu=0.92,Vmaxpu=1.5,model=1,daily=RUR1_18,status=variable
new load.3000813735M1 bus1=RML1053937383.1.2.0,Phases=2,kv=0.24,kW=0.38328,pf=0.92,Vminpu=0.92,Vmaxpu=1.5,model=1,daily=RUR2_21,status=variable
new load.3000813736M1 bus1=RML1053961372.1.2.0,Phases=2,kv=0.24,kW=1.28734,pf=0.92,Vminpu=0.92,Vmaxpu=1.5,model=1,daily=RUR2_21,status=variable
new load.3000813739M1 bus1=RML1053961386.1.2.0,Phases=2,kv=0.24,kW=0.43034,pf=0.92,Vminpu=0.92,Vmaxpu=1.5,model=1,daily=RES1_16,status=variable
new load.3000813740M1 bus1=RML1053961393.1.2.0,Phases=2,kv=0.24,kW=0.45134,pf=0.92,Vminpu=0.92,Vmaxpu=1.5,model=1,daily=RES1_16,status=variable
new load.3000813741M1 bus1=RML1053961400.1.2.0,Phases=2,kv=0.24,kW=0.2914,pf=0.92,Vminpu=0.92,Vmaxpu=1.5,model=1,daily=RUR1_18,status=variable
new load.3000813742M1 bus1=RML1053961414.1.2.0,Phases=2,kv=0.24,kW=0.33698,pf=0.92,Vminpu=0.92,Vmaxpu=1.5,model=1,daily=RES2_17,status=variable
new load.3000813743M1 bus1=RML1053961428.1.2.0,Phases=2,kv=0.24,kW=0.5563,pf=0.92,Vminpu=0.92,Vmaxpu=1.5,model=1,daily=RES1_16,status=variable
new load.3000813744M1 bus1=RML1053961435.1.2.0,Phases=2,kv=0.24,kW=0.46624,pf=0.92,Vminpu=0.92,Vmaxpu=1.5,model=1,daily=RUR1_18,status=variable
new load.3000813746M1 bus1=RML1053961512.1.2.0,Phases=2,kv=0.24,kW=0.5143,pf=0.92,Vminpu=0.92,Vmaxpu=1.5,model=1,daily=RES1_16,status=variable
new load.3000813747M1 bus1=RML1053961491.1.2.0,Phases=2,kv=0.24,kW=0.26226,pf=0.92,Vminpu=0.92,Vmaxpu=1.5,model=1,daily=RUR1_18,status=variable
new load.3000813749M1 bus1=RML1053961561.1.2.0,Phases=2,kv=0.24,kW=0.2914,pf=0.92,Vminpu=0.92,Vmaxpu=1.5,model=1,daily=RUR1_18,status=variable
new load.3000813750M1 bus1=RML1053961456.2.0,Phases=1,kv=0.12,kW=0.6896,pf=0.92,Vminpu=0.92,Vmaxpu=1.5,model=1,daily=RUR3_17,status=variable
new load.3000813752M1 bus1=RML1053961470.1.2.0,Phases=2,kv=0.24,kW=0.26226,pf=0.92,Vminpu=0.92,Vmaxpu=1.5,model=1,daily=RUR1_18,status=variable
new load.3000813753M1 bus1=RML1053937306.1.2.0,Phases=2,kv=0.24,kW=1.28734,pf=0.92,Vminpu=0.92,Vmaxpu=1.5,model=1,daily=RUR2_21,status=variable
new load.3000813754M1 bus1=RML1053937173.1.2.0,Phases=2,kv=0.24,kW=1.40992,pf=0.92,Vminpu=0.92,Vmaxpu=1.5,model=1,daily=RUR3_17,status=variable
new load.3000813755M1 bus1=RML1053937278.1.2.0,Phases=2,kv=0.24,kW=0.5573,pf=0.92,Vminpu=0.92,Vmaxpu=1.5,model=1,daily=RUR1_18,status=variable
new load.3000813757M1 bus1=RML1053961575.1.2.0,Phases=2,kv=0.24,kW=0.8999,pf=0.92,Vminpu=0.92,Vmaxpu=1.5,model=1,daily=RUR2_21,status=variable
new load.3000813758M1 bus1=RML1053961841.1.2.0,Phases=2,kv=0.24,kW=0.38246,pf=0.92,Vminpu=0.92,Vmaxpu=1.5,model=1,daily=RUR1_18,status=variable
new load.3000813760M1 bus1=RML1053928591.1.2.0,Phases=2,kv=0.24,kW=0.5828,pf=0.92,Vminpu=0.92,Vmaxpu=1.5,model=1,daily=RUR1_18,status=variable
new load.3000813761M1 bus1=RML1053961778.1.2.0,Phases=2,kv=0.24,kW=0.33746,pf=0.92,Vminpu=0.92,Vmaxpu=1.5,model=1,daily=RUR2_21,status=variable
new load.3000813762M1 bus1=RML1053961736.1.2.0,Phases=2,kv=0.24,kW=0.5828,pf=0.92,Vminpu=0.92,Vmaxpu=1.5,model=1,daily=RUR1_18,status=variable
new load.3000813763M1 bus1=RML1053961715.1.2.0,Phases=2,kv=0.24,kW=1.26996,pf=0.92,Vminpu=0.92,Vmaxpu=1.5,model=1,daily=RUR3_17,status=variable
new load.3000813765M1 bus1=RML1053961708.1.2.0,Phases=2,kv=0.24,kW=0.42618,pf=0.92,Vminpu=0.92,Vmaxpu=1.5,model=1,daily=RUR1_18,status=variable
new load.3000813778M1 bus1=RML1053961337.1.2.0,Phases=2,kv=0.24,kW=0.54994,pf=0.92,Vminpu=0.92,Vmaxpu=1.5,model=1,daily=RUR2_21,status=variable
new load.3000813780M1 bus1=RML1053961274.1.2.0,Phases=2,kv=0.24,kW=0.5136,pf=0.92,Vminpu=0.92,Vmaxpu=1.5,model=1,daily=RUR1_18,status=variable
new load.3000813781M1 bus1=RML1053961288.1.2.0,Phases=2,kv=0.24,kW=0.46044,pf=0.92,Vminpu=0.92,Vmaxpu=1.5,model=1,daily=RES4_17,status=variable
new load.3000813782M1 bus1=RML1053961295.1.2.0,Phases=2,kv=0.24,kW=0.2659,pf=0.92,Vminpu=0.92,Vmaxpu=1.5,model=1,daily=RUR1_18,status=variable