! manter este comentario para compatibilidade do C#
new circuit.alimPSOU07 bus1=BMT124489661.1.2.3,basekv=13.800000000,pu=1.040000000