new line.TR11681664 bus1=BMT927559B.1.2.3,bus2=BMT124489668.1.2.3,Phases=3,Linecode=CAB107_3_3,Length=0.027168000,Units=km
new line.TR11681671 bus1=BMT927538B.1.2.3,bus2=BMT165403596.1.2.3,Phases=3,Linecode=CAB107_3_3,Length=0.025082000,Units=km
new line.TR1186193 bus1=BMT788777B.1.2.3,bus2=BMT783527B.1.2.3,Phases=3,Linecode=CAB108_3_3,Length=0.034542000,Units=km
new line.TR1186256 bus1=BMT167708024.1.2.3,bus2=BMT788847B.1.2.3,Phases=3,Linecode=CAB102_3_3,Length=0.031403000,Units=km
new line.TR1186305 bus1=BMT788847B.1.2.3,bus2=BMT167708025.1.2.3,Phases=3,Linecode=CAB102_3_3,Length=0.033737000,Units=km
new line.TR1186823 bus1=BMT789204B.1.2.3,bus2=BMT2318130.1.2.3,Phases=3,Linecode=CAB108_3_3,Length=0.024209000,Units=km
new line.TR1186851 bus1=BMT124489829.1.2.3,bus2=BMT789204B.1.2.3,Phases=3,Linecode=CAB108_3_3,Length=0.028427000,Units=km
new line.TR1186865 bus1=BMT789225B.1.2.3,bus2=BMT124489829.1.2.3,Phases=3,Linecode=CAB108_3_3,Length=0.028427000,Units=km
new line.TR1186900 bus1=BMT789246B.1.2.3,bus2=BMT789225B.1.2.3,Phases=3,Linecode=CAB108_3_3,Length=0.031403000,Units=km
new line.TR1186928 bus1=BMT789260B.1.2.3,bus2=BMT908694B.1.2.3,Phases=3,Linecode=CAB102_3_3,Length=0.037486000,Units=km
new line.TR12287353 bus1=BMT154377505.1.2.3,bus2=BMT894288B.1.2.3,Phases=3,Linecode=CABA06_3_3,Length=0.033528000,Units=km
new line.TR12287355 bus1=BMT894288B.1.2.3,bus2=BMT894267B.1.2.3,Phases=3,Linecode=CABA06_3_3,Length=0.040165000,Units=km
new line.TR12287356 bus1=BMT894267B.1.2.3,bus2=BMT154377506.1.2.3,Phases=3,Linecode=CABA06_3_3,Length=0.031323000,Units=km
new line.TR12403204 bus1=BMT158338066.1.2.3,bus2=BMT158338067.1.2.3,Phases=3,Linecode=CAB902_4_3,Length=0.021842000,Units=km
new line.TR1312319 bus1=BMT171789050.2,bus2=BMT870705B.2,Phases=1,Linecode=CAB102_3_1,Length=0.032575000,Units=km
new line.TR1312375 bus1=BMT870761B.1.2.3,bus2=BMT171789050.1.2.3,Phases=3,Linecode=CAB102_3_3,Length=0.037446000,Units=km
new line.TR1312417 bus1=BMT870782B.1.2.3,bus2=BMT870761B.1.2.3,Phases=3,Linecode=CAB102_3_3,Length=0.031067000,Units=km
new line.TR1312431 bus1=BMT870789B.1.2.3,bus2=BMT870768B.1.2.3,Phases=3,Linecode=CAB102_3_3,Length=0.018869000,Units=km
new line.TR1312438 bus1=BMT870789B.1.2.3,bus2=BMT870782B.1.2.3,Phases=3,Linecode=CAB102_3_3,Length=0.018869000,Units=km
new line.TR1312445 bus1=BMT870789B.1.2.3,bus2=BMT870796B.1.2.3,Phases=3,Linecode=CAB102_3_3,Length=0.019418000,Units=km
new line.TR1312480 bus1=BMT870803B.1.2.3,bus2=BMT870789B.1.2.3,Phases=3,Linecode=CAB102_3_3,Length=0.016126000,Units=km
new line.TR1312907 bus1=BMT871041B.1.2.3,bus2=BMT124490879.1.2.3,Phases=3,Linecode=CAB103_3_3,Length=0.034368000,Units=km
new line.TR1312921 bus1=BMT871048B.1.2.3,bus2=BMT871041B.1.2.3,Phases=3,Linecode=CAB103_3_3,Length=0.030019000,Units=km
new line.TR1312935 bus1=BMT124490879.1.2.3,bus2=BMT871076B.1.2.3,Phases=3,Linecode=CAB103_3_3,Length=0.025002000,Units=km
new line.TR1312949 bus1=BMT871062B.1.2.3,bus2=BMT871048B.1.2.3,Phases=3,Linecode=CAB103_3_3,Length=0.029684000,Units=km
new line.TR1312963 bus1=BMT871069B.1.2.3,bus2=BMT871062B.1.2.3,Phases=3,Linecode=CAB103_3_3,Length=0.024700000,Units=km
new line.TR1312970 bus1=BMT871076B.1.2.3,bus2=BMT871090B.1.2.3,Phases=3,Linecode=CAB103_3_3,Length=0.015233000,Units=km
new line.TR1312977 bus1=BMT871083B.1.2.3,bus2=BMT124490886.1.2.3,Phases=3,Linecode=CAB103_3_3,Length=0.030366000,Units=km
new line.TR1312991 bus1=BMT871090B.1.2.3,bus2=BMT871083B.1.2.3,Phases=3,Linecode=CAB103_3_3,Length=0.006325000,Units=km
new line.TR1312998 bus1=BMT871090B.1.2.3,bus2=BMT871097B.1.2.3,Phases=3,Linecode=CAB103_3_3,Length=0.026002000,Units=km
new line.TR1313005 bus1=BMT871090B.1.2.3,bus2=BMT871104B.1.2.3,Phases=3,Linecode=CAB103_3_3,Length=0.019315000,Units=km
new line.TR1313586 bus1=BMT871482B.1,bus2=BMT171789054.1,Phases=1,Linecode=CAB102_3_1,Length=0.030531000,Units=km
new line.TR1313600 bus1=BMT171789049.1,bus2=BMT871482B.1,Phases=1,Linecode=CAB102_3_1,Length=0.028304000,Units=km
new line.TR1313614 bus1=BMT871496B.1.2.3,bus2=BMT870803B.1.2.3,Phases=3,Linecode=CAB102_3_3,Length=0.037218000,Units=km
new line.TR1313628 bus1=BMT171789048.1.2.3,bus2=BMT171789049.1.2.3,Phases=3,Linecode=CAB102_3_3,Length=0.016645000,Units=km
new line.TR1313635 bus1=BMT171789048.1.2.3,bus2=BMT871496B.1.2.3,Phases=3,Linecode=CAB102_3_3,Length=0.009435000,Units=km
new line.TR1313642 bus1=BMT171789048.1.2.3,bus2=BMT871524B.1.2.3,Phases=3,Linecode=CAB102_3_3,Length=0.026835000,Units=km
new line.TR1313663 bus1=BMT871510B.1.2.3,bus2=BMT171789048.1.2.3,Phases=3,Linecode=CAB102_3_3,Length=0.011663000,Units=km
new line.TR1313677 bus1=BMT871517B.1.2.3,bus2=BMT871510B.1.2.3,Phases=3,Linecode=CAB102_3_3,Length=0.031908000,Units=km
new line.TR1313684 bus1=BMT871517B.1.2.3,bus2=BMT879259B.1.2.3,Phases=3,Linecode=CAB102_3_3,Length=0.032759000,Units=km
new line.TR1314832 bus1=BMT872357B.1.2.3,bus2=BMT875696B.1.2.3,Phases=3,Linecode=CAB102_3_3,Length=0.030808000,Units=km
new line.TR1314853 bus1=BMT124490872.1.2.3,bus2=BMT871069B.1.2.3,Phases=3,Linecode=CAB103_3_3,Length=0.040499000,Units=km
new line.TR1314860 bus1=BMT124490900.1.2.3,bus2=BMT872357B.1.2.3,Phases=3,Linecode=CAB102_3_3,Length=0.032452000,Units=km
new line.TR1314874 bus1=BMT872371B.1.2.3,bus2=BMT124490872.1.2.3,Phases=3,Linecode=CAB103_3_3,Length=0.037738000,Units=km
new line.TR1314895 bus1=BMT872385B.1.2.3,bus2=BMT872371B.1.2.3,Phases=3,Linecode=CAB103_3_3,Length=0.036894000,Units=km
new line.TR1314916 bus1=BMT124490865.1.2.3,bus2=BMT872385B.1.2.3,Phases=3,Linecode=CAB103_3_3,Length=0.034672000,Units=km
new line.TR1314958 bus1=BMT872413B.1.2.3,bus2=BMT124490865.1.2.3,Phases=3,Linecode=CAB103_3_3,Length=0.033289000,Units=km
new line.TR1314972 bus1=BMT872420B.1.2.3,bus2=BMT872413B.1.2.3,Phases=3,Linecode=CAB103_3_3,Length=0.018359000,Units=km
new line.TR1314993 bus1=BMT872434B.1.2.3,bus2=BMT878888B.1.2.3,Phases=3,Linecode=CAB103_3_3,Length=0.037738000,Units=km
new line.TR1315000 bus1=BMT872434B.1.2.3,bus2=BMT2283914B.1.2.3,Phases=3,Linecode=CAB103_3_3,Length=0.034134000,Units=km
new line.TR1315679 bus1=BMT124490998.1.2.3,bus2=BMT124491005.1.2.3,Phases=3,Linecode=CAB102_3_3,Length=0.011663000,Units=km
new line.TR1315686 bus1=BMT124490998.1.2.3,bus2=BMT872889B.1.2.3,Phases=3,Linecode=CAB102_3_3,Length=0.008945000,Units=km
new line.TR1315693 bus1=BMT124490998.1.2.3,bus2=BMT872924B.1.2.3,Phases=3,Linecode=CAB102_3_3,Length=0.026079000,Units=km
new line.TR1315707 bus1=BMT872910B.1.2.3,bus2=BMT124490998.1.2.3,Phases=3,Linecode=CAB102_3_3,Length=0.017031000,Units=km
new line.TR1315728 bus1=BMT872924B.1.2.3,bus2=BMT878531B.1.2.3,Phases=3,Linecode=CAB102_3_3,Length=0.029684000,Units=km
new line.TR1315742 bus1=BMT872931B.1.2.3,bus2=BMT872910B.1.2.3,Phases=3,Linecode=CAB102_3_3,Length=0.034134000,Units=km
new line.TR1176554 bus1=BMT782827B.1.2.3,bus2=BMT782799B.1.2.3,Phases=3,Linecode=CAB102_3_3,Length=0.033002000,Units=km
new line.TR1176575 bus1=BMT782834B.1.2.3,bus2=BMT782827B.1.2.3,Phases=3,Linecode=CAB102_3_3,Length=0.031002000,Units=km
new line.TR1177331 bus1=BMT783296B.1.2.3,bus2=BMT789246B.1.2.3,Phases=3,Linecode=CAB108_3_3,Length=0.027805000,Units=km
new line.TR1177345 bus1=BMT167708018.1.2.3,bus2=BMT788777B.1.2.3,Phases=3,Linecode=CAB108_3_3,Length=0.023772000,Units=km
new line.TR1177359 bus1=BMT783310B.1.2.3,bus2=BMT124489822.1.2.3,Phases=3,Linecode=CAB108_3_3,Length=0.003163000,Units=km
new line.TR1177366 bus1=BMT783317B.1.2.3,bus2=BMT783324B.1.2.3,Phases=3,Linecode=CAB108_3_3,Length=0.022024000,Units=km
new line.TR1177380 bus1=BMT783324B.1.2.3,bus2=BMT783338B.1.2.3,Phases=3,Linecode=CAB108_3_3,Length=0.024209000,Units=km
new line.TR1177387 bus1=BMT124489808.1.2.3,bus2=BMT783310B.1.2.3,Phases=3,Linecode=CAB108_3_3,Length=0.027588000,Units=km
new line.TR1177394 bus1=BMT783338B.1.2.3,bus2=BMT2318732.1.2.3,Phases=3,Linecode=CAB108_3_3,Length=0.031403000,Units=km
new line.TR1177422 bus1=BMT783352B.1.2.3,bus2=BMT124489801.1.2.3,Phases=3,Linecode=CAB108_3_3,Length=0.030416000,Units=km
new line.TR1177436 bus1=BMT124489794.1.2.3,bus2=BMT789260B.1.2.3,Phases=3,Linecode=CAB102_3_3,Length=0.039601000,Units=km
new line.TR1177450 bus1=BMT783380B.1.2.3,bus2=BMT783352B.1.2.3,Phases=3,Linecode=CAB108_3_3,Length=0.029002000,Units=km
new line.TR1177457 bus1=BMT124489787.1.2.3,bus2=BMT124489794.1.2.3,Phases=3,Linecode=CAB104_3_3,Length=0.030416000,Units=km
new line.TR1177464 bus1=BMT124489787.1.2.3,bus2=BMT783380B.1.2.3,Phases=3,Linecode=CAB108_3_3,Length=0.005658000,Units=km
new line.TR1177471 bus1=BMT124489787.1.2.3,bus2=BMT783394B.1.2.3,Phases=3,Linecode=CAB104_3_3,Length=0.005001000,Units=km
new line.TR1177492 bus1=BMT783408B.1.2.3,bus2=BMT124489787.1.2.3,Phases=3,Linecode=CAB108_3_3,Length=0.025458000,Units=km
new line.TR1177653 bus1=BMT124489822.1.2.3,bus2=BMT783296B.1.2.3,Phases=3,Linecode=CAB108_3_3,Length=0.017693000,Units=km
new line.TR1177660 bus1=BMT124489822.1.2.3,bus2=BMT124489836.1.2.3,Phases=3,Linecode=CAB108_3_3,Length=0.023772000,Units=km
new line.TR1177667 bus1=BMT124489822.1.2.3,bus2=BMT783317B.1.2.3,Phases=3,Linecode=CAB108_3_3,Length=0.003606000,Units=km
new line.TR1177688 bus1=BMT783471B.1.2.3,bus2=BMT891845B.1.2.3,Phases=3,Linecode=CAB108_3_3,Length=0.030465000,Units=km
new line.TR1177716 bus1=BMT167708022.1.2.3,bus2=BMT783471B.1.2.3,Phases=3,Linecode=CAB108_3_3,Length=0.029734000,Units=km
new line.TR1177723 bus1=BMT167708022.1.2.3,bus2=BMT167708024.1.2.3,Phases=3,Linecode=CAB103_3_3,Length=0.041764000,Units=km
new line.TR1177744 bus1=BMT783485B.1.2.3,bus2=BMT167708022.1.2.3,Phases=3,Linecode=CAB108_3_3,Length=0.010441000,Units=km
new line.TR1177758 bus1=BMT783492B.1.2.3,bus2=BMT783485B.1.2.3,Phases=3,Linecode=CAB108_3_3,Length=0.026002000,Units=km
new line.TR1177772 bus1=BMT167708019.1.2.3,bus2=BMT167708020.1.2.3,Phases=3,Linecode=CAB108_3_3,Length=0.032698000,Units=km
new line.TR1177800 bus1=BMT783513B.1.2.3,bus2=BMT167708019.1.2.3,Phases=3,Linecode=CAB108_3_3,Length=0.037164000,Units=km
new line.TR1177821 bus1=BMT783527B.1.2.3,bus2=BMT783513B.1.2.3,Phases=3,Linecode=CAB108_3_3,Length=0.035849000,Units=km
new line.TR12256787 bus1=BMT878013B.1.2.3,bus2=BMT158152113.1.2.3,Phases=3,Linecode=CAB103_3_3,Length=0.061331000,Units=km
new line.TR12769791 bus1=BMT881009B.1.2.3,bus2=BMT172041910.1.2.3,Phases=3,Linecode=CAB103_3_3,Length=0.031783000,Units=km
new line.TR1324051 bus1=BMT878076B.1.2.3,bus2=BMT878069B.1.2.3,Phases=3,Linecode=CAB103_3_3,Length=0.037539000,Units=km
new line.TR1324387 bus1=BMT878209B.1.2.3,bus2=BMT878216B.1.2.3,Phases=3,Linecode=CAB103_3_3,Length=0.028794000,Units=km
new line.TR1324408 bus1=BMT878216B.1.2.3,bus2=BMT148823990.1.2.3,Phases=3,Linecode=CAB103_3_3,Length=0.036772000,Units=km
new line.TR1324464 bus1=BMT878251B.1.2.3,bus2=BMT878258B.1.2.3,Phases=3,Linecode=CAB104_3_3,Length=0.039398000,Units=km
new line.TR1324471 bus1=BMT878251B.1.2.3,bus2=BMT881457B.1.2.3,Phases=3,Linecode=CAB104_3_3,Length=0.034017000,Units=km
new line.TR1324499 bus1=BMT148823987.1.2.3,bus2=BMT878258B.1.2.3,Phases=3,Linecode=CAB104_3_3,Length=0.028233000,Units=km
new line.TR1324513 bus1=BMT148823986.1.2.3,bus2=BMT148823987.1.2.3,Phases=3,Linecode=CAB104_3_3,Length=0.035849000,Units=km
new line.TR1324982 bus1=BMT878496B.1.2.3,bus2=BMT158393531.1.2.3,Phases=3,Linecode=CAB102_3_3,Length=0.035513000,Units=km
new line.TR1325031 bus1=BMT878531B.1.2.3,bus2=BMT878545B.1.2.3,Phases=3,Linecode=CAB102_3_3,Length=0.010297000,Units=km
new line.TR1325052 bus1=BMT878545B.1.2.3,bus2=BMT878559B.1.2.3,Phases=3,Linecode=CAB102_3_3,Length=0.019725000,Units=km
new line.TR1325073 bus1=BMT878559B.1.2.3,bus2=BMT878573B.1.2.3,Phases=3,Linecode=CAB102_3_3,Length=0.030019000,Units=km
new line.TR1325094 bus1=BMT878573B.1.2.3,bus2=BMT881618B.1.2.3,Phases=3,Linecode=CAB102_3_3,Length=0.031387000,Units=km
new line.TR1325479 bus1=BMT878797B.1.2.3,bus2=BMT124491880.1.2.3,Phases=3,Linecode=CABA06_3_3,Length=0.031893000,Units=km
new line.TR1325507 bus1=BMT878804B.1.2.3,bus2=BMT878797B.1.2.3,Phases=3,Linecode=CABA06_3_3,Length=0.046758000,Units=km
new line.TR1325535 bus1=BMT878818B.1.2.3,bus2=BMT878804B.1.2.3,Phases=3,Linecode=CABA06_3_3,Length=0.029734000,Units=km
new line.TR1325619 bus1=BMT124490851.1.2.3,bus2=BMT124490858.1.2.3,Phases=3,Linecode=CAB102_3_3,Length=0.031908000,Units=km
new line.TR1325626 bus1=BMT124490851.1.2.3,bus2=BMT878888B.1.2.3,Phases=3,Linecode=CAB103_3_3,Length=0.029684000,Units=km
new line.TR1325647 bus1=BMT124490844.1.2.3,bus2=BMT124490851.1.2.3,Phases=3,Linecode=CAB103_3_3,Length=0.030531000,Units=km
new line.TR1326242 bus1=BMT879259B.1.2.3,bus2=BMT171789047.1.2.3,Phases=3,Linecode=CAB102_3_3,Length=0.029157000,Units=km
new line.TR1326256 bus1=BMT171789047.1.2.3,bus2=BMT879287B.1.2.3,Phases=3,Linecode=CAB102_3_3,Length=0.038590000,Units=km
new line.TR1326291 bus1=BMT879294B.1.2.3,bus2=BMT879280B.1.2.3,Phases=3,Linecode=CAB102_3_3,Length=0.015813000,Units=km
new line.TR1326298 bus1=BMT879294B.1.2.3,bus2=BMT3705971B.1.2.3,Phases=3,Linecode=CAB102_3_3,Length=0.021379000,Units=km
new line.TR1326319 bus1=BMT879308B.1.2.3,bus2=BMT879294B.1.2.3,Phases=3,Linecode=CAB102_3_3,Length=0.031307000,Units=km
new line.TR1326417 bus1=BMT879427B.1.2.3,bus2=BMT124490396.1.2.3,Phases=3,Linecode=CAB102_3_3,Length=0.033528000,Units=km
new line.TR1326424 bus1=BMT879441B.1.2.3,bus2=BMT879427B.1.2.3,Phases=3,Linecode=CAB102_3_3,Length=0.005386000,Units=km
new line.TR1326438 bus1=BMT124490389.1.2.3,bus2=BMT879441B.1.2.3,Phases=3,Linecode=CAB102_3_3,Length=0.033244000,Units=km
new line.TR1326445 bus1=BMT124490403.1.2.3,bus2=BMT124490410.1.2.3,Phases=3,Linecode=CAB102_3_3,Length=0.020002000,Units=km
new line.TR1175847 bus1=BMT167708020.1.2.3,bus2=BMT782491B.1.2.3,Phases=3,Linecode=CAB104_3_3,Length=0.007617000,Units=km
new line.TR1175854 bus1=BMT167708020.1.2.3,bus2=BMT783492B.1.2.3,Phases=3,Linecode=CAB108_3_3,Length=0.028233000,Units=km
new line.TR1175861 bus1=BMT782491B.1.2.3,bus2=BMT782505B.1.2.3,Phases=3,Linecode=CAB104_3_3,Length=0.026928000,Units=km
new line.TR1175875 bus1=BMT782505B.1.2.3,bus2=BMT782519B.1.2.3,Phases=3,Linecode=CAB104_3_3,Length=0.029123000,Units=km
new line.TR1175889 bus1=BMT782519B.1.2.3,bus2=BMT782533B.1.2.3,Phases=3,Linecode=CAB104_3_3,Length=0.030085000,Units=km
new line.TR1175917 bus1=BMT782533B.1.2.3,bus2=BMT782561B.1.2.3,Phases=3,Linecode=CAB104_3_3,Length=0.006404000,Units=km
new line.TR1175938 bus1=BMT167708021.1.2.3,bus2=BMT167708026.1.2.3,Phases=3,Linecode=CAB104_3_3,Length=0.018029000,Units=km
new line.TR1175952 bus1=BMT167708027.1.2.3,bus2=BMT782834B.1.2.3,Phases=3,Linecode=CAB102_3_3,Length=0.026002000,Units=km
new line.TR1175966 bus1=BMT167708026.1.2.3,bus2=BMT782526B.1.2.3,Phases=3,Linecode=CAB104_3_3,Length=0.005386000,Units=km
new line.TR1175973 bus1=BMT167708026.1.2.3,bus2=BMT167708027.1.2.3,Phases=3,Linecode=CAB104_3_3,Length=0.009001000,Units=km
new line.TR1175980 bus1=BMT167708026.1.2.3,bus2=BMT167708028.1.2.3,Phases=3,Linecode=CAB104_3_3,Length=0.020882000,Units=km
new line.TR1176001 bus1=BMT782561B.1.2.3,bus2=BMT167708021.1.2.3,Phases=3,Linecode=CAB104_3_3,Length=0.024023000,Units=km
new line.TR1176344 bus1=BMT128335188.1.2.3,bus2=BMT782708B.1.2.3,Phases=3,Linecode=CAB108_3_3,Length=0.029734000,Units=km
new line.TR1176505 bus1=BMT782799B.1.2.3,bus2=BMT167708029.1.2.3,Phases=3,Linecode=CAB102_3_3,Length=0.029002000,Units=km
new line.TR1329861 bus1=BMT148823989.1.2.3,bus2=BMT2330541.1.2.3,Phases=3,Linecode=CAB104_3_3,Length=0.023411000,Units=km
new line.TR1329868 bus1=BMT148823989.1.2.3,bus2=BMT881415B.1.2.3,Phases=3,Linecode=CAB103_3_3,Length=0.006709000,Units=km
new line.TR1329889 bus1=BMT881415B.1.2.3,bus2=BMT878209B.1.2.3,Phases=3,Linecode=CAB103_3_3,Length=0.027859000,Units=km
new line.TR1329903 bus1=BMT881422B.1.2.3,bus2=BMT148823989.1.2.3,Phases=3,Linecode=CAB104_3_3,Length=0.035849000,Units=km
new line.TR1329924 bus1=BMT148823988.1.2.3,bus2=BMT881422B.1.2.3,Phases=3,Linecode=CAB104_3_3,Length=0.027733000,Units=km
new line.TR1329931 bus1=BMT148823988.1.2.3,bus2=BMT881443B.1.2.3,Phases=3,Linecode=CAB104_3_3,Length=0.032205000,Units=km
new line.TR1329973 bus1=BMT881457B.1.2.3,bus2=BMT881443B.1.2.3,Phases=3,Linecode=CAB104_3_3,Length=0.037002000,Units=km
new line.TR1330260 bus1=BMT881618B.1.2.3,bus2=BMT124491012.1.2.3,Phases=3,Linecode=CAB102_3_3,Length=0.025556000,Units=km
new line.TR1330477 bus1=BMT124490984.1.2.3,bus2=BMT877439B.1.2.3,Phases=3,Linecode=CAB102_3_3,Length=0.025062000,Units=km
new line.TR1330484 bus1=BMT124490984.1.2.3,bus2=BMT881219B.1.2.3,Phases=3,Linecode=CAB102_3_3,Length=0.008603000,Units=km
new line.TR1330491 bus1=BMT124490984.1.2.3,bus2=BMT881744B.1.2.3,Phases=3,Linecode=CAB102_3_3,Length=0.003606000,Units=km
new line.TR1330498 bus1=BMT881758B.1.2.3,bus2=BMT124490984.1.2.3,Phases=3,Linecode=CAB102_3_3,Length=0.034988000,Units=km
new line.TR1330505 bus1=BMT881765B.1.2.3,bus2=BMT881758B.1.2.3,Phases=3,Linecode=CAB102_3_3,Length=0.044421000,Units=km
new line.TR1330512 bus1=BMT124490928.1.2.3,bus2=BMT881765B.1.2.3,Phases=3,Linecode=CAB102_3_3,Length=0.041680000,Units=km
new line.TR1330533 bus1=BMT881779B.1.2.3,bus2=BMT124490921.1.2.3,Phases=3,Linecode=CAB102_3_3,Length=0.016126000,Units=km
new line.TR1330540 bus1=BMT881786B.1.2.3,bus2=BMT124490928.1.2.3,Phases=3,Linecode=CAB102_3_3,Length=0.030234000,Units=km
new line.TR1330554 bus1=BMT124490921.1.2.3,bus2=BMT881786B.1.2.3,Phases=3,Linecode=CAB102_3_3,Length=0.026928000,Units=km
new line.TR1330561 bus1=BMT124490921.1.2.3,bus2=BMT881800B.1.2.3,Phases=3,Linecode=CAB102_3_3,Length=0.012208000,Units=km
new line.TR1330568 bus1=BMT124490921.1.2.3,bus2=BMT881807B.1.2.3,Phases=3,Linecode=CAB102_3_3,Length=0.023023000,Units=km
new line.TR1330582 bus1=BMT881807B.1.2.3,bus2=BMT879714B.1.2.3,Phases=3,Linecode=CAB102_3_3,Length=0.029157000,Units=km
new line.TR1330834 bus1=BMT882059B.1.2.3,bus2=BMT161811571.1.2.3,Phases=3,Linecode=CAB102_3_3,Length=0.034931000,Units=km
new line.TR1330848 bus1=BMT882066B.1.2.3,bus2=BMT882059B.1.2.3,Phases=3,Linecode=CAB102_3_3,Length=0.033108000,Units=km
new line.TR1331107 bus1=BMT882171B.1.2.3,bus2=BMT882178B.1.2.3,Phases=3,Linecode=CABA06_3_3,Length=0.030808000,Units=km
new line.TR1331135 bus1=BMT882185B.1.2.3,bus2=BMT882178B.1.2.3,Phases=3,Linecode=CABA06_3_3,Length=0.035611000,Units=km
new line.TR1331142 bus1=BMT882185B.1.2.3,bus2=BMT882192B.1.2.3,Phases=3,Linecode=CABA06_3_3,Length=0.020002000,Units=km
new line.TR1331156 bus1=BMT882192B.1.2.3,bus2=BMT161812491.1.2.3,Phases=3,Linecode=CABA06_3_3,Length=0.040314000,Units=km
new line.TR1331170 bus1=BMT161812491.1.2.3,bus2=BMT882206B.1.2.3,Phases=3,Linecode=CABA06_3_3,Length=0.016280000,Units=km
new line.TR1331177 bus1=BMT882206B.1.2.3,bus2=BMT882213B.1.2.3,Phases=3,Linecode=CABA06_3_3,Length=0.027661000,Units=km
new line.TR1331191 bus1=BMT882213B.1.2.3,bus2=BMT882220B.1.2.3,Phases=3,Linecode=CABA06_3_3,Length=0.041112000,Units=km
new line.TR1331198 bus1=BMT882220B.1.2.3,bus2=BMT882227B.1.2.3,Phases=3,Linecode=CABA06_3_3,Length=0.034658000,Units=km
new line.TR1331219 bus1=BMT882227B.1.2.3,bus2=BMT161812492.1.2.3,Phases=3,Linecode=CABA06_3_3,Length=0.027661000,Units=km
new line.TR1331576 bus1=BMT124491873.1.2.3,bus2=BMT878818B.1.2.3,Phases=3,Linecode=CABA06_3_3,Length=0.020520000,Units=km
new line.TR1331583 bus1=BMT124491873.1.2.3,bus2=BMT882493B.1.2.3,Phases=3,Linecode=CABA06_3_3,Length=0.010001000,Units=km
new line.TR1331590 bus1=BMT124491873.1.2.3,bus2=BMT882507B.1.2.3,Phases=3,Linecode=CABA06_3_3,Length=0.015622000,Units=km
new line.TR1331597 bus1=BMT124491873.1.2.3,bus2=BMT124491887.1.2.3,Phases=3,Linecode=CABA06_3_3,Length=0.025497000,Units=km
new line.TR1331632 bus1=BMT882521B.1.2.3,bus2=BMT882507B.1.2.3,Phases=3,Linecode=CABA06_3_3,Length=0.027588000,Units=km
new line.TR1331639 bus1=BMT882521B.1.2.3,bus2=BMT887183B.1.2.3,Phases=3,Linecode=CABA06_3_3,Length=0.019851000,Units=km
new line.TR1331653 bus1=BMT124490956.1.2.3,bus2=BMT124490977.1.2.3,Phases=3,Linecode=CABA06_3_3,Length=0.032560000,Units=km
new line.TR1331660 bus1=BMT124490956.1.2.3,bus2=BMT882542B.1.2.3,Phases=3,Linecode=CABA06_3_3,Length=0.031147000,Units=km
new line.TR1331674 bus1=BMT882535B.1.2.3,bus2=BMT124490949.1.2.3,Phases=3,Linecode=CABA06_3_3,Length=0.037205000,Units=km
new line.TR1331702 bus1=BMT124490949.1.2.3,bus2=BMT882542B.1.2.3,Phases=3,Linecode=CABA06_3_3,Length=0.031830000,Units=km
new line.TR1331709 bus1=BMT124490949.1.2.3,bus2=BMT882556B.1.2.3,Phases=3,Linecode=CABA06_3_3,Length=0.036799000,Units=km
new line.TR11581767 bus1=BMT124491747.1.2.3,bus2=BMT890242B.1.2.3,Phases=3,Linecode=CABA06_3_3,Length=0.030678000,Units=km
new line.TR11583902 bus1=BMT166742719.1.2.3,bus2=BMT124491754.1.2.3,Phases=3,Linecode=CABA06_3_3,Length=0.015813000,Units=km
new line.TR11583909 bus1=BMT124491761.1.2.3,bus2=BMT890200B.1.2.3,Phases=3,Linecode=CABA06_3_3,Length=0.019926000,Units=km
new line.TR11584007 bus1=BMT124491768.1.2.3,bus2=BMT124491775.1.2.3,Phases=3,Linecode=CABA06_3_3,Length=0.014319000,Units=km
new line.TR11584098 bus1=BMT124491775.1.2.3,bus2=BMT124491789.1.2.3,Phases=3,Linecode=CABA06_3_3,Length=0.025300000,Units=km
new line.TR11584140 bus1=BMT890165B.1.2.3,bus2=BMT888674B.1.2.3,Phases=3,Linecode=CABA06_3_3,Length=0.028603000,Units=km
new line.TR1179830 bus1=BMT784787B.1.2.3,bus2=BMT784794B.1.2.3,Phases=3,Linecode=CAB102_3_3,Length=0.030416000,Units=km
new line.TR1179837 bus1=BMT784794B.1.2.3,bus2=BMT784801B.1.2.3,Phases=3,Linecode=CAB102_3_3,Length=0.033543000,Units=km
new line.TR1179851 bus1=BMT784801B.1.2.3,bus2=BMT784815B.1.2.3,Phases=3,Linecode=CAB102_3_3,Length=0.034528000,Units=km
new line.TR1179872 bus1=BMT784815B.1.2.3,bus2=BMT124492377.1.2.3,Phases=3,Linecode=CAB102_3_3,Length=0.029430000,Units=km
new line.TR1179949 bus1=BMT784892B.1.2.3,bus2=BMT124492412.1.2.3,Phases=3,Linecode=CAB102_3_3,Length=0.035696000,Units=km
new line.TR1179956 bus1=BMT124492412.1.2.3,bus2=BMT784906B.1.2.3,Phases=3,Linecode=CAB102_3_3,Length=0.032759000,Units=km
new line.TR1179963 bus1=BMT784906B.1.2.3,bus2=BMT784913B.1.2.3,Phases=3,Linecode=CAB102_3_3,Length=0.008247000,Units=km
new line.TR1179984 bus1=BMT784913B.1.2.3,bus2=BMT784920B.1.2.3,Phases=3,Linecode=CAB102_3_3,Length=0.027787000,Units=km
new line.TR1179991 bus1=BMT784913B.1.2.3,bus2=BMT124492419.1.2.3,Phases=3,Linecode=CAB102_3_3,Length=0.008063000,Units=km
new line.TR1179998 bus1=BMT784913B.1.2.3,bus2=BMT786824B.1.2.3,Phases=3,Linecode=CAB102_3_3,Length=0.027661000,Units=km
new line.TR1180600 bus1=BMT785354B.1.2.3,bus2=BMT785361B.1.2.3,Phases=3,Linecode=CABA06_3_3,Length=0.029413000,Units=km
new line.TR1180621 bus1=BMT785361B.1.2.3,bus2=BMT785368B.1.2.3,Phases=3,Linecode=CABA06_3_3,Length=0.030085000,Units=km
new line.TR1180656 bus1=BMT785368B.1.2.3,bus2=BMT785375B.1.2.3,Phases=3,Linecode=CABA06_3_3,Length=0.034787000,Units=km
new line.TR1180677 bus1=BMT785375B.1.2.3,bus2=BMT785382B.1.2.3,Phases=3,Linecode=CABA06_3_3,Length=0.031625000,Units=km
new line.TR1180691 bus1=BMT785382B.1.2.3,bus2=BMT152720720.1.2.3,Phases=3,Linecode=CABA06_3_3,Length=0.035443000,Units=km
new line.TR1180705 bus1=BMT152720720.1.2.3,bus2=BMT124491684.1.2.3,Phases=3,Linecode=CABA06_3_3,Length=0.030367000,Units=km
new line.TR1180719 bus1=BMT166742712.1.2.3,bus2=BMT785431B.1.2.3,Phases=3,Linecode=CAB104_3_3,Length=0.022138000,Units=km
new line.TR1180740 bus1=BMT785410B.1.2.3,bus2=BMT166742715.1.2.3,Phases=3,Linecode=CABA06_3_3,Length=0.030678000,Units=km
new line.TR1180747 bus1=BMT785417B.1.2.3,bus2=BMT788203B.1.2.3,Phases=3,Linecode=CABA06_3_3,Length=0.041764000,Units=km
new line.TR1180761 bus1=BMT166742714.1.2.3,bus2=BMT166742713.1.2.3,Phases=3,Linecode=CABA06_3_3,Length=0.020617000,Units=km
new line.TR1180768 bus1=BMT166742714.1.2.3,bus2=BMT786796B.1.2.3,Phases=3,Linecode=CABA06_3_3,Length=0.011181000,Units=km
new line.TR1180775 bus1=BMT166742714.1.2.3,bus2=BMT786803B.1.2.3,Phases=3,Linecode=CABA08_3_3,Length=0.013343000,Units=km
new line.TR1180789 bus1=BMT785431B.1.2.3,bus2=BMT891229B.1.2.3,Phases=3,Linecode=CAB104_3_3,Length=0.032575000,Units=km
new line.TR1180803 bus1=BMT166742713.1.2.3,bus2=BMT166742712.1.2.3,Phases=3,Linecode=CABA06_3_3,Length=0.010199000,Units=km
new line.TR1180810 bus1=BMT166742713.1.2.3,bus2=BMT785410B.1.2.3,Phases=3,Linecode=CABA06_3_3,Length=0.009850000,Units=km
new line.TR1180817 bus1=BMT166742713.1.2.3,bus2=BMT785417B.1.2.3,Phases=3,Linecode=CABA06_3_3,Length=0.019648000,Units=km
new line.TR1180824 bus1=BMT148693131.1.2.3,bus2=BMT786768B.1.2.3,Phases=3,Linecode=CABA08_3_3,Length=0.032575000,Units=km
new line.TR1181167 bus1=BMT157619602.1.2.3,bus2=BMT785690B.1.2.3,Phases=3,Linecode=CAB102_3_3,Length=0.008545000,Units=km
new line.TR1181174 bus1=BMT157619602.1.2.3,bus2=BMT894589B.1.2.3,Phases=3,Linecode=CAB108_3_3,Length=0.033528000,Units=km
new line.TR1181188 bus1=BMT785690B.1.2.3,bus2=BMT785697B.1.2.3,Phases=3,Linecode=CAB102_3_3,Length=0.032018000,Units=km
new line.TR1181195 bus1=BMT785697B.1.2.3,bus2=BMT785704B.1.2.3,Phases=3,Linecode=CAB102_3_3,Length=0.033244000,Units=km
new line.TR1181216 bus1=BMT785704B.1.2.3,bus2=BMT785718B.1.2.3,Phases=3,Linecode=CAB102_3_3,Length=0.039296000,Units=km
new line.TR1181237 bus1=BMT785718B.1.2.3,bus2=BMT157619603.1.2.3,Phases=3,Linecode=CAB102_3_3,Length=0.036403000,Units=km
new line.TR12460183 bus1=BMT880295B.1.2.3,bus2=BMT160694277.1.2.3,Phases=3,Linecode=CAB102_3_3,Length=0.016157000,Units=km
new line.TR12460184 bus1=BMT160694277.1.2.3,bus2=BMT873568B.1.2.3,Phases=3,Linecode=CAB102_3_3,Length=0.013603000,Units=km
new line.TR12460247 bus1=BMT160696176.1.2.3,bus2=BMT9068952B.1.2.3,Phases=3,Linecode=CAB401_3_3,Length=0.004124000,Units=km
new line.TR12460268 bus1=BMT9068952B.1.2.3,bus2=BMT160696177.1.2.3,Phases=3,Linecode=CAB401_3_3,Length=0.005832000,Units=km
new line.TR1341782 bus1=BMT171580490.1.2.3,bus2=BMT888051B.1.2.3,Phases=3,Linecode=CAB104_3_3,Length=0.038278000,Units=km
new line.TR1341789 bus1=BMT171580492.1.2.3,bus2=BMT888044B.1.2.3,Phases=3,Linecode=CAB104_3_3,Length=0.027205000,Units=km
new line.TR1341824 bus1=BMT888051B.1.2.3,bus2=BMT171580491.1.2.3,Phases=3,Linecode=CAB104_3_3,Length=0.031018000,Units=km
new line.TR1341852 bus1=BMT171580491.1.2.3,bus2=BMT888044B.1.2.3,Phases=3,Linecode=CAB104_3_3,Length=0.022805000,Units=km
new line.TR1341859 bus1=BMT171580491.1.2.3,bus2=BMT888065B.1.2.3,Phases=3,Linecode=CAB104_3_3,Length=0.007281000,Units=km
new line.TR1341866 bus1=BMT171580491.1.2.3,bus2=BMT171580493.1.2.3,Phases=3,Linecode=CAB104_3_3,Length=0.005386000,Units=km
new line.TR1341908 bus1=BMT888121B.1.2.3,bus2=BMT888128B.1.2.3,Phases=3,Linecode=CAB103_3_3,Length=0.030531000,Units=km
new line.TR1341922 bus1=BMT888128B.1.2.3,bus2=BMT888135B.1.2.3,Phases=3,Linecode=CAB103_3_3,Length=0.031387000,Units=km
new line.TR1341950 bus1=BMT888135B.1.2.3,bus2=BMT888142B.1.2.3,Phases=3,Linecode=CAB103_3_3,Length=0.021933000,Units=km
new line.TR1341964 bus1=BMT888142B.1.2.3,bus2=BMT888149B.1.2.3,Phases=3,Linecode=CAB103_3_3,Length=0.006709000,Units=km
new line.TR1341978 bus1=BMT888149B.1.2.3,bus2=BMT124490802.1.2.3,Phases=3,Linecode=CAB103_3_3,Length=0.030531000,Units=km
new line.TR1342706 bus1=BMT148693127.1.2.3,bus2=BMT2065591B.1.2.3,Phases=3,Linecode=CABA08_3_3,Length=0.009488000,Units=km
new line.TR1342720 bus1=BMT888611B.1.2.3,bus2=BMT148693128.1.2.3,Phases=3,Linecode=CABA08_3_3,Length=0.015233000,Units=km
new line.TR10335865 bus1=BMT6576964B.1.2.3,bus2=BMT880302B.1.2.3,Phases=3,Linecode=CAB103_3_3,Length=0.010297000,Units=km
new line.TR10335872 bus1=BMT6576964B.1.2.3,bus2=BMT881093B.1.2.3,Phases=3,Linecode=CAB103_3_3,Length=0.005001000,Units=km
new line.TR10335879 bus1=BMT6576964B.1.2.3,bus2=BMT6576957B.1.2.3,Phases=3,Linecode=CAB103_3_3,Length=0.009221000,Units=km
new line.TR11363892 bus1=BMT124491334.1.2.3,bus2=BMT124491341.1.2.3,Phases=3,Linecode=CABA06_3_3,Length=0.035173000,Units=km
new line.TR11374777 bus1=BMT161811571.1.2.3,bus2=BMT882045B.1.2.3,Phases=3,Linecode=CABA06_3_3,Length=0.036252000,Units=km
new line.TR11374784 bus1=BMT882045B.1.2.3,bus2=BMT882038B.1.2.3,Phases=3,Linecode=CABA06_3_3,Length=0.030085000,Units=km
new line.TR11374798 bus1=BMT882038B.1.2.3,bus2=BMT882031B.1.2.3,Phases=3,Linecode=CABA06_3_3,Length=0.031387000,Units=km
new line.TR11374805 bus1=BMT882031B.1.2.3,bus2=BMT161811572.1.2.3,Phases=3,Linecode=CABA06_3_3,Length=0.029549000,Units=km
new line.TR1182959 bus1=BMT786747B.1.2.3,bus2=BMT786754B.1.2.3,Phases=3,Linecode=CABA08_3_3,Length=0.028463000,Units=km
new line.TR1182987 bus1=BMT786754B.1.2.3,bus2=BMT786761B.1.2.3,Phases=3,Linecode=CABA08_3_3,Length=0.034542000,Units=km
new line.TR1183001 bus1=BMT786761B.1.2.3,bus2=BMT148693131.1.2.3,Phases=3,Linecode=CABA08_3_3,Length=0.031323000,Units=km
new line.TR1183015 bus1=BMT786768B.1.2.3,bus2=BMT148693132.1.2.3,Phases=3,Linecode=CABA08_3_3,Length=0.032282000,Units=km
new line.TR1183029 bus1=BMT148693132.1.2.3,bus2=BMT124491642.1.2.3,Phases=3,Linecode=CABA08_3_3,Length=0.031323000,Units=km
new line.TR1183050 bus1=BMT166742717.1.2.3,bus2=BMT786789B.1.2.3,Phases=3,Linecode=CABA08_3_3,Length=0.032575000,Units=km
new line.TR1183078 bus1=BMT786789B.1.2.3,bus2=BMT166742714.1.2.3,Phases=3,Linecode=CABA08_3_3,Length=0.017466000,Units=km
new line.TR1183120 bus1=BMT786803B.1.2.3,bus2=BMT2043240.1.2.3,Phases=3,Linecode=CABA08_3_3,Length=0.033528000,Units=km
new line.TR1183477 bus1=BMT787006B.1.2.3,bus2=BMT787027B.1.2.3,Phases=3,Linecode=CAB102_3_3,Length=0.032282000,Units=km
new line.TR1183512 bus1=BMT787027B.1.2.3,bus2=BMT787048B.1.2.3,Phases=3,Linecode=CAB102_3_3,Length=0.032018000,Units=km
new line.TR1183568 bus1=BMT787048B.1.2.3,bus2=BMT787055B.1.2.3,Phases=3,Linecode=CAB102_3_3,Length=0.030085000,Units=km
new line.TR12125594 bus1=BMT2065640B.1.2.3,bus2=BMT893070B.1.2.3,Phases=3,Linecode=CABA06_3_3,Length=0.015298000,Units=km
new line.TR12397157 bus1=BMT158393529.1.2.3,bus2=BMT9003465B.1.2.3,Phases=3,Linecode=CAB103_3_3,Length=0.021025000,Units=km
new line.TR12397158 bus1=BMT9003465B.1.2.3,bus2=BMT869263B.1.2.3,Phases=3,Linecode=CAB103_3_3,Length=0.023261000,Units=km
new line.TR12397159 bus1=BMT158152113.1.2.3,bus2=BMT880890B.1.2.3,Phases=3,Linecode=CAB102_3_3,Length=0.018790000,Units=km