new load.3000251509M1 bus1=RML1051725853.1.2.0,Phases=2,kv=0.22,kW=2.37212,pf=0.92,Vminpu=0.92,Vmaxpu=1.5,model=8,zipv=[0.5,0,0.5,1,0,0,0],daily=RES4_6,status=variable
new load.3000251510M1 bus1=RML1051725825.1.2.3.0,Phases=3,kv=0.22,kW=1.17822,pf=0.92,Vminpu=0.92,Vmaxpu=1.5,model=8,zipv=[0.5,0,0.5,1,0,0,0],daily=RES5_6,status=variable
new load.3000251511M1 bus1=RML1051725832.1.2.0,Phases=2,kv=0.22,kW=1.2045,pf=0.92,Vminpu=0.92,Vmaxpu=1.5,model=8,zipv=[0.5,0,0.5,1,0,0,0],daily=RES3_4,status=variable
new load.3000251512M1 bus1=RML1051725860.1.3.0,Phases=2,kv=0.22,kW=1.23026,pf=0.92,Vminpu=0.92,Vmaxpu=1.5,model=8,zipv=[0.5,0,0.5,1,0,0,0],daily=RES2_4,status=variable
new load.3000251526M1 bus1=RML1051725965.1.3.0,Phases=2,kv=0.22,kW=2.45924,pf=0.92,Vminpu=0.92,Vmaxpu=1.5,model=8,zipv=[0.5,0,0.5,1,0,0,0],daily=RES4_6,status=variable
new load.3000251527M1 bus1=RML1059125677.1.2.3.0,Phases=3,kv=0.22,kW=1.66054,pf=0.92,Vminpu=0.92,Vmaxpu=1.5,model=8,zipv=[0.5,0,0.5,1,0,0,0],daily=RES5_6,status=variable
new load.3000251535M1 bus1=RML1051718832.2.3.0,Phases=2,kv=0.22,kW=1.75628,pf=0.92,Vminpu=0.92,Vmaxpu=1.5,model=8,zipv=[0.5,0,0.5,1,0,0,0],daily=RES5_6,status=variable
new load.3000251536M1 bus1=RML1051718804.1.2.3.0,Phases=3,kv=0.22,kW=1.04566,pf=0.92,Vminpu=0.92,Vmaxpu=1.5,model=8,zipv=[0.5,0,0.5,1,0,0,0],daily=RES5_6,status=variable
new load.3000251537M1 bus1=RML1051718783.1.2.0,Phases=2,kv=0.22,kW=1.0333,pf=0.92,Vminpu=0.92,Vmaxpu=1.5,model=8,zipv=[0.5,0,0.5,1,0,0,0],daily=RES3_4,status=variable
new load.3000251538M1 bus1=RML1051725979.3.0,Phases=1,kv=0.127,kW=2.32522,pf=0.92,Vminpu=0.92,Vmaxpu=1.5,model=8,zipv=[0.5,0,0.5,1,0,0,0],daily=RES4_6,status=variable
new load.3000251539M1 bus1=RML1051725944.1.2.3.0,Phases=3,kv=0.22,kW=0.07732,pf=0.92,Vminpu=0.92,Vmaxpu=1.5,model=8,zipv=[0.5,0,0.5,1,0,0,0],daily=RES5_6,status=variable
new load.3000251540M1 bus1=RML1051725930.2.3.0,Phases=2,kv=0.22,kW=2.53294,pf=0.92,Vminpu=0.92,Vmaxpu=1.5,model=8,zipv=[0.5,0,0.5,1,0,0,0],daily=RES4_6,status=variable
new load.3000251541M1 bus1=RML1051725916.1.2.3.0,Phases=3,kv=0.22,kW=0.73048,pf=0.92,Vminpu=0.92,Vmaxpu=1.5,model=8,zipv=[0.5,0,0.5,1,0,0,0],daily=RES2_4,status=variable
new load.3000251542M1 bus1=RML1051725895.2.3.0,Phases=2,kv=0.22,kW=1.45518,pf=0.92,Vminpu=0.92,Vmaxpu=1.5,model=8,zipv=[0.5,0,0.5,1,0,0,0],daily=RES3_4,status=variable
new load.3000251546M1 bus1=RML1060218852.1.2.3.0,Phases=3,kv=0.22,kW=2.40562,pf=0.92,Vminpu=0.92,Vmaxpu=1.5,model=8,zipv=[0.5,0,0.5,1,0,0,0],daily=RES4_6,status=variable
new load.3000251547M1 bus1=RML1051725909.1.2.3.0,Phases=3,kv=0.22,kW=1.30716,pf=0.92,Vminpu=0.92,Vmaxpu=1.5,model=8,zipv=[0.5,0,0.5,1,0,0,0],daily=RES2_4,status=variable
new load.3000251548M1 bus1=RML1051725923.1.2.0,Phases=2,kv=0.22,kW=1.69162,pf=0.92,Vminpu=0.92,Vmaxpu=1.5,model=8,zipv=[0.5,0,0.5,1,0,0,0],daily=RES2_4,status=variable
new load.3000251549M1 bus1=RML1051725937.1.3.0,Phases=2,kv=0.22,kW=1.25952,pf=0.92,Vminpu=0.92,Vmaxpu=1.5,model=8,zipv=[0.5,0,0.5,1,0,0,0],daily=RES3_4,status=variable
new load.3000251550M1 bus1=RML1051725951.1.3.0,Phases=2,kv=0.22,kW=1.22066,pf=0.92,Vminpu=0.92,Vmaxpu=1.5,model=8,zipv=[0.5,0,0.5,1,0,0,0],daily=RES2_4,status=variable
new load.3000251551M1 bus1=RML1051725986.1.2.0,Phases=2,kv=0.22,kW=0.9477,pf=0.92,Vminpu=0.92,Vmaxpu=1.5,model=8,zipv=[0.5,0,0.5,1,0,0,0],daily=RES3_4,status=variable
new load.3000251552M1 bus1=RML1051718818.1.3.0,Phases=2,kv=0.22,kW=0.71536,pf=0.92,Vminpu=0.92,Vmaxpu=1.5,model=8,zipv=[0.5,0,0.5,1,0,0,0],daily=RES3_4,status=variable
new load.3000251553M1 bus1=RML1051718797.1.3.0,Phases=2,kv=0.22,kW=1.447,pf=0.92,Vminpu=0.92,Vmaxpu=1.5,model=8,zipv=[0.5,0,0.5,1,0,0,0],daily=RES5_6,status=variable
new load.3000251555M1 bus1=RML1051716340.2.0,Phases=1,kv=0.127,kW=1.27788,pf=0.92,Vminpu=0.92,Vmaxpu=1.5,model=8,zipv=[0.5,0,0.5,1,0,0,0],daily=RES3_4,status=variable
new load.3000251557M1 bus1=RML1051716368.1.0,Phases=1,kv=0.127,kW=0.49096,pf=0.92,Vminpu=0.92,Vmaxpu=1.5,model=8,zipv=[0.5,0,0.5,1,0,0,0],daily=RES1_2,status=variable
new load.3000251558M1 bus1=RML1051716375.1.2.0,Phases=2,kv=0.22,kW=2.74738,pf=0.92,Vminpu=0.92,Vmaxpu=1.5,model=8,zipv=[0.5,0,0.5,1,0,0,0],daily=RES4_6,status=variable
new load.3000251559M1 bus1=RML1051716410.1.2.3.0,Phases=3,kv=0.22,kW=1.8336,pf=0.92,Vminpu=0.92,Vmaxpu=1.5,model=8,zipv=[0.5,0,0.5,1,0,0,0],daily=RES5_6,status=variable
new load.3000251562M1 bus1=RML1051741645.1.0,Phases=1,kv=0.127,kW=0.84376,pf=0.92,Vminpu=0.92,Vmaxpu=1.5,model=8,zipv=[0.5,0,0.5,1,0,0,0],daily=RES3_4,status=variable
new load.3000251563M1 bus1=RML1051741638.1.2.3.0,Phases=3,kv=0.22,kW=0.47096,pf=0.92,Vminpu=0.92,Vmaxpu=1.5,model=8,zipv=[0.5,0,0.5,1,0,0,0],daily=RES2_4,status=variable
new load.3000251566M1 bus1=RML1051741624.1.2.3.0,Phases=3,kv=0.22,kW=1.6438,pf=0.92,Vminpu=0.92,Vmaxpu=1.5,model=8,zipv=[0.5,0,0.5,1,0,0,0],daily=COM2_5,status=variable
new load.3000251569M1 bus1=RML1051741617.1.0,Phases=1,kv=0.127,kW=0.07016,pf=0.92,Vminpu=0.92,Vmaxpu=1.5,model=8,zipv=[0.5,0,0.5,1,0,0,0],daily=COM1_7,status=variable
new load.3000251572M1 bus1=RML1051741603.1.2.3.0,Phases=3,kv=0.22,kW=0.97076,pf=0.92,Vminpu=0.92,Vmaxpu=1.5,model=8,zipv=[0.5,0,0.5,1,0,0,0],daily=RES2_4,status=variable
new load.3000251574M1 bus1=RML1051741519.3.0,Phases=1,kv=0.127,kW=0.6519,pf=0.92,Vminpu=0.92,Vmaxpu=1.5,model=8,zipv=[0.5,0,0.5,1,0,0,0],daily=COM1_7,status=variable
new load.3000251592M1 bus1=RML1051743199.1.0,Phases=1,kv=0.127,kW=0.3567,pf=0.92,Vminpu=0.92,Vmaxpu=1.5,model=8,zipv=[0.5,0,0.5,1,0,0,0],daily=COM3_5,status=variable
new load.3000251597M1 bus1=RML1051743248.1.2.3.0,Phases=3,kv=0.22,kW=0.95246,pf=0.92,Vminpu=0.92,Vmaxpu=1.5,model=8,zipv=[0.5,0,0.5,1,0,0,0],daily=RES1_2,status=variable
new load.3000251598M1 bus1=RML1051743262.1.3.0,Phases=2,kv=0.22,kW=0.8458,pf=0.92,Vminpu=0.92,Vmaxpu=1.5,model=8,zipv=[0.5,0,0.5,1,0,0,0],daily=RES2_4,status=variable
new load.3000251600M1 bus1=RML1051743255.1.2.3.0,Phases=3,kv=0.22,kW=1.20144,pf=0.92,Vminpu=0.92,Vmaxpu=1.5,model=8,zipv=[0.5,0,0.5,1,0,0,0],daily=RES2_4,status=variable
new load.3000251601M1 bus1=RML1051743255.1.2.3.0,Phases=3,kv=0.22,kW=1.06992,pf=0.92,Vminpu=0.92,Vmaxpu=1.5,model=8,zipv=[0.5,0,0.5,1,0,0,0],daily=COM1_7,status=variable
new load.3000251610M1 bus1=RML1051743178.1.2.3.0,Phases=3,kv=0.22,kW=0.9131,pf=0.92,Vminpu=0.92,Vmaxpu=1.5,model=8,zipv=[0.5,0,0.5,1,0,0,0],daily=RES2_4,status=variable
new load.3000251611M1 bus1=RML1051743192.1.2.3.0,Phases=3,kv=0.22,kW=2.46642,pf=0.92,Vminpu=0.92,Vmaxpu=1.5,model=8,zipv=[0.5,0,0.5,1,0,0,0],daily=COM3_5,status=variable
new load.3000251612M1 bus1=RML1051743185.1.2.3.0,Phases=3,kv=0.22,kW=0.67528,pf=0.92,Vminpu=0.92,Vmaxpu=1.5,model=8,zipv=[0.5,0,0.5,1,0,0,0],daily=COM1_7,status=variable
new load.3000251613M1 bus1=RML1051743178.1.2.3.0,Phases=3,kv=0.22,kW=1.34512,pf=0.92,Vminpu=0.92,Vmaxpu=1.5,model=8,zipv=[0.5,0,0.5,1,0,0,0],daily=RES3_4,status=variable
new load.3000251614M1 bus1=RML1051743206.1.2.3.0,Phases=3,kv=0.22,kW=1.54744,pf=0.92,Vminpu=0.92,Vmaxpu=1.5,model=8,zipv=[0.5,0,0.5,1,0,0,0],daily=RES2_4,status=variable
new load.3000251615M1 bus1=RML1051743143.1.0,Phases=1,kv=0.127,kW=0.55542,pf=0.92,Vminpu=0.92,Vmaxpu=1.5,model=8,zipv=[0.5,0,0.5,1,0,0,0],daily=COM1_7,status=variable
new load.3000251616M1 bus1=RML1051743143.1.0,Phases=1,kv=0.127,kW=0.26602,pf=0.92,Vminpu=0.92,Vmaxpu=1.5,model=8,zipv=[0.5,0,0.5,1,0,0,0],daily=COM1_7,status=variable
new load.3000251617M1 bus1=RML1051743143.1.0,Phases=1,kv=0.127,kW=0.04678,pf=0.92,Vminpu=0.92,Vmaxpu=1.5,model=8,zipv=[0.5,0,0.5,1,0,0,0],daily=COM1_7,status=variable
new load.3000251663M1 bus1=RML1051716396.3.0,Phases=1,kv=0.127,kW=1.0861,pf=0.92,Vminpu=0.92,Vmaxpu=1.5,model=8,zipv=[0.5,0,0.5,1,0,0,0],daily=RES2_4,status=variable
new load.3000251664M1 bus1=RML1051716382.1.2.3.0,Phases=3,kv=0.22,kW=0.73656,pf=0.92,Vminpu=0.92,Vmaxpu=1.5,model=8,zipv=[0.5,0,0.5,1,0,0,0],daily=COM2_5,status=variable
new load.3000251674M1 bus1=RML1051716312.2.3.0,Phases=2,kv=0.22,kW=1.20144,pf=0.92,Vminpu=0.92,Vmaxpu=1.5,model=8,zipv=[0.5,0,0.5,1,0,0,0],daily=RES2_4,status=variable
new load.3000251675M1 bus1=RML1051716389.1.2.0,Phases=2,kv=0.22,kW=0.9227,pf=0.92,Vminpu=0.92,Vmaxpu=1.5,model=8,zipv=[0.5,0,0.5,1,0,0,0],daily=RES2_4,status=variable
new load.3000251676M1 bus1=RML1051716361.2.3.0,Phases=2,kv=0.22,kW=2.0443,pf=0.92,Vminpu=0.92,Vmaxpu=1.5,model=8,zipv=[0.5,0,0.5,1,0,0,0],daily=RES6_6,status=variable
new load.3000251677M1 bus1=RML1051716326.1.2.3.0,Phases=3,kv=0.22,kW=0.82482,pf=0.92,Vminpu=0.92,Vmaxpu=1.5,model=8,zipv=[0.5,0,0.5,1,0,0,0],daily=RES1_2,status=variable
new load.3000251678M1 bus1=RML1051716326.1.2.3.0,Phases=3,kv=0.22,kW=0.7168,pf=0.92,Vminpu=0.92,Vmaxpu=1.5,model=8,zipv=[0.5,0,0.5,1,0,0,0],daily=RES1_2,status=variable
new load.3000251680M1 bus1=RML1051716347.2.0,Phases=1,kv=0.127,kW=1.05726,pf=0.92,Vminpu=0.92,Vmaxpu=1.5,model=8,zipv=[0.5,0,0.5,1,0,0,0],daily=RES2_4,status=variable
new load.3000251683M1 bus1=RML1051718839.1.2.3.0,Phases=3,kv=0.22,kW=0.00982,pf=0.92,Vminpu=0.92,Vmaxpu=1.5,model=8,zipv=[0.5,0,0.5,1,0,0,0],daily=RES1_2,status=variable
new load.3000251684M1 bus1=RML1051718839.1.2.3.0,Phases=3,kv=0.22,kW=1.39366,pf=0.92,Vminpu=0.92,Vmaxpu=1.5,model=8,zipv=[0.5,0,0.5,1,0,0,0],daily=RES2_4,status=variable
new load.3000251685M1 bus1=RML1051718839.1.2.3.0,Phases=3,kv=0.22,kW=1.40016,pf=0.92,Vminpu=0.92,Vmaxpu=1.5,model=8,zipv=[0.5,0,0.5,1,0,0,0],daily=RES3_4,status=variable
new load.3000251686M1 bus1=RML1051718839.1.2.3.0,Phases=3,kv=0.22,kW=0.26512,pf=0.92,Vminpu=0.92,Vmaxpu=1.5,model=8,zipv=[0.5,0,0.5,1,0,0,0],daily=RES1_2,status=variable
new load.3000251688M1 bus1=RML1051718825.1.0,Phases=1,kv=0.127,kW=0.76882,pf=0.92,Vminpu=0.92,Vmaxpu=1.5,model=8,zipv=[0.5,0,0.5,1,0,0,0],daily=COM1_7,status=variable
new load.3000251738M1 bus1=RML1051741589.3.0,Phases=1,kv=0.127,kW=0.98998,pf=0.92,Vminpu=0.92,Vmaxpu=1.5,model=8,zipv=[0.5,0,0.5,1,0,0,0],daily=RES2_4,status=variable
new load.3000251741M1 bus1=RML1051741554.3.0,Phases=1,kv=0.127,kW=0.05892,pf=0.92,Vminpu=0.92,Vmaxpu=1.5,model=8,zipv=[0.5,0,0.5,1,0,0,0],daily=RES1_2,status=variable
new load.3000251743M1 bus1=RML1060736705.1.2.3.0,Phases=3,kv=0.22,kW=1.5711,pf=0.92,Vminpu=0.92,Vmaxpu=1.5,model=8,zipv=[0.5,0,0.5,1,0,0,0],daily=COM2_5,status=variable
new load.3000251747M1 bus1=RML1051741526.2.3.0,Phases=2,kv=0.22,kW=1.53948,pf=0.92,Vminpu=0.92,Vmaxpu=1.5,model=8,zipv=[0.5,0,0.5,1,0,0,0],daily=COM2_5,status=variable
new load.3000251748M1 bus1=RML1051741533.1.0,Phases=1,kv=0.127,kW=1.28868,pf=0.92,Vminpu=0.92,Vmaxpu=1.5,model=8,zipv=[0.5,0,0.5,1,0,0,0],daily=RES5_6,status=variable
new load.3000251749M1 bus1=RML1051741575.1.2.3.0,Phases=3,kv=0.22,kW=4.76974,pf=0.92,Vminpu=0.92,Vmaxpu=1.5,model=8,zipv=[0.5,0,0.5,1,0,0,0],daily=COM3_5,status=variable
new load.3000251750M1 bus1=RML1051741575.1.2.3.0,Phases=3,kv=0.22,kW=2.59996,pf=0.92,Vminpu=0.92,Vmaxpu=1.5,model=8,zipv=[0.5,0,0.5,1,0,0,0],daily=RES4_6,status=variable
new load.3000251754M1 bus1=RML1051741582.2.3.0,Phases=2,kv=0.22,kW=2.11342,pf=0.92,Vminpu=0.92,Vmaxpu=1.5,model=8,zipv=[0.5,0,0.5,1,0,0,0],daily=RES5_6,status=variable
new load.3000251757M1 bus1=RML1051736934.1.2.0,Phases=2,kv=0.22,kW=1.19228,pf=0.92,Vminpu=0.92,Vmaxpu=1.5,model=8,zipv=[0.5,0,0.5,1,0,0,0],daily=RES3_4,status=variable
new load.3000251760M1 bus1=RML1051716452.1.2.3.0,Phases=3,kv=0.22,kW=0.02946,pf=0.92,Vminpu=0.92,Vmaxpu=1.5,model=8,zipv=[0.5,0,0.5,1,0,0,0],daily=RES1_2,status=variable
new load.3000251761M1 bus1=RML1051716452.1.2.3.0,Phases=3,kv=0.22,kW=1.97036,pf=0.92,Vminpu=0.92,Vmaxpu=1.5,model=8,zipv=[0.5,0,0.5,1,0,0,0],daily=RES2_4,status=variable
new load.3000251762M1 bus1=RML1051716452.1.2.3.0,Phases=3,kv=0.22,kW=0.85772,pf=0.92,Vminpu=0.92,Vmaxpu=1.5,model=8,zipv=[0.5,0,0.5,1,0,0,0],daily=RES4_6,status=variable
new load.3000251763M1 bus1=RML1051716452.1.2.3.0,Phases=3,kv=0.22,kW=1.19182,pf=0.92,Vminpu=0.92,Vmaxpu=1.5,model=8,zipv=[0.5,0,0.5,1,0,0,0],daily=RES2_4,status=variable
new load.3000251764M1 bus1=RML1051716452.1.2.3.0,Phases=3,kv=0.22,kW=0.52042,pf=0.92,Vminpu=0.92,Vmaxpu=1.5,model=8,zipv=[0.5,0,0.5,1,0,0,0],daily=RES1_2,status=variable
new load.3000251765M1 bus1=RML1051716452.1.2.3.0,Phases=3,kv=0.22,kW=0.04678,pf=0.92,Vminpu=0.92,Vmaxpu=1.5,model=8,zipv=[0.5,0,0.5,1,0,0,0],daily=COM1_7,status=variable
new load.3000251767M1 bus1=RML1051716445.1.3.0,Phases=2,kv=0.22,kW=1.62434,pf=0.92,Vminpu=0.92,Vmaxpu=1.5,model=8,zipv=[0.5,0,0.5,1,0,0,0],daily=RES2_4,status=variable
new load.3000251769M1 bus1=RML1051716438.2.3.0,Phases=2,kv=0.22,kW=2.47264,pf=0.92,Vminpu=0.92,Vmaxpu=1.5,model=8,zipv=[0.5,0,0.5,1,0,0,0],daily=RES4_6,status=variable
new load.3000251770M1 bus1=RML1051716424.1.2.0,Phases=2,kv=0.22,kW=0.64898,pf=0.92,Vminpu=0.92,Vmaxpu=1.5,model=8,zipv=[0.5,0,0.5,1,0,0,0],daily=COM1_7,status=variable
new load.3000251771M1 bus1=RML1051716431.3.0,Phases=1,kv=0.127,kW=0.56952,pf=0.92,Vminpu=0.92,Vmaxpu=1.5,model=8,zipv=[0.5,0,0.5,1,0,0,0],daily=RES1_2,status=variable
new load.3000251772M1 bus1=RML1051716431.3.0,Phases=1,kv=0.127,kW=0.11108,pf=0.92,Vminpu=0.92,Vmaxpu=1.5,model=8,zipv=[0.5,0,0.5,1,0,0,0],daily=COM1_7,status=variable
new load.3000251773M1 bus1=RML1051716417.1.2.3.0,Phases=3,kv=0.22,kW=0.9416,pf=0.92,Vminpu=0.92,Vmaxpu=1.5,model=8,zipv=[0.5,0,0.5,1,0,0,0],daily=RES3_4,status=variable
new load.3000251774M1 bus1=RML1051716459.1.2.3.0,Phases=3,kv=0.22,kW=1.56126,pf=0.92,Vminpu=0.92,Vmaxpu=1.5,model=8,zipv=[0.5,0,0.5,1,0,0,0],daily=RES1_2,status=variable
new load.3000251778M1 bus1=RML1051716466.1.2.0,Phases=2,kv=0.22,kW=1.98348,pf=0.92,Vminpu=0.92,Vmaxpu=1.5,model=8,zipv=[0.5,0,0.5,1,0,0,0],daily=RES4_6,status=variable
new load.3000251779M1 bus1=RML1051736836.1.2.3.0,Phases=3,kv=0.22,kW=3.21898,pf=0.92,Vminpu=0.92,Vmaxpu=1.5,model=8,zipv=[0.5,0,0.5,1,0,0,0],daily=COM3_5,status=variable
new load.3000251781M1 bus1=RML1051736787.3.0,Phases=1,kv=0.127,kW=1.501,pf=0.92,Vminpu=0.92,Vmaxpu=1.5,model=8,zipv=[0.5,0,0.5,1,0,0,0],daily=RES4_6,status=variable
new load.3000251782M1 bus1=RML1051736773.1.2.3.0,Phases=3,kv=0.22,kW=2.78758,pf=0.92,Vminpu=0.92,Vmaxpu=1.5,model=8,zipv=[0.5,0,0.5,1,0,0,0],daily=RES4_6,status=variable
new load.3000251783M1 bus1=RML1053022918.2.0,Phases=1,kv=0.127,kW=0.2748,pf=0.92,Vminpu=0.92,Vmaxpu=1.5,model=8,zipv=[0.5,0,0.5,1,0,0,0],daily=COM1_7,status=variable
new load.3000251784M1 bus1=RML1051720169.1.2.3.0,Phases=3,kv=0.22,kW=1.61492,pf=0.92,Vminpu=0.92,Vmaxpu=1.5,model=8,zipv=[0.5,0,0.5,1,0,0,0],daily=RES4_6,status=variable
new load.3000251785M1 bus1=RML1051720162.3.0,Phases=1,kv=0.127,kW=1.14336,pf=0.92,Vminpu=0.92,Vmaxpu=1.5,model=8,zipv=[0.5,0,0.5,1,0,0,0],daily=RES3_4,status=variable
new load.3000251788M1 bus1=RML1051720120.1.2.3.0,Phases=3,kv=0.22,kW=1.12222,pf=0.92,Vminpu=0.92,Vmaxpu=1.5,model=8,zipv=[0.5,0,0.5,1,0,0,0],daily=COM2_5,status=variable
new load.3000251789M1 bus1=RML1051720127.1.2.0,Phases=2,kv=0.22,kW=2.687,pf=0.92,Vminpu=0.92,Vmaxpu=1.5,model=8,zipv=[0.5,0,0.5,1,0,0,0],daily=COM2_5,status=variable
new load.3000251790M1 bus1=RML1051720183.2.3.0,Phases=2,kv=0.22,kW=1.77342,pf=0.92,Vminpu=0.92,Vmaxpu=1.5,model=8,zipv=[0.5,0,0.5,1,0,0,0],daily=COM2_5,status=variable
new load.3000251791M1 bus1=RML1051720176.2.3.0,Phases=2,kv=0.22,kW=1.12454,pf=0.92,Vminpu=0.92,Vmaxpu=1.5,model=8,zipv=[0.5,0,0.5,1,0,0,0],daily=RES2_4,status=variable
new load.3000251792M1 bus1=RML1060780076.1.2.3.0,Phases=3,kv=0.22,kW=5.06118,pf=0.92,Vminpu=0.92,Vmaxpu=1.5,model=8,zipv=[0.5,0,0.5,1,0,0,0],daily=COM3_5,status=variable
new load.3000251794M1 bus1=RML1051720148.1.2.3.0,Phases=3,kv=0.22,kW=1.54272,pf=0.92,Vminpu=0.92,Vmaxpu=1.5,model=8,zipv=[0.5,0,0.5,1,0,0,0],daily=RES5_6,status=variable
new load.3000251795M1 bus1=RML1051728240.1.2.3.0,Phases=3,kv=0.22,kW=1.01496,pf=0.92,Vminpu=0.92,Vmaxpu=1.5,model=8,zipv=[0.5,0,0.5,1,0,0,0],daily=RES3_4,status=variable
new load.3000251796M1 bus1=RML1051728226.1.2.3.0,Phases=3,kv=0.22,kW=0.01948,pf=0.92,Vminpu=0.92,Vmaxpu=1.5,model=8,zipv=[0.5,0,0.5,1,0,0,0],daily=IND1_10,status=variable
new load.3000251797M1 bus1=RML1051728226.1.2.3.0,Phases=3,kv=0.22,kW=1.08222,pf=0.92,Vminpu=0.92,Vmaxpu=1.5,model=8,zipv=[0.5,0,0.5,1,0,0,0],daily=RES3_4,status=variable
new load.3000251798M1 bus1=RML1051728156.1.2.3.0,Phases=3,kv=0.22,kW=1.6495,pf=0.92,Vminpu=0.92,Vmaxpu=1.5,model=8,zipv=[0.5,0,0.5,1,0,0,0],daily=RES5_6,status=variable
new load.3000251801M1 bus1=RML1051728170.1.2.0,Phases=2,kv=0.22,kW=2.09718,pf=0.92,Vminpu=0.92,Vmaxpu=1.5,model=8,zipv=[0.5,0,0.5,1,0,0,0],daily=RES3_4,status=variable
new load.3000251802M1 bus1=RML1051728163.1.2.0,Phases=2,kv=0.22,kW=0.73644,pf=0.92,Vminpu=0.92,Vmaxpu=1.5,model=8,zipv=[0.5,0,0.5,1,0,0,0],daily=RES1_2,status=variable
new load.3000251803M1 bus1=RML1051728142.2.0,Phases=1,kv=0.127,kW=0.14418,pf=0.92,Vminpu=0.92,Vmaxpu=1.5,model=8,zipv=[0.5,0,0.5,1,0,0,0],daily=RES2_4,status=variable
new load.3000251804M1 bus1=RML1051728135.1.2.3.0,Phases=3,kv=0.22,kW=1.09332,pf=0.92,Vminpu=0.92,Vmaxpu=1.5,model=8,zipv=[0.5,0,0.5,1,0,0,0],daily=COM1_7,status=variable
new load.3000251808M1 bus1=RML1051728177.2.0,Phases=1,kv=0.127,kW=1.22066,pf=0.92,Vminpu=0.92,Vmaxpu=1.5,model=8,zipv=[0.5,0,0.5,1,0,0,0],daily=RES2_4,status=variable
new load.3000251809M1 bus1=RML1051728184.1.3.0,Phases=2,kv=0.22,kW=0.97216,pf=0.92,Vminpu=0.92,Vmaxpu=1.5,model=8,zipv=[0.5,0,0.5,1,0,0,0],daily=RES3_4,status=variable
new load.3000251810M1 bus1=RML1051728205.1.3.0,Phases=2,kv=0.22,kW=0.6285,pf=0.92,Vminpu=0.92,Vmaxpu=1.5,model=8,zipv=[0.5,0,0.5,1,0,0,0],daily=COM1_7,status=variable
new load.3000251811M1 bus1=RML1051728128.2.0,Phases=1,kv=0.127,kW=1.27832,pf=0.92,Vminpu=0.92,Vmaxpu=1.5,model=8,zipv=[0.5,0,0.5,1,0,0,0],daily=RES2_4,status=variable
new load.3000251812M1 bus1=RML1051709648.2.0,Phases=1,kv=0.127,kW=1.36958,pf=0.92,Vminpu=0.92,Vmaxpu=1.5,model=8,zipv=[0.5,0,0.5,1,0,0,0],daily=RES3_4,status=variable
new load.3000251813M1 bus1=RML1051709655.1.3.0,Phases=2,kv=0.22,kW=1.92986,pf=0.92,Vminpu=0.92,Vmaxpu=1.5,model=8,zipv=[0.5,0,0.5,1,0,0,0],daily=RES4_6,status=variable
new load.3000251815M1 bus1=RML1051709592.1.2.3.0,Phases=3,kv=0.22,kW=0.0994,pf=0.92,Vminpu=0.92,Vmaxpu=1.5,model=8,zipv=[0.5,0,0.5,1,0,0,0],daily=COM1_7,status=variable
new load.3000251816M1 bus1=RML1051709585.1.2.0,Phases=2,kv=0.22,kW=1.14508,pf=0.92,Vminpu=0.92,Vmaxpu=1.5,model=8,zipv=[0.5,0,0.5,1,0,0,0],daily=RES5_6,status=variable
new load.3000251817M1 bus1=RML1051709571.2.3.0,Phases=2,kv=0.22,kW=1.23988,pf=0.92,Vminpu=0.92,Vmaxpu=1.5,model=8,zipv=[0.5,0,0.5,1,0,0,0],daily=RES2_4,status=variable
new load.3000251820M1 bus1=RML1051725881.1.2.0,Phases=2,kv=0.22,kW=1.69368,pf=0.92,Vminpu=0.92,Vmaxpu=1.5,model=8,zipv=[0.5,0,0.5,1,0,0,0],daily=RES5_6,status=variable
new load.3000251821M1 bus1=RML1051725867.1.3.0,Phases=2,kv=0.22,kW=1.78574,pf=0.92,Vminpu=0.92,Vmaxpu=1.5,model=8,zipv=[0.5,0,0.5,1,0,0,0],daily=RES5_6,status=variable
new load.3000251822M1 bus1=RML1051725874.1.3.0,Phases=2,kv=0.22,kW=0.67256,pf=0.92,Vminpu=0.92,Vmaxpu=1.5,model=8,zipv=[0.5,0,0.5,1,0,0,0],daily=RES3_4,status=variable
new load.3000251881M1 bus1=RML1051714877.1.2.3.0,Phases=3,kv=0.22,kW=2.73388,pf=0.92,Vminpu=0.92,Vmaxpu=1.5,model=8,zipv=[0.5,0,0.5,1,0,0,0],daily=RES6_6,status=variable
new load.3000251882M1 bus1=RML1051714905.2.3.0,Phases=2,kv=0.22,kW=4.23034,pf=0.92,Vminpu=0.92,Vmaxpu=1.5,model=8,zipv=[0.5,0,0.5,1,0,0,0],daily=COM3_5,status=variable
new load.3000251883M1 bus1=RML1051714884.2.3.0,Phases=2,kv=0.22,kW=1.0861,pf=0.92,Vminpu=0.92,Vmaxpu=1.5,model=8,zipv=[0.5,0,0.5,1,0,0,0],daily=RES2_4,status=variable
new load.3000251884M1 bus1=RML1051714891.1.2.3.0,Phases=3,kv=0.22,kW=1.97006,pf=0.92,Vminpu=0.92,Vmaxpu=1.5,model=8,zipv=[0.5,0,0.5,1,0,0,0],daily=RES4_6,status=variable
new load.3000251885M1 bus1=RML1051714919.1.2.3.0,Phases=3,kv=0.22,kW=2.29244,pf=0.92,Vminpu=0.92,Vmaxpu=1.5,model=8,zipv=[0.5,0,0.5,1,0,0,0],daily=COM3_5,status=variable
new load.3000251886M1 bus1=RML1051714912.2.3.0,Phases=2,kv=0.22,kW=1.0092,pf=0.92,Vminpu=0.92,Vmaxpu=1.5,model=8,zipv=[0.5,0,0.5,1,0,0,0],daily=RES2_4,status=variable
new load.3000251887M1 bus1=RML1051714926.1.2.0,Phases=2,kv=0.22,kW=0.97828,pf=0.92,Vminpu=0.92,Vmaxpu=1.5,model=8,zipv=[0.5,0,0.5,1,0,0,0],daily=RES3_4,status=variable
new load.3000251888M1 bus1=RML1051714933.1.3.0,Phases=2,kv=0.22,kW=2.65566,pf=0.92,Vminpu=0.92,Vmaxpu=1.5,model=8,zipv=[0.5,0,0.5,1,0,0,0],daily=COM3_5,status=variable
new load.3000251889M1 bus1=RML1051714933.1.3.0,Phases=2,kv=0.22,kW=0.69282,pf=0.92,Vminpu=0.92,Vmaxpu=1.5,model=8,zipv=[0.5,0,0.5,1,0,0,0],daily=COM1_7,status=variable
new load.3000251890M1 bus1=RML1051714968.1.2.3.0,Phases=3,kv=0.22,kW=0.32404,pf=0.92,Vminpu=0.92,Vmaxpu=1.5,model=8,zipv=[0.5,0,0.5,1,0,0,0],daily=RES1_2,status=variable
new load.3000251891M1 bus1=RML1051714961.1.2.3.0,Phases=3,kv=0.22,kW=1.35736,pf=0.92,Vminpu=0.92,Vmaxpu=1.5,model=8,zipv=[0.5,0,0.5,1,0,0,0],daily=RES3_4,status=variable
new load.3000251892M1 bus1=RML1051714954.1.2.3.0,Phases=3,kv=0.22,kW=1.4474,pf=0.92,Vminpu=0.92,Vmaxpu=1.5,model=8,zipv=[0.5,0,0.5,1,0,0,0],daily=RES4_6,status=variable
new load.3000251893M1 bus1=RML1051714975.2.3.0,Phases=2,kv=0.22,kW=7.46106,pf=0.92,Vminpu=0.92,Vmaxpu=1.5,model=8,zipv=[0.5,0,0.5,1,0,0,0],daily=RES6_6,status=variable
new load.3000251894M1 bus1=RML1051714982.1.2.3.0,Phases=3,kv=0.22,kW=2.27162,pf=0.92,Vminpu=0.92,Vmaxpu=1.5,model=8,zipv=[0.5,0,0.5,1,0,0,0],daily=RES4_6,status=variable
new load.3000251895M1 bus1=RML1051714996.1.2.3.0,Phases=3,kv=0.22,kW=1.824,pf=0.92,Vminpu=0.92,Vmaxpu=1.5,model=8,zipv=[0.5,0,0.5,1,0,0,0],daily=COM2_5,status=variable
new load.3000251897M1 bus1=RML1058637441.1.2.3.0,Phases=3,kv=0.22,kW=2.19322,pf=0.92,Vminpu=0.92,Vmaxpu=1.5,model=8,zipv=[0.5,0,0.5,1,0,0,0],daily=RES6_6,status=variable
new load.3000251898M1 bus1=RML1060741441.1.2.3.0,Phases=3,kv=0.22,kW=2.26024,pf=0.92,Vminpu=0.92,Vmaxpu=1.5,model=8,zipv=[0.5,0,0.5,1,0,0,0],daily=COM2_5,status=variable
new load.3000251901M1 bus1=RML1051713659.1.2.3.0,Phases=3,kv=0.22,kW=0.69202,pf=0.92,Vminpu=0.92,Vmaxpu=1.5,model=8,zipv=[0.5,0,0.5,1,0,0,0],daily=RES2_4,status=variable
new load.3000251902M1 bus1=RML1051713624.1.2.3.0,Phases=3,kv=0.22,kW=1.69534,pf=0.92,Vminpu=0.92,Vmaxpu=1.5,model=8,zipv=[0.5,0,0.5,1,0,0,0],daily=RES4_6,status=variable
new load.3000251903M1 bus1=RML1051713603.1.2.3.0,Phases=3,kv=0.22,kW=1.90976,pf=0.92,Vminpu=0.92,Vmaxpu=1.5,model=8,zipv=[0.5,0,0.5,1,0,0,0],daily=RES4_6,status=variable
new load.3000251904M1 bus1=RML1051713617.1.2.3.0,Phases=3,kv=0.22,kW=2.48152,pf=0.92,Vminpu=0.92,Vmaxpu=1.5,model=8,zipv=[0.5,0,0.5,1,0,0,0],daily=COM2_5,status=variable
new load.3000251906M1 bus1=RML1051713568.1.2.0,Phases=2,kv=0.22,kW=1.19228,pf=0.92,Vminpu=0.92,Vmaxpu=1.5,model=8,zipv=[0.5,0,0.5,1,0,0,0],daily=RES3_4,status=variable
new load.3000251907M1 bus1=RML1051713561.1.3.0,Phases=2,kv=0.22,kW=0.8536,pf=0.92,Vminpu=0.92,Vmaxpu=1.5,model=8,zipv=[0.5,0,0.5,1,0,0,0],daily=COM1_7,status=variable
new load.3000251908M1 bus1=RML1051713554.2.3.0,Phases=2,kv=0.22,kW=1.94326,pf=0.92,Vminpu=0.92,Vmaxpu=1.5,model=8,zipv=[0.5,0,0.5,1,0,0,0],daily=RES4_6,status=variable
new load.3000251925M1 bus1=RML1051706694.1.2.3.0,Phases=3,kv=0.22,kW=1.70474,pf=0.92,Vminpu=0.92,Vmaxpu=1.5,model=8,zipv=[0.5,0,0.5,1,0,0,0],daily=RES5_6,status=variable
new load.3000251926M1 bus1=RML1051706610.1.2.3.0,Phases=3,kv=0.22,kW=1.62372,pf=0.92,Vminpu=0.92,Vmaxpu=1.5,model=8,zipv=[0.5,0,0.5,1,0,0,0],daily=RES5_6,status=variable
new load.3000251927M1 bus1=RML1051706603.1.2.0,Phases=2,kv=0.22,kW=1.75478,pf=0.92,Vminpu=0.92,Vmaxpu=1.5,model=8,zipv=[0.5,0,0.5,1,0,0,0],daily=RES3_4,status=variable
new load.3000251928M1 bus1=RML1051706589.1.2.3.0,Phases=3,kv=0.22,kW=2.28648,pf=0.92,Vminpu=0.92,Vmaxpu=1.5,model=8,zipv=[0.5,0,0.5,1,0,0,0],daily=RES5_6,status=variable
new load.3000251930M1 bus1=RML1051713638.1.2.3.0,Phases=3,kv=0.22,kW=2.9015,pf=0.92,Vminpu=0.92,Vmaxpu=1.5,model=8,zipv=[0.5,0,0.5,1,0,0,0],daily=RES4_6,status=variable
new load.3000251931M1 bus1=RML1051706638.2.0,Phases=1,kv=0.127,kW=0.56958,pf=0.92,Vminpu=0.92,Vmaxpu=1.5,model=8,zipv=[0.5,0,0.5,1,0,0,0],daily=RES4_6,status=variable
new load.3000251932M1 bus1=RML1051706652.1.2.0,Phases=2,kv=0.22,kW=1.62004,pf=0.92,Vminpu=0.92,Vmaxpu=1.5,model=8,zipv=[0.5,0,0.5,1,0,0,0],daily=RES5_6,status=variable
new load.3000251933M1 bus1=RML1051706659.1.2.3.0,Phases=3,kv=0.22,kW=1.13232,pf=0.92,Vminpu=0.92,Vmaxpu=1.5,model=8,zipv=[0.5,0,0.5,1,0,0,0],daily=RES6_6,status=variable
new load.3000251934M1 bus1=RML1051706680.2.3.0,Phases=2,kv=0.22,kW=3.03552,pf=0.92,Vminpu=0.92,Vmaxpu=1.5,model=8,zipv=[0.5,0,0.5,1,0,0,0],daily=RES4_6,status=variable
new load.3000251936M1 bus1=RML1051713673.1.2.3.0,Phases=3,kv=0.22,kW=7.78546,pf=0.92,Vminpu=0.92,Vmaxpu=1.5,model=8,zipv=[0.5,0,0.5,1,0,0,0],daily=RES6_6,status=variable
new load.3000251937M1 bus1=RML1051713666.2.3.0,Phases=2,kv=0.22,kW=1.73418,pf=0.92,Vminpu=0.92,Vmaxpu=1.5,model=8,zipv=[0.5,0,0.5,1,0,0,0],daily=RES5_6,status=variable
new load.3000251938M1 bus1=RML1051706540.1.2.3.0,Phases=3,kv=0.22,kW=1.68864,pf=0.92,Vminpu=0.92,Vmaxpu=1.5,model=8,zipv=[0.5,0,0.5,1,0,0,0],daily=RES4_6,status=variable
new load.3000251939M1 bus1=RML1051706554.2.3.0,Phases=2,kv=0.22,kW=1.1189,pf=0.92,Vminpu=0.92,Vmaxpu=1.5,model=8,zipv=[0.5,0,0.5,1,0,0,0],daily=RES3_4,status=variable
new load.3000251940M1 bus1=RML1051706547.1.2.0,Phases=2,kv=0.22,kW=1.72314,pf=0.92,Vminpu=0.92,Vmaxpu=1.5,model=8,zipv=[0.5,0,0.5,1,0,0,0],daily=RES5_6,status=variable
new load.3000251941M1 bus1=RML1051706561.1.0,Phases=1,kv=0.127,kW=0.4026,pf=0.92,Vminpu=0.92,Vmaxpu=1.5,model=8,zipv=[0.5,0,0.5,1,0,0,0],daily=RES1_2,status=variable
new load.3000251942M1 bus1=RML1051706561.1.0,Phases=1,kv=0.127,kW=0.77852,pf=0.92,Vminpu=0.92,Vmaxpu=1.5,model=8,zipv=[0.5,0,0.5,1,0,0,0],daily=RES2_4,status=variable
new load.3000251943M1 bus1=RML1051706533.1.3.0,Phases=2,kv=0.22,kW=1.29236,pf=0.92,Vminpu=0.92,Vmaxpu=1.5,model=8,zipv=[0.5,0,0.5,1,0,0,0],daily=RES5_6,status=variable
new load.3000251944M1 bus1=RML1051706666.2.3.0,Phases=2,kv=0.22,kW=1.35522,pf=0.92,Vminpu=0.92,Vmaxpu=1.5,model=8,zipv=[0.5,0,0.5,1,0,0,0],daily=RES2_4,status=variable
new load.3000251947M1 bus1=RML1051706645.1.2.0,Phases=2,kv=0.22,kW=2.0238,pf=0.92,Vminpu=0.92,Vmaxpu=1.5,model=8,zipv=[0.5,0,0.5,1,0,0,0],daily=RES3_4,status=variable
new load.3000251948M1 bus1=RML1051706631.1.2.3.0,Phases=3,kv=0.22,kW=1.92932,pf=0.92,Vminpu=0.92,Vmaxpu=1.5,model=8,zipv=[0.5,0,0.5,1,0,0,0],daily=RES5_6,status=variable
new load.3000251949M1 bus1=RML1051706624.1.3.0,Phases=2,kv=0.22,kW=1.0337,pf=0.92,Vminpu=0.92,Vmaxpu=1.5,model=8,zipv=[0.5,0,0.5,1,0,0,0],daily=COM2_5,status=variable
new load.3000251950M1 bus1=RML1051706617.1.3.0,Phases=2,kv=0.22,kW=1.5685,pf=0.92,Vminpu=0.92,Vmaxpu=1.5,model=8,zipv=[0.5,0,0.5,1,0,0,0],daily=RES5_6,status=variable
new load.3000251960M1 bus1=RML1051703369.1.3.0,Phases=2,kv=0.22,kW=1.22284,pf=0.92,Vminpu=0.92,Vmaxpu=1.5,model=8,zipv=[0.5,0,0.5,1,0,0,0],daily=RES3_4,status=variable
new load.3000251963M1 bus1=RML1051709620.3.0,Phases=1,kv=0.127,kW=1.28398,pf=0.92,Vminpu=0.92,Vmaxpu=1.5,model=8,zipv=[0.5,0,0.5,1,0,0,0],daily=RES3_4,status=variable
new load.3000251967M1 bus1=RML1051709557.2.3.0,Phases=2,kv=0.22,kW=0.27514,pf=0.92,Vminpu=0.92,Vmaxpu=1.5,model=8,zipv=[0.5,0,0.5,1,0,0,0],daily=RES3_4,status=variable
new load.3000251968M1 bus1=RML1051709536.1.2.3.0,Phases=3,kv=0.22,kW=1.20144,pf=0.92,Vminpu=0.92,Vmaxpu=1.5,model=8,zipv=[0.5,0,0.5,1,0,0,0],daily=RES2_4,status=variable
new load.3000251969M1 bus1=RML1051709536.1.2.3.0,Phases=3,kv=0.22,kW=0.59592,pf=0.92,Vminpu=0.92,Vmaxpu=1.5,model=8,zipv=[0.5,0,0.5,1,0,0,0],daily=RES2_4,status=variable
new load.3000251970M1 bus1=RML1051709536.1.2.3.0,Phases=3,kv=0.22,kW=1.22486,pf=0.92,Vminpu=0.92,Vmaxpu=1.5,model=8,zipv=[0.5,0,0.5,1,0,0,0],daily=COM1_7,status=variable
new load.3000251971M1 bus1=RML1051709536.1.2.3.0,Phases=3,kv=0.22,kW=1.62434,pf=0.92,Vminpu=0.92,Vmaxpu=1.5,model=8,zipv=[0.5,0,0.5,1,0,0,0],daily=RES2_4,status=variable
new load.3000251972M1 bus1=RML1051709536.1.2.3.0,Phases=3,kv=0.22,kW=1.14376,pf=0.92,Vminpu=0.92,Vmaxpu=1.5,model=8,zipv=[0.5,0,0.5,1,0,0,0],daily=RES2_4,status=variable
new load.3000251973M1 bus1=RML1051709536.1.2.3.0,Phases=3,kv=0.22,kW=1.12454,pf=0.92,Vminpu=0.92,Vmaxpu=1.5,model=8,zipv=[0.5,0,0.5,1,0,0,0],daily=RES2_4,status=variable
new load.3000251975M1 bus1=RML1051709529.3.0,Phases=1,kv=0.127,kW=0.80518,pf=0.92,Vminpu=0.92,Vmaxpu=1.5,model=8,zipv=[0.5,0,0.5,1,0,0,0],daily=RES1_2,status=variable
new load.3000251977M1 bus1=RML1051709543.3.0,Phases=1,kv=0.127,kW=1.53466,pf=0.92,Vminpu=0.92,Vmaxpu=1.5,model=8,zipv=[0.5,0,0.5,1,0,0,0],daily=RES3_4,status=variable
new load.3000251978M1 bus1=RML1051709550.1.3.0,Phases=2,kv=0.22,kW=1.71198,pf=0.92,Vminpu=0.92,Vmaxpu=1.5,model=8,zipv=[0.5,0,0.5,1,0,0,0],daily=RES3_4,status=variable
new load.3000251979M1 bus1=RML1051709606.1.2.0,Phases=2,kv=0.22,kW=1.65318,pf=0.92,Vminpu=0.92,Vmaxpu=1.5,model=8,zipv=[0.5,0,0.5,1,0,0,0],daily=RES2_4,status=variable
new load.3000251980M1 bus1=RML1051709634.1.2.0,Phases=2,kv=0.22,kW=0.52042,pf=0.92,Vminpu=0.92,Vmaxpu=1.5,model=8,zipv=[0.5,0,0.5,1,0,0,0],daily=RES1_2,status=variable
new load.3000251981M1 bus1=RML1051709627.1.0,Phases=1,kv=0.127,kW=0.36332,pf=0.92,Vminpu=0.92,Vmaxpu=1.5,model=8,zipv=[0.5,0,0.5,1,0,0,0],daily=RES1_2,status=variable
new load.3000251984M1 bus1=RML1051709641.2.0,Phases=1,kv=0.127,kW=1.0092,pf=0.92,Vminpu=0.92,Vmaxpu=1.5,model=8,zipv=[0.5,0,0.5,1,0,0,0],daily=RES2_4,status=variable
new load.3000251985M1 bus1=RML1051722787.2.3.0,Phases=2,kv=0.22,kW=1.26872,pf=0.92,Vminpu=0.92,Vmaxpu=1.5,model=8,zipv=[0.5,0,0.5,1,0,0,0],daily=RES2_4,status=variable
new load.3000251987M1 bus1=RML1051722787.2.3.0,Phases=2,kv=0.22,kW=1.0861,pf=0.92,Vminpu=0.92,Vmaxpu=1.5,model=8,zipv=[0.5,0,0.5,1,0,0,0],daily=RES2_4,status=variable
new load.3000251990M1 bus1=RML1051728660.1.2.3.0,Phases=3,kv=0.22,kW=14.06942,pf=0.92,Vminpu=0.92,Vmaxpu=1.5,model=8,zipv=[0.5,0,0.5,1,0,0,0],daily=COM4_4,status=variable