new line.RML10001531 bus1=BBT1144174.1.2.3.0,bus2=RML1060001531.1.2.3.0,Phases=3,Linecode=CABBTG06_4_3,Length=0.017000000,Units=km
new line.RML10001783 bus1=BBT1133422.1.2.0,bus2=RML1060001783.1.2.0,Phases=2,Linecode=CABBTG05_4_2,Length=0.017000000,Units=km
new line.RML10040404 bus1=BBT1141682.3.0,bus2=RML1060040404.3.0,Phases=1,Linecode=CABBTG02_4_1,Length=0.017000000,Units=km
new line.RML10044268 bus1=BBT1008990.1.2.3.0,bus2=RML1060044268.1.2.3.0,Phases=3,Linecode=CABBTG07_4_3,Length=0.017000000,Units=km
new line.RML10044415 bus1=BBT1128802.1.2.0,bus2=RML1060044415.1.2.0,Phases=2,Linecode=CABBTG05_4_2,Length=0.017000000,Units=km
new line.RML10044808 bus1=BBT137551171.1.2.3.0,bus2=RML1060044808.1.2.3.0,Phases=3,Linecode=CABBT803_4_3,Length=0.030000000,Units=km
new line.RML10065199 bus1=BBT1137650.1.2.0,bus2=RML1060065199.1.2.0,Phases=2,Linecode=CABBTG05_4_2,Length=0.017000000,Units=km
new line.RML10065201 bus1=BBT1146078.1.0,bus2=RML1060065201.1.0,Phases=1,Linecode=CABBTG01_4_1,Length=0.017000000,Units=km
new line.RML10069588 bus1=BBT1190283.2.0,bus2=RML1060069588.2.0,Phases=1,Linecode=CABBTG01_4_1,Length=0.010000000,Units=km
new line.RML10069713 bus1=BBT1130195.1.2.0,bus2=RML1060069713.1.2.0,Phases=2,Linecode=CABBTG05_4_2,Length=0.020000000,Units=km
new line.RML10069745 bus1=BBT1130146.1.2.0,bus2=RML1060069745.1.2.0,Phases=2,Linecode=CABBTG05_4_2,Length=0.028000000,Units=km
new line.RML10069826 bus1=BBT1134472.1.2.0,bus2=RML1060069826.1.2.0,Phases=2,Linecode=CABBTG05_4_2,Length=0.017000000,Units=km
new line.RML10077464 bus1=BBT1133485.1.0,bus2=RML1060077464.1.0,Phases=1,Linecode=CABBTG01_4_1,Length=0.006000000,Units=km
new line.RML10081588 bus1=BBT1133457.1.2.3.0,bus2=RML1060081588.1.2.3.0,Phases=3,Linecode=CABBTG07_4_3,Length=0.017000000,Units=km
new line.RML10081593 bus1=BBT1011293.1.2.0,bus2=RML1060081593.1.2.0,Phases=2,Linecode=CABBTG05_4_2,Length=0.017000000,Units=km
new line.RML10082143 bus1=BBT1124252.1.0,bus2=RML1060082143.1.0,Phases=1,Linecode=CABBTG01_4_1,Length=0.016000000,Units=km
new line.RML10082984 bus1=BBT1125652.2.3.0,bus2=RML1060082984.2.3.0,Phases=2,Linecode=CABBTG05_4_2,Length=0.012000000,Units=km
new line.RML10105143 bus1=BBT1185971.3.0,bus2=RML1060105143.3.0,Phases=1,Linecode=CABBTG01_4_1,Length=0.017000000,Units=km
new line.RML10112263 bus1=BBT1142039.1.2.3.0,bus2=RML1060112263.1.2.3.0,Phases=3,Linecode=CABBTG06_4_3,Length=0.017000000,Units=km
new line.RML10117206 bus1=BBT1130650.1.2.0,bus2=RML1060117206.1.2.0,Phases=2,Linecode=CABBT811_4_2,Length=0.017000000,Units=km
new line.RML10123422 bus1=BBT1138175.2.3.0,bus2=RML1060123422.2.3.0,Phases=2,Linecode=CABBTG05_4_2,Length=0.017000000,Units=km
new line.RML10123679 bus1=BBT1138280.1.2.3.0,bus2=RML1060123679.1.2.3.0,Phases=3,Linecode=CABBTG08_4_3,Length=0.030000000,Units=km
new line.RML10123994 bus1=BBT1131364.1.2.3.0,bus2=RML1060123994.1.2.3.0,Phases=3,Linecode=CABBTG07_4_3,Length=0.017000000,Units=km
new line.RML10124003 bus1=BBT1132918.1.2.3.0,bus2=RML1060124003.1.2.3.0,Phases=3,Linecode=CABBTG10_4_3,Length=0.017000000,Units=km
new line.RML10124009 bus1=BBT1369714.2.0,bus2=RML1060124009.2.0,Phases=1,Linecode=CABBTG01_4_1,Length=0.017000000,Units=km
new line.RML10124043 bus1=BBT1175891.2.3.0,bus2=RML1060124043.2.3.0,Phases=2,Linecode=CABBTG05_4_2,Length=0.017000000,Units=km
new line.RML10124086 bus1=BBT1130188.1.2.0,bus2=RML1060124086.1.2.0,Phases=2,Linecode=CABBTG05_4_2,Length=0.017000000,Units=km
new line.RML10125012 bus1=BBT1141689.1.2.3.0,bus2=RML1060125012.1.2.3.0,Phases=3,Linecode=CABBTG07_4_3,Length=0.017000000,Units=km
new line.RML10125043 bus1=BBT1140156.2.3.0,bus2=RML1060125043.2.3.0,Phases=2,Linecode=CABBTG05_4_2,Length=0.017000000,Units=km
new line.RML10125075 bus1=BBT1004139.2.3.0,bus2=RML1060125075.2.3.0,Phases=2,Linecode=CABBTG05_4_2,Length=0.017000000,Units=km
new line.RML10125128 bus1=BBT1183696.2.3.0,bus2=RML1060125128.2.3.0,Phases=2,Linecode=CABBTG04_4_2,Length=0.017000000,Units=km
new line.RML10125265 bus1=BBT1120276.1.2.0,bus2=RML1060125265.1.2.0,Phases=2,Linecode=CABBTG05_4_2,Length=0.017000000,Units=km
new line.RML10125469 bus1=BBT4604302.1.2.3.0,bus2=RML1060125469.1.2.3.0,Phases=3,Linecode=CABBTG06_4_3,Length=0.017000000,Units=km
new line.RML10125637 bus1=BBT1130902.1.2.3.0,bus2=RML1060125637.1.2.3.0,Phases=3,Linecode=CABBTG07_4_3,Length=0.017000000,Units=km
new line.RML10125820 bus1=BBT1132274.1.2.0,bus2=RML1060125820.1.2.0,Phases=2,Linecode=CABBTG05_4_2,Length=0.017000000,Units=km
new line.RML10126063 bus1=BBT1130923.1.2.3.0,bus2=RML1060126063.1.2.3.0,Phases=3,Linecode=CABBTG07_4_3,Length=0.017000000,Units=km
new line.RML10126575 bus1=BBT1127038.1.2.3.0,bus2=RML1060126575.1.2.3.0,Phases=3,Linecode=CABBTG07_4_3,Length=0.017000000,Units=km
new line.RML10142292 bus1=BBT1185971.2.3.0,bus2=RML1060142292.2.3.0,Phases=2,Linecode=CABBT815_4_2,Length=0.017000000,Units=km
new line.RML10142614 bus1=BBT2126393.1.2.3.0,bus2=RML1060142614.1.2.3.0,Phases=3,Linecode=CABBTG06_4_3,Length=0.017000000,Units=km
new line.RML10149540 bus1=BBT1142795.1.2.0,bus2=RML1060149540.1.2.0,Phases=2,Linecode=CABBTG05_4_2,Length=0.017000000,Units=km
new line.RML10154606 bus1=BBT2069385.1.0,bus2=RML1060154606.1.0,Phases=1,Linecode=CABBTG01_4_1,Length=0.017000000,Units=km
new line.RML10154976 bus1=BBT3382193.1.2.0,bus2=RML1060154976.1.2.0,Phases=2,Linecode=CABBTG05_4_2,Length=0.017000000,Units=km
new line.RML10155030 bus1=BBT1369742.1.2.0,bus2=RML1060155030.1.2.0,Phases=2,Linecode=CABBTG05_4_2,Length=0.017000000,Units=km
new line.RML10155063 bus1=BBT1145532.2.0,bus2=RML1060155063.2.0,Phases=1,Linecode=CABBTG02_4_1,Length=0.017000000,Units=km
new line.RML10155067 bus1=BBT1126163.1.2.3.0,bus2=RML1060155067.1.2.3.0,Phases=3,Linecode=CABBTG07_4_3,Length=0.017000000,Units=km
new line.RML10161079 bus1=BBT1130440.1.2.3.0,bus2=RML1060161079.1.2.3.0,Phases=3,Linecode=CABBTG07_4_3,Length=0.018000000,Units=km
new line.RML10166563 bus1=BBT1133499.1.2.0,bus2=RML1060166563.1.2.0,Phases=2,Linecode=CABBTG05_4_2,Length=0.017000000,Units=km
new line.RML10168956 bus1=BBT1128865.1.3.0,bus2=RML1060168956.1.3.0,Phases=2,Linecode=CABBTG05_4_2,Length=0.017000000,Units=km
new line.RML10169329 bus1=BBT1009949.3.0,bus2=RML1060169329.3.0,Phases=1,Linecode=CABBTG01_4_1,Length=0.017000000,Units=km
new line.RML10172317 bus1=BBT1140772.1.3.0,bus2=RML1060172317.1.3.0,Phases=2,Linecode=CABBTG05_4_2,Length=0.017000000,Units=km
new line.RML10189446 bus1=BBT1137566.2.3.0,bus2=RML1060189446.2.3.0,Phases=2,Linecode=CABBTG05_4_2,Length=0.017000000,Units=km
new line.RML10192793 bus1=BBT1127353.2.3.0,bus2=RML1060192793.2.3.0,Phases=2,Linecode=CABBTG05_4_2,Length=0.017000000,Units=km
new line.RML10209791 bus1=BBT75209682.1.0,bus2=RML1060209791.1.0,Phases=1,Linecode=CABBTG02_4_1,Length=0.017000000,Units=km
new line.RML10210222 bus1=BBT1133597.1.0,bus2=RML1060210222.1.0,Phases=1,Linecode=CABBTG02_4_1,Length=0.017000000,Units=km
new line.RML10218852 bus1=BBT1137258.1.2.3.0,bus2=RML1060218852.1.2.3.0,Phases=3,Linecode=CABBTG06_4_3,Length=0.017000000,Units=km
new line.RML10219590 bus1=BBT1131994.2.3.0,bus2=RML1060219590.2.3.0,Phases=2,Linecode=CABBTG05_4_2,Length=0.017000000,Units=km
new line.RML10220078 bus1=BBT1145049.1.2.3.0,bus2=RML1060220078.1.2.3.0,Phases=3,Linecode=CABBTG06_4_3,Length=0.017000000,Units=km
new line.RML10233742 bus1=BBT1138189.1.0,bus2=RML1060233742.1.0,Phases=1,Linecode=CABBTG02_4_1,Length=0.017000000,Units=km
new line.RML10251805 bus1=BBT2135514.1.2.3.0,bus2=RML1060251805.1.2.3.0,Phases=3,Linecode=CABBTG06_4_3,Length=0.017000000,Units=km
new line.RML10252235 bus1=BBT1008458.1.2.3.0,bus2=RML1060252235.1.2.3.0,Phases=3,Linecode=CABBTG07_4_3,Length=0.017000000,Units=km
new line.RML10252404 bus1=BBT1140163.1.2.3.0,bus2=RML1060252404.1.2.3.0,Phases=3,Linecode=CABBTG07_4_3,Length=0.029000000,Units=km
new line.RML10253446 bus1=BBT1163410.3.0,bus2=RML1060253446.3.0,Phases=1,Linecode=CABBTG01_4_1,Length=0.017000000,Units=km
new line.RML10253856 bus1=BBT1369742.3.0,bus2=RML1060253856.3.0,Phases=1,Linecode=CABBTG01_4_1,Length=0.017000000,Units=km
new line.RML10254398 bus1=BBT1140198.2.3.0,bus2=RML1060254398.2.3.0,Phases=2,Linecode=CABBTG05_4_2,Length=0.017000000,Units=km
new line.RML10255350 bus1=BBT1134360.1.2.3.0,bus2=RML1060255350.1.2.3.0,Phases=3,Linecode=CABBTG06_4_3,Length=0.017000000,Units=km
new line.RML10258904 bus1=BBT1185971.3.0,bus2=RML1060258904.3.0,Phases=1,Linecode=CABBTG02_4_1,Length=0.017000000,Units=km
new line.RML10282399 bus1=BBT1131203.1.2.0,bus2=RML1060282399.1.2.0,Phases=2,Linecode=CABBTG05_4_2,Length=0.017000000,Units=km
new line.RML10282474 bus1=BBT1136824.1.0,bus2=RML1060282474.1.0,Phases=1,Linecode=CABBTG02_4_1,Length=0.017000000,Units=km
new line.RML10285917 bus1=BBT45575399.1.2.3.0,bus2=RML1060285917.1.2.3.0,Phases=3,Linecode=CABBTG07_4_3,Length=0.017000000,Units=km
new line.RML10285920 bus1=BBT1347517.1.2.0,bus2=RML1060285920.1.2.0,Phases=2,Linecode=CABBT808_4_2,Length=0.017000000,Units=km
new line.RML10286337 bus1=BBT2135857.1.2.3.0,bus2=RML1060286337.1.2.3.0,Phases=3,Linecode=CABBTG06_4_3,Length=0.017000000,Units=km
new line.RML10287164 bus1=BBT1124273.1.0,bus2=RML1060287164.1.0,Phases=1,Linecode=CABBTG01_4_1,Length=0.017000000,Units=km
new line.RML10299827 bus1=BBT1010789.2.0,bus2=RML1060299827.2.0,Phases=1,Linecode=CABBTG02_4_1,Length=0.017000000,Units=km
new line.RML10299877 bus1=BBT1148150.1.2.0,bus2=RML1060299877.1.2.0,Phases=2,Linecode=CABBTG05_4_2,Length=0.017000000,Units=km
new line.RML10301895 bus1=BBT1119303.1.2.0,bus2=RML1060301895.1.2.0,Phases=2,Linecode=CABBTG05_4_2,Length=0.017000000,Units=km
new line.RML10301944 bus1=BBT1129439.1.2.3.0,bus2=RML1060301944.1.2.3.0,Phases=3,Linecode=CABBTG06_4_3,Length=0.017000000,Units=km
new line.RML10308734 bus1=BBT1006288.1.2.3.0,bus2=RML1060308734.1.2.3.0,Phases=3,Linecode=CABBTG06_4_3,Length=0.017000000,Units=km
new line.RML10308754 bus1=BBT1127409.1.3.0,bus2=RML1060308754.1.3.0,Phases=2,Linecode=CABBTG05_4_2,Length=0.017000000,Units=km
new line.RML10310790 bus1=BBT1142753.1.2.3.0,bus2=RML1060310790.1.2.3.0,Phases=3,Linecode=CABBTG06_4_3,Length=0.017000000,Units=km
new line.RML10325501 bus1=BBT1141675.1.2.3.0,bus2=RML1060325501.1.2.3.0,Phases=3,Linecode=CABBTG06_4_3,Length=0.017000000,Units=km
new line.RML10325663 bus1=BBT1135410.1.2.0,bus2=RML1060325663.1.2.0,Phases=2,Linecode=CABBTG05_4_2,Length=0.017000000,Units=km
new line.RML10327506 bus1=BBT1144391.1.2.3.0,bus2=RML1060327506.1.2.3.0,Phases=3,Linecode=CABBTG06_4_3,Length=0.017000000,Units=km
new line.RML10331699 bus1=BBT1146729.1.2.0,bus2=RML1060331699.1.2.0,Phases=2,Linecode=CABBTG04_4_2,Length=0.017000000,Units=km
new line.RML10331707 bus1=BBT1137517.1.2.3.0,bus2=RML1060331707.1.2.3.0,Phases=3,Linecode=CABBTG06_4_3,Length=0.017000000,Units=km
new line.RML10331763 bus1=BBT1148220.1.3.0,bus2=RML1060331763.1.3.0,Phases=2,Linecode=CABBTG05_4_2,Length=0.017000000,Units=km
new line.RML10331797 bus1=BBT1185992.1.2.0,bus2=RML1060331797.1.2.0,Phases=2,Linecode=CABBTG05_4_2,Length=0.017000000,Units=km
new line.RML10331867 bus1=BBT1133513.1.0,bus2=RML1060331867.1.0,Phases=1,Linecode=CABBTG01_4_1,Length=0.017000000,Units=km
new line.RML10334400 bus1=BBT1144083.1.0,bus2=RML1060334400.1.0,Phases=1,Linecode=CABBTG02_4_1,Length=0.017000000,Units=km
new line.RML10334431 bus1=BBT1125722.1.0,bus2=RML1060334431.1.0,Phases=1,Linecode=CABBTG02_4_1,Length=0.017000000,Units=km
new line.RML10334438 bus1=BBT1130951.1.0,bus2=RML1060334438.1.0,Phases=1,Linecode=CABBTG02_4_1,Length=0.017000000,Units=km
new line.RML10335541 bus1=BBT1135347.1.0,bus2=RML1060335541.1.0,Phases=1,Linecode=CABBTG02_4_1,Length=0.017000000,Units=km
new line.RML10339139 bus1=BBT1008402.1.2.3.0,bus2=RML1060339139.1.2.3.0,Phases=3,Linecode=CABBT804_4_3,Length=0.017000000,Units=km
new line.RML10339201 bus1=BBT1190248.1.2.0,bus2=RML1060339201.1.2.0,Phases=2,Linecode=CABBTG05_4_2,Length=0.017000000,Units=km
new line.RML10339557 bus1=BBT1146120.1.2.0,bus2=RML1060339557.1.2.0,Phases=2,Linecode=CABBTG05_4_2,Length=0.017000000,Units=km
new line.RML10342856 bus1=BBT1006323.1.0,bus2=RML1060342856.1.0,Phases=1,Linecode=CABBTG01_4_1,Length=0.017000000,Units=km
new line.RML10342942 bus1=BBT1146155.1.0,bus2=RML1060342942.1.0,Phases=1,Linecode=CABBTG01_4_1,Length=0.017000000,Units=km
new line.RML10343036 bus1=BBT1140163.1.0,bus2=RML1060343036.1.0,Phases=1,Linecode=CABBTG01_4_1,Length=0.029000000,Units=km
new line.RML10343100 bus1=BBT1128697.1.2.3.0,bus2=RML1060343100.1.2.3.0,Phases=3,Linecode=CABBTG06_4_3,Length=0.017000000,Units=km
new line.RML10344032 bus1=BBT1190248.1.2.0,bus2=RML1060344032.1.2.0,Phases=2,Linecode=CABBTG05_4_2,Length=0.017000000,Units=km
new line.RML10346573 bus1=BBT1142795.3.0,bus2=RML1060346573.3.0,Phases=1,Linecode=CABBTG02_4_1,Length=0.017000000,Units=km
new line.RML10346868 bus1=BBT1137419.2.0,bus2=RML1060346868.2.0,Phases=1,Linecode=CABBTG02_4_1,Length=0.017000000,Units=km
new line.RML10346909 bus1=BBT1144391.1.2.3.0,bus2=RML1060346909.1.2.3.0,Phases=3,Linecode=CABBT805_4_3,Length=0.017000000,Units=km
new line.RML10346919 bus1=BBT1143222.1.2.0,bus2=RML1060346919.1.2.0,Phases=2,Linecode=CABBTG05_4_2,Length=0.017000000,Units=km
new line.RML10347297 bus1=BBT1139484.1.2.3.0,bus2=RML1060347297.1.2.3.0,Phases=3,Linecode=CABBTG06_4_3,Length=0.017000000,Units=km
new line.RML10354022 bus1=BBT1144419.1.2.3.0,bus2=RML1060354022.1.2.3.0,Phases=3,Linecode=CABBTG06_4_3,Length=0.017000000,Units=km
new line.RML10355286 bus1=BBT1128214.1.2.3.0,bus2=RML1060355286.1.2.3.0,Phases=3,Linecode=CABBTG06_4_3,Length=0.017000000,Units=km
new line.RML10358460 bus1=BBT1118484.1.2.0,bus2=RML1060358460.1.2.0,Phases=2,Linecode=CABBT811_4_2,Length=0.017000000,Units=km
new line.RML10359536 bus1=BBT1135305.1.2.3.0,bus2=RML1060359536.1.2.3.0,Phases=3,Linecode=CABBT815_4_3,Length=0.017000000,Units=km
new line.RML10376991 bus1=BBT1142417.1.2.3.0,bus2=RML1060376991.1.2.3.0,Phases=3,Linecode=CABBTG08_4_3,Length=0.017000000,Units=km
new line.RML10379846 bus1=BBT1137615.2.3.0,bus2=RML1060379846.2.3.0,Phases=2,Linecode=CABBTG05_4_2,Length=0.017000000,Units=km
new line.RML10383902 bus1=BBT1130643.1.2.3.0,bus2=RML1060383902.1.2.3.0,Phases=3,Linecode=CABBTG06_4_3,Length=0.017000000,Units=km
new line.RML10383910 bus1=BBT1127731.2.3.0,bus2=RML1060383910.2.3.0,Phases=2,Linecode=CABBTG05_4_2,Length=0.017000000,Units=km
new line.RML10400794 bus1=BBT1135515.1.2.3.0,bus2=RML1060400794.1.2.3.0,Phases=3,Linecode=CABBTG06_4_3,Length=0.017000000,Units=km
new line.RML10405810 bus1=BBT1183724.1.2.0,bus2=RML1060405810.1.2.0,Phases=2,Linecode=CABBTG05_4_2,Length=0.017000000,Units=km
new line.RML10407453 bus1=BBT1129558.1.3.0,bus2=RML1060407453.1.3.0,Phases=2,Linecode=CABBTG05_4_2,Length=0.017000000,Units=km
new line.RML10411201 bus1=BBT1129558.2.3.0,bus2=RML1060411201.2.3.0,Phases=2,Linecode=CABBTG05_4_2,Length=0.017000000,Units=km
new line.RML10412361 bus1=BBT1133030.1.2.3.0,bus2=RML1060412361.1.2.3.0,Phases=3,Linecode=CABBTG06_4_3,Length=0.017000000,Units=km
new line.RML10414281 bus1=BBT1115754.1.0,bus2=RML1060414281.1.0,Phases=1,Linecode=CABBTG02_4_1,Length=0.017000000,Units=km
new line.RML10415017 bus1=BBT1138805.1.2.3.0,bus2=RML1060415017.1.2.3.0,Phases=3,Linecode=CABBTG06_4_3,Length=0.017000000,Units=km
new line.RML10423159 bus1=BBT1146127.1.2.0,bus2=RML1060423159.1.2.0,Phases=2,Linecode=CABBT811_4_2,Length=0.017000000,Units=km
new line.RML10429788 bus1=BBT1142970.1.2.3.0,bus2=RML1060429788.1.2.3.0,Phases=3,Linecode=CABBTG07_4_3,Length=0.017000000,Units=km
new line.RML10436351 bus1=BBT1132267.1.2.0,bus2=RML1060436351.1.2.0,Phases=2,Linecode=CABBTG05_4_2,Length=0.017000000,Units=km
new line.RML10437695 bus1=BBT154377508.1.2.3.0,bus2=RML1060437695.1.2.3.0,Phases=3,Linecode=CABBT806_4_3,Length=0.029000000,Units=km
new line.RML10438192 bus1=BBT1127038.1.2.0,bus2=RML1060438192.1.2.0,Phases=2,Linecode=CABBTG05_4_2,Length=0.017000000,Units=km
new line.RML10438290 bus1=BBT1006281.1.3.0,bus2=RML1060438290.1.3.0,Phases=2,Linecode=CABBTG05_4_2,Length=0.017000000,Units=km
new line.RML10441255 bus1=BBT1141990.1.2.0,bus2=RML1060441255.1.2.0,Phases=2,Linecode=CABBTG05_4_2,Length=0.029000000,Units=km
new line.RML10442953 bus1=BBT1133520.1.2.0,bus2=RML1060442953.1.2.0,Phases=2,Linecode=CABBTG05_4_2,Length=0.017000000,Units=km
new line.RML10447696 bus1=BBT1145567.1.2.3.0,bus2=RML1060447696.1.2.3.0,Phases=3,Linecode=CABBT313_7_3,Length=0.017000000,Units=km
new line.RML10447701 bus1=BBT1145581.1.3.0,bus2=RML1060447701.1.3.0,Phases=2,Linecode=CABBT811_4_2,Length=0.017000000,Units=km
new line.RML10447705 bus1=BBT171601689.1.2.0,bus2=RML1060447705.1.2.0,Phases=2,Linecode=CABBT815_4_3,Length=0.017000000,Units=km
new line.RML10463666 bus1=BBT1132393.1.2.3.0,bus2=RML1060463666.1.2.3.0,Phases=3,Linecode=CABBT804_4_3,Length=0.017000000,Units=km
new line.RML10466991 bus1=BBT1003873.2.3.0,bus2=RML1060466991.2.3.0,Phases=2,Linecode=CABBTG05_4_2,Length=0.017000000,Units=km
new line.RML10474096 bus1=BBT1330857.1.2.0,bus2=RML1060474096.1.2.0,Phases=2,Linecode=CABBTG05_4_2,Length=0.013000000,Units=km
new line.RML10474422 bus1=BBT1007205.1.2.0,bus2=RML1060474422.1.2.0,Phases=2,Linecode=CABBTG05_4_2,Length=0.020000000,Units=km
new line.RML10476259 bus1=BBT1125694.1.2.3.0,bus2=RML1060476259.1.2.3.0,Phases=3,Linecode=CABBTG10_4_3,Length=0.016000000,Units=km
new line.RML10476366 bus1=BBT1139582.1.2.0,bus2=RML1060476366.1.2.0,Phases=2,Linecode=CABBTG05_4_2,Length=0.007000000,Units=km
new line.RML10480608 bus1=BBT1010838.1.2.0,bus2=RML1060480608.1.2.0,Phases=2,Linecode=CABBTG05_4_2,Length=0.017000000,Units=km
new line.RML10489302 bus1=BBT1133163.2.0,bus2=RML1060489302.2.0,Phases=1,Linecode=CABBTG02_4_1,Length=0.010000000,Units=km
new line.RML10492351 bus1=BBT1128872.1.0,bus2=RML1060492351.1.0,Phases=1,Linecode=CABBTG02_4_1,Length=0.017000000,Units=km
new line.RML10494699 bus1=BBT1127346.1.2.0,bus2=RML1060494699.1.2.0,Phases=2,Linecode=CABBTG05_4_2,Length=0.007000000,Units=km
new line.RML10494709 bus1=BBT1129831.1.2.0,bus2=RML1060494709.1.2.0,Phases=2,Linecode=CABBTG05_4_2,Length=0.006000000,Units=km
new line.RML10496997 bus1=BBT1129845.1.2.0,bus2=RML1060496997.1.2.0,Phases=2,Linecode=CABBT811_4_2,Length=0.020000000,Units=km
new line.RML10498585 bus1=BBT1137419.2.3.0,bus2=RML1060498585.2.3.0,Phases=2,Linecode=CABBT811_4_2,Length=0.017000000,Units=km
new line.RML10502467 bus1=BBT1146421.1.0,bus2=RML1060502467.1.0,Phases=1,Linecode=CABBT816_4_1,Length=0.016000000,Units=km
new line.RML10505923 bus1=BBT1115334.1.2.0,bus2=RML1060505923.1.2.0,Phases=2,Linecode=CABBT811_4_2,Length=0.012000000,Units=km
new line.RML10508978 bus1=BBT2126400.3.0,bus2=RML1060508978.3.0,Phases=1,Linecode=CABBTG02_4_1,Length=0.017000000,Units=km
new line.RML10508979 bus1=BBT1126191.1.2.0,bus2=RML1060508979.1.2.0,Phases=2,Linecode=CABBTG05_4_2,Length=0.012000000,Units=km
new line.RML10523916 bus1=BBT1126807.1.2.0,bus2=RML1060523916.1.2.0,Phases=2,Linecode=CABBT811_4_2,Length=0.006000000,Units=km
new line.RML10528502 bus1=BBT1146323.1.2.0,bus2=RML1060528502.1.2.0,Phases=2,Linecode=CABBTG05_4_2,Length=0.016000000,Units=km
new line.RML10529015 bus1=BBT1128816.1.3.0,bus2=RML1060529015.1.3.0,Phases=2,Linecode=CABBTG05_4_2,Length=0.006000000,Units=km
new line.RML10531572 bus1=BBT1141570.1.2.3.0,bus2=RML1060531572.1.2.3.0,Phases=3,Linecode=CABBT815_4_3,Length=0.008000000,Units=km
new line.RML10535926 bus1=BBT1146344.1.2.0,bus2=RML1060535926.1.2.0,Phases=2,Linecode=CABBT811_4_2,Length=0.012000000,Units=km
new line.RML10536733 bus1=BBT1128865.1.2.3.0,bus2=RML1060536733.1.2.3.0,Phases=3,Linecode=CABBT815_4_3,Length=0.012000000,Units=km
new line.RML10540577 bus1=BBT1004881.1.2.0,bus2=RML1060540577.1.2.0,Phases=2,Linecode=CABBT811_4_2,Length=0.008000000,Units=km
new line.RML10556287 bus1=BBT1138805.1.0,bus2=RML1060556287.1.0,Phases=1,Linecode=CABBTG02_4_1,Length=0.012000000,Units=km
new line.RML10556617 bus1=BBT1135592.1.2.3.0,bus2=RML1060556617.1.2.3.0,Phases=3,Linecode=CABBT803_4_3,Length=0.012000000,Units=km
new line.RML10557293 bus1=BBT1132267.2.3.0,bus2=RML1060557293.2.3.0,Phases=2,Linecode=CABBTG05_4_2,Length=0.012000000,Units=km
new line.RML10560129 bus1=BBT1120857.2.3.0,bus2=RML1060560129.2.3.0,Phases=2,Linecode=CABBT811_4_2,Length=0.008000000,Units=km
new line.RML10571154 bus1=BBT1146414.1.2.0,bus2=RML1060571154.1.2.0,Phases=2,Linecode=CABBT811_4_2,Length=0.006000000,Units=km
new line.RML10576047 bus1=BBT1128837.1.0,bus2=RML1060576047.1.0,Phases=1,Linecode=CABBTG02_4_1,Length=0.012000000,Units=km
new line.RML10577793 bus1=BBT159301813.1.2.3.0,bus2=RML1060577793.1.2.3.0,Phases=3,Linecode=CABBT318_7_3,Length=0.018000000,Units=km
new line.RML10577848 bus1=BBT1185957.1.3.0,bus2=RML1060577848.1.3.0,Phases=2,Linecode=CABBT811_4_2,Length=0.010000000,Units=km
new line.RML10578444 bus1=BBT1010040.1.0,bus2=RML1060578444.1.0,Phases=1,Linecode=CABBTG02_4_1,Length=0.012000000,Units=km
new line.RML10579668 bus1=BBT1116909.2.3.0,bus2=RML1060579668.2.3.0,Phases=2,Linecode=CABBTG05_4_2,Length=0.012000000,Units=km
new line.RML10580562 bus1=BBT1190227.1.0,bus2=RML1060580562.1.0,Phases=1,Linecode=CABBT802_4_1,Length=0.016000000,Units=km
new line.RML10582167 bus1=BBT1141661.1.3.0,bus2=RML1060582167.1.3.0,Phases=2,Linecode=CABBT802_4_2,Length=0.014000000,Units=km
new line.RML10582444 bus1=BBT1144076.1.3.0,bus2=RML1060582444.1.3.0,Phases=2,Linecode=CABBTG05_4_2,Length=0.011000000,Units=km
new line.RML10587535 bus1=BBT1185957.1.2.0,bus2=RML1060587535.1.2.0,Phases=2,Linecode=CABBTG05_4_2,Length=0.006000000,Units=km
new line.RML10591764 bus1=BBT1185957.1.2.0,bus2=RML1060591764.1.2.0,Phases=2,Linecode=CABBTG05_4_2,Length=0.017000000,Units=km
new line.RML10591775 bus1=BBT1128214.1.2.0,bus2=RML1060591775.1.2.0,Phases=2,Linecode=CABBTG05_4_2,Length=0.012000000,Units=km
new line.RML10602638 bus1=BBT1009004.1.2.3.0,bus2=RML1060602638.1.2.3.0,Phases=3,Linecode=CABBT809_4_3,Length=0.014000000,Units=km
new line.RML10603584 bus1=BBT1011251.3.0,bus2=RML1060603584.3.0,Phases=1,Linecode=CABBTG02_4_1,Length=0.017000000,Units=km
new line.RML10603604 bus1=BBT1185957.1.2.0,bus2=RML1060603604.1.2.0,Phases=2,Linecode=CABBTG05_4_2,Length=0.006000000,Units=km
new line.RML10616845 bus1=BBT1144643.1.2.0,bus2=RML1060616845.1.2.0,Phases=2,Linecode=CABBTG05_4_2,Length=0.029000000,Units=km
new line.RML10621582 bus1=BBT1130909.1.2.0,bus2=RML1060621582.1.2.0,Phases=2,Linecode=CABBTG05_4_2,Length=0.017000000,Units=km
new line.RML10625940 bus1=BBT1175898.1.2.0,bus2=RML1060625940.1.2.0,Phases=2,Linecode=CABBTG05_4_2,Length=0.012000000,Units=km
new line.RML10631726 bus1=BBT1138133.1.2.3.0,bus2=RML1060631726.1.2.3.0,Phases=3,Linecode=CABBT813_4_3,Length=0.017000000,Units=km
new line.RML10633810 bus1=BBT1138098.1.2.0,bus2=RML1060633810.1.2.0,Phases=2,Linecode=CABBT811_4_2,Length=0.013000000,Units=km
new line.RML10637933 bus1=BBT1126268.2.3.0,bus2=RML1060637933.2.3.0,Phases=2,Linecode=CABBTG05_4_2,Length=0.016000000,Units=km
new line.RML10641685 bus1=BBT1137573.1.2.0,bus2=RML1060641685.1.2.0,Phases=2,Linecode=CABBTG05_4_2,Length=0.017000000,Units=km
new line.RML10642678 bus1=BBT1120899.2.3.0,bus2=RML1060642678.2.3.0,Phases=2,Linecode=CABBT811_4_2,Length=0.013000000,Units=km
new line.RML10667488 bus1=BBT1006890.3.0,bus2=RML1060667488.3.0,Phases=1,Linecode=CABBT802_4_1,Length=0.014000000,Units=km
new line.RML10667508 bus1=BBT1138350.1.3.0,bus2=RML1060667508.1.3.0,Phases=2,Linecode=CABBT811_4_2,Length=0.027000000,Units=km
new line.RML10674869 bus1=BBT1148185.1.3.0,bus2=RML1060674869.1.3.0,Phases=2,Linecode=CABBTG05_4_2,Length=0.017000000,Units=km
new line.RML10676620 bus1=BBT1130174.1.3.0,bus2=RML1060676620.1.3.0,Phases=2,Linecode=CABBT811_4_2,Length=0.021000000,Units=km
new line.RML10681416 bus1=BBT1139421.1.3.0,bus2=RML1060681416.1.3.0,Phases=2,Linecode=CABBTG05_4_2,Length=0.017000000,Units=km
new line.RML10708273 bus1=BBT1118568.2.3.0,bus2=RML1060708273.2.3.0,Phases=2,Linecode=CABBT811_4_2,Length=0.015000000,Units=km
new line.RML10709035 bus1=BBT1130923.1.2.0,bus2=RML1060709035.1.2.0,Phases=2,Linecode=CABBTG05_4_2,Length=0.017000000,Units=km
new line.RML10714826 bus1=BBT1175877.2.3.0,bus2=RML1060714826.2.3.0,Phases=2,Linecode=CABBTG05_4_2,Length=0.022000000,Units=km
new line.RML10715869 bus1=BBT1004139.1.2.3.0,bus2=RML1060715869.1.2.3.0,Phases=3,Linecode=CABBT809_4_3,Length=0.012000000,Units=km
new line.RML10722493 bus1=BBT1131567.1.2.3.0,bus2=RML1060722493.1.2.3.0,Phases=3,Linecode=CABBTG06_4_3,Length=0.019000000,Units=km
new line.RML10736678 bus1=BBT1145161.1.2.3.0,bus2=RML1060736678.1.2.3.0,Phases=3,Linecode=CABBT807_4_3,Length=0.015000000,Units=km
new line.RML10736705 bus1=BBT1144370.1.2.3.0,bus2=RML1060736705.1.2.3.0,Phases=3,Linecode=CABBTG07_4_3,Length=0.015000000,Units=km
new line.RML10736907 bus1=BBT1011230.1.2.3.0,bus2=RML1060736907.1.2.3.0,Phases=3,Linecode=CABBTG07_4_3,Length=0.015000000,Units=km
new line.RML10736960 bus1=BBT1140149.1.2.3.0,bus2=RML1060736960.1.2.3.0,Phases=3,Linecode=CABBTG07_4_3,Length=0.015000000,Units=km
new line.RML10737000 bus1=BBT1327875.1.2.3.0,bus2=RML1060737000.1.2.3.0,Phases=3,Linecode=CABBTG07_4_3,Length=0.015000000,Units=km
new line.RML10737203 bus1=BBT1175933.1.2.3.0,bus2=RML1060737203.1.2.3.0,Phases=3,Linecode=CABBTG07_4_3,Length=0.015000000,Units=km
new line.RML10737214 bus1=BBT1010061.1.2.3.0,bus2=RML1060737214.1.2.3.0,Phases=3,Linecode=CABBTG07_4_3,Length=0.015000000,Units=km
new line.RML10737288 bus1=BBT1131784.1.2.0,bus2=RML1060737288.1.2.0,Phases=2,Linecode=CABBTG05_4_2,Length=0.015000000,Units=km
new line.RML10737302 bus1=BBT1141563.1.3.0,bus2=RML1060737302.1.3.0,Phases=2,Linecode=CABBTG05_4_2,Length=0.015000000,Units=km
new line.RML10737305 bus1=BBT1008682.1.2.3.0,bus2=RML1060737305.1.2.3.0,Phases=3,Linecode=CABBTG07_4_3,Length=0.015000000,Units=km
new line.RML10737324 bus1=BBT1145518.1.2.3.0,bus2=RML1060737324.1.2.3.0,Phases=3,Linecode=CABBTG07_4_3,Length=0.015000000,Units=km
new line.RML10737347 bus1=BBT1141647.1.2.3.0,bus2=RML1060737347.1.2.3.0,Phases=3,Linecode=CABBTG07_4_3,Length=0.015000000,Units=km
new line.RML10737498 bus1=BBT1160225.2.0,bus2=RML1060737498.2.0,Phases=1,Linecode=CABBTG01_4_1,Length=0.015000000,Units=km
new line.RML10737536 bus1=BBT1130426.3.0,bus2=RML1060737536.3.0,Phases=1,Linecode=CABBTG01_4_1,Length=0.015000000,Units=km
new line.RML10737908 bus1=BBT1140499.1.2.3.0,bus2=RML1060737908.1.2.3.0,Phases=3,Linecode=CABBTG07_4_3,Length=0.015000000,Units=km
new line.RML10737929 bus1=BBT1140289.1.2.3.0,bus2=RML1060737929.1.2.3.0,Phases=3,Linecode=CABBTG07_4_3,Length=0.015000000,Units=km
new line.RML10737939 bus1=BBT1140317.3.0,bus2=RML1060737939.3.0,Phases=1,Linecode=CABBTG01_4_1,Length=0.015000000,Units=km
new line.RML10739783 bus1=BBT1132904.1.2.3.0,bus2=RML1060739783.1.2.3.0,Phases=3,Linecode=CABBTG07_4_3,Length=0.015000000,Units=km
new line.RML10740231 bus1=BBT1160211.1.0,bus2=RML1060740231.1.0,Phases=1,Linecode=CABBTG01_4_1,Length=0.015000000,Units=km
new line.RML10740519 bus1=BBT1138525.1.2.3.0,bus2=RML1060740519.1.2.3.0,Phases=3,Linecode=CABBTG07_4_3,Length=0.015000000,Units=km
new line.RML10741441 bus1=BBT1131784.1.2.3.0,bus2=RML1060741441.1.2.3.0,Phases=3,Linecode=CABBTG07_4_3,Length=0.015000000,Units=km
new line.RML10744163 bus1=BBT1129509.2.3.0,bus2=RML1060744163.2.3.0,Phases=2,Linecode=CABBTG05_4_2,Length=0.015000000,Units=km
new line.RML10748974 bus1=BBT1135627.1.2.3.0,bus2=RML1060748974.1.2.3.0,Phases=3,Linecode=CABBTG07_4_3,Length=0.015000000,Units=km
new line.RML10749644 bus1=BBT1137314.1.2.0,bus2=RML1060749644.1.2.0,Phases=2,Linecode=CABBTG05_4_2,Length=0.015000000,Units=km
new line.RML10749645 bus1=BBT1137314.1.2.0,bus2=RML1060749645.1.2.0,Phases=2,Linecode=CABBTG05_4_2,Length=0.015000000,Units=km
new line.RML10750118 bus1=BBT1010845.1.2.3.0,bus2=RML1060750118.1.2.3.0,Phases=3,Linecode=CABBTG07_4_3,Length=0.015000000,Units=km
new line.RML10758693 bus1=BBT1138105.1.2.3.0,bus2=RML1060758693.1.2.3.0,Phases=3,Linecode=CABBTG07_4_3,Length=0.017000000,Units=km
new line.RML10760974 bus1=BBT1137391.2.3.0,bus2=RML1060760974.2.3.0,Phases=2,Linecode=CABBTG05_4_2,Length=0.009000000,Units=km
new line.RML10765499 bus1=BBT1132456.3.0,bus2=RML1060765499.3.0,Phases=1,Linecode=CABBTG02_4_1,Length=0.006000000,Units=km
new line.RML10771721 bus1=BBT1146792.2.3.0,bus2=RML1060771721.2.3.0,Phases=2,Linecode=CABBTG05_4_2,Length=0.008000000,Units=km
new line.RML10778134 bus1=BBT1131763.1.2.0,bus2=RML1060778134.1.2.0,Phases=2,Linecode=CABBTG05_4_2,Length=0.012000000,Units=km
new line.RML10780076 bus1=BBT1134360.1.2.3.0,bus2=RML1060780076.1.2.3.0,Phases=3,Linecode=CABBT810_4_3,Length=0.016000000,Units=km
new line.RML10781771 bus1=BBT1139540.1.2.3.0,bus2=RML1060781771.1.2.3.0,Phases=3,Linecode=CABBT514_7_3,Length=0.030000000,Units=km
new line.RML10784031 bus1=BBT1190234.2.0,bus2=RML1060784031.2.0,Phases=1,Linecode=CABBTG02_4_1,Length=0.015000000,Units=km
new line.RML10786367 bus1=BBT1144083.2.3.0,bus2=RML1060786367.2.3.0,Phases=2,Linecode=CABBTG05_4_2,Length=0.017000000,Units=km
new line.RML10787572 bus1=BBT1141612.1.2.3.0,bus2=RML1060787572.1.2.3.0,Phases=3,Linecode=CABBTG12_4_3,Length=0.008000000,Units=km
new line.RML10805763 bus1=BBT2360844.2.3.0,bus2=RML1060805763.2.3.0,Phases=2,Linecode=CABBTG05_4_2,Length=0.010000000,Units=km
new line.RML10809051 bus1=BBT1190234.1.0,bus2=RML1060809051.1.0,Phases=1,Linecode=CABBTG02_4_1,Length=0.012000000,Units=km
new line.RML10809533 bus1=BBT1128858.1.2.0,bus2=RML1060809533.1.2.0,Phases=2,Linecode=CABBTG05_4_2,Length=0.010000000,Units=km
new line.RML10813637 bus1=BBT1118456.1.2.3.0,bus2=RML1060813637.1.2.3.0,Phases=3,Linecode=CABBT810_4_3,Length=0.008000000,Units=km
new line.RML10813657 bus1=BBT1116902.2.3.0,bus2=RML1060813657.2.3.0,Phases=2,Linecode=CABBTG05_4_2,Length=0.006000000,Units=km
new line.RML10813658 bus1=BBT1007247.1.0,bus2=RML1060813658.1.0,Phases=1,Linecode=CABBTG02_4_1,Length=0.006000000,Units=km
new line.RML10821486 bus1=BBT1115341.1.2.0,bus2=RML1060821486.1.2.0,Phases=2,Linecode=CABBT802_4_2,Length=0.023000000,Units=km
new line.RML10825060 bus1=BBT1369672.3.0,bus2=RML1060825060.3.0,Phases=1,Linecode=CABBTG02_4_1,Length=0.023000000,Units=km