new line.13366963 bus1=BBT3657874.1.2.3.0,bus2=BBT1128263.1.2.3.0,Phases=3,Linecode=BT108_BT107_7_3_1,Length=0.021379000,Units=km
new line.18123393 bus1=BBT107564984.1.2.3.0,bus2=BBT1141248.1.2.3.0,Phases=3,Linecode=BT803_BT803_4_3_4,Length=0.019926000,Units=km
new line.18742746 bus1=BBT1142977.1.2.0,bus2=BBT149758235.1.2.0,Phases=2,Linecode=BT808_BT808_4_2_3,Length=0.030678000,Units=km
new line.19386959 bus1=BBT1144405.1.2.0,bus2=BBT170045295.1.2.0,Phases=2,Linecode=BT808_BT808_4_2_3,Length=0.032065000,Units=km
new line.2875244 bus1=BBT1008367.1.2.3.0,bus2=BBT1008360.1.2.3.0,Phases=3,Linecode=BT803_BT803_4_3_4,Length=0.028463000,Units=km
new line.2875272 bus1=BBT1008374.1.2.3.0,bus2=BBT1008367.1.2.3.0,Phases=3,Linecode=BT803_BT803_4_3_4,Length=0.034542000,Units=km
new line.2875286 bus1=BBT1008388.1.2.3.0,bus2=BBT1008381.1.2.3.0,Phases=3,Linecode=BT803_BT803_4_3_4,Length=0.032575000,Units=km
new line.2875307 bus1=BBT1008395.1.2.3.0,bus2=BBT1008388.1.2.3.0,Phases=3,Linecode=BT803_BT803_4_3_4,Length=0.032282000,Units=km
new line.2875314 bus1=BBT1008353.1.2.3.0,bus2=BBT1008395.1.2.3.0,Phases=3,Linecode=BT518_BT518_7_3_1,Length=0.000501000,Units=km
new line.2875321 bus1=BBT1008395.1.2.3.0,bus2=BBT1008402.1.2.3.0,Phases=3,Linecode=BT803_BT803_4_3_4,Length=0.031323000,Units=km
new line.2875363 bus1=BBT1008402.1.2.3.0,bus2=BBT1008409.1.2.3.0,Phases=3,Linecode=BT803_BT803_4_3_4,Length=0.032575000,Units=km
new line.2875384 bus1=BBT1008409.1.2.3.0,bus2=BBT1008430.1.2.3.0,Phases=3,Linecode=BT803_BT803_4_3_4,Length=0.017466000,Units=km
new line.2875398 bus1=BBT1008416.1.2.3.0,bus2=BBT2110279.1.2.3.0,Phases=3,Linecode=BT108_BT107_7_3_1,Length=0.029413000,Units=km
new line.2875447 bus1=BBT2110279.1.2.3.0,bus2=BBT2110286.1.2.3.0,Phases=3,Linecode=BT108_BT107_7_3_1,Length=0.026251000,Units=km
new line.2875475 bus1=BBT1008465.1.2.3.0,bus2=BBT1008458.1.2.3.0,Phases=3,Linecode=BT108_BT107_7_3_1,Length=0.028655000,Units=km
new line.2875482 bus1=BBT1008465.1.2.3.0,bus2=BBT1008472.1.2.3.0,Phases=3,Linecode=BT108_BT107_7_3_1,Length=0.008063000,Units=km
new line.2875489 bus1=BBT1008451.1.2.3.0,bus2=BBT1008465.1.2.3.0,Phases=3,Linecode=BT513_BT513_7_3_1,Length=0.000501000,Units=km
new line.2875510 bus1=BBT1008479.1.2.3.0,bus2=BBT1008486.1.2.3.0,Phases=3,Linecode=BT108_BT107_7_3_1,Length=0.030596000,Units=km
new line.2876175 bus1=BBT1008696.1.2.3.0,bus2=BBT1008689.1.2.3.0,Phases=3,Linecode=BT107_BT106_7_3_1,Length=0.028180000,Units=km
new line.2876217 bus1=BBT1008703.1.2.3.0,bus2=BBT1008682.1.2.3.0,Phases=3,Linecode=BT108_BT107_7_3_1,Length=0.032282000,Units=km
new line.2876238 bus1=BBT1008710.1.2.3.0,bus2=BBT1008696.1.2.3.0,Phases=3,Linecode=BT107_BT106_7_3_1,Length=0.019418000,Units=km
new line.2876245 bus1=BBT1008710.1.2.3.0,bus2=BBT1008703.1.2.3.0,Phases=3,Linecode=BT108_BT107_7_3_1,Length=0.006325000,Units=km
new line.2876252 bus1=BBT1008710.1.2.3.0,bus2=BBT1008717.1.2.3.0,Phases=3,Linecode=BT107_BT106_7_3_1,Length=0.006709000,Units=km
new line.2876273 bus1=BBT1008717.1.2.3.0,bus2=BBT1008724.1.2.3.0,Phases=3,Linecode=BT107_BT106_7_3_1,Length=0.025062000,Units=km
new line.2876308 bus1=BBT1008731.1.2.3.0,bus2=BBT1008710.1.2.3.0,Phases=3,Linecode=BT108_BT107_7_3_1,Length=0.025712000,Units=km
new line.2876329 bus1=BBT1008738.1.2.3.0,bus2=BBT1008731.1.2.3.0,Phases=3,Linecode=BT108_BT107_7_3_1,Length=0.030085000,Units=km
new line.2876336 bus1=BBT1008745.1.2.3.0,bus2=BBT1008738.1.2.3.0,Phases=3,Linecode=BT108_BT107_7_3_1,Length=0.029123000,Units=km
new line.2876343 bus1=BBT1008675.1.2.3.0,bus2=BBT1008745.1.2.3.0,Phases=3,Linecode=BT313_BT313_7_3_1,Length=0.000501000,Units=km
new line.2876350 bus1=BBT1008745.1.2.3.0,bus2=BBT1008752.1.2.3.0,Phases=3,Linecode=BT108_BT107_7_3_1,Length=0.033244000,Units=km
new line.2876378 bus1=BBT1008752.1.2.3.0,bus2=BBT1008759.1.2.3.0,Phases=3,Linecode=BT108_BT107_7_3_1,Length=0.030085000,Units=km
new line.2876399 bus1=BBT1008759.1.2.3.0,bus2=BBT1008766.1.2.3.0,Phases=3,Linecode=BT108_BT107_7_3_1,Length=0.026928000,Units=km
new line.2876945 bus1=BBT1008962.1.2.3.0,bus2=BBT1008955.1.2.3.0,Phases=3,Linecode=BT107_BT106_7_3_1,Length=0.036690000,Units=km
new line.2876966 bus1=BBT1008976.1.2.3.0,bus2=BBT1008962.1.2.3.0,Phases=3,Linecode=BT810_BT810_4_3_4,Length=0.028794000,Units=km
new line.2876973 bus1=BBT1008976.1.2.3.0,bus2=BBT1008983.1.2.3.0,Phases=3,Linecode=BT803_BT803_4_3_4,Length=0.008945000,Units=km
new line.2876980 bus1=BBT1008976.1.2.3.0,bus2=BBT1008990.1.2.3.0,Phases=3,Linecode=BT810_BT810_4_3_4,Length=0.004473000,Units=km
new line.2877029 bus1=BBT1008990.1.2.3.0,bus2=BBT1009018.1.2.3.0,Phases=3,Linecode=BT810_BT810_4_3_4,Length=0.028162000,Units=km
new line.2877064 bus1=BBT1009004.1.2.3.0,bus2=BBT1008976.1.2.3.0,Phases=3,Linecode=BT803_BT803_4_3_4,Length=0.024599000,Units=km
new line.2877085 bus1=BBT1009011.1.2.3.0,bus2=BBT1009004.1.2.3.0,Phases=3,Linecode=BT805_BT805_4_3_4,Length=0.034484000,Units=km
new line.2877106 bus1=BBT1009018.1.2.3.0,bus2=BBT1009046.1.2.3.0,Phases=3,Linecode=BT107_BT106_7_3_1,Length=0.029123000,Units=km
new line.2877113 bus1=BBT1009025.1.2.3.0,bus2=BBT1009011.1.2.3.0,Phases=3,Linecode=BT805_BT805_4_3_4,Length=0.032575000,Units=km
new line.2877120 bus1=BBT1008948.1.2.3.0,bus2=BBT1009025.1.2.3.0,Phases=3,Linecode=BT513_BT513_7_3_1,Length=0.000501000,Units=km
new line.2877127 bus1=BBT1009025.1.2.3.0,bus2=BBT1009032.1.2.3.0,Phases=3,Linecode=BT805_BT805_4_3_4,Length=0.026573000,Units=km
new line.2877148 bus1=BBT1009032.1.2.3.0,bus2=BBT1008997.1.2.3.0,Phases=3,Linecode=BT809_BT809_4_3_4,Length=0.037164000,Units=km
new line.2877155 bus1=BBT1009032.1.2.3.0,bus2=BBT1009039.1.2.3.0,Phases=3,Linecode=BT805_BT805_4_3_4,Length=0.033737000,Units=km
new line.2877162 bus1=BBT1009032.1.2.0,bus2=BBT2258861.1.2.0,Phases=2,Linecode=BT302_BT302_5_2_1,Length=0.011046000,Units=km
new line.2877176 bus1=BBT1009039.1.2.3.0,bus2=BBT1009053.1.2.3.0,Phases=3,Linecode=BT108_BT107_7_3_1,Length=0.031625000,Units=km
new line.2877225 bus1=BBT1009053.1.2.3.0,bus2=BBT1009060.1.2.3.0,Phases=3,Linecode=BT108_BT107_7_3_1,Length=0.030367000,Units=km
new line.2877260 bus1=BBT1009060.1.2.3.0,bus2=BBT1009067.1.2.3.0,Phases=3,Linecode=BT108_BT107_7_3_1,Length=0.031625000,Units=km
new line.2877288 bus1=BBT1144587.1.2.3.0,bus2=BBT3943040.1.2.3.0,Phases=3,Linecode=BT108_BT108_7_3_1,Length=0.011706000,Units=km
new line.2877330 bus1=BBT1009067.1.2.3.0,bus2=BBT1009074.1.2.3.0,Phases=3,Linecode=BT108_BT107_7_3_1,Length=0.032575000,Units=km
new line.2877351 bus1=BBT1009074.1.2.3.0,bus2=BBT1009081.1.2.3.0,Phases=3,Linecode=BT108_BT107_7_3_1,Length=0.029413000,Units=km
new line.2879108 bus1=BBT1011244.1.2.3.0,bus2=BBT1011237.1.2.3.0,Phases=3,Linecode=BT107_BT106_7_3_1,Length=0.028638000,Units=km
new line.2880011 bus1=BBT1009956.1.2.3.0,bus2=BBT1009949.1.2.3.0,Phases=3,Linecode=BT803_BT803_4_3_4,Length=0.030367000,Units=km
new line.2880039 bus1=BBT1009963.1.2.3.0,bus2=BBT1009956.1.2.3.0,Phases=3,Linecode=BT803_BT803_4_3_4,Length=0.030367000,Units=km
new line.2880067 bus1=BBT1009970.1.2.3.0,bus2=BBT1009963.1.2.3.0,Phases=3,Linecode=BT803_BT803_4_3_4,Length=0.031625000,Units=km
new line.2880074 bus1=BBT1009970.1.2.3.0,bus2=BBT1009977.1.2.3.0,Phases=3,Linecode=BT803_BT803_4_3_4,Length=0.005386000,Units=km
new line.2880081 bus1=BBT1009970.1.2.3.0,bus2=BBT1010026.1.2.3.0,Phases=3,Linecode=BT803_BT803_4_3_4,Length=0.032575000,Units=km
new line.2880116 bus1=BBT1009977.1.2.3.0,bus2=BBT1009991.1.2.3.0,Phases=3,Linecode=BT803_BT803_4_3_4,Length=0.023411000,Units=km
new line.17865751 bus1=BBT98236651.1.2.3.0,bus2=BBT1131728.1.2.3.0,Phases=3,Linecode=BT513_BT513_7_3_1,Length=0.000501000,Units=km
new line.19100182 bus1=BBT160648154.1.2.3.0,bus2=BBT1130307.1.2.3.0,Phases=3,Linecode=BT108_BT107_7_3_1,Length=0.013603000,Units=km
new line.2862903 bus1=BBT1011314.1.2.3.0,bus2=BBT1011293.1.2.3.0,Phases=3,Linecode=BT107_BT107_7_3_1,Length=0.030085000,Units=km
new line.2863561 bus1=BBT1004874.1.2.3.0,bus2=BBT1004867.1.2.3.0,Phases=3,Linecode=BT108_BT107_7_3_1,Length=0.010441000,Units=km
new line.2863575 bus1=BBT1004881.1.2.3.0,bus2=BBT1004874.1.2.3.0,Phases=3,Linecode=BT108_BT107_7_3_1,Length=0.026002000,Units=km
new line.2863603 bus1=BBT1004895.1.2.3.0,bus2=BBT1004888.1.2.3.0,Phases=3,Linecode=BT108_BT107_7_3_1,Length=0.032698000,Units=km
new line.2863610 bus1=BBT1004860.1.2.3.0,bus2=BBT1004895.1.2.3.0,Phases=3,Linecode=BT513_BT513_7_3_1,Length=0.000501000,Units=km
new line.2863617 bus1=BBT1004895.1.2.3.0,bus2=BBT1004909.1.2.3.0,Phases=3,Linecode=BT108_BT107_7_3_1,Length=0.037164000,Units=km
new line.2863680 bus1=BBT1004909.1.2.3.0,bus2=BBT1004916.1.2.3.0,Phases=3,Linecode=BT108_BT107_7_3_1,Length=0.026403000,Units=km
new line.2863715 bus1=BBT1004916.1.2.3.0,bus2=BBT1004902.1.2.3.0,Phases=3,Linecode=BT108_BT107_7_3_1,Length=0.026928000,Units=km
new line.2863722 bus1=BBT1004916.1.2.3.0,bus2=BBT1004923.1.2.3.0,Phases=3,Linecode=BT108_BT107_7_3_1,Length=0.009488000,Units=km
new line.2863729 bus1=BBT1004916.1.2.3.0,bus2=BBT1004930.1.2.3.0,Phases=3,Linecode=BT108_BT107_7_3_1,Length=0.006325000,Units=km
new line.2863778 bus1=BBT1004930.1.2.3.0,bus2=BBT1004937.1.2.3.0,Phases=3,Linecode=BT108_BT107_7_3_1,Length=0.030085000,Units=km
new line.2863813 bus1=BBT1004937.1.2.3.0,bus2=BBT1004951.1.2.3.0,Phases=3,Linecode=BT108_BT107_7_3_1,Length=0.041234000,Units=km
new line.2863848 bus1=BBT1004951.1.2.3.0,bus2=BBT1004944.1.2.3.0,Phases=3,Linecode=BT106_BT106_7_3_1,Length=0.038330000,Units=km
new line.2864289 bus1=BBT1011321.1.2.3.0,bus2=BBT1011328.1.2.3.0,Phases=3,Linecode=BT108_BT107_7_3_1,Length=0.023347000,Units=km
new line.2868097 bus1=BBT1006211.1.2.3.0,bus2=BBT1006204.1.2.3.0,Phases=3,Linecode=BT108_BT107_7_3_1,Length=0.030416000,Units=km
new line.2868132 bus1=BBT1006218.1.2.3.0,bus2=BBT1006211.1.2.3.0,Phases=3,Linecode=BT108_BT107_7_3_1,Length=0.033543000,Units=km
new line.2868167 bus1=BBT1006232.1.2.3.0,bus2=BBT1006218.1.2.3.0,Phases=3,Linecode=BT108_BT107_7_3_1,Length=0.034528000,Units=km
new line.2868188 bus1=BBT1006239.1.2.3.0,bus2=BBT1006225.1.2.3.0,Phases=3,Linecode=BT108_BT107_7_3_1,Length=0.029532000,Units=km
new line.2868209 bus1=BBT1006246.1.2.3.0,bus2=BBT1006239.1.2.3.0,Phases=3,Linecode=BT108_BT107_7_3_1,Length=0.027297000,Units=km
new line.2868230 bus1=BBT1006253.1.2.3.0,bus2=BBT1006232.1.2.3.0,Phases=3,Linecode=BT108_BT107_7_3_1,Length=0.029430000,Units=km
new line.2868237 bus1=BBT1006197.1.2.3.0,bus2=BBT1006253.1.2.3.0,Phases=3,Linecode=BT513_BT513_7_3_1,Length=0.000501000,Units=km
new line.2868244 bus1=BBT1006253.1.2.3.0,bus2=BBT1006260.1.2.3.0,Phases=3,Linecode=BT108_BT107_7_3_1,Length=0.007072000,Units=km
new line.2868279 bus1=BBT1006260.1.2.3.0,bus2=BBT1006246.1.2.3.0,Phases=3,Linecode=BT108_BT107_7_3_1,Length=0.024700000,Units=km
new line.2868286 bus1=BBT1006260.1.2.3.0,bus2=BBT1006267.1.2.3.0,Phases=3,Linecode=BT108_BT107_7_3_1,Length=0.008603000,Units=km
new line.2868293 bus1=BBT1006260.1.2.3.0,bus2=BBT1006281.1.2.3.0,Phases=3,Linecode=BT108_BT107_7_3_1,Length=0.027461000,Units=km
new line.2868342 bus1=BBT1006267.1.2.3.0,bus2=BBT1006274.1.2.3.0,Phases=3,Linecode=BT108_BT107_7_3_1,Length=0.025062000,Units=km
new line.2868370 bus1=BBT1006281.1.2.3.0,bus2=BBT1006288.1.2.3.0,Phases=3,Linecode=BT108_BT107_7_3_1,Length=0.028445000,Units=km
new line.2868391 bus1=BBT1006288.1.2.3.0,bus2=BBT1006295.1.2.3.0,Phases=3,Linecode=BT108_BT107_7_3_1,Length=0.031403000,Units=km
new line.2868482 bus1=BBT1006316.1.2.3.0,bus2=BBT1006309.1.2.3.0,Phases=3,Linecode=BT108_BT107_7_3_1,Length=0.035696000,Units=km
new line.2868489 bus1=BBT1006302.1.2.3.0,bus2=BBT1006316.1.2.3.0,Phases=3,Linecode=BT513_BT513_7_3_1,Length=0.000501000,Units=km
new line.2868496 bus1=BBT1006316.1.2.3.0,bus2=BBT1006323.1.2.3.0,Phases=3,Linecode=BT108_BT107_7_3_1,Length=0.032759000,Units=km
new line.2868517 bus1=BBT1006323.1.2.3.0,bus2=BBT1006330.1.2.3.0,Phases=3,Linecode=BT108_BT107_7_3_1,Length=0.008247000,Units=km
new line.2868552 bus1=BBT1006330.1.2.3.0,bus2=BBT1006337.1.2.3.0,Phases=3,Linecode=BT108_BT107_7_3_1,Length=0.027787000,Units=km
new line.2868559 bus1=BBT1008472.1.2.3.0,bus2=BBT1008479.1.2.3.0,Phases=3,Linecode=BT108_BT107_7_3_1,Length=0.027661000,Units=km
new line.2868587 bus1=BBT1006337.1.2.3.0,bus2=BBT1006344.1.2.3.0,Phases=3,Linecode=BT108_BT107_7_3_1,Length=0.036362000,Units=km
new line.2868629 bus1=BBT1006344.1.2.3.0,bus2=BBT1006351.1.2.3.0,Phases=3,Linecode=BT108_BT107_7_3_1,Length=0.024189000,Units=km
new line.2870267 bus1=BBT1006827.1.2.3.0,bus2=BBT1006820.1.2.3.0,Phases=3,Linecode=BT803_BT803_4_3_4,Length=0.029413000,Units=km
new line.2870316 bus1=BBT1006834.1.2.3.0,bus2=BBT1006827.1.2.3.0,Phases=3,Linecode=BT803_BT803_4_3_4,Length=0.030085000,Units=km
new line.2870344 bus1=BBT1006841.1.2.3.0,bus2=BBT1006834.1.2.3.0,Phases=3,Linecode=BT803_BT803_4_3_4,Length=0.034787000,Units=km
new line.2870372 bus1=BBT1006848.1.2.3.0,bus2=BBT1006841.1.2.3.0,Phases=3,Linecode=BT803_BT803_4_3_4,Length=0.031625000,Units=km
new line.2870393 bus1=BBT1006855.1.2.3.0,bus2=BBT1006848.1.2.3.0,Phases=3,Linecode=BT803_BT803_4_3_4,Length=0.035443000,Units=km
new line.2870400 bus1=BBT1006813.1.2.3.0,bus2=BBT1006855.1.2.3.0,Phases=3,Linecode=BT309_BT309_7_3_1,Length=0.000501000,Units=km
new line.2870407 bus1=BBT1006855.1.2.3.0,bus2=BBT1006862.1.2.3.0,Phases=3,Linecode=BT803_BT803_4_3_4,Length=0.030367000,Units=km
new line.2870442 bus1=BBT1006862.1.2.3.0,bus2=BBT1006876.1.2.3.0,Phases=3,Linecode=BT803_BT803_4_3_4,Length=0.030678000,Units=km
new line.2870463 bus1=BBT1006869.1.2.3.0,bus2=BBT1006890.1.2.3.0,Phases=3,Linecode=BT108_BT107_7_3_1,Length=0.022138000,Units=km
new line.2870505 bus1=BBT1006876.1.2.3.0,bus2=BBT1006897.1.2.3.0,Phases=3,Linecode=BT803_BT803_4_3_4,Length=0.009850000,Units=km
new line.2870547 bus1=BBT1008430.1.2.3.0,bus2=BBT1008416.1.2.3.0,Phases=3,Linecode=BT108_BT107_7_3_1,Length=0.011181000,Units=km
new line.2870554 bus1=BBT1008430.1.2.3.0,bus2=BBT1008423.1.2.3.0,Phases=3,Linecode=BT803_BT803_4_3_4,Length=0.013343000,Units=km
new line.2870596 bus1=BBT1006897.1.2.3.0,bus2=BBT1006869.1.2.3.0,Phases=3,Linecode=BT108_BT107_7_3_1,Length=0.010199000,Units=km
new line.2870603 bus1=BBT1006897.1.2.3.0,bus2=BBT1006883.1.2.3.0,Phases=3,Linecode=BT803_BT803_4_3_4,Length=0.019648000,Units=km
new line.2870610 bus1=BBT1006897.1.2.3.0,bus2=BBT2270005.1.2.3.0,Phases=3,Linecode=BT108_BT107_7_3_1,Length=0.020617000,Units=km
new line.2870645 bus1=BBT1006904.1.2.3.0,bus2=BBT1006911.1.2.3.0,Phases=3,Linecode=BT513_BT513_7_3_1,Length=0.000501000,Units=km
new line.2870652 bus1=BBT1008381.1.2.3.0,bus2=BBT1008374.1.2.3.0,Phases=3,Linecode=BT803_BT803_4_3_4,Length=0.031323000,Units=km
new line.2870820 bus1=BBT2060873.1.2.3.0,bus2=BBT128437738.1.2.3.0,Phases=3,Linecode=BT803_BT803_4_3_4,Length=0.017722000,Units=km
new line.2871569 bus1=BBT1146778.1.2.3.0,bus2=BBT1146792.1.2.3.0,Phases=3,Linecode=BT803_BT803_4_3_4,Length=0.037339000,Units=km
new line.2871583 bus1=BBT1007184.1.2.3.0,bus2=BBT1007177.1.2.3.0,Phases=3,Linecode=BT106_BT106_7_3_1,Length=0.008545000,Units=km
new line.2880137 bus1=BBT1009984.1.2.3.0,bus2=BBT1009970.1.2.3.0,Phases=3,Linecode=BT803_BT803_4_3_4,Length=0.006325000,Units=km
new line.2880144 bus1=BBT1009942.1.2.3.0,bus2=BBT1009984.1.2.3.0,Phases=3,Linecode=BT513_BT513_7_3_1,Length=0.000501000,Units=km
new line.2880151 bus1=BBT1009984.1.2.3.0,bus2=BBT1010005.1.2.3.0,Phases=3,Linecode=BT803_BT803_4_3_4,Length=0.025634000,Units=km
new line.2880193 bus1=BBT1009991.1.2.3.0,bus2=BBT1009998.1.2.3.0,Phases=3,Linecode=BT803_BT803_4_3_4,Length=0.036238000,Units=km
new line.2880214 bus1=BBT1010005.1.2.3.0,bus2=BBT1010012.1.2.3.0,Phases=3,Linecode=BT803_BT803_4_3_4,Length=0.037003000,Units=km
new line.2880242 bus1=BBT1010012.1.2.3.0,bus2=BBT1010019.1.2.3.0,Phases=3,Linecode=BT803_BT803_4_3_4,Length=0.034787000,Units=km
new line.2880291 bus1=BBT1010047.1.2.3.0,bus2=BBT1010040.1.2.3.0,Phases=3,Linecode=BT108_BT107_7_3_1,Length=0.041764000,Units=km
new line.2880312 bus1=BBT1010054.1.2.3.0,bus2=BBT1010047.1.2.3.0,Phases=3,Linecode=BT108_BT107_7_3_1,Length=0.031625000,Units=km
new line.2880319 bus1=BBT1010033.1.2.3.0,bus2=BBT1010054.1.2.3.0,Phases=3,Linecode=BT307_BT307_7_3_1,Length=0.000501000,Units=km
new line.2880326 bus1=BBT1010054.1.2.3.0,bus2=BBT1010061.1.2.3.0,Phases=3,Linecode=BT108_BT107_7_3_1,Length=0.031625000,Units=km
new line.2880361 bus1=BBT1010061.1.2.3.0,bus2=BBT1010068.1.2.3.0,Phases=3,Linecode=BT108_BT107_7_3_1,Length=0.032018000,Units=km
new line.2880396 bus1=BBT1010068.2.3.0,bus2=BBT1010075.2.3.0,Phases=2,Linecode=BT106_BT106_7_2_1,Length=0.040165000,Units=km
new line.2880410 bus1=BBT1010075.2.3.0,bus2=BBT1010089.2.3.0,Phases=2,Linecode=BT106_BT106_7_2_1,Length=0.030678000,Units=km
new line.2880438 bus1=BBT1010089.2.3.0,bus2=BBT1010082.2.3.0,Phases=2,Linecode=BT106_BT106_7_2_1,Length=0.030085000,Units=km
new line.2882580 bus1=BBT1010740.1.2.3.0,bus2=BBT1010726.1.2.3.0,Phases=3,Linecode=BT107_BT106_7_3_1,Length=0.034208000,Units=km
new line.2882601 bus1=BBT1010747.1.2.3.0,bus2=BBT1010733.1.2.3.0,Phases=3,Linecode=BT108_BT107_7_3_1,Length=0.025062000,Units=km
new line.2882622 bus1=BBT1010761.1.2.3.0,bus2=BBT1010747.1.2.3.0,Phases=3,Linecode=BT108_BT107_7_3_1,Length=0.028655000,Units=km
new line.2882643 bus1=BBT1010768.1.2.3.0,bus2=BBT1010754.1.2.3.0,Phases=3,Linecode=BT108_BT107_7_3_1,Length=0.035443000,Units=km
new line.2882650 bus1=BBT1010768.1.2.3.0,bus2=BBT1010740.1.2.3.0,Phases=3,Linecode=BT107_BT106_7_3_1,Length=0.030085000,Units=km
new line.2882657 bus1=BBT1010768.1.2.3.0,bus2=BBT1010782.1.2.3.0,Phases=3,Linecode=BT107_BT106_7_3_1,Length=0.005100000,Units=km
new line.2882692 bus1=BBT1010775.1.2.3.0,bus2=BBT1010768.1.2.3.0,Phases=3,Linecode=BT108_BT107_7_3_1,Length=0.006325000,Units=km
new line.2882713 bus1=BBT1010782.1.2.3.0,bus2=BBT1010831.1.2.3.0,Phases=3,Linecode=BT107_BT106_7_3_1,Length=0.033958000,Units=km
new line.2882734 bus1=BBT1010789.1.2.3.0,bus2=BBT1010803.1.2.3.0,Phases=3,Linecode=BT108_BT107_7_3_1,Length=0.017890000,Units=km
new line.2882755 bus1=BBT1010796.1.2.3.0,bus2=BBT1010775.1.2.3.0,Phases=3,Linecode=BT108_BT107_7_3_1,Length=0.031403000,Units=km
new line.2882769 bus1=BBT1010803.1.2.3.0,bus2=BBT1010852.1.2.3.0,Phases=3,Linecode=BT107_BT107_7_3_1,Length=0.008545000,Units=km
new line.2882776 bus1=BBT1010803.1.2.3.0,bus2=BBT1010761.1.2.3.0,Phases=3,Linecode=BT108_BT107_7_3_1,Length=0.007212000,Units=km
new line.2882783 bus1=BBT1010803.1.2.3.0,bus2=BBT1010824.1.2.3.0,Phases=3,Linecode=BT107_BT107_7_3_1,Length=0.029969000,Units=km
new line.2882818 bus1=BBT1010810.1.2.3.0,bus2=BBT1010796.1.2.3.0,Phases=3,Linecode=BT803_BT803_4_3_4,Length=0.033737000,Units=km
new line.2882825 bus1=BBT1010719.1.2.3.0,bus2=BBT1010810.1.2.3.0,Phases=3,Linecode=BT513_BT513_7_3_1,Length=0.000501000,Units=km
new line.2882832 bus1=BBT1010810.1.2.3.0,bus2=BBT1010817.1.2.3.0,Phases=3,Linecode=BT803_BT803_4_3_4,Length=0.032560000,Units=km
new line.2882867 bus1=BBT1010817.1.2.3.0,bus2=BBT1010789.1.2.3.0,Phases=3,Linecode=BT108_BT107_7_3_1,Length=0.026422000,Units=km
new line.2882909 bus1=BBT1010824.1.2.3.0,bus2=BBT1010838.1.2.3.0,Phases=3,Linecode=BT107_BT107_7_3_1,Length=0.027733000,Units=km
new line.2882930 bus1=BBT1010838.1.2.3.0,bus2=BBT1010845.1.2.3.0,Phases=3,Linecode=BT107_BT107_7_3_1,Length=0.032205000,Units=km
new line.2883973 bus1=BBT1011209.1.2.3.0,bus2=BBT1011202.1.2.3.0,Phases=3,Linecode=BT107_BT107_7_3_1,Length=0.029835000,Units=km
new line.2883994 bus1=BBT1011216.1.2.3.0,bus2=BBT1011223.1.2.3.0,Phases=3,Linecode=BT107_BT106_7_3_1,Length=0.004001000,Units=km
new line.2884001 bus1=BBT1011216.1.2.3.0,bus2=BBT1011209.1.2.3.0,Phases=3,Linecode=BT107_BT107_7_3_1,Length=0.004124000,Units=km
new line.2884008 bus1=BBT1011216.1.2.3.0,bus2=BBT2318109.1.2.3.0,Phases=3,Linecode=BT107_BT107_7_3_1,Length=0.025300000,Units=km
new line.2884029 bus1=BBT1011230.1.2.3.0,bus2=BBT1011216.1.2.3.0,Phases=3,Linecode=BT107_BT106_7_3_1,Length=0.024740000,Units=km
new line.2884071 bus1=BBT1011237.1.2.3.0,bus2=BBT1011230.1.2.3.0,Phases=3,Linecode=BT107_BT106_7_3_1,Length=0.030808000,Units=km
new line.2884106 bus1=BBT1011258.1.2.3.0,bus2=BBT1011244.1.2.3.0,Phases=3,Linecode=BT108_BT108_7_3_1,Length=0.024209000,Units=km
new line.2884141 bus1=BBT1011265.1.2.3.0,bus2=BBT1011251.1.2.3.0,Phases=3,Linecode=BT107_BT107_7_3_1,Length=0.026685000,Units=km
new line.2884183 bus1=BBT1011272.1.2.3.0,bus2=BBT1011258.1.2.3.0,Phases=3,Linecode=BT108_BT108_7_3_1,Length=0.028427000,Units=km
new line.2884190 bus1=BBT1011195.1.2.3.0,bus2=BBT1011272.1.2.3.0,Phases=3,Linecode=BT307_BT307_7_3_1,Length=0.000501000,Units=km
new line.2884197 bus1=BBT1011272.1.2.3.0,bus2=BBT1011279.1.2.3.0,Phases=3,Linecode=BT108_BT108_7_3_1,Length=0.028427000,Units=km
new line.2884225 bus1=BBT1011279.1.2.3.0,bus2=BBT1011286.1.2.3.0,Phases=3,Linecode=BT108_BT107_7_3_1,Length=0.006001000,Units=km
new line.2884232 bus1=BBT1011279.1.2.3.0,bus2=BBT1011300.1.2.3.0,Phases=3,Linecode=BT108_BT108_7_3_1,Length=0.031403000,Units=km
new line.2884239 bus1=BBT1011279.2.3.0,bus2=BBT2318158.2.3.0,Phases=2,Linecode=BT302_BT302_5_2_1,Length=0.017890000,Units=km
new line.2884260 bus1=BBT1011286.1.2.3.0,bus2=BBT1011307.1.2.3.0,Phases=3,Linecode=BT108_BT107_7_3_1,Length=0.031115000,Units=km
new line.2884274 bus1=BBT1011293.1.2.3.0,bus2=BBT1011265.1.2.3.0,Phases=3,Linecode=BT107_BT107_7_3_1,Length=0.027661000,Units=km
new line.2884309 bus1=BBT1011300.1.2.3.0,bus2=BBT1011314.1.2.3.0,Phases=3,Linecode=BT108_BT108_7_3_1,Length=0.027805000,Units=km
new line.2884330 bus1=BBT1011307.1.2.3.0,bus2=BBT1011321.1.2.3.0,Phases=3,Linecode=BT108_BT107_7_3_1,Length=0.027588000,Units=km
new line.2884358 bus1=BBT1163403.1.2.3.0,bus2=BBT1011335.1.2.3.0,Phases=3,Linecode=BT106_BT106_7_3_1,Length=0.039601000,Units=km
new line.3174011 bus1=BBT1121501.1.2.3.0,bus2=BBT1121522.1.2.3.0,Phases=3,Linecode=BT107_BT106_7_3_1,Length=0.036717000,Units=km
new line.3174018 bus1=BBT1121501.1.2.3.0,bus2=BBT1116783.1.2.3.0,Phases=3,Linecode=BT107_BT106_7_3_1,Length=0.032560000,Units=km
new line.3175607 bus1=BBT1118428.1.2.3.0,bus2=BBT1118421.1.2.3.0,Phases=3,Linecode=BT803_BT803_4_3_4,Length=0.029734000,Units=km
new line.3175628 bus1=BBT1118435.1.2.3.0,bus2=BBT1118428.1.2.3.0,Phases=3,Linecode=BT803_BT803_4_3_4,Length=0.007811000,Units=km
new line.3175642 bus1=BBT1118449.1.2.3.0,bus2=BBT1118435.1.2.3.0,Phases=3,Linecode=BT803_BT803_4_3_4,Length=0.025497000,Units=km
new line.3175705 bus1=BBT1118463.1.2.3.0,bus2=BBT1118449.1.2.3.0,Phases=3,Linecode=BT803_BT803_4_3_4,Length=0.025712000,Units=km
new line.16613570 bus1=BBT31805874.1.2.3.0,bus2=BBT1130447.1.2.3.0,Phases=3,Linecode=BT803_BT803_4_3_4,Length=0.010297000,Units=km
new line.16613577 bus1=BBT31805874.1.2.3.0,bus2=BBT1130454.1.2.3.0,Phases=3,Linecode=BT803_BT803_4_3_4,Length=0.028233000,Units=km
new line.16613584 bus1=BBT31805874.1.2.3.0,bus2=BBT31805881.1.2.3.0,Phases=3,Linecode=BT803_BT803_4_3_4,Length=0.009221000,Units=km
new line.17394014 bus1=BBT1132379.1.2.3.0,bus2=BBT64526191.1.2.3.0,Phases=3,Linecode=BT803_BT803_4_3_4,Length=0.034208000,Units=km
new line.18298421 bus1=BBT117919244.1.2.3.0,bus2=BBT1141990.1.2.3.0,Phases=3,Linecode=BT108_BT107_7_3_1,Length=0.013930000,Units=km
new line.19093932 bus1=BBT160304452.1.2.3.0,bus2=BBT1132015.1.2.3.0,Phases=3,Linecode=BT513_BT513_7_3_1,Length=0.000501000,Units=km
new line.19204669 bus1=BBT1144503.1.2.3.0,bus2=BBT164649947.1.2.3.0,Phases=3,Linecode=BT803_BT803_4_3_4,Length=0.010297000,Units=km
new line.19204689 bus1=BBT164650777.1.2.3.0,bus2=BBT164650778.1.2.3.0,Phases=3,Linecode=BT514_BT514_7_3_1,Length=0.000501000,Units=km
new line.19204691 bus1=BBT164649947.1.2.3.0,bus2=BBT164650872.1.2.3.0,Phases=3,Linecode=BT803_BT803_4_3_4,Length=0.017722000,Units=km
new line.19204696 bus1=BBT164649947.1.2.3.0,bus2=BBT164651018.1.2.3.0,Phases=3,Linecode=BT803_BT803_4_3_4,Length=0.005386000,Units=km
new line.19204715 bus1=BBT164650872.1.2.3.0,bus2=BBT164651762.1.2.3.0,Phases=3,Linecode=BT803_BT803_4_3_4,Length=0.031625000,Units=km
new line.3213071 bus1=BBT1130643.1.2.3.0,bus2=BBT1130650.1.2.3.0,Phases=3,Linecode=BT108_BT107_7_3_1,Length=0.034134000,Units=km
new line.3213092 bus1=BBT1130650.1.2.3.0,bus2=BBT1130664.1.2.3.0,Phases=3,Linecode=BT108_BT107_7_3_1,Length=0.034134000,Units=km
new line.3213141 bus1=BBT1130664.1.2.3.0,bus2=BBT1130671.1.2.3.0,Phases=3,Linecode=BT107_BT107_7_3_1,Length=0.023326000,Units=km
new line.3213148 bus1=BBT1130671.1.2.3.0,bus2=BBT1130657.1.2.3.0,Phases=3,Linecode=BT106_BT106_7_3_1,Length=0.023708000,Units=km
new line.3213155 bus1=BBT1130671.1.2.3.0,bus2=BBT1130678.1.2.3.0,Phases=3,Linecode=BT106_BT106_7_3_1,Length=0.008486000,Units=km
new line.3213162 bus1=BBT1130671.1.2.3.0,bus2=BBT1130685.1.2.3.0,Phases=3,Linecode=BT107_BT107_7_3_1,Length=0.017206000,Units=km
new line.3213190 bus1=BBT1130685.1.2.3.0,bus2=BBT1130692.1.2.3.0,Phases=3,Linecode=BT107_BT107_7_3_1,Length=0.032759000,Units=km
new line.3213211 bus1=BBT1130692.1.2.3.0,bus2=BBT1130699.1.2.3.0,Phases=3,Linecode=BT107_BT107_7_3_1,Length=0.022474000,Units=km
new line.3213225 bus1=BBT1130699.1.2.3.0,bus2=BBT1130706.1.2.3.0,Phases=3,Linecode=BT107_BT107_7_3_1,Length=0.026928000,Units=km
new line.3213736 bus1=BBT1130902.1.2.3.0,bus2=BBT1130895.1.2.3.0,Phases=3,Linecode=BT803_BT803_4_3_4,Length=0.023411000,Units=km
new line.3213743 bus1=BBT1130902.1.2.3.0,bus2=BBT1130909.1.2.3.0,Phases=3,Linecode=BT107_BT106_7_3_1,Length=0.006709000,Units=km
new line.3213764 bus1=BBT1130909.1.2.3.0,bus2=BBT1130930.1.2.3.0,Phases=3,Linecode=BT107_BT106_7_3_1,Length=0.027859000,Units=km
new line.3213799 bus1=BBT1130916.1.2.3.0,bus2=BBT1130902.1.2.3.0,Phases=3,Linecode=BT108_BT107_7_3_1,Length=0.035849000,Units=km
new line.3213813 bus1=BBT1131749.1.2.3.0,bus2=BBT2330485.1.2.3.0,Phases=3,Linecode=BT803_BT803_4_3_4,Length=0.012531000,Units=km
new line.3213820 bus1=BBT1131749.1.2.3.0,bus2=BBT1131742.1.2.3.0,Phases=3,Linecode=BT108_BT107_7_3_1,Length=0.017466000,Units=km
new line.3213855 bus1=BBT1130923.1.2.3.0,bus2=BBT1130916.1.2.3.0,Phases=3,Linecode=BT108_BT107_7_3_1,Length=0.027733000,Units=km
new line.3213862 bus1=BBT1130881.1.2.3.0,bus2=BBT1130923.1.2.3.0,Phases=3,Linecode=BT309_BT309_7_3_1,Length=0.000501000,Units=km
new line.3213869 bus1=BBT1130923.1.2.3.0,bus2=BBT1130937.1.2.3.0,Phases=3,Linecode=BT108_BT107_7_3_1,Length=0.032205000,Units=km
new line.3213883 bus1=BBT1130937.1.2.3.0,bus2=BBT1130972.1.2.3.0,Phases=3,Linecode=BT108_BT107_7_3_1,Length=0.004124000,Units=km
new line.3213890 bus1=BBT1130937.1.2.0,bus2=BBT2330492.1.2.0,Phases=2,Linecode=BT503_BT503_5_2_1,Length=0.015813000,Units=km
new line.3213911 bus1=BBT1130944.1.2.3.0,bus2=BBT1130965.1.2.3.0,Phases=3,Linecode=BT108_BT107_7_3_1,Length=0.026573000,Units=km
new line.3213939 bus1=BBT1130951.1.2.3.0,bus2=BBT1130958.1.2.3.0,Phases=3,Linecode=BT108_BT107_7_3_1,Length=0.034017000,Units=km
new line.3213981 bus1=BBT1130972.1.2.3.0,bus2=BBT1130944.1.2.3.0,Phases=3,Linecode=BT803_BT803_4_3_4,Length=0.005100000,Units=km
new line.3213988 bus1=BBT1130972.1.2.3.0,bus2=BBT1130951.1.2.3.0,Phases=3,Linecode=BT108_BT107_7_3_1,Length=0.032896000,Units=km
new line.3214457 bus1=BBT1131154.1.2.3.0,bus2=BBT1127430.1.2.3.0,Phases=3,Linecode=BT108_BT107_7_3_1,Length=0.031387000,Units=km
new line.3214478 bus1=BBT1131161.1.2.3.0,bus2=BBT1131140.1.2.3.0,Phases=3,Linecode=BT107_BT106_7_3_1,Length=0.019725000,Units=km
new line.3214513 bus1=BBT1131168.1.2.3.0,bus2=BBT1131147.1.2.3.0,Phases=3,Linecode=BT108_BT107_7_3_1,Length=0.030367000,Units=km
new line.3214527 bus1=BBT1131175.1.2.3.0,bus2=BBT1131154.1.2.3.0,Phases=3,Linecode=BT108_BT107_7_3_1,Length=0.025556000,Units=km
new line.3214534 bus1=BBT1131133.1.2.3.0,bus2=BBT1131175.1.2.3.0,Phases=3,Linecode=BT307_BT307_7_3_1,Length=0.000501000,Units=km
new line.3214541 bus1=BBT1131175.1.2.3.0,bus2=BBT1131189.1.2.3.0,Phases=3,Linecode=BT108_BT107_7_3_1,Length=0.017031000,Units=km
new line.3214576 bus1=BBT1131182.1.2.3.0,bus2=BBT1131168.1.2.3.0,Phases=3,Linecode=BT108_BT107_7_3_1,Length=0.031387000,Units=km
new line.3214604 bus1=BBT1131189.1.2.3.0,bus2=BBT1131182.1.2.3.0,Phases=3,Linecode=BT108_BT107_7_3_1,Length=0.021473000,Units=km
new line.3214611 bus1=BBT1131189.1.2.3.0,bus2=BBT1131196.1.2.3.0,Phases=3,Linecode=BT108_BT107_7_3_1,Length=0.016126000,Units=km
new line.3214618 bus1=BBT1131189.1.2.3.0,bus2=BBT1131203.1.2.3.0,Phases=3,Linecode=BT108_BT107_7_3_1,Length=0.022362000,Units=km
new line.3214639 bus1=BBT1131196.1.2.3.0,bus2=BBT1131210.1.2.3.0,Phases=3,Linecode=BT108_BT107_7_3_1,Length=0.026079000,Units=km
new line.3214674 bus1=BBT1131203.1.2.3.0,bus2=BBT1131224.1.2.3.0,Phases=3,Linecode=BT107_BT106_7_3_1,Length=0.033618000,Units=km
new line.3214688 bus1=BBT1131210.1.2.3.0,bus2=BBT1131217.1.2.3.0,Phases=3,Linecode=BT108_BT107_7_3_1,Length=0.032759000,Units=km
new line.3214723 bus1=BBT1131224.1.2.3.0,bus2=BBT1131231.1.2.3.0,Phases=3,Linecode=BT107_BT106_7_3_1,Length=0.034134000,Units=km
new line.3214884 bus1=BBT1131350.1.2.3.0,bus2=BBT1131336.1.2.3.0,Phases=3,Linecode=BT106_BT106_7_3_1,Length=0.033289000,Units=km
new line.3214905 bus1=BBT1131357.1.2.3.0,bus2=BBT1131371.1.2.3.0,Phases=3,Linecode=BT106_BT106_7_3_1,Length=0.025062000,Units=km
new line.3214912 bus1=BBT1131357.1.2.3.0,bus2=BBT1131343.1.2.3.0,Phases=3,Linecode=BT106_BT106_7_3_1,Length=0.008603000,Units=km
new line.3214919 bus1=BBT1131357.1.2.3.0,bus2=BBT1131350.1.2.3.0,Phases=3,Linecode=BT106_BT106_7_3_1,Length=0.003606000,Units=km
new line.3214954 bus1=BBT1131364.1.2.3.0,bus2=BBT1131357.1.2.3.0,Phases=3,Linecode=BT106_BT106_7_3_1,Length=0.034988000,Units=km
new line.3214968 bus1=BBT1131378.1.2.3.0,bus2=BBT1131364.1.2.3.0,Phases=3,Linecode=BT108_BT107_7_3_1,Length=0.044421000,Units=km
new line.3214996 bus1=BBT1131392.1.2.3.0,bus2=BBT1131378.1.2.3.0,Phases=3,Linecode=BT108_BT107_7_3_1,Length=0.041680000,Units=km
new line.3215003 bus1=BBT1131329.1.2.3.0,bus2=BBT1131392.1.2.3.0,Phases=3,Linecode=BT513_BT513_7_3_1,Length=0.000501000,Units=km
new line.18881467 bus1=BBT4182321.1.2.3.0,bus2=BBT153852850.1.2.3.0,Phases=3,Linecode=BT803_BT803_4_3_4,Length=0.029413000,Units=km