new linecode.tieSwitch r1=0.001,x1=0,c1=0,units=km,normamps=400
new linecode.tieSwitch1 nphases=1,rmatrix=[0.001],xmatrix=[0],units=km,normamps=400
New Linecode.IP nphases=2,r1=13.76,x1=0.16,units=km,normamps=22,
new linecode.CAB r1=0.001,x1=0.001,units=km,normamps=1000,
new linecode.CABBT r1=0.001,x1=0.001,units=km,normamps=1000,
new linecode.CABMT r1=0.001,x1=0.001,units=km,normamps=1000,
New Linecode.CABBT306_7_3_3 nphases=3,r1=0.9282,x1=0.13177,units=km,normamps=188.5
New Linecode.CABI02_5_3_3 nphases=3,r1=0.2469,x1=0.089,units=km,normamps=561.6
new linecode.CABA12_3_1_1 nPhases=1,r1=0.1399,x1=0.13,units=km,normamps=425
new linecode.CAB005_3_2 nPhases=3,r1=0.389,x1=0.4287,r0=0.023,x0=0.023,units=km,normamps=443.3
new linecode.CABBT510_5_3 nPhases=3,r1=0.5484,x1=0.10942,r0=0.028,x0=0.028,units=km,normamps=430.4
new linecode.BT_BTH03_5_0_1 nPhases=3,r1=0,x1=0.00001,units=km,normamps=0
new linecode.BT001_BT001_7_2_1 nPhases=2,r1=3.754,x1=0.4211,units=km,normamps=33
new linecode.BT001_BT001_7_3_1 nPhases=3,r1=3.754,x1=0.4211,units=km,normamps=33
new linecode.BT001_BT101_7_2_1 nPhases=2,r1=3.754,x1=0.4211,units=km,normamps=33
new linecode.BT001_BT107_7_3_1 nPhases=3,r1=3.754,x1=0.4211,units=km,normamps=33
new linecode.BT001_BT108_7_2_1 nPhases=2,r1=3.754,x1=0.4211,units=km,normamps=33
new linecode.BT001_BT108_7_3_1 nPhases=3,r1=3.754,x1=0.4211,units=km,normamps=33
new linecode.BT001_BT501_7_2_1 nPhases=2,r1=3.754,x1=0.4211,units=km,normamps=33
new linecode.BT002_BT001_7_2_1 nPhases=2,r1=1.138,x1=0.3983,units=km,normamps=70
new linecode.BT002_BT002_7_2_1 nPhases=2,r1=1.138,x1=0.3983,units=km,normamps=70
new linecode.BT002_BT002_7_3_1 nPhases=3,r1=1.138,x1=0.3983,units=km,normamps=70
new linecode.BT003_BT003_7_2_1 nPhases=2,r1=2.389,x1=0.524,units=km,normamps=76
new linecode.BT004_BT004_7_2_1 nPhases=2,r1=0.78,x1=0.3791,units=km,normamps=93
new linecode.BT004_BT004_7_3_1 nPhases=3,r1=0.78,x1=0.3791,units=km,normamps=93
new linecode.BT004_BT007_7_3_1 nPhases=3,r1=0.78,x1=0.3791,units=km,normamps=93
new linecode.BT004_BTJ01_7_3_1 nPhases=3,r1=0.78,x1=0.3791,units=km,normamps=93
new linecode.BT005_BT003_7_2_1 nPhases=2,r1=1.564,x1=1.27,units=km,normamps=101
new linecode.BT005_BT003_7_3_1 nPhases=3,r1=1.564,x1=1.27,units=km,normamps=101
new linecode.BT005_BT005_7_1_1 nPhases=1,r1=1.564,x1=1.27,units=km,normamps=101
new linecode.BT005_BT005_7_2_1 nPhases=2,r1=1.564,x1=1.27,units=km,normamps=101
new linecode.BT005_BT005_7_3_1 nPhases=3,r1=1.564,x1=1.27,units=km,normamps=101
new linecode.BT005_BT006_7_2_1 nPhases=2,r1=1.564,x1=1.27,units=km,normamps=101
new linecode.BT005_BT006_7_3_1 nPhases=3,r1=1.564,x1=1.27,units=km,normamps=101
new linecode.BT005_BT007_7_2_1 nPhases=2,r1=1.564,x1=1.27,units=km,normamps=101
new linecode.BT005_BT007_7_3_1 nPhases=3,r1=1.564,x1=1.27,units=km,normamps=101
new linecode.BT005_BT008_7_2_1 nPhases=2,r1=1.564,x1=1.27,units=km,normamps=101
new linecode.BT005_BT008_7_3_1 nPhases=3,r1=1.564,x1=1.27,units=km,normamps=101
new linecode.BT005_BT011_7_2_1 nPhases=2,r1=1.564,x1=1.27,units=km,normamps=101
new linecode.BT005_BT103_7_2_1 nPhases=2,r1=1.564,x1=1.27,units=km,normamps=101
new linecode.BT005_BT103_7_3_1 nPhases=3,r1=1.564,x1=1.27,units=km,normamps=101
new linecode.BT005_BT106_7_3_1 nPhases=3,r1=1.564,x1=1.27,units=km,normamps=101
new linecode.BT005_BT107_7_2_1 nPhases=2,r1=1.564,x1=1.27,units=km,normamps=101
new linecode.BT005_BT107_7_3_1 nPhases=3,r1=1.564,x1=1.27,units=km,normamps=101
new linecode.BT005_BT108_7_2_1 nPhases=2,r1=1.564,x1=1.27,units=km,normamps=101
new linecode.BT005_BT108_7_3_1 nPhases=3,r1=1.564,x1=1.27,units=km,normamps=101
new linecode.BT005_BT111_7_2_1 nPhases=2,r1=1.564,x1=1.27,units=km,normamps=101
new linecode.BT005_BT111_7_3_1 nPhases=3,r1=1.564,x1=1.27,units=km,normamps=101
new linecode.BT005_BT305_7_2_1 nPhases=2,r1=1.564,x1=1.27,units=km,normamps=101
new linecode.BT005_BT305_7_3_1 nPhases=3,r1=1.564,x1=1.27,units=km,normamps=101
new linecode.BT005_BT507_7_3_1 nPhases=3,r1=1.564,x1=1.27,units=km,normamps=101
new linecode.BT006_BT002_7_3_1 nPhases=3,r1=0.984,x1=0.8,units=km,normamps=136
new linecode.BT006_BT005_7_2_1 nPhases=2,r1=0.984,x1=0.8,units=km,normamps=136
new linecode.BT006_BT005_7_3_1 nPhases=3,r1=0.984,x1=0.8,units=km,normamps=136
new linecode.BT006_BT006_7_1_1 nPhases=1,r1=0.984,x1=0.8,units=km,normamps=136
new linecode.BT006_BT006_7_2_1 nPhases=2,r1=0.984,x1=0.8,units=km,normamps=136
new linecode.BT006_BT006_7_3_1 nPhases=3,r1=0.984,x1=0.8,units=km,normamps=136
new linecode.BT006_BT007_7_3_1 nPhases=3,r1=0.984,x1=0.8,units=km,normamps=136
new linecode.BT006_BT103_7_3_1 nPhases=3,r1=0.984,x1=0.8,units=km,normamps=136
new linecode.BT006_BT107_7_3_1 nPhases=3,r1=0.984,x1=0.8,units=km,normamps=136
new linecode.BT006_BT206_7_1_1 nPhases=1,r1=0.984,x1=0.8,units=km,normamps=136
new linecode.BT006_BTJ01_7_3_1 nPhases=3,r1=0.984,x1=0.8,units=km,normamps=136
new linecode.BT007_BT002_7_2_1 nPhases=2,r1=0.62,x1=1.5,units=km,normamps=194
new linecode.BT007_BT002_7_3_1 nPhases=3,r1=0.62,x1=1.5,units=km,normamps=194
new linecode.BT007_BT003_7_2_1 nPhases=2,r1=0.62,x1=1.5,units=km,normamps=194
new linecode.BT007_BT005_7_2_1 nPhases=2,r1=0.62,x1=1.5,units=km,normamps=194
new linecode.BT007_BT005_7_3_1 nPhases=3,r1=0.62,x1=1.5,units=km,normamps=194
new linecode.BT007_BT006_7_2_1 nPhases=2,r1=0.62,x1=1.5,units=km,normamps=194
new linecode.BT007_BT006_7_3_1 nPhases=3,r1=0.62,x1=1.5,units=km,normamps=194
new linecode.BT007_BT007_7_2_1 nPhases=2,r1=0.62,x1=1.5,units=km,normamps=194
new linecode.BT007_BT007_7_3_1 nPhases=3,r1=0.62,x1=1.5,units=km,normamps=194
new linecode.BT007_BT008_7_2_1 nPhases=2,r1=0.62,x1=1.5,units=km,normamps=194
new linecode.BT007_BT008_7_3_1 nPhases=3,r1=0.62,x1=1.5,units=km,normamps=194
new linecode.BT007_BT011_7_3_1 nPhases=3,r1=0.62,x1=1.5,units=km,normamps=194
new linecode.BT007_BT103_7_3_1 nPhases=3,r1=0.62,x1=1.5,units=km,normamps=194
new linecode.BT007_BT106_7_3_1 nPhases=3,r1=0.62,x1=1.5,units=km,normamps=194
new linecode.BT007_BT107_7_2_1 nPhases=2,r1=0.62,x1=1.5,units=km,normamps=194
new linecode.BT007_BT107_7_3_1 nPhases=3,r1=0.62,x1=1.5,units=km,normamps=194
new linecode.BT007_BT108_7_2_1 nPhases=2,r1=0.62,x1=1.5,units=km,normamps=194
new linecode.BT007_BT108_7_3_1 nPhases=3,r1=0.62,x1=1.5,units=km,normamps=194
new linecode.BT007_BT111_7_3_1 nPhases=3,r1=0.62,x1=1.5,units=km,normamps=194
new linecode.BT007_BT206_7_2_1 nPhases=2,r1=0.62,x1=1.5,units=km,normamps=194
new linecode.BT007_BT206_7_3_1 nPhases=3,r1=0.62,x1=1.5,units=km,normamps=194
new linecode.BT007_BT305_7_2_1 nPhases=2,r1=0.62,x1=1.5,units=km,normamps=194
new linecode.BT007_BT307_7_3_1 nPhases=3,r1=0.62,x1=1.5,units=km,normamps=194
new linecode.BT007_BT507_7_3_1 nPhases=3,r1=0.62,x1=1.5,units=km,normamps=194
new linecode.BT007_BT808_7_2_1 nPhases=2,r1=0.62,x1=1.5,units=km,normamps=194
new linecode.BT008_BT005_7_3_1 nPhases=3,r1=0.389,x1=0.45,units=km,normamps=252
new linecode.BT008_BT006_7_3_1 nPhases=3,r1=0.389,x1=0.45,units=km,normamps=252
new linecode.BT008_BT007_7_2_1 nPhases=2,r1=0.389,x1=0.45,units=km,normamps=252
new linecode.BT008_BT007_7_3_1 nPhases=3,r1=0.389,x1=0.45,units=km,normamps=252
new linecode.BT008_BT008_7_2_1 nPhases=2,r1=0.389,x1=0.45,units=km,normamps=252
new linecode.BT008_BT008_7_3_1 nPhases=3,r1=0.389,x1=0.45,units=km,normamps=252
new linecode.BT008_BT108_7_3_1 nPhases=3,r1=0.389,x1=0.45,units=km,normamps=252
new linecode.BT008_BT308_7_2_1 nPhases=2,r1=0.389,x1=0.45,units=km,normamps=252
new linecode.BT009_BT005_7_2_1 nPhases=2,r1=0.308,x1=0.441,units=km,normamps=293
new linecode.BT009_BT007_7_3_1 nPhases=3,r1=0.308,x1=0.441,units=km,normamps=293
new linecode.BT009_BT008_7_3_1 nPhases=3,r1=0.308,x1=0.441,units=km,normamps=293
new linecode.BT009_BT009_7_2_1 nPhases=2,r1=0.308,x1=0.441,units=km,normamps=293
new linecode.BT009_BT009_7_3_1 nPhases=3,r1=0.308,x1=0.441,units=km,normamps=293
new linecode.BT010_BT007_7_3_1 nPhases=3,r1=0.245,x1=0.197,units=km,normamps=338
new linecode.BT011_BT005_7_3_1 nPhases=3,r1=0.195,x1=0.158,units=km,normamps=394
new linecode.BT011_BT007_7_3_1 nPhases=3,r1=0.195,x1=0.158,units=km,normamps=394
new linecode.BT011_BT008_7_3_1 nPhases=3,r1=0.195,x1=0.158,units=km,normamps=394
new linecode.BT011_BT011_7_3_1 nPhases=3,r1=0.195,x1=0.158,units=km,normamps=394
new linecode.BT012_BT012_7_3_1 nPhases=3,r1=0.137,x1=0.2763,units=km,normamps=496
new linecode.BT101_BT101_7_1_1 nPhases=1,r1=6.0824,x1=0.4042,units=km,normamps=48
new linecode.BT101_BT101_7_2_1 nPhases=2,r1=6.0824,x1=0.4042,units=km,normamps=48
new linecode.BT101_BT101_7_3_1 nPhases=3,r1=6.0824,x1=0.4042,units=km,normamps=48
new linecode.BT101_BT107_7_2_1 nPhases=2,r1=6.0824,x1=0.4042,units=km,normamps=48
new linecode.BT101_BT107_7_3_1 nPhases=3,r1=6.0824,x1=0.4042,units=km,normamps=48
new linecode.BT101_BT108_7_3_1 nPhases=3,r1=6.0824,x1=0.4042,units=km,normamps=48
new linecode.BT101_BT507_7_3_1 nPhases=3,r1=6.0824,x1=0.4042,units=km,normamps=48
new linecode.BT101_BT519_7_2_1 nPhases=2,r1=6.0824,x1=0.4042,units=km,normamps=48
new linecode.BT102_BT102_7_2_1 nPhases=2,r1=3.8389,x1=0.3983,units=km,normamps=64
new linecode.BT102_BT102_7_3_1 nPhases=2,r1=3.8389,x1=0.3983,units=km,normamps=64
new linecode.BT102_BT107_7_3_1 nPhases=2,r1=3.8389,x1=0.3983,units=km,normamps=64
new linecode.BT102_BT206_7_2_1 nPhases=2,r1=3.8389,x1=0.3983,units=km,normamps=64
new linecode.BT103_BT005_7_2_1 nPhases=2,r1=1.564,x1=1.27,units=km,normamps=81
new linecode.BT103_BT005_7_3_1 nPhases=3,r1=1.564,x1=1.27,units=km,normamps=81
new linecode.BT103_BT007_7_3_1 nPhases=3,r1=1.564,x1=1.27,units=km,normamps=81
new linecode.BT103_BT103_7_1_1 nPhases=1,r1=1.564,x1=1.27,units=km,normamps=81
new linecode.BT103_BT103_7_2_1 nPhases=2,r1=1.564,x1=1.27,units=km,normamps=81
new linecode.BT103_BT103_7_3_1 nPhases=3,r1=1.564,x1=1.27,units=km,normamps=81
new linecode.BT103_BT106_7_1_1 nPhases=1,r1=1.564,x1=1.27,units=km,normamps=81
new linecode.BT103_BT106_7_2_1 nPhases=2,r1=1.564,x1=1.27,units=km,normamps=81
new linecode.BT103_BT107_7_1_1 nPhases=1,r1=1.564,x1=1.27,units=km,normamps=81
new linecode.BT103_BT107_7_2_1 nPhases=2,r1=1.564,x1=1.27,units=km,normamps=81
new linecode.BT103_BT107_7_3_1 nPhases=3,r1=1.564,x1=1.27,units=km,normamps=81
new linecode.BT103_BT108_7_2_1 nPhases=2,r1=1.564,x1=1.27,units=km,normamps=81
new linecode.BT103_BT108_7_3_1 nPhases=3,r1=1.564,x1=1.27,units=km,normamps=81
new linecode.BT103_BT111_7_2_1 nPhases=2,r1=1.564,x1=1.27,units=km,normamps=81
new linecode.BT103_BT204_7_3_1 nPhases=3,r1=1.564,x1=1.27,units=km,normamps=81
new linecode.BT103_BT305_7_3_1 nPhases=3,r1=1.564,x1=1.27,units=km,normamps=81
new linecode.BT103_BT307_7_3_1 nPhases=3,r1=1.564,x1=1.27,units=km,normamps=81
new linecode.BT103_BT504_7_3_1 nPhases=3,r1=1.564,x1=1.27,units=km,normamps=81
new linecode.BT104_BT103_7_3_1 nphases=4,r1=2.0084,x1=0.37908,units=km,normamps=106.6
new linecode.BT104_BT104_7_1_1 nphases=1,r1=2.0084,x1=0.37908,units=km,normamps=106.6
new linecode.BT104_BT104_7_2_1 nphases=2,r1=2.0084,x1=0.37908,units=km,normamps=106.6
new linecode.BT104_BT104_7_3_1 nphases=3,r1=2.0084,x1=0.37908,units=km,normamps=106.6
new linecode.BT104_BT107_7_1_1 nphases=1,r1=2.0084,x1=0.37908,units=km,normamps=106.6
new linecode.BT104_BT107_7_2_1 nphases=2,r1=2.0084,x1=0.37908,units=km,normamps=106.6
new linecode.BT104_BT107_7_3_1 nphases=3,r1=2.0084,x1=0.37908,units=km,normamps=106.6
new linecode.BT104_BT108_7_2_1 nphases=2,r1=2.0084,x1=0.37908,units=km,normamps=106.6
new linecode.BT104_BT503_7_2_1 nphases=2,r1=2.0084,x1=0.37908,units=km,normamps=106.6
new linecode.BT105_BT101_7_2_1 nPhases=2,r1=1.229,x1=0.3377,units=km,normamps=101
new linecode.BT105_BT104_7_3_1 nPhases=3,R1=0.613,X1=0.419,R0=1.184,X0=1.723,C1=10.728,C0=4.613,units=km,normamps=82
new linecode.BT105_BT105_7_1_1 nPhases=1,r1=1.229,x1=0.3377,units=km,normamps=101
new linecode.BT105_BT105_7_2_1 nPhases=2,r1=1.229,x1=0.3377,units=km,normamps=101
new linecode.BT105_BT105_7_3_1 nPhases=3,r1=1.229,x1=0.3377,units=km,normamps=101
new linecode.BT105_BT106_7_2_1 nPhases=2,r1=1.229,x1=0.3377,units=km,normamps=101
new linecode.BT105_BT107_7_2_1 nPhases=2,r1=1.229,x1=0.3377,units=km,normamps=101
new linecode.BT105_BT107_7_3_1 nPhases=3,r1=1.229,x1=0.3377,units=km,normamps=101
new linecode.BT105_BT108_7_3_1 nPhases=3,r1=1.229,x1=0.3377,units=km,normamps=101
new linecode.BT105_BT307_7_3_1 nPhases=3,r1=1.229,x1=0.3377,units=km,normamps=101
new linecode.BT105_BT803_7_3_1 nPhases=3,r1=1.229,x1=0.3377,units=km,normamps=101
new linecode.BT105_BT810_7_3_1 nPhases=3,r1=1.229,x1=0.3377,units=km,normamps=101
new linecode.BT106_BT005_7_3_1 nPhases=3,R1=1.552,X1=0.359,R0=2.288,X0=2.026,C1=12.784,C0=4.795,units=km,normamps=111
new linecode.BT106_BT102_7_3_1 nPhases=3,R1=1.552,X1=0.359,R0=2.288,X0=2.026,C1=12.784,C0=4.795,units=km,normamps=111
new linecode.BT106_BT103_7_1_1 nPhases=1,R1=1.552,X1=0.359,R0=2.288,X0=2.026,C1=12.784,C0=4.795,units=km,normamps=111
new linecode.BT106_BT103_7_3_1 nPhases=3,R1=1.552,X1=0.359,R0=2.288,X0=2.026,C1=12.784,C0=4.795,units=km,normamps=111
new linecode.BT106_BT105_7_1_1 nPhases=1,R1=1.552,X1=0.359,R0=2.288,X0=2.026,C1=12.784,C0=4.795,units=km,normamps=111
new linecode.BT106_BT105_7_3_1 nPhases=3,R1=1.552,X1=0.359,R0=2.288,X0=2.026,C1=12.784,C0=4.795,units=km,normamps=111
new linecode.BT106_BT106_7_1_1 nPhases=1,R1=1.552,X1=0.359,R0=2.288,X0=2.026,C1=12.784,C0=4.795,units=km,normamps=111
new linecode.BT106_BT106_7_3_1 nPhases=3,R1=1.552,X1=0.359,R0=2.288,X0=2.026,C1=12.784,C0=4.795,units=km,normamps=111
new linecode.BT106_BT107_7_1_1 nPhases=1,R1=1.552,X1=0.359,R0=2.288,X0=2.026,C1=12.784,C0=4.795,units=km,normamps=111
new linecode.BT106_BT107_7_3_1 nPhases=1,R1=1.552,X1=0.359,R0=2.288,X0=2.026,C1=12.784,C0=4.795,units=km,normamps=111
new linecode.BT106_BT108_7_1_1 nPhases=1,R1=1.552,X1=0.359,R0=2.288,X0=2.026,C1=12.784,C0=4.795,units=km,normamps=111
new linecode.BT106_BT108_7_3_1 nPhases=3,R1=1.552,X1=0.359,R0=2.288,X0=2.026,C1=12.784,C0=4.795,units=km,normamps=111
new linecode.BT106_BT109_7_3_1 nPhases=3,R1=1.552,X1=0.359,R0=2.288,X0=2.026,C1=12.784,C0=4.795,units=km,normamps=111
new linecode.BT106_BT111_7_3_1 nPhases=3,R1=1.552,X1=0.359,R0=2.288,X0=2.026,C1=12.784,C0=4.795,units=km,normamps=111
new linecode.BT106_BT206_7_1_1 nPhases=1,R1=1.552,X1=0.359,R0=2.288,X0=2.026,C1=12.784,C0=4.795,units=km,normamps=111
new linecode.BT106_BT206_7_3_1 nPhases=3,R1=1.552,X1=0.359,R0=2.288,X0=2.026,C1=12.784,C0=4.795,units=km,normamps=111
new linecode.BT106_BT207_7_1_1 nPhases=1,R1=1.552,X1=0.359,R0=2.288,X0=2.026,C1=12.784,C0=4.795,units=km,normamps=111
new linecode.BT106_BT208_7_3_1 nPhases=3,R1=1.552,X1=0.359,R0=2.288,X0=2.026,C1=12.784,C0=4.795,units=km,normamps=111
new linecode.BT106_BT306_7_3_1 nPhases=3,R1=1.552,X1=0.359,R0=2.288,X0=2.026,C1=12.784,C0=4.795,units=km,normamps=111
new linecode.BT106_BT803_7_3_1 nPhases=3,R1=1.552,X1=0.359,R0=2.288,X0=2.026,C1=12.784,C0=4.795,units=km,normamps=111
new linecode.BT106_BT810_7_2_1 nPhases=3,R1=1.552,X1=0.359,R0=2.288,X0=2.026,C1=12.784,C0=4.795,units=km,normamps=111
new linecode.BT106_BT810_7_3_1 nPhases=3,R1=1.552,X1=0.359,R0=2.288,X0=2.026,C1=12.784,C0=4.795,units=km,normamps=111
new linecode.BT106_BTC02_7_1_1 nPhases=1,R1=1.552,X1=0.359,R0=2.288,X0=2.026,C1=12.784,C0=4.795,units=km,normamps=111
new linecode.BT106_BTC02_7_3_1 nPhases=3,R1=1.552,X1=0.359,R0=2.288,X0=2.026,C1=12.784,C0=4.795,units=km,normamps=111
new linecode.BT106_BTH01_7_1_1 nPhases=1,R1=1.552,X1=0.359,R0=2.288,X0=2.026,C1=12.784,C0=4.795,units=km,normamps=111
new linecode.BT106_BTH02_7_1_1 nPhases=1,R1=1.552,X1=0.359,R0=2.288,X0=2.026,C1=12.784,C0=4.795,units=km,normamps=111
new linecode.BT107_BT005_7_3_1 nPhases=3,R1=0.976,X1=0.341,R0=1.721,X0=1.71,C1=13.516,C0=4.955,units=km,normamps=149
new linecode.BT107_BT006_7_3_1 nPhases=3,R1=0.976,X1=0.341,R0=1.721,X0=1.71,C1=13.516,C0=4.955,units=km,normamps=149
new linecode.BT107_BT007_7_3_1 nPhases=3,R1=0.976,X1=0.341,R0=1.721,X0=1.71,C1=13.516,C0=4.955,units=km,normamps=149
new linecode.BT107_BT011_7_3_1 nPhases=3,R1=0.976,X1=0.341,R0=1.721,X0=1.71,C1=13.516,C0=4.955,units=km,normamps=149
new linecode.BT107_BT102_7_3_1 nPhases=3,R1=0.976,X1=0.341,R0=1.721,X0=1.71,C1=13.516,C0=4.955,units=km,normamps=149
new linecode.BT107_BT103_7_3_1 nPhases=3,R1=0.976,X1=0.341,R0=1.721,X0=1.71,C1=13.516,C0=4.955,units=km,normamps=149
new linecode.BT107_BT104_7_3_1 nPhases=3,R1=0.976,X1=0.341,R0=1.721,X0=1.71,C1=13.516,C0=4.955,units=km,normamps=149
new linecode.BT107_BT105_7_3_1 nPhases=3,R1=0.976,X1=0.341,R0=1.721,X0=1.71,C1=13.516,C0=4.955,units=km,normamps=149
new linecode.BT107_BT106_7_1_1 nPhases=1,R1=0.976,X1=0.341,R0=1.721,X0=1.71,C1=13.516,C0=4.955,units=km,normamps=149
new linecode.BT107_BT106_7_3_1 nPhases=3,R1=0.976,X1=0.341,R0=1.721,X0=1.71,C1=13.516,C0=4.955,units=km,normamps=149
new linecode.BT107_BT107_7_1_1 nPhases=1,R1=0.976,X1=0.341,R0=1.721,X0=1.71,C1=13.516,C0=4.955,units=km,normamps=149
new linecode.BT107_BT107_7_3_1 nPhases=3,R1=0.976,X1=0.341,R0=1.721,X0=1.71,C1=13.516,C0=4.955,units=km,normamps=149
new linecode.BT107_BT107_7_3_1 nPhases=3,R1=0.976,X1=0.341,R0=1.721,X0=1.71,C1=13.516,C0=4.955,units=km,normamps=149
new linecode.BT107_BT108_7_1_1 nPhases=1,R1=0.976,X1=0.341,R0=1.721,X0=1.71,C1=13.516,C0=4.955,units=km,normamps=149
new linecode.BT107_BT108_7_3_1 nPhases=3,R1=0.976,X1=0.341,R0=1.721,X0=1.71,C1=13.516,C0=4.955,units=km,normamps=149
new linecode.BT107_BT109_7_1_1 nPhases=1,R1=0.976,X1=0.341,R0=1.721,X0=1.71,C1=13.516,C0=4.955,units=km,normamps=149
new linecode.BT107_BT109_7_3_1 nPhases=3,R1=0.976,X1=0.341,R0=1.721,X0=1.71,C1=13.516,C0=4.955,units=km,normamps=149
new linecode.BT107_BT111_7_1_1 nPhases=1,R1=0.976,X1=0.341,R0=1.721,X0=1.71,C1=13.516,C0=4.955,units=km,normamps=149
new linecode.BT107_BT111_7_3_1 nPhases=3,R1=0.976,X1=0.341,R0=1.721,X0=1.71,C1=13.516,C0=4.955,units=km,normamps=149
new linecode.BT107_BT201_7_1_1 nPhases=1,R1=0.976,X1=0.341,R0=1.721,X0=1.71,C1=13.516,C0=4.955,units=km,normamps=149
new linecode.BT107_BT206_7_1_1 nPhases=1,R1=0.976,X1=0.341,R0=1.721,X0=1.71,C1=13.516,C0=4.955,units=km,normamps=149
new linecode.BT107_BT206_7_3_1 nPhases=3,R1=0.976,X1=0.341,R0=1.721,X0=1.71,C1=13.516,C0=4.955,units=km,normamps=149
new linecode.BT107_BT207_7_1_1 nPhases=1,R1=0.976,X1=0.341,R0=1.721,X0=1.71,C1=13.516,C0=4.955,units=km,normamps=149
new linecode.BT107_BT207_7_3_1 nPhases=3,R1=0.976,X1=0.341,R0=1.721,X0=1.71,C1=13.516,C0=4.955,units=km,normamps=149
new linecode.BT107_BT208_7_1_1 nPhases=1,R1=0.976,X1=0.341,R0=1.721,X0=1.71,C1=13.516,C0=4.955,units=km,normamps=149
new linecode.BT107_BT307_7_3_1 nPhases=3,R1=0.976,X1=0.341,R0=1.721,X0=1.71,C1=13.516,C0=4.955,units=km,normamps=149
new linecode.BT107_BT308_7_3_1 nPhases=3,R1=0.976,X1=0.341,R0=1.721,X0=1.71,C1=13.516,C0=4.955,units=km,normamps=149
new linecode.BT107_BT507_7_3_1 nPhases=3,R1=0.976,X1=0.341,R0=1.721,X0=1.71,C1=13.516,C0=4.955,units=km,normamps=149
new linecode.BT107_BT521_7_3_1 nPhases=3,R1=0.976,X1=0.341,R0=1.721,X0=1.71,C1=13.516,C0=4.955,units=km,normamps=149
new linecode.BT107_BT803_7_3_1 nPhases=3,R1=0.976,X1=0.341,R0=1.721,X0=1.71,C1=13.516,C0=4.955,units=km,normamps=149
new linecode.BT107_BT807_7_3_1 nPhases=3,R1=0.976,X1=0.341,R0=1.721,X0=1.71,C1=13.516,C0=4.955,units=km,normamps=149
new linecode.BT107_BT808_7_3_1 nPhases=3,R1=0.976,X1=0.341,R0=1.721,X0=1.71,C1=13.516,C0=4.955,units=km,normamps=149
new linecode.BT107_BT809_7_3_1 nPhases=3,R1=0.976,X1=0.341,R0=1.721,X0=1.71,C1=13.516,C0=4.955,units=km,normamps=149
new linecode.BT107_BT810_7_3_1 nPhases=3,R1=0.976,X1=0.341,R0=1.721,X0=1.71,C1=13.516,C0=4.955,units=km,normamps=149
new linecode.BT107_BT816_7_3_1 nPhases=3,R1=0.976,X1=0.341,R0=1.721,X0=1.71,C1=13.516,C0=4.955,units=km,normamps=149
new linecode.BT107_BTC02_7_1_1 nPhases=3,R1=0.976,X1=0.341,R0=1.721,X0=1.71,C1=13.516,C0=4.955,units=km,normamps=149
new linecode.BT107_BTH01_7_1_1 nPhases=3,R1=0.976,X1=0.341,R0=1.721,X0=1.71,C1=13.516,C0=4.955,units=km,normamps=149
new linecode.BT108_BT006_7_3_1 nPhases=3,R1=0.614,X1=0.324,R0=1.359,X0=1.692,C1=14.341,C0=5.063,units=km,normamps=201
new linecode.BT108_BT007_7_3_1 nPhases=3,R1=0.614,X1=0.324,R0=1.359,X0=1.692,C1=14.341,C0=5.063,units=km,normamps=201
new linecode.BT108_BT008_7_3_1 nPhases=3,R1=0.614,X1=0.324,R0=1.359,X0=1.692,C1=14.341,C0=5.063,units=km,normamps=201
new linecode.BT108_BT102_7_3_1 nPhases=3,R1=0.614,X1=0.324,R0=1.359,X0=1.692,C1=14.341,C0=5.063,units=km,normamps=201
new linecode.BT108_BT103_7_3_1 nPhases=3,R1=0.614,X1=0.324,R0=1.359,X0=1.692,C1=14.341,C0=5.063,units=km,normamps=201
new linecode.BT108_BT105_7_3_1 nPhases=3,R1=0.614,X1=0.324,R0=1.359,X0=1.692,C1=14.341,C0=5.063,units=km,normamps=201
new linecode.BT108_BT106_7_1_1 nPhases=1,R1=0.614,X1=0.324,R0=1.359,X0=1.692,C1=14.341,C0=5.063,units=km,normamps=201
new linecode.BT108_BT106_7_3_1 nPhases=3,R1=0.614,X1=0.324,R0=1.359,X0=1.692,C1=14.341,C0=5.063,units=km,normamps=201
new linecode.BT108_BT107_7_1_1 nPhases=1,R1=0.614,X1=0.324,R0=1.359,X0=1.692,C1=14.341,C0=5.063,units=km,normamps=201
new linecode.BT108_BT107_7_3_1 nPhases=3,R1=0.614,X1=0.324,R0=1.359,X0=1.692,C1=14.341,C0=5.063,units=km,normamps=201
new linecode.BT108_BT108_7_1_1 nPhases=1,R1=0.614,X1=0.324,R0=1.359,X0=1.692,C1=14.341,C0=5.063,units=km,normamps=201
new linecode.BT108_BT108_7_3_1 nPhases=3,R1=0.614,X1=0.324,R0=1.359,X0=1.692,C1=14.341,C0=5.063,units=km,normamps=201
new linecode.BT108_BT109_7_3_1 nPhases=3,R1=0.614,X1=0.324,R0=1.359,X0=1.692,C1=14.341,C0=5.063,units=km,normamps=201
new linecode.BT108_BT110_7_3_1 nPhases=3,R1=0.614,X1=0.324,R0=1.359,X0=1.692,C1=14.341,C0=5.063,units=km,normamps=201
new linecode.BT108_BT111_7_3_1 nPhases=3,R1=0.614,X1=0.324,R0=1.359,X0=1.692,C1=14.341,C0=5.063,units=km,normamps=201
new linecode.BT108_BT201_7_3_1 nPhases=3,R1=0.614,X1=0.324,R0=1.359,X0=1.692,C1=14.341,C0=5.063,units=km,normamps=201
new linecode.BT108_BT204_7_1_1 nPhases=1,R1=0.614,X1=0.324,R0=1.359,X0=1.692,C1=14.341,C0=5.063,units=km,normamps=201
new linecode.BT108_BT206_7_1_1 nPhases=1,R1=0.614,X1=0.324,R0=1.359,X0=1.692,C1=14.341,C0=5.063,units=km,normamps=201
new linecode.BT108_BT206_7_3_1 nPhases=3,R1=0.614,X1=0.324,R0=1.359,X0=1.692,C1=14.341,C0=5.063,units=km,normamps=201
new linecode.BT108_BT207_7_1_1 nPhases=1,R1=0.614,X1=0.324,R0=1.359,X0=1.692,C1=14.341,C0=5.063,units=km,normamps=201
new linecode.BT108_BT207_7_3_1 nPhases=3,R1=0.614,X1=0.324,R0=1.359,X0=1.692,C1=14.341,C0=5.063,units=km,normamps=201
new linecode.BT108_BT208_7_3_1 nPhases=3,R1=0.614,X1=0.324,R0=1.359,X0=1.692,C1=14.341,C0=5.063,units=km,normamps=201
new linecode.BT108_BT307_7_3_1 nPhases=3,R1=0.614,X1=0.324,R0=1.359,X0=1.692,C1=14.341,C0=5.063,units=km,normamps=201
new linecode.BT108_BT508_7_3_1 nPhases=3,R1=0.614,X1=0.324,R0=1.359,X0=1.692,C1=14.341,C0=5.063,units=km,normamps=201
new linecode.BT108_BT514_7_3_1 nPhases=3,R1=0.614,X1=0.324,R0=1.359,X0=1.692,C1=14.341,C0=5.063,units=km,normamps=201
new linecode.BT108_BT803_7_3_1 nPhases=3,R1=0.614,X1=0.324,R0=1.359,X0=1.692,C1=14.341,C0=5.063,units=km,normamps=201
new linecode.BT108_BT808_7_3_1 nPhases=3,R1=0.614,X1=0.324,R0=1.359,X0=1.692,C1=14.341,C0=5.063,units=km,normamps=201
new linecode.BT108_BT809_7_3_1 nPhases=3,R1=0.614,X1=0.324,R0=1.359,X0=1.692,C1=14.341,C0=5.063,units=km,normamps=201
new linecode.BT108_BT810_7_3_1 nPhases=3,R1=0.614,X1=0.324,R0=1.359,X0=1.692,C1=14.341,C0=5.063,units=km,normamps=201
new linecode.BT108_BT811_7_3_1 nPhases=3,R1=0.614,X1=0.324,R0=1.359,X0=1.692,C1=14.341,C0=5.063,units=km,normamps=201
new linecode.BT108_BTC02_7_1_1 nPhases=3,R1=0.614,X1=0.324,R0=1.359,X0=1.692,C1=14.341,C0=5.063,units=km,normamps=201
new linecode.BT108_BTJ01_7_3_1 nPhases=3,R1=0.614,X1=0.324,R0=1.359,X0=1.692,C1=14.341,C0=5.063,units=km,normamps=201
new linecode.BT109_BT005_7_3_1 nPhases=3,r1=0.486,x1=0.427,units=km,normamps=230
new linecode.BT109_BT007_7_3_1 nPhases=3,r1=0.486,x1=0.427,units=km,normamps=230
new linecode.BT109_BT106_7_1_1 nPhases=1,r1=0.486,x1=0.427,units=km,normamps=230
new linecode.BT109_BT106_7_2_1 nPhases=2,r1=0.486,x1=0.427,units=km,normamps=230
new linecode.BT109_BT106_7_3_1 nPhases=3,r1=0.486,x1=0.427,units=km,normamps=230
new linecode.BT109_BT107_7_1_1 nPhases=1,r1=0.486,x1=0.427,units=km,normamps=230
new linecode.BT109_BT107_7_3_1 nPhases=3,r1=0.486,x1=0.427,units=km,normamps=230
new linecode.BT109_BT108_7_2_1 nPhases=2,r1=0.486,x1=0.427,units=km,normamps=230
new linecode.BT109_BT108_7_3_1 nPhases=3,r1=0.486,x1=0.427,units=km,normamps=230
new linecode.BT109_BT109_7_1_1 nPhases=1,r1=0.486,x1=0.427,units=km,normamps=230
new linecode.BT109_BT109_7_2_1 nPhases=2,r1=0.486,x1=0.427,units=km,normamps=230
new linecode.BT109_BT109_7_3_1 nPhases=3,r1=0.486,x1=0.427,units=km,normamps=230
new linecode.BT109_BT111_7_2_1 nPhases=2,r1=0.486,x1=0.427,units=km,normamps=230
new linecode.BT109_BT111_7_3_1 nPhases=3,r1=0.486,x1=0.427,units=km,normamps=230
new linecode.BT110_BT107_7_3_1 nPhases=3,r1=0.386,x1=0.338,units=km,normamps=270
new linecode.BT110_BT108_7_3_1 nPhases=3,r1=0.386,x1=0.338,units=km,normamps=270
new linecode.BT110_BT110_7_3_1 nPhases=3,r1=0.386,x1=0.338,units=km,normamps=270
new linecode.BT111_BT007_7_3_1 nPhases=3,r1=0.306,x1=0.268,units=km,normamps=314
new linecode.BT111_BT101_7_3_1 nPhases=3,r1=0.306,x1=0.268,units=km,normamps=314
new linecode.BT111_BT105_7_3_1 nPhases=3,r1=0.306,x1=0.268,units=km,normamps=314
new linecode.BT111_BT106_7_3_1 nPhases=3,r1=0.306,x1=0.268,units=km,normamps=314
new linecode.BT111_BT107_7_2_1 nPhases=2,r1=0.306,x1=0.268,units=km,normamps=314
new linecode.BT111_BT107_7_3_1 nPhases=3,r1=0.306,x1=0.268,units=km,normamps=314
new linecode.BT111_BT108_7_1_1 nPhases=1,r1=0.306,x1=0.268,units=km,normamps=314
new linecode.BT111_BT108_7_2_1 nPhases=2,r1=0.306,x1=0.268,units=km,normamps=314
new linecode.BT111_BT108_7_3_1 nPhases=3,r1=0.306,x1=0.268,units=km,normamps=314
new linecode.BT111_BT109_7_3_1 nPhases=3,r1=0.306,x1=0.268,units=km,normamps=314
new linecode.BT111_BT111_7_2_1 nPhases=2,r1=0.306,x1=0.268,units=km,normamps=314
new linecode.BT111_BT111_7_3_1 nPhases=3,r1=0.306,x1=0.268,units=km,normamps=314
new linecode.BT111_BT308_7_3_1 nPhases=3,r1=0.306,x1=0.268,units=km,normamps=314
new linecode.BT112_BT108_7_3_1 nPhases=3,r1=0.195,x1=0.1686,units=km,normamps=425
new linecode.BT112_BT111_7_3_1 nPhases=3,r1=0.195,x1=0.1686,units=km,normamps=425
new linecode.BT112_BT112_7_1_1 nPhases=1,r1=0.195,x1=0.1686,units=km,normamps=425
new linecode.BT112_BT112_7_2_1 nPhases=2,r1=0.195,x1=0.1686,units=km,normamps=425
new linecode.BT112_BT112_7_3_1 nPhases=3,r1=0.195,x1=0.1686,units=km,normamps=425
new linecode.BT201_BT201_7_2_1 nPhases=2,r1=6.094,x1=0.4042,units=km,normamps=25
new linecode.BT203_BT203_7_2_1 nPhases=2,r1=2.0095,x1=0.3622,units=km,normamps=82
new linecode.BT203_BT203_7_3_1 nPhases=3,r1=2.0095,x1=0.3622,units=km,normamps=82
new linecode.BT204_BT204_7_1_1 nPhases=1,r1=2.469,x1=2.176,units=km,normamps=84
new linecode.BT204_BT204_7_3_1 nPhases=3,r1=2.469,x1=2.176,units=km,normamps=84
new linecode.BT204_BT207_7_2_1 nPhases=2,r1=2.469,x1=2.176,units=km,normamps=84
new linecode.BT205_BT205_7_2_1 nPhases=2,r1=1.229,x1=0.3961,units=km,normamps=101
new linecode.BT205_BT205_7_3_1 nPhases=3,r1=1.229,x1=0.3961,units=km,normamps=101
new linecode.BT205_BT206_7_1_1 nPhases=1,r1=1.229,x1=0.3961,units=km,normamps=101
new linecode.BT205_BT206_7_2_1 nPhases=2,r1=1.229,x1=0.3961,units=km,normamps=101
new linecode.BT206_BT106_7_1_1 nPhases=1,r1=1.551,x1=1.361,units=km,normamps=112
new linecode.BT206_BT106_7_2_1 nPhases=2,r1=1.551,x1=1.361,units=km,normamps=112
new linecode.BT206_BT106_7_3_1 nPhases=3,r1=1.551,x1=1.361,units=km,normamps=112
new linecode.BT206_BT107_7_1_1 nPhases=1,r1=1.551,x1=1.361,units=km,normamps=112
new linecode.BT206_BT107_7_2_1 nPhases=2,r1=1.551,x1=1.361,units=km,normamps=112
new linecode.BT206_BT107_7_3_1 nPhases=3,r1=1.551,x1=1.361,units=km,normamps=112
new linecode.BT206_BT108_7_3_1 nPhases=3,r1=1.551,x1=1.361,units=km,normamps=112
new linecode.BT206_BT204_7_2_1 nPhases=2,r1=1.551,x1=1.361,units=km,normamps=112
new linecode.BT206_BT205_7_2_1 nPhases=2,r1=1.551,x1=1.361,units=km,normamps=112
new linecode.BT206_BT206_7_1_1 nPhases=1,r1=1.551,x1=1.361,units=km,normamps=112
new linecode.BT206_BT206_7_2_1 nPhases=2,r1=1.551,x1=1.361,units=km,normamps=112
new linecode.BT206_BT206_7_3_1 nPhases=3,r1=1.551,x1=1.361,units=km,normamps=112
new linecode.BT206_BT207_7_1_1 nPhases=1,r1=1.551,x1=1.361,units=km,normamps=112
new linecode.BT206_BT207_7_2_1 nPhases=2,r1=1.551,x1=1.361,units=km,normamps=112
new linecode.BT206_BT207_7_3_1 nPhases=3,r1=1.551,x1=1.361,units=km,normamps=112
new linecode.BT206_BT211_7_2_1 nPhases=2,r1=1.551,x1=1.361,units=km,normamps=112
new linecode.BT206_BT306_7_2_1 nPhases=2,r1=1.551,x1=1.361,units=km,normamps=112
new linecode.BT206_BT801_7_2_1 nPhases=2,r1=1.551,x1=1.361,units=km,normamps=112
new linecode.BT206_BT808_7_2_1 nPhases=2,r1=1.551,x1=1.361,units=km,normamps=112
new linecode.BT206_BT811_7_2_1 nPhases=2,r1=1.551,x1=1.361,units=km,normamps=112
new linecode.BT206_BT814_7_2_1 nPhases=2,r1=1.551,x1=1.361,units=km,normamps=112
new linecode.BT206_BTC02_7_1_1 nPhases=1,r1=1.551,x1=1.361,units=km,normamps=112
new linecode.BT206_BTH03_7_2_1 nPhases=2,r1=1.551,x1=1.361,units=km,normamps=112
new linecode.BT206_BTJ01_7_2_1 nPhases=2,r1=1.551,x1=1.361,units=km,normamps=112
new linecode.BT207_BT006_7_2_1 nPhases=2,r1=0.975,x1=0.857,units=km,normamps=151
new linecode.BT207_BT106_7_1_1 nPhases=1,r1=0.975,x1=0.857,units=km,normamps=151
new linecode.BT207_BT106_7_2_1 nPhases=2,r1=0.975,x1=0.857,units=km,normamps=151
new linecode.BT207_BT106_7_3_1 nPhases=3,r1=0.975,x1=0.857,units=km,normamps=151
new linecode.BT207_BT107_7_1_1 nPhases=1,r1=0.975,x1=0.857,units=km,normamps=151
new linecode.BT207_BT107_7_2_1 nPhases=2,r1=0.975,x1=0.857,units=km,normamps=151
new linecode.BT207_BT107_7_3_1 nPhases=3,r1=0.975,x1=0.857,units=km,normamps=151
new linecode.BT207_BT108_7_3_1 nPhases=3,r1=0.975,x1=0.857,units=km,normamps=151