new load.3001486322M1 bus1=RML1052790591.2.0,Phases=1,kv=0.12,kW=0.9368,pf=0.92,Vminpu=0.92,Vmaxpu=1.5,model=1,daily=RES1_5,status=variable
new load.3001486330M1 bus1=RML1052790612.2.0,Phases=1,kv=0.12,kW=0.01836,pf=0.92,Vminpu=0.92,Vmaxpu=1.5,model=1,daily=RES1_5,status=variable
new load.3001486339M1 bus1=RML1052790717.2.0,Phases=1,kv=0.12,kW=0.56942,pf=0.92,Vminpu=0.92,Vmaxpu=1.5,model=1,daily=RES1_5,status=variable
new load.3001486347M1 bus1=RML1052790465.1.0,Phases=1,kv=0.12,kW=0.73474,pf=0.92,Vminpu=0.92,Vmaxpu=1.5,model=1,daily=RES1_5,status=variable
new load.3001486364M1 bus1=RML1052745931.1.0,Phases=1,kv=0.12,kW=0.5878,pf=0.92,Vminpu=0.92,Vmaxpu=1.5,model=1,daily=RES1_5,status=variable
new load.3001486372M1 bus1=RML1052745840.2.0,Phases=1,kv=0.12,kW=0.62452,pf=0.92,Vminpu=0.92,Vmaxpu=1.5,model=1,daily=RES1_5,status=variable
new load.3001488916M1 bus1=RML1051905441.1.0,Phases=1,kv=0.127,kW=1.59748,pf=0.92,Vminpu=0.92,Vmaxpu=1.5,model=1,daily=RES3_7,status=variable
new load.3001488925M1 bus1=RML1051904958.2.0,Phases=1,kv=0.127,kW=1.35926,pf=0.92,Vminpu=0.92,Vmaxpu=1.5,model=1,daily=RES1_5,status=variable
new load.3001488937M1 bus1=RML1051907170.2.0,Phases=1,kv=0.127,kW=0.78984,pf=0.92,Vminpu=0.92,Vmaxpu=1.5,model=1,daily=RES1_5,status=variable
new load.3001488947M1 bus1=RML1051907128.2.0,Phases=1,kv=0.127,kW=2.99058,pf=0.92,Vminpu=0.92,Vmaxpu=1.5,model=1,daily=RES4_9,status=variable
new load.3001488956M1 bus1=RML1051909067.2.0,Phases=1,kv=0.12,kW=0.87572,pf=0.92,Vminpu=0.92,Vmaxpu=1.5,model=1,daily=RES2_6,status=variable
new load.3001488964M1 bus1=RML1051909088.2.0,Phases=1,kv=0.12,kW=1.08374,pf=0.92,Vminpu=0.92,Vmaxpu=1.5,model=1,daily=RES1_5,status=variable
new load.3001488974M1 bus1=RML1051905182.2.0,Phases=1,kv=0.127,kW=0.613,pf=0.92,Vminpu=0.92,Vmaxpu=1.5,model=1,daily=RES2_6,status=variable
new load.3001488993M1 bus1=RML1051908451.3.0,Phases=1,kv=0.127,kW=0.22966,pf=0.92,Vminpu=0.92,Vmaxpu=1.5,model=1,daily=COM1_10,status=variable
new load.3001489001M1 bus1=RML1051906554.2.0,Phases=1,kv=0.12,kW=1.3409,pf=0.92,Vminpu=0.92,Vmaxpu=1.5,model=1,daily=RES1_5,status=variable
new load.3001489010M1 bus1=RML1051909319.2.0,Phases=1,kv=0.127,kW=0.47758,pf=0.92,Vminpu=0.92,Vmaxpu=1.5,model=1,daily=RES1_5,status=variable
new load.3001489018M1 bus1=RML1051909221.3.0,Phases=1,kv=0.127,kW=0.82568,pf=0.92,Vminpu=0.92,Vmaxpu=1.5,model=1,daily=RES2_6,status=variable
new load.3001489046M1 bus1=RML1051906379.2.0,Phases=1,kv=0.12,kW=0.55672,pf=0.92,Vminpu=0.92,Vmaxpu=1.5,model=1,daily=RES2_6,status=variable
new load.3001489055M1 bus1=RML1051905427.3.0,Phases=1,kv=0.127,kW=0.80822,pf=0.92,Vminpu=0.92,Vmaxpu=1.5,model=1,daily=RES1_5,status=variable
new load.3001489063M1 bus1=RML1053159645.1.0,Phases=1,kv=0.12,kW=0.66306,pf=0.92,Vminpu=0.92,Vmaxpu=1.5,model=1,daily=RES2_6,status=variable
new load.3001489071M1 bus1=RML1051909144.2.0,Phases=1,kv=0.127,kW=1.06538,pf=0.92,Vminpu=0.92,Vmaxpu=1.5,model=1,daily=RES1_5,status=variable
new load.3001489081M1 bus1=RML1051908388.1.0,Phases=1,kv=0.127,kW=0.62784,pf=0.92,Vminpu=0.92,Vmaxpu=1.5,model=1,daily=RES3_7,status=variable
new load.3001489090M1 bus1=RML1051908192.2.0,Phases=1,kv=0.127,kW=0.86332,pf=0.92,Vminpu=0.92,Vmaxpu=1.5,model=1,daily=RES1_5,status=variable
new load.3001489099M1 bus1=RML1051908094.2.0,Phases=1,kv=0.127,kW=0.35654,pf=0.92,Vminpu=0.92,Vmaxpu=1.5,model=1,daily=RES2_6,status=variable
new load.3001486327M1 bus1=RML1055961127.1.0,Phases=1,kv=0.12,kW=1.24906,pf=0.92,Vminpu=0.92,Vmaxpu=1.5,model=1,daily=RES1_5,status=variable
new load.3001486336M1 bus1=RML1052790745.2.0,Phases=1,kv=0.12,kW=0.58174,pf=0.92,Vminpu=0.92,Vmaxpu=1.5,model=1,daily=RES2_6,status=variable
new load.3001486352M1 bus1=RML1052746036.1.0,Phases=1,kv=0.12,kW=1.26742,pf=0.92,Vminpu=0.92,Vmaxpu=1.5,model=1,daily=RES1_5,status=variable
new load.3001486377M1 bus1=RML1052745770.2.0,Phases=1,kv=0.12,kW=1.047,pf=0.92,Vminpu=0.92,Vmaxpu=1.5,model=1,daily=RES1_5,status=variable
new load.3001488921M1 bus1=RML1051905294.1.0,Phases=1,kv=0.127,kW=1.02864,pf=0.92,Vminpu=0.92,Vmaxpu=1.5,model=1,daily=RES1_5,status=variable
new load.3001488944M1 bus1=RML1051907079.1.0,Phases=1,kv=0.127,kW=1.396,pf=0.92,Vminpu=0.92,Vmaxpu=1.5,model=1,daily=RES1_5,status=variable
new load.3001488952M1 bus1=RML1051904937.3.0,Phases=1,kv=0.127,kW=0.51918,pf=0.92,Vminpu=0.92,Vmaxpu=1.5,model=1,daily=RES2_6,status=variable
new load.3001488961M1 bus1=RML1051909053.1.0,Phases=1,kv=0.12,kW=1.76338,pf=0.92,Vminpu=0.92,Vmaxpu=1.5,model=1,daily=RES1_5,status=variable
new load.3001488998M1 bus1=RML1051905140.1.2.3.0,Phases=3,kv=0.22,kW=2.82158,pf=0.92,Vminpu=0.92,Vmaxpu=1.5,model=1,daily=COM3_8,status=variable
new load.3001489007M1 bus1=RML1051909340.2.0,Phases=1,kv=0.127,kW=1.1021,pf=0.92,Vminpu=0.92,Vmaxpu=1.5,model=1,daily=RES1_5,status=variable
new load.3001489025M1 bus1=RML1051906197.2.0,Phases=1,kv=0.12,kW=0.7819,pf=0.92,Vminpu=0.92,Vmaxpu=1.5,model=1,daily=RES2_6,status=variable
new load.3001489035M1 bus1=RML1051906337.1.0,Phases=1,kv=0.12,kW=0.7531,pf=0.92,Vminpu=0.92,Vmaxpu=1.5,model=1,daily=RES1_5,status=variable
new load.3001489052M1 bus1=RML1051906183.1.0,Phases=1,kv=0.12,kW=0.87572,pf=0.92,Vminpu=0.92,Vmaxpu=1.5,model=1,daily=RES2_6,status=variable
new load.3001489060M1 bus1=RML1051906435.2.0,Phases=1,kv=0.12,kW=1.52458,pf=0.92,Vminpu=0.92,Vmaxpu=1.5,model=1,daily=RES1_5,status=variable
new load.3001489068M1 bus1=RML1051916557.3.0,Phases=1,kv=0.127,kW=1.56132,pf=0.92,Vminpu=0.92,Vmaxpu=1.5,model=1,daily=RES1_5,status=variable
new load.3001489087M1 bus1=RML1051908248.1.2.0,Phases=2,kv=0.22,kW=0.35724,pf=0.92,Vminpu=0.92,Vmaxpu=1.5,model=1,daily=COM1_10,status=variable
new load.3001489095M1 bus1=RML1051908892.1.0,Phases=1,kv=0.12,kW=0.63804,pf=0.92,Vminpu=0.92,Vmaxpu=1.5,model=1,daily=RES2_6,status=variable
new load.3001489104M1 bus1=RML1051908759.1.0,Phases=1,kv=0.127,kW=1.01334,pf=0.92,Vminpu=0.92,Vmaxpu=1.5,model=1,daily=RES2_6,status=variable
new load.3001486324M1 bus1=RML1052790689.1.0,Phases=1,kv=0.12,kW=0.88168,pf=0.92,Vminpu=0.92,Vmaxpu=1.5,model=1,daily=RES1_5,status=variable
new load.3001486333M1 bus1=RML1052790647.1.2.0,Phases=2,kv=0.24,kW=0.62452,pf=0.92,Vminpu=0.92,Vmaxpu=1.5,model=1,daily=RES1_5,status=variable
new load.3001486341M1 bus1=RML1052790486.2.0,Phases=1,kv=0.12,kW=0.77148,pf=0.92,Vminpu=0.92,Vmaxpu=1.5,model=1,daily=RES1_5,status=variable
new load.3001486349M1 bus1=RML1052790563.1.0,Phases=1,kv=0.12,kW=0.45038,pf=0.92,Vminpu=0.92,Vmaxpu=1.5,model=1,daily=RES2_6,status=variable
new load.3001486358M1 bus1=RML1052745994.1.0,Phases=1,kv=0.12,kW=0.22042,pf=0.92,Vminpu=0.92,Vmaxpu=1.5,model=1,daily=RES1_5,status=variable
new load.3001486374M1 bus1=RML1052745833.1.0,Phases=1,kv=0.12,kW=0.73474,pf=0.92,Vminpu=0.92,Vmaxpu=1.5,model=1,daily=RES1_5,status=variable
new load.3001486382M1 bus1=RML1052746071.1.0,Phases=1,kv=0.12,kW=0.0085,pf=0.92,Vminpu=0.92,Vmaxpu=1.5,model=1,daily=COM1_10,status=variable
new load.3001488918M1 bus1=RML1051905392.3.0,Phases=1,kv=0.127,kW=0.03674,pf=0.92,Vminpu=0.92,Vmaxpu=1.5,model=1,daily=RES1_5,status=variable
new load.3001488929M1 bus1=RML1060964506.2.0,Phases=1,kv=0.127,kW=0.49416,pf=0.92,Vminpu=0.92,Vmaxpu=1.5,model=1,daily=RES2_6,status=variable
new load.3001488940M1 bus1=RML1051907156.2.0,Phases=1,kv=0.127,kW=0.78984,pf=0.92,Vminpu=0.92,Vmaxpu=1.5,model=1,daily=RES1_5,status=variable
new load.3001488949M1 bus1=RML1051907163.2.0,Phases=1,kv=0.127,kW=0.42248,pf=0.92,Vminpu=0.92,Vmaxpu=1.5,model=1,daily=RES1_5,status=variable
new load.3001488966M1 bus1=RML1051905063.1.0,Phases=1,kv=0.127,kW=0.51918,pf=0.92,Vminpu=0.92,Vmaxpu=1.5,model=1,daily=RES2_6,status=variable
new load.3001488977M1 bus1=RML1060964507.3.0,Phases=1,kv=0.127,kW=0.5878,pf=0.92,Vminpu=0.92,Vmaxpu=1.5,model=1,daily=RES1_5,status=variable
new load.3001488986M1 bus1=RML1051905133.2.0,Phases=1,kv=0.127,kW=0.60676,pf=0.92,Vminpu=0.92,Vmaxpu=1.5,model=1,daily=RES2_6,status=variable
new load.3001488995M1 bus1=RML1051908577.2.0,Phases=1,kv=0.127,kW=1.11968,pf=0.92,Vminpu=0.92,Vmaxpu=1.5,model=1,daily=RES2_6,status=variable
new load.3001489003M1 bus1=RML1056102786.2.0,Phases=1,kv=0.127,kW=1.67154,pf=0.92,Vminpu=0.92,Vmaxpu=1.5,model=1,daily=RES1_5,status=variable
new load.3001489032M1 bus1=RML1051906463.1.0,Phases=1,kv=0.12,kW=0.73186,pf=0.92,Vminpu=0.92,Vmaxpu=1.5,model=1,daily=RES2_6,status=variable
new load.3001489040M1 bus1=RML1051906267.1.0,Phases=1,kv=0.12,kW=0.4041,pf=0.92,Vminpu=0.92,Vmaxpu=1.5,model=1,daily=RES1_5,status=variable
new load.3001489065M1 bus1=RML1053124631.1.0,Phases=1,kv=0.127,kW=0.17514,pf=0.92,Vminpu=0.92,Vmaxpu=1.5,model=1,daily=RES2_6,status=variable
new load.3001489073M1 bus1=RML1051908983.1.2.0,Phases=2,kv=0.24,kW=0.74312,pf=0.92,Vminpu=0.92,Vmaxpu=1.5,model=1,daily=RES4_9,status=variable
new load.3001489092M1 bus1=RML1051908920.1.0,Phases=1,kv=0.12,kW=0.8507,pf=0.92,Vminpu=0.92,Vmaxpu=1.5,model=1,daily=RES2_6,status=variable
new load.3001489101M1 bus1=RML1051908157.3.0,Phases=1,kv=0.127,kW=1.28356,pf=0.92,Vminpu=0.92,Vmaxpu=1.5,model=1,daily=RES3_7,status=variable
new load.3001486334M1 bus1=RML1052790633.2.0,Phases=1,kv=0.12,kW=0.95516,pf=0.92,Vminpu=0.92,Vmaxpu=1.5,model=1,daily=RES1_5,status=variable
new load.3001486342M1 bus1=RML1052790507.2.0,Phases=1,kv=0.12,kW=1.06538,pf=0.92,Vminpu=0.92,Vmaxpu=1.5,model=1,daily=RES1_5,status=variable
new load.3001486350M1 bus1=RML1052790549.2.0,Phases=1,kv=0.12,kW=1.17558,pf=0.92,Vminpu=0.92,Vmaxpu=1.5,model=1,daily=RES1_5,status=variable
new load.3001488911M1 bus1=RML1051916613.1.2.3.0,Phases=3,kv=0.22,kW=0.88198,pf=0.92,Vminpu=0.92,Vmaxpu=1.5,model=1,daily=RES2_6,status=variable
new load.3001488919M1 bus1=RML1051905378.2.0,Phases=1,kv=0.127,kW=1.06338,pf=0.92,Vminpu=0.92,Vmaxpu=1.5,model=1,daily=RES2_6,status=variable
new load.3001488931M1 bus1=RML1051905000.1.2.0,Phases=2,kv=0.22,kW=1.15722,pf=0.92,Vminpu=0.92,Vmaxpu=1.5,model=1,daily=RES1_5,status=variable
new load.3001488942M1 bus1=RML1051907121.2.0,Phases=1,kv=0.127,kW=0.6005,pf=0.92,Vminpu=0.92,Vmaxpu=1.5,model=1,daily=RES2_6,status=variable
new load.3001488950M1 bus1=RML1051904965.1.0,Phases=1,kv=0.127,kW=0.6568,pf=0.92,Vminpu=0.92,Vmaxpu=1.5,model=1,daily=RES2_6,status=variable
new load.3001488959M1 bus1=RML1051908997.2.0,Phases=1,kv=0.12,kW=1.1447,pf=0.92,Vminpu=0.92,Vmaxpu=1.5,model=1,daily=RES2_6,status=variable
new load.3001488967M1 bus1=RML1051905056.3.0,Phases=1,kv=0.127,kW=0.73474,pf=0.92,Vminpu=0.92,Vmaxpu=1.5,model=1,daily=RES1_5,status=variable
new load.3001488979M1 bus1=RML1051905308.2.3.0,Phases=2,kv=0.22,kW=0.55672,pf=0.92,Vminpu=0.92,Vmaxpu=1.5,model=1,daily=RES2_6,status=variable
new load.3001488987M1 bus1=RML1051905042.2.0,Phases=1,kv=0.127,kW=1.06538,pf=0.92,Vminpu=0.92,Vmaxpu=1.5,model=1,daily=RES1_5,status=variable
new load.3001488996M1 bus1=RML1051905084.2.3.0,Phases=2,kv=0.22,kW=0.77564,pf=0.92,Vminpu=0.92,Vmaxpu=1.5,model=1,daily=RES2_6,status=variable
new load.3001489005M1 bus1=RML1051909361.3.0,Phases=1,kv=0.127,kW=0.71638,pf=0.92,Vminpu=0.92,Vmaxpu=1.5,model=1,daily=RES1_5,status=variable
new load.3001489013M1 bus1=RML1051909333.1.0,Phases=1,kv=0.127,kW=0.88824,pf=0.92,Vminpu=0.92,Vmaxpu=1.5,model=1,daily=RES2_6,status=variable
new load.3001489033M1 bus1=RML1051906274.2.0,Phases=1,kv=0.12,kW=0.97352,pf=0.92,Vminpu=0.92,Vmaxpu=1.5,model=1,daily=RES1_5,status=variable
new load.3001489041M1 bus1=RML1051906253.2.0,Phases=1,kv=0.12,kW=0.62452,pf=0.92,Vminpu=0.92,Vmaxpu=1.5,model=1,daily=RES1_5,status=variable
new load.3001489050M1 bus1=RML1051906176.2.0,Phases=1,kv=0.12,kW=0.58174,pf=0.92,Vminpu=0.92,Vmaxpu=1.5,model=1,daily=RES2_6,status=variable
new load.3001489058M1 bus1=RML1051905469.1.0,Phases=1,kv=0.127,kW=0.88168,pf=0.92,Vminpu=0.92,Vmaxpu=1.5,model=1,daily=RES1_5,status=variable
new load.3001489066M1 bus1=RML1051916515.3.0,Phases=1,kv=0.127,kW=1.06538,pf=0.92,Vminpu=0.92,Vmaxpu=1.5,model=1,daily=RES1_5,status=variable
new load.3001489074M1 bus1=RML1051908969.1.0,Phases=1,kv=0.12,kW=0.6568,pf=0.92,Vminpu=0.92,Vmaxpu=1.5,model=1,daily=RES2_6,status=variable
new load.3001489084M1 bus1=RML1051908542.1.2.0,Phases=2,kv=0.22,kW=1.77188,pf=0.92,Vminpu=0.92,Vmaxpu=1.5,model=1,daily=RES3_7,status=variable
new load.3001489093M1 bus1=RML1051908913.2.0,Phases=1,kv=0.12,kW=0.97352,pf=0.92,Vminpu=0.92,Vmaxpu=1.5,model=1,daily=RES1_5,status=variable
new load.3001485980M1 bus1=RML1052790584.2.0,Phases=1,kv=0.12,kW=0.31226,pf=0.92,Vminpu=0.92,Vmaxpu=1.5,model=1,daily=RES1_5,status=variable
new load.3001486328M1 bus1=RML1052790542.1.0,Phases=1,kv=0.12,kW=1.26742,pf=0.92,Vminpu=0.92,Vmaxpu=1.5,model=1,daily=RES1_5,status=variable
new load.3001486337M1 bus1=RML1052790738.2.0,Phases=1,kv=0.12,kW=1.08374,pf=0.92,Vminpu=0.92,Vmaxpu=1.5,model=1,daily=RES1_5,status=variable
new load.3001486345M1 bus1=RML1052790521.1.0,Phases=1,kv=0.12,kW=0.51292,pf=0.92,Vminpu=0.92,Vmaxpu=1.5,model=1,daily=RES2_6,status=variable
new load.3001486362M1 bus1=RML1052745945.2.0,Phases=1,kv=0.12,kW=0.62552,pf=0.92,Vminpu=0.92,Vmaxpu=1.5,model=1,daily=RES2_6,status=variable
new load.3001486370M1 bus1=RML1052745889.1.0,Phases=1,kv=0.12,kW=1.01026,pf=0.92,Vminpu=0.92,Vmaxpu=1.5,model=1,daily=RES1_5,status=variable
new load.3001486378M1 bus1=RML1052745777.1.0,Phases=1,kv=0.12,kW=0.95516,pf=0.92,Vminpu=0.92,Vmaxpu=1.5,model=1,daily=RES1_5,status=variable
new load.3001488914M1 bus1=RML1051916529.2.0,Phases=1,kv=0.127,kW=1.46494,pf=0.92,Vminpu=0.92,Vmaxpu=1.5,model=1,daily=RES3_7,status=variable
new load.3001488922M1 bus1=RML1060964508.2.0,Phases=1,kv=0.127,kW=1.66026,pf=0.92,Vminpu=0.92,Vmaxpu=1.5,model=1,daily=RES3_7,status=variable
new load.3001488934M1 bus1=RML1051905105.1.0,Phases=1,kv=0.127,kW=0.63178,pf=0.92,Vminpu=0.92,Vmaxpu=1.5,model=1,daily=RES2_6,status=variable
new load.3001488945M1 bus1=RML1051907086.1.0,Phases=1,kv=0.127,kW=0.70058,pf=0.92,Vminpu=0.92,Vmaxpu=1.5,model=1,daily=RES2_6,status=variable
new load.3001488953M1 bus1=RML1051904923.3.0,Phases=1,kv=0.127,kW=0.91842,pf=0.92,Vminpu=0.92,Vmaxpu=1.5,model=1,daily=RES1_5,status=variable
new load.3001488962M1 bus1=RML1051909018.2.0,Phases=1,kv=0.12,kW=1.07256,pf=0.92,Vminpu=0.92,Vmaxpu=1.5,model=1,daily=COM2_7,status=variable
new load.3001488972M1 bus1=RML1051904944.3.0,Phases=1,kv=0.127,kW=0.87572,pf=0.92,Vminpu=0.92,Vmaxpu=1.5,model=1,daily=RES2_6,status=variable
new load.3001488982M1 bus1=RML1051905399.1.0,Phases=1,kv=0.127,kW=0.79528,pf=0.92,Vminpu=0.92,Vmaxpu=1.5,model=1,daily=COM1_10,status=variable
new load.3001488991M1 bus1=RML1051908598.1.2.0,Phases=2,kv=0.22,kW=0.5442,pf=0.92,Vminpu=0.92,Vmaxpu=1.5,model=1,daily=RES2_6,status=variable
new load.3001489008M1 bus1=RML1051909305.2.0,Phases=1,kv=0.127,kW=0.49416,pf=0.92,Vminpu=0.92,Vmaxpu=1.5,model=1,daily=RES2_6,status=variable
new load.3001489016M1 bus1=RML1051909291.1.2.3.0,Phases=3,kv=0.22,kW=0.47206,pf=0.92,Vminpu=0.92,Vmaxpu=1.5,model=1,daily=COM1_10,status=variable
new load.3001489026M1 bus1=RML1051906246.2.0,Phases=1,kv=0.12,kW=1.08374,pf=0.92,Vminpu=0.92,Vmaxpu=1.5,model=1,daily=RES1_5,status=variable
new load.3001489044M1 bus1=RML1051906302.2.0,Phases=1,kv=0.12,kW=0.66306,pf=0.92,Vminpu=0.92,Vmaxpu=1.5,model=1,daily=RES2_6,status=variable
new load.3001489053M1 bus1=RML1051905350.3.0,Phases=1,kv=0.127,kW=0.35654,pf=0.92,Vminpu=0.92,Vmaxpu=1.5,model=1,daily=RES2_6,status=variable
new load.3001489061M1 bus1=RML1051906442.1.2.0,Phases=2,kv=0.24,kW=2.06108,pf=0.92,Vminpu=0.92,Vmaxpu=1.5,model=1,daily=COM2_7,status=variable
new load.3001489069M1 bus1=RML1051916592.3.0,Phases=1,kv=0.127,kW=1.13884,pf=0.92,Vminpu=0.92,Vmaxpu=1.5,model=1,daily=RES1_5,status=variable
new load.3001489079M1 bus1=RML1051908318.3.0,Phases=1,kv=0.127,kW=0.46914,pf=0.92,Vminpu=0.92,Vmaxpu=1.5,model=1,daily=RES2_6,status=variable
new load.3001489096M1 bus1=RML1051908899.2.0,Phases=1,kv=0.12,kW=1.45098,pf=0.92,Vminpu=0.92,Vmaxpu=1.5,model=1,daily=RES3_7,status=variable
new load.3001486323M1 bus1=RML1052790605.2.0,Phases=1,kv=0.12,kW=0.62552,pf=0.92,Vminpu=0.92,Vmaxpu=1.5,model=1,daily=RES2_6,status=variable
new load.3001486331M1 bus1=RML1052790626.1.0,Phases=1,kv=0.12,kW=1.00084,pf=0.92,Vminpu=0.92,Vmaxpu=1.5,model=1,daily=RES2_6,status=variable
new load.3001486340M1 bus1=RML1052790710.1.0,Phases=1,kv=0.12,kW=1.02864,pf=0.92,Vminpu=0.92,Vmaxpu=1.5,model=1,daily=RES1_5,status=variable
new load.3001486348M1 bus1=RML1052790458.2.0,Phases=1,kv=0.12,kW=0.82658,pf=0.92,Vminpu=0.92,Vmaxpu=1.5,model=1,daily=RES1_5,status=variable
new load.3001486357M1 bus1=RML1052746064.1.0,Phases=1,kv=0.12,kW=0.0085,pf=0.92,Vminpu=0.92,Vmaxpu=1.5,model=1,daily=COM1_10,status=variable
new load.3001486365M1 bus1=RML1052745917.1.2.0,Phases=2,kv=0.24,kW=0.51432,pf=0.92,Vminpu=0.92,Vmaxpu=1.5,model=1,daily=RES1_5,status=variable
new load.3001486373M1 bus1=RML1055932616.1.0,Phases=1,kv=0.12,kW=1.24906,pf=0.92,Vminpu=0.92,Vmaxpu=1.5,model=1,daily=RES1_5,status=variable
new load.3001488917M1 bus1=RML1051905385.2.0,Phases=1,kv=0.127,kW=0.0551,pf=0.92,Vminpu=0.92,Vmaxpu=1.5,model=1,daily=RES1_5,status=variable
new load.3001488926M1 bus1=RML1053159708.2.0,Phases=1,kv=0.127,kW=0.907,pf=0.92,Vminpu=0.92,Vmaxpu=1.5,model=1,daily=RES2_6,status=variable
new load.3001488957M1 bus1=RML1051909004.1.0,Phases=1,kv=0.12,kW=0.40658,pf=0.92,Vminpu=0.92,Vmaxpu=1.5,model=1,daily=RES2_6,status=variable
new load.3001488965M1 bus1=RML1051904972.3.0,Phases=1,kv=0.127,kW=0.7131,pf=0.92,Vminpu=0.92,Vmaxpu=1.5,model=1,daily=RES2_6,status=variable
new load.3001488975M1 bus1=RML1051905168.1.0,Phases=1,kv=0.127,kW=0.83194,pf=0.92,Vminpu=0.92,Vmaxpu=1.5,model=1,daily=RES2_6,status=variable
new load.3001488985M1 bus1=RML1051905343.3.0,Phases=1,kv=0.127,kW=0.2388,pf=0.92,Vminpu=0.92,Vmaxpu=1.5,model=1,daily=RES1_5,status=variable
new load.3001488994M1 bus1=RML1051908458.2.3.0,Phases=2,kv=0.22,kW=0.62452,pf=0.92,Vminpu=0.92,Vmaxpu=1.5,model=1,daily=RES1_5,status=variable
new load.3001489011M1 bus1=RML1051909326.1.0,Phases=1,kv=0.127,kW=1.05712,pf=0.92,Vminpu=0.92,Vmaxpu=1.5,model=1,daily=RES2_6,status=variable
new load.3001489039M1 bus1=RML1051906323.2.0,Phases=1,kv=0.12,kW=0.56296,pf=0.92,Vminpu=0.92,Vmaxpu=1.5,model=1,daily=RES2_6,status=variable
new load.3001489056M1 bus1=RML1051905406.1.0,Phases=1,kv=0.127,kW=0.12858,pf=0.92,Vminpu=0.92,Vmaxpu=1.5,model=1,daily=RES1_5,status=variable
new load.3001489064M1 bus1=RML1060489810.1.0,Phases=1,kv=0.127,kW=0.9919,pf=0.92,Vminpu=0.92,Vmaxpu=1.5,model=1,daily=RES1_5,status=variable
new load.3001489072M1 bus1=RML1051909060.2.0,Phases=1,kv=0.12,kW=1.57968,pf=0.92,Vminpu=0.92,Vmaxpu=1.5,model=1,daily=RES1_5,status=variable
new load.3001489091M1 bus1=RML1051908962.1.0,Phases=1,kv=0.12,kW=0.73812,pf=0.92,Vminpu=0.92,Vmaxpu=1.5,model=1,daily=RES2_6,status=variable
new load.3001489100M1 bus1=RML1051908108.1.0,Phases=1,kv=0.127,kW=0.63804,pf=0.92,Vminpu=0.92,Vmaxpu=1.5,model=1,daily=RES2_6,status=variable
new load.3001486326M1 bus1=RML1052790675.1.0,Phases=1,kv=0.12,kW=0.51432,pf=0.92,Vminpu=0.92,Vmaxpu=1.5,model=1,daily=RES1_5,status=variable
new load.3001486335M1 bus1=RML1052790752.2.0,Phases=1,kv=0.12,kW=0.0808,pf=0.92,Vminpu=0.92,Vmaxpu=1.5,model=1,daily=COM1_10,status=variable
new load.3001486343M1 bus1=RML1052790493.2.0,Phases=1,kv=0.12,kW=0.9368,pf=0.92,Vminpu=0.92,Vmaxpu=1.5,model=1,daily=RES1_5,status=variable
new load.3001486351M1 bus1=RML1052790577.1.0,Phases=1,kv=0.12,kW=0.97352,pf=0.92,Vminpu=0.92,Vmaxpu=1.5,model=1,daily=RES1_5,status=variable
new load.3001486360M1 bus1=RML1052745959.1.0,Phases=1,kv=0.12,kW=1.24906,pf=0.92,Vminpu=0.92,Vmaxpu=1.5,model=1,daily=RES1_5,status=variable
new load.3001486376M1 bus1=RML1052745763.2.0,Phases=1,kv=0.12,kW=0.33064,pf=0.92,Vminpu=0.92,Vmaxpu=1.5,model=1,daily=RES1_5,status=variable
new load.3001488912M1 bus1=RML1060035027.1.2.3.0,Phases=3,kv=0.22,kW=0.88198,pf=0.92,Vminpu=0.92,Vmaxpu=1.5,model=1,daily=RES2_6,status=variable
new load.3001488920M1 bus1=RML1051905301.1.0,Phases=1,kv=0.127,kW=1.4161,pf=0.92,Vminpu=0.92,Vmaxpu=1.5,model=1,daily=RES3_7,status=variable
new load.3001488932M1 bus1=RML1051905007.1.2.0,Phases=2,kv=0.22,kW=0.75062,pf=0.92,Vminpu=0.92,Vmaxpu=1.5,model=1,daily=RES2_6,status=variable
new load.3001488943M1 bus1=RML1051907093.3.0,Phases=1,kv=0.127,kW=0.3503,pf=0.92,Vminpu=0.92,Vmaxpu=1.5,model=1,daily=RES2_6,status=variable
new load.3001488951M1 bus1=RML1051904930.1.2.0,Phases=2,kv=0.22,kW=1.20106,pf=0.92,Vminpu=0.92,Vmaxpu=1.5,model=1,daily=COM2_7,status=variable
new load.3001488969M1 bus1=RML1051909116.2.0,Phases=1,kv=0.12,kW=1.12048,pf=0.92,Vminpu=0.92,Vmaxpu=1.5,model=1,daily=RES1_5,status=variable
new load.3001488988M1 bus1=RML1051908591.1.0,Phases=1,kv=0.127,kW=0.32528,pf=0.92,Vminpu=0.92,Vmaxpu=1.5,model=1,daily=RES2_6,status=variable
new load.3001488997M1 bus1=RML1051905091.1.0,Phases=1,kv=0.127,kW=0.22518,pf=0.92,Vminpu=0.92,Vmaxpu=1.5,model=1,daily=RES2_6,status=variable
new load.3001489006M1 bus1=RML1051909354.3.0,Phases=1,kv=0.127,kW=0.62452,pf=0.92,Vminpu=0.92,Vmaxpu=1.5,model=1,daily=RES1_5,status=variable
new load.3001489014M1 bus1=RML1051906169.1.0,Phases=1,kv=0.12,kW=0.38574,pf=0.92,Vminpu=0.92,Vmaxpu=1.5,model=1,daily=RES1_5,status=variable
new load.3001489023M1 bus1=RML1051905280.3.0,Phases=1,kv=0.127,kW=1.21232,pf=0.92,Vminpu=0.92,Vmaxpu=1.5,model=1,daily=RES1_5,status=variable
new load.3001489034M1 bus1=RML1051906344.2.0,Phases=1,kv=0.12,kW=1.57968,pf=0.92,Vminpu=0.92,Vmaxpu=1.5,model=1,daily=RES1_5,status=variable
new load.3001489051M1 bus1=RML1051906190.2.0,Phases=1,kv=0.12,kW=0.82658,pf=0.92,Vminpu=0.92,Vmaxpu=1.5,model=1,daily=RES1_5,status=variable
new load.3001489059M1 bus1=RML1051906386.1.0,Phases=1,kv=0.127,kW=1.72664,pf=0.92,Vminpu=0.92,Vmaxpu=1.5,model=1,daily=RES1_5,status=variable
new load.3001489067M1 bus1=RML1051916550.3.0,Phases=1,kv=0.127,kW=1.52458,pf=0.92,Vminpu=0.92,Vmaxpu=1.5,model=1,daily=RES1_5,status=variable
new load.3001489075M1 bus1=RML1060972615.2.0,Phases=1,kv=0.127,kW=1.2858,pf=0.92,Vminpu=0.92,Vmaxpu=1.5,model=1,daily=RES1_5,status=variable
new load.3001489085M1 bus1=RML1051908549.1.2.0,Phases=2,kv=0.22,kW=0.01836,pf=0.92,Vminpu=0.92,Vmaxpu=1.5,model=1,daily=RES1_5,status=variable
new load.3001489094M1 bus1=RML1051908906.2.0,Phases=1,kv=0.12,kW=0.65054,pf=0.92,Vminpu=0.92,Vmaxpu=1.5,model=1,daily=RES2_6,status=variable
new load.3001489103M1 bus1=RML1051908773.1.0,Phases=1,kv=0.127,kW=0.76314,pf=0.92,Vminpu=0.92,Vmaxpu=1.5,model=1,daily=RES2_6,status=variable
new load.3001486329M1 bus1=RML1052790535.1.0,Phases=1,kv=0.12,kW=1.047,pf=0.92,Vminpu=0.92,Vmaxpu=1.5,model=1,daily=RES1_5,status=variable
new load.3001486338M1 bus1=RML1052790724.2.0,Phases=1,kv=0.12,kW=0.6429,pf=0.92,Vminpu=0.92,Vmaxpu=1.5,model=1,daily=RES1_5,status=variable
new load.3001486346M1 bus1=RML1052790479.2.0,Phases=1,kv=0.12,kW=0.0551,pf=0.92,Vminpu=0.92,Vmaxpu=1.5,model=1,daily=RES1_5,status=variable
new load.3001486363M1 bus1=RML1052745938.1.0,Phases=1,kv=0.12,kW=0.32528,pf=0.92,Vminpu=0.92,Vmaxpu=1.5,model=1,daily=RES2_6,status=variable
new load.3001486371M1 bus1=RML1052745847.1.0,Phases=1,kv=0.12,kW=0.07348,pf=0.92,Vminpu=0.92,Vmaxpu=1.5,model=1,daily=RES1_5,status=variable
new load.3001488924M1 bus1=RML1051905070.2.0,Phases=1,kv=0.127,kW=0.44084,pf=0.92,Vminpu=0.92,Vmaxpu=1.5,model=1,daily=RES1_5,status=variable
new load.3001488936M1 bus1=RML1051904902.2.0,Phases=1,kv=0.127,kW=0.7256,pf=0.92,Vminpu=0.92,Vmaxpu=1.5,model=1,daily=RES2_6,status=variable
new load.3001488946M1 bus1=RML1051907114.3.0,Phases=1,kv=0.127,kW=0.87572,pf=0.92,Vminpu=0.92,Vmaxpu=1.5,model=1,daily=RES2_6,status=variable
new load.3001488973M1 bus1=RML1051905014.3.0,Phases=1,kv=0.127,kW=0.5317,pf=0.92,Vminpu=0.92,Vmaxpu=1.5,model=1,daily=RES2_6,status=variable
new load.3001488992M1 bus1=RML1051908437.2.0,Phases=1,kv=0.127,kW=1.41438,pf=0.92,Vminpu=0.92,Vmaxpu=1.5,model=1,daily=RES1_5,status=variable
new load.3001489000M1 bus1=RML1051914898.2.0,Phases=1,kv=0.127,kW=0.61926,pf=0.92,Vminpu=0.92,Vmaxpu=1.5,model=1,daily=RES2_6,status=variable
new load.3001489028M1 bus1=RML1051906211.2.0,Phases=1,kv=0.12,kW=0.73186,pf=0.92,Vminpu=0.92,Vmaxpu=1.5,model=1,daily=RES2_6,status=variable
new load.3001489037M1 bus1=RML1051906400.1.0,Phases=1,kv=0.12,kW=0.52544,pf=0.92,Vminpu=0.92,Vmaxpu=1.5,model=1,daily=RES2_6,status=variable
new load.3001489045M1 bus1=RML1051906372.1.0,Phases=1,kv=0.12,kW=0.67964,pf=0.92,Vminpu=0.92,Vmaxpu=1.5,model=1,daily=RES1_5,status=variable
new load.3001489054M1 bus1=RML1051905420.2.0,Phases=1,kv=0.127,kW=1.23068,pf=0.92,Vminpu=0.92,Vmaxpu=1.5,model=1,daily=RES1_5,status=variable
new load.3001489062M1 bus1=RML1051906393.1.0,Phases=1,kv=0.12,kW=0.86332,pf=0.92,Vminpu=0.92,Vmaxpu=1.5,model=1,daily=RES1_5,status=variable
new load.3001489080M1 bus1=RML1051908311.2.0,Phases=1,kv=0.127,kW=0.73148,pf=0.92,Vminpu=0.92,Vmaxpu=1.5,model=1,daily=COM1_10,status=variable
new load.3001489089M1 bus1=RML1051908185.1.0,Phases=1,kv=0.127,kW=0.53794,pf=0.92,Vminpu=0.92,Vmaxpu=1.5,model=1,daily=RES2_6,status=variable
new load.3001489098M1 bus1=RML1051908087.1.0,Phases=1,kv=0.127,kW=1.28356,pf=0.92,Vminpu=0.92,Vmaxpu=1.5,model=1,daily=RES3_7,status=variable
new load.3000056488M1 bus1=RML1052982615.2.0,Phases=1,kv=0.12,kW=0.03534,pf=0.92,Vminpu=0.92,Vmaxpu=1.5,model=1,daily=COM1_3,status=variable
new load.3000056516M1 bus1=RML1052996076.2.0,Phases=1,kv=0.12,kW=0.65422,pf=0.92,Vminpu=0.92,Vmaxpu=1.5,model=1,daily=RES2_1,status=variable
new load.3000056525M1 bus1=RML1052995635.1.0,Phases=1,kv=0.12,kW=0.87252,pf=0.92,Vminpu=0.92,Vmaxpu=1.5,model=1,daily=RES1_1,status=variable
new load.3000056541M1 bus1=RML1052995859.2.0,Phases=1,kv=0.12,kW=0.1518,pf=0.92,Vminpu=0.92,Vmaxpu=1.5,model=1,daily=COM1_3,status=variable
new load.3000056551M1 bus1=RML1052996104.2.0,Phases=1,kv=0.12,kW=0.85148,pf=0.92,Vminpu=0.92,Vmaxpu=1.5,model=1,daily=RES1_1,status=variable
new load.3000946939M1 bus1=RML1053055345.3.0,Phases=1,kv=0.127,kW=0.18534,pf=0.92,Vminpu=0.92,Vmaxpu=1.5,model=1,daily=RES1_19,status=variable
new load.3002020626M1 bus1=RML1053055226.2.0,Phases=1,kv=0.127,kW=0.003,pf=0.92,Vminpu=0.92,Vmaxpu=1.5,model=1,daily=RES1_18,status=variable
new load.3002020636M1 bus1=RML1053055422.1.0,Phases=1,kv=0.127,kW=0.25188,pf=0.92,Vminpu=0.92,Vmaxpu=1.5,model=1,daily=RES1_18,status=variable
new load.3002020740M1 bus1=RML1060737433.1.2.3.0,Phases=3,kv=0.22,kW=0.493,pf=0.92,Vminpu=0.92,Vmaxpu=1.5,model=1,daily=RES3_18,status=variable
new load.3002020748M1 bus1=RML1052971247.1.0,Phases=1,kv=0.127,kW=0.009,pf=0.92,Vminpu=0.92,Vmaxpu=1.5,model=1,daily=RES1_18,status=variable
new load.3002020764M1 bus1=RML1052981110.2.0,Phases=1,kv=0.127,kW=0.40404,pf=0.92,Vminpu=0.92,Vmaxpu=1.5,model=1,daily=RES2_22,status=variable
new load.3002020773M1 bus1=RML1052980893.1.0,Phases=1,kv=0.127,kW=0.02698,pf=0.92,Vminpu=0.92,Vmaxpu=1.5,model=1,daily=RES1_18,status=variable
new load.3002020793M1 bus1=RML1060227110.1.2.0,Phases=2,kv=0.22,kW=0.13792,pf=0.92,Vminpu=0.92,Vmaxpu=1.5,model=1,daily=RES1_18,status=variable
new load.3002020801M1 bus1=RML1052976630.3.0,Phases=1,kv=0.127,kW=0.44346,pf=0.92,Vminpu=0.92,Vmaxpu=1.5,model=1,daily=RES2_22,status=variable
new load.3002020813M1 bus1=RML1053034156.3.0,Phases=1,kv=0.127,kW=0.25622,pf=0.92,Vminpu=0.92,Vmaxpu=1.5,model=1,daily=RES2_22,status=variable
new load.3002020822M1 bus1=RML1053034002.2.0,Phases=1,kv=0.127,kW=0.22994,pf=0.92,Vminpu=0.92,Vmaxpu=1.5,model=1,daily=RES2_22,status=variable
new load.3002020831M1 bus1=RML1053033883.2.0,Phases=1,kv=0.127,kW=0.11694,pf=0.92,Vminpu=0.92,Vmaxpu=1.5,model=1,daily=RES1_18,status=variable
new load.3002020842M1 bus1=RML1052981551.2.0,Phases=1,kv=0.127,kW=0.90802,pf=0.92,Vminpu=0.92,Vmaxpu=1.5,model=1,daily=COM1_21,status=variable
new load.3002020852M1 bus1=RML1052981460.1.2.0,Phases=2,kv=0.22,kW=2.89194,pf=0.92,Vminpu=0.92,Vmaxpu=1.5,model=1,daily=COM1_21,status=variable
new load.3002020869M1 bus1=RML1052976595.1.2.0,Phases=2,kv=0.22,kW=0.83934,pf=0.92,Vminpu=0.92,Vmaxpu=1.5,model=1,daily=COM1_21,status=variable
new load.3002020879M1 bus1=RML1052976483.2.0,Phases=1,kv=0.127,kW=0.46974,pf=0.92,Vminpu=0.92,Vmaxpu=1.5,model=1,daily=RES2_22,status=variable
new load.3000056483M1 bus1=RML1052982608.1.2.0,Phases=2,kv=0.24,kW=0.65176,pf=0.92,Vminpu=0.92,Vmaxpu=1.5,model=1,daily=RES1_1,status=variable
new load.3000056504M1 bus1=RML1052986402.1.2.0,Phases=2,kv=0.24,kW=0.6938,pf=0.92,Vminpu=0.92,Vmaxpu=1.5,model=1,daily=RES1_1,status=variable
new load.3000056512M1 bus1=RML1052996111.2.0,Phases=1,kv=0.12,kW=0.24178,pf=0.92,Vminpu=0.92,Vmaxpu=1.5,model=1,daily=RES1_1,status=variable
new load.3000056520M1 bus1=RML1052996006.1.0,Phases=1,kv=0.12,kW=0.75688,pf=0.92,Vminpu=0.92,Vmaxpu=1.5,model=1,daily=RES1_1,status=variable
new load.3000056529M1 bus1=RML1052995621.1.0,Phases=1,kv=0.12,kW=0.53612,pf=0.92,Vminpu=0.92,Vmaxpu=1.5,model=1,daily=RES1_1,status=variable
new load.3000056546M1 bus1=RML1052996013.1.0,Phases=1,kv=0.12,kW=0.4382,pf=0.92,Vminpu=0.92,Vmaxpu=1.5,model=1,daily=RES2_1,status=variable
new load.3000946935M1 bus1=RML1053055331.2.0,Phases=1,kv=0.127,kW=0.2993,pf=0.92,Vminpu=0.92,Vmaxpu=1.5,model=1,daily=RES2_23,status=variable
new load.3002019310M1 bus1=RML1052987326.1.2.0,Phases=2,kv=0.24,kW=0.64992,pf=0.92,Vminpu=0.92,Vmaxpu=1.5,model=1,daily=RUR2_21,status=variable
new load.3002020632M1 bus1=RML1053055296.3.0,Phases=1,kv=0.127,kW=0.12894,pf=0.92,Vminpu=0.92,Vmaxpu=1.5,model=1,daily=RES1_18,status=variable
new load.3002020640M1 bus1=RML1053055303.3.0,Phases=1,kv=0.127,kW=0.45004,pf=0.92,Vminpu=0.92,Vmaxpu=1.5,model=1,daily=RES2_22,status=variable
new load.3002020744M1 bus1=RML1052971317.1.0,Phases=1,kv=0.127,kW=0.44676,pf=0.92,Vminpu=0.92,Vmaxpu=1.5,model=1,daily=RES2_22,status=variable
new load.3002020752M1 bus1=RML1052971366.1.0,Phases=1,kv=0.127,kW=0.39258,pf=0.92,Vminpu=0.92,Vmaxpu=1.5,model=1,daily=RES3_18,status=variable
new load.3002020760M1 bus1=RML1052980942.1.0,Phases=1,kv=0.127,kW=0.3252,pf=0.92,Vminpu=0.92,Vmaxpu=1.5,model=1,daily=RES2_22,status=variable