new line.CTR105447 bus1=BMT171813014.3,bus2=BMT171813015.3,Phases=1,LineCode=tieSwitch1,Length=0.001,Units=km,switch=T !numEQ 101328
new line.CTR129667 bus1=BMT171814441.3,bus2=BMT171814464.3,Phases=1,LineCode=tieSwitch1,Length=0.001,Units=km,switch=T !numEQ 82262
new line.CTR129674 bus1=BMT171813972.3,bus2=BMT171813985.3,Phases=1,LineCode=tieSwitch1,Length=0.001,Units=km,switch=T !numEQ 82265
new line.CTR129681 bus1=BMT171815935.1,bus2=BMT172893086.1,Phases=1,LineCode=tieSwitch1,Length=0.001,Units=km,switch=T !numEQ 266032
new line.CTR129919 bus1=BMT171812766.1,bus2=BMT171813152.1,Phases=1,LineCode=tieSwitch1,Length=0.001,Units=km,switch=T !numEQ 196049
new line.CTR130150 bus1=BMT171815909.1,bus2=BMT171815911.1,Phases=1,LineCode=tieSwitch1,Length=0.001,Units=km,switch=T !numEQ 81868
new line.CTR130157 bus1=BMT171815789.2,bus2=BMT171815831.2,Phases=1,LineCode=tieSwitch1,Length=0.001,Units=km,switch=T !numEQ 81869
new line.CTR130164 bus1=BMT171812699.1,bus2=BMT171815762.1,Phases=1,LineCode=tieSwitch1,Length=0.001,Units=km,switch=T !numEQ 81871
new line.CTR130171 bus1=BMT171815765.1,bus2=BMT171815775.1,Phases=1,LineCode=tieSwitch1,Length=0.001,Units=km,switch=T !numEQ 81872
new line.CTR130178 bus1=BMT171814719.1,bus2=BMT171815658.1,Phases=1,LineCode=tieSwitch1,Length=0.001,Units=km,switch=T !numEQ 81873
new line.CTR130185 bus1=BMT171814718.1,bus2=BMT171815660.1,Phases=1,LineCode=tieSwitch1,Length=0.001,Units=km,switch=T !numEQ 81876
new line.CTR130192 bus1=BMT171814717.1,bus2=BMT171815665.1,Phases=1,LineCode=tieSwitch1,Length=0.001,Units=km,switch=T !numEQ 81877
new line.CTR130199 bus1=BMT171815679.1,bus2=BMT171815680.1,Phases=1,LineCode=tieSwitch1,Length=0.001,Units=km,switch=T !numEQ 81879
new line.CTR130206 bus1=BMT171814621.1,bus2=BMT171814624.1,Phases=1,LineCode=tieSwitch1,Length=0.001,Units=km,switch=T !numEQ 81882
new line.CTR130213 bus1=BMT171814628.1,bus2=BMT171814676.1,Phases=1,LineCode=tieSwitch1,Length=0.001,Units=km,switch=T !numEQ 81884
new line.CTR130227 bus1=BMT171814430.3,bus2=BMT171814527.3,Phases=1,LineCode=tieSwitch1,Length=0.001,Units=km,switch=T !numEQ 81891
new line.CTR130234 bus1=BMT171814536.3,bus2=BMT171814546.3,Phases=1,LineCode=tieSwitch1,Length=0.001,Units=km,switch=T !numEQ 81892
new line.CTR130241 bus1=BMT171812744.3,bus2=BMT171814338.3,Phases=1,LineCode=tieSwitch1,Length=0.001,Units=km,switch=T !numEQ 81893
new line.CTR130248 bus1=BMT171812757.1,bus2=BMT171813169.1,Phases=1,LineCode=tieSwitch1,Length=0.001,Units=km,switch=T !numEQ 81894
new line.CTR130255 bus1=BMT171812788.3,bus2=BMT171812791.3,Phases=1,LineCode=tieSwitch1,Length=0.001,Units=km,switch=T !numEQ 81895
new line.CTR130262 bus1=BMT171812796.3,bus2=BMT171812798.3,Phases=1,LineCode=tieSwitch1,Length=0.001,Units=km,switch=T !numEQ 81898
new line.CTR130269 bus1=BMT171812773.2,bus2=BMT171813100.2,Phases=1,LineCode=tieSwitch1,Length=0.001,Units=km,switch=T !numEQ 81899
new line.CTR130276 bus1=BMT171812881.1.2.3,bus2=BMT171813054.1.2.3,Phases=3,LineCode=tieSwitch,Length=0.001,Units=km,switch=T !numEQ 81901
new line.CTR130283 bus1=BMT171813055.1.2.3,bus2=BMT171813057.1.2.3,Phases=3,LineCode=tieSwitch,Length=0.001,Units=km,switch=T !numEQ 81904
new line.CTR130290 bus1=BMT171812936.2,bus2=BMT171812954.2,Phases=1,LineCode=tieSwitch1,Length=0.001,Units=km,switch=T !numEQ 81906
new line.CTR130297 bus1=BMT171812937.3,bus2=BMT171812938.3,Phases=1,LineCode=tieSwitch1,Length=0.001,Units=km,switch=T !numEQ 81909
new line.CTR130388 bus1=BMT171812972.3,bus2=BMT171812973.3,Phases=1,LineCode=tieSwitch1,Length=0.001,Units=km,switch=T !numEQ 81924
new line.CTR130395 bus1=BMT171812991.3,bus2=BMT171812993.3,Phases=1,LineCode=tieSwitch1,Length=0.001,Units=km,switch=T !numEQ 81925
new line.CTR130402 bus1=BMT171812988.3,bus2=BMT171813006.3,Phases=1,LineCode=tieSwitch1,Length=0.001,Units=km,switch=T !numEQ 81926
new line.CTR130409 bus1=BMT171813080.3,bus2=BMT171813092.3,Phases=1,LineCode=tieSwitch1,Length=0.001,Units=km,switch=T !numEQ 81927
new line.CTR130416 bus1=BMT171813970.3,bus2=BMT171814315.3,Phases=1,LineCode=tieSwitch1,Length=0.001,Units=km,switch=T !numEQ 81930
new line.CTR130423 bus1=BMT171814069.3,bus2=BMT171814071.3,Phases=1,LineCode=tieSwitch1,Length=0.001,Units=km,switch=T !numEQ 81931
new line.CTR130430 bus1=BMT171814084.3,bus2=BMT171814086.3,Phases=1,LineCode=tieSwitch1,Length=0.001,Units=km,switch=T !numEQ 81932
new line.CTR130437 bus1=BMT171813674.2,bus2=BMT171813676.2,Phases=1,LineCode=tieSwitch1,Length=0.001,Units=km,switch=T !numEQ 81934
new line.CTR130444 bus1=BMT171813786.1,bus2=BMT171813813.1,Phases=1,LineCode=tieSwitch1,Length=0.001,Units=km,switch=T !numEQ 81935
new line.CTR130458 bus1=BMT171815843.1,bus2=BMT171815845.1,Phases=1,LineCode=tieSwitch1,Length=0.001,Units=km,switch=T !numEQ 81938
new line.CTR130465 bus1=BMT171816146.3,bus2=BMT171816158.3,Phases=1,LineCode=tieSwitch1,Length=0.001,Units=km,switch=T !numEQ 81939
new line.CTR130472 bus1=BMT171816166.3,bus2=BMT171816239.3,Phases=1,LineCode=tieSwitch1,Length=0.001,Units=km,switch=T !numEQ 81940
new line.CTR130479 bus1=BMT171816258.3,bus2=BMT171816259.3,Phases=1,LineCode=tieSwitch1,Length=0.001,Units=km,switch=T !numEQ 81941
new line.CTR130486 bus1=BMT171816262.3,bus2=BMT171816295.3,Phases=1,LineCode=tieSwitch1,Length=0.001,Units=km,switch=T !numEQ 81942
new line.CTR130493 bus1=BMT171816186.3,bus2=BMT172308584.3,Phases=1,LineCode=tieSwitch1,Length=0.001,Units=km,switch=T !numEQ 81943
new line.CTR130500 bus1=BMT171816192.3,bus2=BMT171816213.3,Phases=1,LineCode=tieSwitch1,Length=0.001,Units=km,switch=T !numEQ 81944
new line.CTR130507 bus1=BMT171816218.3,bus2=BMT171816220.3,Phases=1,LineCode=tieSwitch1,Length=0.001,Units=km,switch=T !numEQ 81945
new line.CTR130514 bus1=BMT171816195.3,bus2=BMT171816203.3,Phases=1,LineCode=tieSwitch1,Length=0.001,Units=km,switch=T !numEQ 81946
new line.CTR130521 bus1=BMT171815998.3,bus2=BMT171816016.3,Phases=1,LineCode=tieSwitch1,Length=0.001,Units=km,switch=T !numEQ 81947
new line.CTR130528 bus1=BMT171814806.2,bus2=BMT171863075.2,Phases=1,LineCode=tieSwitch1,Length=0.001,Units=km,switch=T !numEQ 81948
new line.CTR130535 bus1=BMT171815499.2,bus2=BMT171863095.2,Phases=1,LineCode=tieSwitch1,Length=0.001,Units=km,switch=T !numEQ 81949
new line.CTR130542 bus1=BMT171815521.2,bus2=BMT171863145.2,Phases=1,LineCode=tieSwitch1,Length=0.001,Units=km,switch=T !numEQ 81951
new line.CTR130549 bus1=BMT171814761.1,bus2=BMT171815561.1,Phases=1,LineCode=tieSwitch1,Length=0.001,Units=km,switch=T !numEQ 81970
new line.CTR130556 bus1=BMT171815568.1,bus2=BMT171815570.1,Phases=1,LineCode=tieSwitch1,Length=0.001,Units=km,switch=T !numEQ 81971
new line.CTR130563 bus1=BMT171814763.1,bus2=BMT171815558.1,Phases=1,LineCode=tieSwitch1,Length=0.001,Units=km,switch=T !numEQ 81972
new line.CTR130570 bus1=BMT171814786.1,bus2=BMT171814788.1,Phases=1,LineCode=tieSwitch1,Length=0.001,Units=km,switch=T !numEQ 81974
new line.CTR130577 bus1=BMT171814808.2,bus2=BMT171863161.2,Phases=1,LineCode=tieSwitch1,Length=0.001,Units=km,switch=T !numEQ 81976
new line.CTR130584 bus1=BMT171815090.2,bus2=BMT171815123.2,Phases=1,LineCode=tieSwitch1,Length=0.001,Units=km,switch=T !numEQ 81977
new line.CTR130591 bus1=BMT171815166.2,bus2=BMT171815169.2,Phases=1,LineCode=tieSwitch1,Length=0.001,Units=km,switch=T !numEQ 81978
new line.CTR130605 bus1=BMT171815351.1,bus2=BMT171815354.1,Phases=1,LineCode=tieSwitch1,Length=0.001,Units=km,switch=T !numEQ 81981
new line.CTR13096 bus1=BMT171815454.2,bus2=BMT171863066.2,Phases=1,LineCode=tieSwitch1,Length=0.001,Units=km,switch=T !numEQ 158741
new line.CTR162364 bus1=BMT171814608.1,bus2=BMT171814679.1,Phases=1,LineCode=tieSwitch1,Length=0.001,Units=km,switch=T !numEQ 195647
new line.CTR191708 bus1=BMT171815100.2,bus2=BMT171815115.2,Phases=1,LineCode=tieSwitch1,Length=0.001,Units=km,switch=T !numEQ 156270
new line.CTR228997 bus1=BMT171814339.3,bus2=BMT171814341.3,Phases=1,LineCode=tieSwitch1,Length=0.001,Units=km,switch=T !numEQ 25825
new line.CTR229004 bus1=BMT171812738.1.2.3,bus2=BMT171812739.1.2.3,Phases=3,LineCode=tieSwitch,Length=0.001,Units=km,switch=T !numEQ 25826
new line.CTR229011 bus1=BMT171812768.2,bus2=BMT171813145.2,Phases=1,LineCode=tieSwitch1,Length=0.001,Units=km,switch=T !numEQ 25827
new line.CTR229207 bus1=BMT171867870.2,bus2=BMT171867876.2,Phases=1,LineCode=tieSwitch1,Length=0.001,Units=km,switch=T !numEQ 25880
new line.CTR229214 bus1=BMT171815333.1,bus2=BMT171815336.1,Phases=1,LineCode=tieSwitch1,Length=0.001,Units=km,switch=T !numEQ 25881
new line.CTR229389 bus1=BMT171813666.2,bus2=BMT171813670.2,Phases=1,LineCode=tieSwitch1,Length=0.001,Units=km,switch=T !numEQ 25631
new line.CTR229396 bus1=BMT171813636.2,bus2=BMT171813696.2,Phases=1,LineCode=tieSwitch1,Length=0.001,Units=km,switch=T !numEQ 25632
new line.CTR229403 bus1=BMT171813638.2,bus2=BMT171813639.2,Phases=1,LineCode=tieSwitch1,Length=0.001,Units=km,switch=T !numEQ 25633
new line.CTR229417 bus1=BMT171815071.2,bus2=BMT171815072.2,Phases=1,LineCode=tieSwitch1,Length=0.001,Units=km,switch=T !numEQ 25635
new line.CTR229424 bus1=BMT171812655.1.2.3,bus2=BMT171812656.1.2.3,Phases=3,LineCode=tieSwitch,Length=0.001,Units=km,switch=T !numEQ 25636
new line.CTR229431 bus1=BMT171812676.1,bus2=BMT171815835.1,Phases=1,LineCode=tieSwitch1,Length=0.001,Units=km,switch=T !numEQ 25637
new line.CTR229438 bus1=BMT171812690.1.2.3,bus2=BMT171812691.1.2.3,Phases=3,LineCode=tieSwitch,Length=0.001,Units=km,switch=T !numEQ 25638
new line.CTR229459 bus1=BMT171813967.3,bus2=BMT171813969.3,Phases=1,LineCode=tieSwitch1,Length=0.001,Units=km,switch=T !numEQ 25643
new line.CTR229466 bus1=BMT171813982.3,bus2=BMT171813997.3,Phases=1,LineCode=tieSwitch1,Length=0.001,Units=km,switch=T !numEQ 263757
new line.CTR229473 bus1=BMT171814002.3,bus2=BMT171814193.3,Phases=1,LineCode=tieSwitch1,Length=0.001,Units=km,switch=T !numEQ 25646
new line.CTR229480 bus1=BMT171813223.1.2.3,bus2=BMT171813224.1.2.3,Phases=3,LineCode=tieSwitch,Length=0.001,Units=km,switch=T !numEQ 25647
new line.CTR229487 bus1=BMT171813773.1,bus2=BMT171813775.1,Phases=1,LineCode=tieSwitch1,Length=0.001,Units=km,switch=T !numEQ 25648
new line.CTR229494 bus1=BMT171813245.2,bus2=BMT171813721.2,Phases=1,LineCode=tieSwitch1,Length=0.001,Units=km,switch=T !numEQ 25649
new line.CTR229501 bus1=BMT171813240.1.2.3,bus2=BMT171813242.1.2.3,Phases=3,LineCode=tieSwitch,Length=0.001,Units=km,switch=T !numEQ 25650
new line.CTR229508 bus1=BMT171812769.1.2.3,bus2=BMT171812770.1.2.3,Phases=3,LineCode=tieSwitch,Length=0.001,Units=km,switch=T !numEQ 25652
new line.CTR229515 bus1=BMT171812778.1.2.3,bus2=BMT171812874.1.2.3,Phases=3,LineCode=tieSwitch,Length=0.001,Units=km,switch=T !numEQ 25653
new line.CTR229522 bus1=BMT171812879.2,bus2=BMT171813062.2,Phases=1,LineCode=tieSwitch1,Length=0.001,Units=km,switch=T !numEQ 25654
new line.CTR229529 bus1=BMT171812877.3,bus2=BMT171813073.3,Phases=1,LineCode=tieSwitch1,Length=0.001,Units=km,switch=T !numEQ 25655
new line.CTR229536 bus1=BMT171812885.1.2.3,bus2=BMT171812886.1.2.3,Phases=3,LineCode=tieSwitch,Length=0.001,Units=km,switch=T !numEQ 25656
new line.CTR229543 bus1=BMT171812772.1.2.3,bus2=BMT171812780.1.2.3,Phases=3,LineCode=tieSwitch,Length=0.001,Units=km,switch=T !numEQ 25658
new line.CTR229550 bus1=BMT171812783.1,bus2=BMT171812855.1,Phases=1,LineCode=tieSwitch1,Length=0.001,Units=km,switch=T !numEQ 25659
new line.CTR229557 bus1=BMT171812785.2,bus2=BMT171812839.2,Phases=1,LineCode=tieSwitch1,Length=0.001,Units=km,switch=T !numEQ 25660
new line.CTR229564 bus1=BMT171812840.2,bus2=BMT171812844.2,Phases=1,LineCode=tieSwitch1,Length=0.001,Units=km,switch=T !numEQ 25661
new line.CTR229571 bus1=BMT171812786.2,bus2=BMT171812815.2,Phases=1,LineCode=tieSwitch1,Length=0.001,Units=km,switch=T !numEQ 25662
new line.CTR229578 bus1=BMT171812792.3,bus2=BMT171812807.3,Phases=1,LineCode=tieSwitch1,Length=0.001,Units=km,switch=T !numEQ 25664
new line.CTR229585 bus1=BMT171814440.3,bus2=BMT171814490.3,Phases=1,LineCode=tieSwitch1,Length=0.001,Units=km,switch=T !numEQ 25665
new line.CTR229592 bus1=BMT171814431.3,bus2=BMT171814432.3,Phases=1,LineCode=tieSwitch1,Length=0.001,Units=km,switch=T !numEQ 25666
new line.CTR229858 bus1=BMT171814013.3,bus2=BMT171814066.3,Phases=1,LineCode=tieSwitch1,Length=0.001,Units=km,switch=T !numEQ 25731
new line.CTR229865 bus1=BMT171814421.3,bus2=BMT171814561.3,Phases=1,LineCode=tieSwitch1,Length=0.001,Units=km,switch=T !numEQ 25732
new line.CTR229886 bus1=BMT171812659.1,bus2=BMT171815908.1,Phases=1,LineCode=tieSwitch1,Length=0.001,Units=km,switch=T !numEQ 25739
new line.CTR229893 bus1=BMT171816128.3,bus2=BMT171816139.3,Phases=1,LineCode=tieSwitch1,Length=0.001,Units=km,switch=T !numEQ 25740
new line.CTR229900 bus1=BMT171815340.1,bus2=BMT171815345.1,Phases=1,LineCode=tieSwitch1,Length=0.001,Units=km,switch=T !numEQ 25741
new line.CTR229907 bus1=BMT171929367.1,bus2=BMT171929377.1,Phases=1,LineCode=tieSwitch1,Length=0.001,Units=km,switch=T !numEQ 25742
new line.CTR229991 bus1=BMT171813726.2,bus2=BMT171813730.2,Phases=1,LineCode=tieSwitch1,Length=0.001,Units=km,switch=T !numEQ 25729
new line.CTR123577 bus1=BMT171813333.1.2.3,bus2=BMT171813338.1.2.3,Phases=3,LineCode=tieSwitch,Length=0.001,Units=km,switch=T !numEQ 86728
new line.CTR123584 bus1=BMT171813315.1.2.3,bus2=BMT171813475.1.2.3,Phases=3,LineCode=tieSwitch,Length=0.001,Units=km,switch=T !numEQ 86143
new line.CTR123591 bus1=BMT171813353.1.2.3,bus2=BMT171813453.1.2.3,Phases=3,LineCode=tieSwitch,Length=0.001,Units=km,switch=T !numEQ 86730
new line.CTR123619 bus1=BMT171812975.3,bus2=BMT171813022.3,Phases=1,LineCode=tieSwitch1,Length=0.001,Units=km,switch=T !numEQ 86754
new line.CTR123633 bus1=BMT171813101.2,bus2=BMT171813104.2,Phases=1,LineCode=tieSwitch1,Length=0.001,Units=km,switch=T !numEQ 86903
new line.CTR123640 bus1=BMT171813110.2,bus2=BMT171813114.2,Phases=1,LineCode=tieSwitch1,Length=0.001,Units=km,switch=T !numEQ 86917
new line.CTR123647 bus1=BMT171813118.2,bus2=BMT171813120.2,Phases=1,LineCode=tieSwitch1,Length=0.001,Units=km,switch=T !numEQ 86932
new line.CTR167012 bus1=BMT171812801.3,bus2=BMT171812803.3,Phases=1,LineCode=tieSwitch1,Length=0.001,Units=km,switch=T !numEQ 192852
new line.CTR195915 bus1=BMT171815057.2,bus2=BMT171815215.2,Phases=1,LineCode=tieSwitch1,Length=0.001,Units=km,switch=T !numEQ 156365
new line.CTR216530 bus1=BMT171816332.3,bus2=BMT171816388.3,Phases=1,LineCode=tieSwitch1,Length=0.001,Units=km,switch=T !numEQ 28334
new line.CTR217237 bus1=BMT171813785.1,bus2=BMT171813817.1,Phases=1,LineCode=tieSwitch1,Length=0.001,Units=km,switch=T !numEQ 28115
new line.CTR217244 bus1=BMT171854559.1.2.3,bus2=BMT171854561.1.2.3,Phases=3,LineCode=tieSwitch,Length=0.001,Units=km,switch=T !numEQ 266971
new line.CTR237649 bus1=BMT171815887.2,bus2=BMT171815888.2,Phases=1,LineCode=tieSwitch1,Length=0.001,Units=km,switch=T !numEQ 23733
new line.CTR238643 bus1=BMT171815097.2,bus2=BMT171815119.2,Phases=1,LineCode=tieSwitch1,Length=0.001,Units=km,switch=T !numEQ 23682
new line.CTR239455 bus1=BMT171814205.3,bus2=BMT171814218.3,Phases=1,LineCode=tieSwitch1,Length=0.001,Units=km,switch=T !numEQ 23378
new line.CTR239462 bus1=BMT171814228.3,bus2=BMT171814264.3,Phases=1,LineCode=tieSwitch1,Length=0.001,Units=km,switch=T !numEQ 23379
new line.CTR239469 bus1=BMT171814229.3,bus2=BMT173103889.3,Phases=1,LineCode=tieSwitch1,Length=0.001,Units=km,switch=T !numEQ 23382
new line.CTR239476 bus1=BMT171814231.3,bus2=BMT171814234.3,Phases=1,LineCode=tieSwitch1,Length=0.001,Units=km,switch=T !numEQ 23403
new line.CTR239574 bus1=BMT171876280.1,bus2=BMT171876286.1,Phases=1,LineCode=tieSwitch1,Length=0.001,Units=km,switch=T !numEQ 23512
new line.CTR239581 bus1=BMT171815101.2,bus2=BMT171815102.2,Phases=1,LineCode=tieSwitch1,Length=0.001,Units=km,switch=T !numEQ 23513
new line.CTR239714 bus1=BMT171816246.3,bus2=BMT171816299.3,Phases=1,LineCode=tieSwitch1,Length=0.001,Units=km,switch=T !numEQ 15817
new line.CTR239819 bus1=BMT171813971.3,bus2=BMT171814295.3,Phases=1,LineCode=tieSwitch1,Length=0.001,Units=km,switch=T !numEQ 15898
new line.CTR239826 bus1=BMT171814083.3,bus2=BMT171814104.3,Phases=1,LineCode=tieSwitch1,Length=0.001,Units=km,switch=T !numEQ 15899
new line.CTR239861 bus1=BMT171816265.3,bus2=BMT171816288.3,Phases=1,LineCode=tieSwitch1,Length=0.001,Units=km,switch=T !numEQ 15905
new line.CTR239868 bus1=BMT171863081.2,bus2=BMT171814783.2,Phases=1,LineCode=tieSwitch1,Length=0.001,Units=km,switch=T !numEQ 15907
open line.CTR239868 term=1
new line.CTR239875 bus1=BMT171814779.1,bus2=BMT171814780.1,Phases=1,LineCode=tieSwitch1,Length=0.001,Units=km,switch=T !numEQ 15908
new line.CTR239896 bus1=BMT171815075.2,bus2=BMT171815160.2,Phases=1,LineCode=tieSwitch1,Length=0.001,Units=km,switch=T !numEQ 15906
new line.CTR240029 bus1=BMT171813089.3,bus2=BMT171813090.3,Phases=1,LineCode=tieSwitch1,Length=0.001,Units=km,switch=T !numEQ 15977
new line.CTR240036 bus1=BMT171814798.2,bus2=BMT171863088.2,Phases=1,LineCode=tieSwitch1,Length=0.001,Units=km,switch=T !numEQ 15987
new line.CTR240337 bus1=BMT171814072.3,bus2=BMT172586984.3,Phases=1,LineCode=tieSwitch1,Length=0.001,Units=km,switch=T !numEQ 21987
new line.CTR240344 bus1=BMT171815914.1,bus2=BMT171815916.1,Phases=1,LineCode=tieSwitch1,Length=0.001,Units=km,switch=T !numEQ 21988
new line.CTR240358 bus1=BMT171815162.2,bus2=BMT171815174.2,Phases=1,LineCode=tieSwitch1,Length=0.001,Units=km,switch=T !numEQ 21992
new line.CTR240372 bus1=BMT171814720.1,bus2=BMT171814722.1,Phases=1,LineCode=tieSwitch1,Length=0.001,Units=km,switch=T !numEQ 22184
new line.CTR240379 bus1=BMT171814734.1,bus2=BMT171814747.1,Phases=1,LineCode=tieSwitch1,Length=0.001,Units=km,switch=T !numEQ 22284
new line.CTR283499 bus1=BMT171815573.1,bus2=BMT171815574.1,Phases=1,LineCode=tieSwitch1,Length=0.001,Units=km,switch=T !numEQ 108561
new line.CTR283506 bus1=BMT171815590.1,bus2=BMT171815592.1,Phases=1,LineCode=tieSwitch1,Length=0.001,Units=km,switch=T !numEQ 108563
new line.CTR283513 bus1=BMT171815583.1,bus2=BMT171815589.1,Phases=1,LineCode=tieSwitch1,Length=0.001,Units=km,switch=T !numEQ 175728
new line.CTR283541 bus1=BMT123190008.1,bus2=BMT169732318.1,Phases=1,LineCode=tieSwitch1,Length=0.001,Units=km,switch=T !numEQ 156388
new line.CTR284675 bus1=BMT171816019.3,bus2=BMT171816036.3,Phases=1,LineCode=tieSwitch1,Length=0.001,Units=km,switch=T !numEQ 195674
new line.CTR31478 bus1=BMT171813214.1,bus2=BMT171814321.1,Phases=1,LineCode=tieSwitch1,Length=0.001,Units=km,switch=T !numEQ 176620
new line.CTR31492 bus1=BMT171813752.2,bus2=BMT171813758.2,Phases=1,LineCode=tieSwitch1,Length=0.001,Units=km,switch=T !numEQ 176626
new line.CTR315251 bus1=BMT171814042.3,bus2=BMT171814043.3,Phases=1,LineCode=tieSwitch1,Length=0.001,Units=km,switch=T !numEQ 224978
new line.CTR315510 bus1=BMT171814090.3,bus2=BMT171814092.3,Phases=1,LineCode=tieSwitch1,Length=0.001,Units=km,switch=T !numEQ 224982
new line.CTR315545 bus1=BMT171814093.3,bus2=BMT171814095.3,Phases=1,LineCode=tieSwitch1,Length=0.001,Units=km,switch=T !numEQ 224983
new line.CTR315552 bus1=BMT171814096.3,bus2=BMT171814099.3,Phases=1,LineCode=tieSwitch1,Length=0.001,Units=km,switch=T !numEQ 224984
new line.CTR31709 bus1=BMT171815128.2,bus2=BMT171815150.2,Phases=1,LineCode=tieSwitch1,Length=0.001,Units=km,switch=T !numEQ 176684
new line.CTR318093 bus1=BMT171812724.1.2.3,bus2=BMT171814354.1.2.3,Phases=3,LineCode=tieSwitch,Length=0.001,Units=km,switch=T !numEQ 230749
new line.CTR318457 bus1=BMT171814751.1,bus2=BMT171815643.1,Phases=1,LineCode=tieSwitch1,Length=0.001,Units=km,switch=T !numEQ 220651
new line.CTR38856 bus1=BMT171814029.3,bus2=BMT171814053.3,Phases=1,LineCode=tieSwitch1,Length=0.001,Units=km,switch=T !numEQ 157983
new line.CTR104376 bus1=BMT171814236.3,bus2=BMT171814252.3,Phases=1,LineCode=tieSwitch1,Length=0.001,Units=km,switch=T !numEQ 101377
new line.CTR12019254 bus1=BMT2196330270.1.2.3,bus2=BMT2012019255.1.2.3,Phases=3,LineCode=tieSwitch,Length=0.001,Units=km,switch=T !numEQ 
new line.CTR12019390 bus1=BMT2012019090.1.2.3,bus2=BMT2196330270.1.2.3,Phases=3,LineCode=tieSwitch,Length=0.001,Units=km,switch=T !numEQ 
new line.CTR133503 bus1=BMT171814380.1.2.3,bus2=BMT171814381.1.2.3,Phases=3,LineCode=tieSwitch,Length=0.001,Units=km,switch=T !numEQ 80981
new line.CTR133510 bus1=BMT171812962.1.2.3,bus2=BMT171812903.1.2.3,Phases=3,LineCode=tieSwitch,Length=0.001,Units=km,switch=T !numEQ 80982
open line.CTR133510 term=1
new line.CTR133517 bus1=BMT171812888.1.2.3,bus2=BMT171812965.1.2.3,Phases=3,LineCode=tieSwitch,Length=0.001,Units=km,switch=T !numEQ 80983
new line.CTR133524 bus1=BMT171812912.2,bus2=BMT171812913.2,Phases=1,LineCode=tieSwitch1,Length=0.001,Units=km,switch=T !numEQ 80984
new line.CTR133531 bus1=BMT171814330.2,bus2=BMT171814333.2,Phases=1,LineCode=tieSwitch1,Length=0.001,Units=km,switch=T !numEQ 265025
new line.CTR134707 bus1=BMT171815525.2,bus2=BMT171863125.2,Phases=1,LineCode=tieSwitch1,Length=0.001,Units=km,switch=T !numEQ 80988
new line.CTR1637 bus1=BMT171812694.2,bus2=BMT171815782.2,Phases=1,LineCode=tieSwitch1,Length=0.001,Units=km,switch=T !numEQ 25469
new line.CTR21034 bus1=BMT171813552.3,bus2=BMT171813586.3,Phases=1,LineCode=tieSwitch1,Length=0.001,Units=km,switch=T !numEQ 181709
new line.CTR231804 bus1=BMT171815507.2,bus2=BMT171863117.2,Phases=1,LineCode=tieSwitch1,Length=0.001,Units=km,switch=T !numEQ 25102
new line.CTR231846 bus1=BMT171813795.1,bus2=BMT171813809.1,Phases=1,LineCode=tieSwitch1,Length=0.001,Units=km,switch=T !numEQ 25114
new line.CTR231853 bus1=BMT123190862.3,bus2=BMT169490227.3,Phases=1,LineCode=tieSwitch1,Length=0.001,Units=km,switch=T !numEQ 25117
new line.CTR23456 bus1=BMT171814443.3,bus2=BMT171814460.3,Phases=1,LineCode=tieSwitch1,Length=0.001,Units=km,switch=T !numEQ 181404
new line.CTR276331 bus1=BMT171816205.3,bus2=BMT171816209.3,Phases=1,LineCode=tieSwitch1,Length=0.001,Units=km,switch=T !numEQ 196048
new line.CTR276758 bus1=BMT171812795.3,bus2=BMT171812800.3,Phases=1,LineCode=tieSwitch1,Length=0.001,Units=km,switch=T !numEQ 187642
new line.CTR278585 bus1=BMT171815991.3,bus2=BMT171815992.3,Phases=1,LineCode=tieSwitch1,Length=0.001,Units=km,switch=T !numEQ 191330
new line.CTR305717 bus1=BMT171816160.3,bus2=BMT171816306.3,Phases=1,LineCode=tieSwitch1,Length=0.001,Units=km,switch=T !numEQ 202910
new line.CTR305752 bus1=BMT171813378.3,bus2=BMT171813443.3,Phases=1,LineCode=tieSwitch1,Length=0.001,Units=km,switch=T !numEQ 208700
new line.CTR305794 bus1=BMT171812986.3,bus2=BMT171813008.3,Phases=1,LineCode=tieSwitch1,Length=0.001,Units=km,switch=T !numEQ 225291
new line.CTR306431 bus1=BMT171814033.3,bus2=BMT171814035.3,Phases=1,LineCode=tieSwitch1,Length=0.001,Units=km,switch=T !numEQ 26426
new line.CTR306606 bus1=BMT171814509.3,bus2=BMT171814514.3,Phases=1,LineCode=tieSwitch1,Length=0.001,Units=km,switch=T !numEQ 215500
new line.CTR307040 bus1=BMT171813739.2,bus2=BMT171813742.2,Phases=1,LineCode=tieSwitch1,Length=0.001,Units=km,switch=T !numEQ 215492
new line.CTR307628 bus1=BMT171814476.3,bus2=BMT171814478.3,Phases=1,LineCode=tieSwitch1,Length=0.001,Units=km,switch=T !numEQ 217940
new line.CTR307880 bus1=BMT171815537.2,bus2=BMT171863143.2,Phases=1,LineCode=tieSwitch1,Length=0.001,Units=km,switch=T !numEQ 215491
new line.CTR309161 bus1=BMT171815740.1,bus2=BMT171815742.1,Phases=1,LineCode=tieSwitch1,Length=0.001,Units=km,switch=T !numEQ 217941
new line.CTR341872 bus1=BMT171814800.2,bus2=BMT171863150.2,Phases=1,LineCode=tieSwitch1,Length=0.001,Units=km,switch=T !numEQ 230793
new line.CTR34194 bus1=BMT171813229.2,bus2=BMT171813768.2,Phases=1,LineCode=tieSwitch1,Length=0.001,Units=km,switch=T !numEQ 159419
new line.CTR34201 bus1=BMT171813776.1,bus2=BMT171813827.1,Phases=1,LineCode=tieSwitch1,Length=0.001,Units=km,switch=T !numEQ 159420
new line.CTR343034 bus1=BMT172894195.1,bus2=BMT172894226.1,Phases=1,LineCode=tieSwitch1,Length=0.001,Units=km,switch=T !numEQ 284399
new line.CTR37827 bus1=BMT171815684.1,bus2=BMT171815726.1,Phases=1,LineCode=tieSwitch1,Length=0.001,Units=km,switch=T !numEQ 158518
new line.CTR37932 bus1=BMT123190638.1,bus2=BMT170071833.1,Phases=1,LineCode=tieSwitch1,Length=0.001,Units=km,switch=T !numEQ 158560
new line.CTR38247 bus1=BMT171812994.3,bus2=BMT171812996.3,Phases=1,LineCode=tieSwitch1,Length=0.001,Units=km,switch=T !numEQ 158311
new line.CTR38254 bus1=BMT171812997.3,bus2=BMT171812999.3,Phases=1,LineCode=tieSwitch1,Length=0.001,Units=km,switch=T !numEQ 158312
new line.CTR41635 bus1=BMT171814005.3,bus2=BMT171814187.3,Phases=1,LineCode=tieSwitch1,Length=0.001,Units=km,switch=T !numEQ 157323
new line.CTR41642 bus1=BMT171814068.3,bus2=BMT171814164.3,Phases=1,LineCode=tieSwitch1,Length=0.001,Units=km,switch=T !numEQ 157324
new line.CTR41719 bus1=BMT171815139.2,bus2=BMT171815141.2,Phases=1,LineCode=tieSwitch1,Length=0.001,Units=km,switch=T !numEQ 157358
new line.CTR41747 bus1=BMT171814605.1,bus2=BMT171814682.1,Phases=1,LineCode=tieSwitch1,Length=0.001,Units=km,switch=T !numEQ 157362
new line.CTR41754 bus1=BMT171814688.1,bus2=BMT171814695.1,Phases=1,LineCode=tieSwitch1,Length=0.001,Units=km,switch=T !numEQ 157363
new line.CTR41761 bus1=BMT171814690.1,bus2=BMT171814692.1,Phases=1,LineCode=tieSwitch1,Length=0.001,Units=km,switch=T !numEQ 157364
new line.CTR41768 bus1=BMT171814604.1,bus2=BMT171814706.1,Phases=1,LineCode=tieSwitch1,Length=0.001,Units=km,switch=T !numEQ 157365
new line.CTR41775 bus1=BMT171814576.3,bus2=BMT171814578.3,Phases=1,LineCode=tieSwitch1,Length=0.001,Units=km,switch=T !numEQ 157366
new line.CTR41782 bus1=BMT171813024.3,bus2=BMT171813044.3,Phases=1,LineCode=tieSwitch1,Length=0.001,Units=km,switch=T !numEQ 157367
new line.CTR41789 bus1=BMT171813124.2,bus2=BMT171813126.2,Phases=1,LineCode=tieSwitch1,Length=0.001,Units=km,switch=T !numEQ 157368
new line.CTR41796 bus1=BMT171813127.2,bus2=BMT171813137.2,Phases=1,LineCode=tieSwitch1,Length=0.001,Units=km,switch=T !numEQ 157369
new line.CTR41803 bus1=BMT171813128.2,bus2=BMT171813133.2,Phases=1,LineCode=tieSwitch1,Length=0.001,Units=km,switch=T !numEQ 157370
new line.CTR50350 bus1=BMT171815809.2,bus2=BMT171815817.2,Phases=1,LineCode=tieSwitch1,Length=0.001,Units=km,switch=T !numEQ 146693
new line.CTR50693 bus1=BMT171816341.3,bus2=BMT171816377.3,Phases=1,LineCode=tieSwitch1,Length=0.001,Units=km,switch=T !numEQ 146166
new line.CTR5571 bus1=BMT171815734.1,bus2=BMT171815738.1,Phases=1,LineCode=tieSwitch1,Length=0.001,Units=km,switch=T !numEQ 177636
new line.CTR132824 bus1=BMT171812707.1.2.3,bus2=BMT171812710.1.2.3,Phases=3,LineCode=tieSwitch,Length=0.001,Units=km,switch=T !numEQ 81208
new line.CTR14447 bus1=BMT171814629.1,bus2=BMT171814631.1,Phases=1,LineCode=tieSwitch1,Length=0.001,Units=km,switch=T !numEQ 177951
new line.CTR14461 bus1=BMT171814662.1,bus2=BMT171814674.1,Phases=1,LineCode=tieSwitch1,Length=0.001,Units=km,switch=T !numEQ 177954
new line.CTR14468 bus1=BMT171814664.1,bus2=BMT171814671.1,Phases=1,LineCode=tieSwitch1,Length=0.001,Units=km,switch=T !numEQ 177955
new line.CTR14475 bus1=BMT171814638.1,bus2=BMT171814657.1,Phases=1,LineCode=tieSwitch1,Length=0.001,Units=km,switch=T !numEQ 177952
new line.CTR14482 bus1=BMT171814642.1,bus2=BMT171814643.1,Phases=1,LineCode=tieSwitch1,Length=0.001,Units=km,switch=T !numEQ 177953
new line.CTR227254 bus1=BMT171813253.1,bus2=BMT171813594.1,Phases=1,LineCode=tieSwitch1,Length=0.001,Units=km,switch=T !numEQ 26284
new line.CTR227415 bus1=BMT123190176.1,bus2=BMT168387489.1,Phases=1,LineCode=tieSwitch1,Length=0.001,Units=km,switch=T !numEQ 103244
new line.CTR227422 bus1=BMT123190183.3,bus2=BMT159764228.3,Phases=1,LineCode=tieSwitch1,Length=0.001,Units=km,switch=T !numEQ 26059
new line.CTR227429 bus1=BMT123190218.3,bus2=BMT164772113.3,Phases=1,LineCode=tieSwitch1,Length=0.001,Units=km,switch=T !numEQ 26060
new line.CTR227597 bus1=BMT171812895.1.2.3,bus2=BMT171812963.1.2.3,Phases=3,LineCode=tieSwitch,Length=0.001,Units=km,switch=T !numEQ 26094
new line.CTR227744 bus1=BMT171813236.3,bus2=BMT171813744.3,Phases=1,LineCode=tieSwitch1,Length=0.001,Units=km,switch=T !numEQ 26116
new line.CTR228612 bus1=BMT123190890.3,bus2=BMT161267987.3,Phases=1,LineCode=tieSwitch1,Length=0.001,Units=km,switch=T !numEQ 26013
new line.CTR228626 bus1=BMT123190001.3,bus2=BMT123190827.3,Phases=1,LineCode=tieSwitch1,Length=0.001,Units=km,switch=T !numEQ 26016
new line.CTR228633 bus1=BMT123190148.1.2.3,bus2=BMT165925796.1.2.3,Phases=3,LineCode=tieSwitch,Length=0.001,Units=km,switch=T !numEQ 26017
new line.CTR228647 bus1=BMT123190029.2,bus2=BMT123190771.2,Phases=1,LineCode=tieSwitch1,Length=0.001,Units=km,switch=T !numEQ 26019
new line.CTR228661 bus1=BMT123190617.1,bus2=BMT168764421.1,Phases=1,LineCode=tieSwitch1,Length=0.001,Units=km,switch=T !numEQ 103245
new line.CTR273104 bus1=BMT171814203.3,bus2=BMT171814267.3,Phases=1,LineCode=tieSwitch1,Length=0.001,Units=km,switch=T !numEQ 157407
new line.CTR273118 bus1=BMT171814178.3,bus2=BMT171814181.3,Phases=1,LineCode=tieSwitch1,Length=0.001,Units=km,switch=T !numEQ 157409
new line.CTR273125 bus1=BMT171814298.3,bus2=BMT171814309.3,Phases=1,LineCode=tieSwitch1,Length=0.001,Units=km,switch=T !numEQ 157408
new line.CTR27418 bus1=BMT171815705.1,bus2=BMT171815716.1,Phases=1,LineCode=tieSwitch1,Length=0.001,Units=km,switch=T !numEQ 178064
new line.CTR274728 bus1=BMT171815814.2,bus2=BMT171815815.2,Phases=1,LineCode=tieSwitch1,Length=0.001,Units=km,switch=T !numEQ 181801
new line.CTR275813 bus1=BMT171815961.1,bus2=BMT171815967.1,Phases=1,LineCode=tieSwitch1,Length=0.001,Units=km,switch=T !numEQ 157450
new line.CTR302189 bus1=BMT171813130.2,bus2=BMT171813131.2,Phases=1,LineCode=tieSwitch1,Length=0.001,Units=km,switch=T !numEQ 211599
new line.CTR302434 bus1=BMT171816342.3,bus2=BMT171816386.3,Phases=1,LineCode=tieSwitch1,Length=0.001,Units=km,switch=T !numEQ 166053
new line.CTR302462 bus1=BMT171815947.1.2.3,bus2=BMT171815953.1.2.3,Phases=3,LineCode=tieSwitch,Length=0.001,Units=km,switch=T !numEQ 221158
new line.CTR302490 bus1=BMT171815136.2,bus2=BMT171815148.2,Phases=1,LineCode=tieSwitch1,Length=0.001,Units=km,switch=T !numEQ 176683
new line.CTR302588 bus1=BMT171813255.1,bus2=BMT171813592.1,Phases=1,LineCode=tieSwitch1,Length=0.001,Units=km,switch=T !numEQ 86092