new line.RML10034318 bus1=BBT3113116.1.0,bus2=RML1060034318.1.0,Phases=1,Linecode=CABBTG01_4_1,Length=0.017000000,Units=km
new line.RML10034375 bus1=BBT146696421.1.0,bus2=RML1060034375.1.0,Phases=1,Linecode=CABBTG02_4_1,Length=0.017000000,Units=km
new line.RML10034377 bus1=BBT146696421.1.0,bus2=RML1060034377.1.0,Phases=1,Linecode=CABBTG02_4_1,Length=0.017000000,Units=km
new line.RML10034378 bus1=BBT146696358.1.0,bus2=RML1060034378.1.0,Phases=1,Linecode=CABBTG02_4_1,Length=0.017000000,Units=km
new line.RML10034379 bus1=BBT146696428.1.0,bus2=RML1060034379.1.0,Phases=1,Linecode=CABBTG02_4_1,Length=0.017000000,Units=km
new line.RML10034382 bus1=BBT146696372.1.0,bus2=RML1060034382.1.0,Phases=1,Linecode=CABBTG02_4_1,Length=0.017000000,Units=km
new line.RML10034383 bus1=BBT146696414.1.0,bus2=RML1060034383.1.0,Phases=1,Linecode=CABBTG02_4_1,Length=0.017000000,Units=km
new line.RML10034385 bus1=BBT146696512.1.0,bus2=RML1060034385.1.0,Phases=1,Linecode=CABBTG02_4_1,Length=0.017000000,Units=km
new line.RML10034386 bus1=BBT146696512.1.0,bus2=RML1060034386.1.0,Phases=1,Linecode=CABBTG02_4_1,Length=0.017000000,Units=km
new line.RML10034387 bus1=BBT146696379.1.0,bus2=RML1060034387.1.0,Phases=1,Linecode=CABBTG02_4_1,Length=0.017000000,Units=km
new line.RML10034389 bus1=BBT146696407.1.0,bus2=RML1060034389.1.0,Phases=1,Linecode=CABBTG02_4_1,Length=0.017000000,Units=km
new line.RML10034391 bus1=BBT146696505.1.0,bus2=RML1060034391.1.0,Phases=1,Linecode=CABBTG02_4_1,Length=0.017000000,Units=km
new line.RML10034393 bus1=BBT146696407.1.0,bus2=RML1060034393.1.0,Phases=1,Linecode=CABBTG02_4_1,Length=0.017000000,Units=km
new line.RML10034402 bus1=BBT146696435.1.0,bus2=RML1060034402.1.0,Phases=1,Linecode=CABBTG02_4_1,Length=0.017000000,Units=km
new line.RML10034404 bus1=BBT146696491.1.0,bus2=RML1060034404.1.0,Phases=1,Linecode=CABBTG02_4_1,Length=0.017000000,Units=km
new line.RML10034405 bus1=BBT146696477.1.0,bus2=RML1060034405.1.0,Phases=1,Linecode=CABBTG02_4_1,Length=0.017000000,Units=km
new line.RML10034406 bus1=BBT146696456.1.0,bus2=RML1060034406.1.0,Phases=1,Linecode=CABBTG02_4_1,Length=0.017000000,Units=km
new line.RML10034413 bus1=BBT146696505.1.0,bus2=RML1060034413.1.0,Phases=1,Linecode=CABBTG02_4_1,Length=0.017000000,Units=km
new line.RML10034416 bus1=BBT146696512.1.0,bus2=RML1060034416.1.0,Phases=1,Linecode=CABBTG02_4_1,Length=0.017000000,Units=km
new line.RML10034417 bus1=BBT146696358.1.0,bus2=RML1060034417.1.0,Phases=1,Linecode=CABBTG02_4_1,Length=0.017000000,Units=km
new line.RML10034419 bus1=BBT146696477.1.0,bus2=RML1060034419.1.0,Phases=1,Linecode=CABBTG02_4_1,Length=0.017000000,Units=km
new line.RML10034420 bus1=BBT146696477.1.0,bus2=RML1060034420.1.0,Phases=1,Linecode=CABBTG02_4_1,Length=0.017000000,Units=km
new line.RML10034421 bus1=BBT146696477.1.0,bus2=RML1060034421.1.0,Phases=1,Linecode=CABBTG02_4_1,Length=0.017000000,Units=km
new line.RML10034683 bus1=BBT2711617.1.0,bus2=RML1060034683.1.0,Phases=1,Linecode=CABBTG03_4_1,Length=0.017000000,Units=km
new line.RML10034981 bus1=BBT1337125.1.0,bus2=RML1060034981.1.0,Phases=1,Linecode=CABBTG02_4_1,Length=0.017000000,Units=km
new line.RML10034982 bus1=BBT1333975.3.0,bus2=RML1060034982.3.0,Phases=1,Linecode=CABBTG02_4_1,Length=0.017000000,Units=km
new line.RML10035024 bus1=BBT146696463.1.0,bus2=RML1060035024.1.0,Phases=1,Linecode=CABBTG02_4_1,Length=0.017000000,Units=km
new line.RML10035027 bus1=BBT1338126.1.2.3.0,bus2=RML1060035027.1.2.3.0,Phases=3,Linecode=CABBTG06_4_3,Length=0.017000000,Units=km
new line.RML10035048 bus1=BBT146696470.1.0,bus2=RML1060035048.1.0,Phases=1,Linecode=CABBTG02_4_1,Length=0.017000000,Units=km
new line.RML10035049 bus1=BBT146696463.2.0,bus2=RML1060035049.2.0,Phases=1,Linecode=CABBTG02_4_1,Length=0.017000000,Units=km
new line.RML10035072 bus1=BBT1334549.2.0,bus2=RML1060035072.2.0,Phases=1,Linecode=CABBTG02_4_1,Length=0.017000000,Units=km
new line.RML10035089 bus1=BBT2711617.1.2.0,bus2=RML1060035089.1.2.0,Phases=2,Linecode=CABBTG05_4_2,Length=0.017000000,Units=km
new line.RML10035098 bus1=BBT37581555.1.0,bus2=RML1060035098.1.0,Phases=1,Linecode=CABBTG02_4_1,Length=0.017000000,Units=km
new line.RML10035798 bus1=BBT146696407.1.0,bus2=RML1060035798.1.0,Phases=1,Linecode=CABBTG02_4_1,Length=0.017000000,Units=km
new line.RML10035823 bus1=BBT1334542.2.0,bus2=RML1060035823.2.0,Phases=1,Linecode=CABBTG01_4_1,Length=0.017000000,Units=km
new line.RML10035838 bus1=BBT146696456.1.0,bus2=RML1060035838.1.0,Phases=1,Linecode=CABBTG01_4_1,Length=0.017000000,Units=km
new line.RML10035839 bus1=BBT135993988.2.0,bus2=RML1060035839.2.0,Phases=1,Linecode=CABBTG01_4_1,Length=0.017000000,Units=km
new line.RML10035840 bus1=BBT161595948.1.0,bus2=RML1060035840.1.0,Phases=1,Linecode=CABBTG02_4_1,Length=0.017000000,Units=km
new line.RML10035847 bus1=BBT1951739.2.0,bus2=RML1060035847.2.0,Phases=1,Linecode=CABBTG01_4_1,Length=0.017000000,Units=km
new line.RML10035848 bus1=BBT2215317.2.0,bus2=RML1060035848.2.0,Phases=1,Linecode=CABBTG01_4_1,Length=0.017000000,Units=km
new line.RML10036232 bus1=BBT140056557.1.0,bus2=RML1060036232.1.0,Phases=1,Linecode=CABBTG02_4_1,Length=0.021000000,Units=km
new line.RML10038263 bus1=BBT146577638.1.2.0,bus2=RML1060038263.1.2.0,Phases=2,Linecode=CABBTG05_4_2,Length=0.017000000,Units=km
new line.RML10039819 bus1=BBT146644019.1.2.0,bus2=RML1060039819.1.2.0,Phases=2,Linecode=CABBTG13_4_2,Length=0.017000000,Units=km
new line.RML10050842 bus1=BBT2020920.1.0,bus2=RML1060050842.1.0,Phases=1,Linecode=CABBTG01_4_1,Length=0.017000000,Units=km
new line.RML10053255 bus1=BBT1338182.2.0,bus2=RML1060053255.2.0,Phases=1,Linecode=CABBTG01_4_1,Length=0.017000000,Units=km
new line.RML10053257 bus1=BBT1333163.2.0,bus2=RML1060053257.2.0,Phases=1,Linecode=CABBTG01_4_1,Length=0.017000000,Units=km
new line.RML10053309 bus1=BBT156640051.1.0,bus2=RML1060053309.1.0,Phases=1,Linecode=CABBTG02_4_1,Length=0.017000000,Units=km
new line.RML10053312 bus1=BBT3075498.1.0,bus2=RML1060053312.1.0,Phases=1,Linecode=CABBTG02_4_1,Length=0.017000000,Units=km
new line.RML10053317 bus1=BBT135993995.2.0,bus2=RML1060053317.2.0,Phases=1,Linecode=CABBTG02_4_1,Length=0.017000000,Units=km
new line.RML10053318 bus1=BBT127757578.1.0,bus2=RML1060053318.1.0,Phases=1,Linecode=CABBTG02_4_1,Length=0.017000000,Units=km
new line.RML10053374 bus1=BBT2270491.1.0,bus2=RML1060053374.1.0,Phases=1,Linecode=CABBTG02_4_1,Length=0.017000000,Units=km
new line.RML10053375 bus1=BBT4107270.1.2.0,bus2=RML1060053375.1.2.0,Phases=2,Linecode=CABBTG05_4_2,Length=0.017000000,Units=km
new line.RML10053376 bus1=BBT6479528.2.0,bus2=RML1060053376.2.0,Phases=1,Linecode=CABBTG02_4_1,Length=0.017000000,Units=km
new line.RML10053378 bus1=BBT3203745.1.0,bus2=RML1060053378.1.0,Phases=1,Linecode=CABBTG02_4_1,Length=0.017000000,Units=km
new line.RML10053380 bus1=BBT2309334.1.0,bus2=RML1060053380.1.0,Phases=1,Linecode=CABBTG02_4_1,Length=0.017000000,Units=km
new line.RML10053384 bus1=BBT3217633.1.0,bus2=RML1060053384.1.0,Phases=1,Linecode=CABBTG02_4_1,Length=0.017000000,Units=km
new line.RML10053386 bus1=BBT1938593.2.0,bus2=RML1060053386.2.0,Phases=1,Linecode=CABBTG02_4_1,Length=0.017000000,Units=km
new line.RML10053392 bus1=BBT142261900.2.0,bus2=RML1060053392.2.0,Phases=1,Linecode=CABBTG02_4_1,Length=0.017000000,Units=km
new line.RML10053393 bus1=BBT3217612.2.0,bus2=RML1060053393.2.0,Phases=1,Linecode=CABBTG02_4_1,Length=0.017000000,Units=km
new line.RML10053565 bus1=BBT2027227.1.2.0,bus2=RML1060053565.1.2.0,Phases=2,Linecode=CABBTG04_4_2,Length=0.017000000,Units=km
new line.RML10053570 bus1=BBT1694384.1.2.0,bus2=RML1060053570.1.2.0,Phases=2,Linecode=CABBTG04_4_2,Length=0.017000000,Units=km
new line.RML10053583 bus1=BBT2042172.1.0,bus2=RML1060053583.1.0,Phases=1,Linecode=CABBTG02_4_1,Length=0.017000000,Units=km
new line.RML10053609 bus1=BBT2408181.3.0,bus2=RML1060053609.3.0,Phases=1,Linecode=CABBTG02_4_1,Length=0.017000000,Units=km
new line.RML10053638 bus1=BBT107852791.1.2.0,bus2=RML1060053638.1.2.0,Phases=2,Linecode=CABBTG04_4_2,Length=0.017000000,Units=km
new line.RML10053642 bus1=BBT107859686.3.0,bus2=RML1060053642.3.0,Phases=1,Linecode=CABBTG01_4_1,Length=0.017000000,Units=km
new line.RML10056050 bus1=BBT1333163.3.0,bus2=RML1060056050.3.0,Phases=1,Linecode=CABBTG01_4_1,Length=0.017000000,Units=km
new line.RML10056223 bus1=BBT1334612.1.0,bus2=RML1060056223.1.0,Phases=1,Linecode=CABBTG01_4_1,Length=0.017000000,Units=km
new line.RML10059541 bus1=BBT1628164.1.0,bus2=RML1060059541.1.0,Phases=1,Linecode=CABBTG02_4_1,Length=0.017000000,Units=km
new line.RML10059552 bus1=BBT140533180.1.0,bus2=RML1060059552.1.0,Phases=1,Linecode=CABBTG02_4_1,Length=0.020000000,Units=km
new line.RML10061098 bus1=BBT148518130.1.2.0,bus2=RML1060061098.1.2.0,Phases=2,Linecode=CABBTG05_4_2,Length=0.017000000,Units=km
new line.RML10061131 bus1=BBT1333898.2.0,bus2=RML1060061131.2.0,Phases=1,Linecode=CABBTG02_4_1,Length=0.017000000,Units=km
new line.RML10063354 bus1=BBT2030636.1.0,bus2=RML1060063354.1.0,Phases=1,Linecode=CABBTG01_4_1,Length=0.017000000,Units=km
new line.RML10063356 bus1=BBT3217577.2.0,bus2=RML1060063356.2.0,Phases=1,Linecode=CABBTG02_4_1,Length=0.017000000,Units=km
new line.RML10063360 bus1=BBT6128954.1.0,bus2=RML1060063360.1.0,Phases=1,Linecode=CABBTG02_4_1,Length=0.017000000,Units=km
new line.RML10063497 bus1=BBT76830835.1.2.0,bus2=RML1060063497.1.2.0,Phases=2,Linecode=CABBTG05_4_2,Length=0.017000000,Units=km
new line.RML10068754 bus1=BBT1589692.1.2.0,bus2=RML1060068754.1.2.0,Phases=2,Linecode=CABBTG05_4_2,Length=0.017000000,Units=km
new line.RML10068889 bus1=BBT1938586.2.0,bus2=RML1060068889.2.0,Phases=1,Linecode=CABBTG01_4_1,Length=0.017000000,Units=km
new line.RML10074199 bus1=BBT3221875.1.0,bus2=RML1060074199.1.0,Phases=1,Linecode=CABBTG02_4_1,Length=0.017000000,Units=km
new line.RML10075244 bus1=BBT3217605.2.0,bus2=RML1060075244.2.0,Phases=1,Linecode=CABBTG02_4_1,Length=0.017000000,Units=km
new line.RML10077251 bus1=BBT30340869.1.2.0,bus2=RML1060077251.1.2.0,Phases=2,Linecode=CABBTG05_4_2,Length=0.017000000,Units=km
new line.RML10077302 bus1=BBT21287433.1.2.0,bus2=RML1060077302.1.2.0,Phases=2,Linecode=CABBTG05_4_2,Length=0.017000000,Units=km
new line.RML10077489 bus1=BBT1586619.1.2.0,bus2=RML1060077489.1.2.0,Phases=2,Linecode=CABBTG05_4_2,Length=0.017000000,Units=km
new line.RML10077533 bus1=BBT148198646.1.2.0,bus2=RML1060077533.1.2.0,Phases=2,Linecode=CABBTG05_4_2,Length=0.017000000,Units=km
new line.RML10077534 bus1=BBT148198439.1.2.0,bus2=RML1060077534.1.2.0,Phases=2,Linecode=CABBTG05_4_2,Length=0.017000000,Units=km
new line.RML10080301 bus1=BBT149241867.1.2.0,bus2=RML1060080301.1.2.0,Phases=2,Linecode=CABBTG05_4_2,Length=0.017000000,Units=km
new line.RML10082067 bus1=BBT3466322.1.0,bus2=RML1060082067.1.0,Phases=1,Linecode=CABBTG02_4_1,Length=0.017000000,Units=km
new line.RML10084486 bus1=BBT1333163.2.0,bus2=RML1060084486.2.0,Phases=1,Linecode=CABBTG02_4_1,Length=0.017000000,Units=km
new line.RML10084528 bus1=BBT159764263.2.0,bus2=RML1060084528.2.0,Phases=1,Linecode=CABBTG01_4_1,Length=0.017000000,Units=km
new line.RML10090598 bus1=BBT3736508.2.0,bus2=RML1060090598.2.0,Phases=1,Linecode=CABBTG02_4_1,Length=0.017000000,Units=km
new line.RML10093641 bus1=BBT135993995.1.0,bus2=RML1060093641.1.0,Phases=1,Linecode=CABBTG02_4_1,Length=0.013000000,Units=km
new line.RML10095307 bus1=BBT146696407.1.0,bus2=RML1060095307.1.0,Phases=1,Linecode=CABBTG02_4_1,Length=0.017000000,Units=km
new line.RML10102094 bus1=BBT1337279.2.0,bus2=RML1060102094.2.0,Phases=1,Linecode=CABBTG01_4_1,Length=0.017000000,Units=km
new line.RML10102745 bus1=BBT4530938.1.2.0,bus2=RML1060102745.1.2.0,Phases=2,Linecode=CABBTG05_4_2,Length=0.017000000,Units=km
new line.RML10103177 bus1=BBT1384697.1.2.0,bus2=RML1060103177.1.2.0,Phases=2,Linecode=CABBTG05_4_2,Length=0.017000000,Units=km
new line.RML10103317 bus1=BBT1834482.1.0,bus2=RML1060103317.1.0,Phases=1,Linecode=CABBTG02_4_1,Length=0.017000000,Units=km
new line.RML10118371 bus1=BBT19476344.1.2.0,bus2=RML1060118371.1.2.0,Phases=2,Linecode=CABBTG05_4_2,Length=0.017000000,Units=km
new line.RML10136934 bus1=BBT1337111.1.0,bus2=RML1060136934.1.0,Phases=1,Linecode=CABBTG02_4_1,Length=0.017000000,Units=km
new line.RML10145841 bus1=BBT139808470.1.0,bus2=RML1060145841.1.0,Phases=1,Linecode=CABBTG01_4_1,Length=0.017000000,Units=km
new line.RML10149376 bus1=BBT1337055.3.0,bus2=RML1060149376.3.0,Phases=1,Linecode=CABBTG02_4_1,Length=0.017000000,Units=km
new line.RML10149578 bus1=BBT70213798.1.0,bus2=RML1060149578.1.0,Phases=1,Linecode=CABBTG02_4_1,Length=0.017000000,Units=km
new line.RML10151143 bus1=BBT2042501.1.2.0,bus2=RML1060151143.1.2.0,Phases=2,Linecode=CABBTG05_4_2,Length=0.017000000,Units=km
new line.RML10152586 bus1=BBT4993148.1.2.0,bus2=RML1060152586.1.2.0,Phases=2,Linecode=CABBTG05_4_2,Length=0.017000000,Units=km
new line.RML10152617 bus1=BBT1586374.1.2.0,bus2=RML1060152617.1.2.0,Phases=2,Linecode=CABBTG05_4_2,Length=0.017000000,Units=km
new line.RML10152909 bus1=BBT2021438.1.2.0,bus2=RML1060152909.1.2.0,Phases=2,Linecode=CABBTG05_4_2,Length=0.017000000,Units=km
new line.RML10156683 bus1=BBT143678581.1.2.0,bus2=RML1060156683.1.2.0,Phases=2,Linecode=CABBTG05_4_2,Length=0.017000000,Units=km
new line.RML10156692 bus1=BBT1938026.2.0,bus2=RML1060156692.2.0,Phases=1,Linecode=CABBTG01_4_1,Length=0.017000000,Units=km
new line.RML10156699 bus1=BBT142261900.1.0,bus2=RML1060156699.1.0,Phases=1,Linecode=CABBTG01_4_1,Length=0.017000000,Units=km
new line.RML10157968 bus1=BBT1579850.1.0,bus2=RML1060157968.1.0,Phases=1,Linecode=CABBTG02_4_1,Length=0.017000000,Units=km
new line.RML10158241 bus1=BBT104567796.1.2.0,bus2=RML1060158241.1.2.0,Phases=2,Linecode=CABBTG05_4_2,Length=0.017000000,Units=km
new line.RML10175183 bus1=BBT6224049.1.0,bus2=RML1060175183.1.0,Phases=1,Linecode=CABBTG02_4_1,Length=0.017000000,Units=km
new line.RML10179301 bus1=BBT1580466.2.0,bus2=RML1060179301.2.0,Phases=1,Linecode=CABBTG02_4_1,Length=0.017000000,Units=km
new line.RML10179780 bus1=BBT135993981.2.0,bus2=RML1060179780.2.0,Phases=1,Linecode=CABBTG02_4_1,Length=0.017000000,Units=km
new line.RML10180679 bus1=BBT1338203.1.0,bus2=RML1060180679.1.0,Phases=1,Linecode=CABBTG02_4_1,Length=0.017000000,Units=km
new line.RML10181106 bus1=BBT1939706.2.0,bus2=RML1060181106.2.0,Phases=1,Linecode=CABBTG02_4_1,Length=0.017000000,Units=km
new line.RML10183654 bus1=BBT148639830.1.0,bus2=RML1060183654.1.0,Phases=1,Linecode=CABBTG01_4_1,Length=0.017000000,Units=km
new line.RML10183755 bus1=BBT2407950.3.0,bus2=RML1060183755.3.0,Phases=1,Linecode=CABBTG02_4_1,Length=0.017000000,Units=km
new line.RML10183756 bus1=BBT1940147.3.0,bus2=RML1060183756.3.0,Phases=1,Linecode=CABBTG02_4_1,Length=0.012000000,Units=km
new line.RML10183991 bus1=BBT1579724.3.0,bus2=RML1060183991.3.0,Phases=1,Linecode=CABBTG02_4_1,Length=0.017000000,Units=km
new line.RML10194887 bus1=BBT3470410.1.2.0,bus2=RML1060194887.1.2.0,Phases=2,Linecode=CABBTG05_4_2,Length=0.017000000,Units=km
new line.RML10194896 bus1=BBT143678455.2.3.0,bus2=RML1060194896.2.3.0,Phases=2,Linecode=CABBTG05_4_2,Length=0.017000000,Units=km
new line.RML10196602 bus1=BBT2012289.1.2.0,bus2=RML1060196602.1.2.0,Phases=2,Linecode=CABBTG05_4_2,Length=0.017000000,Units=km
new line.RML10196668 bus1=BBT2408013.3.0,bus2=RML1060196668.3.0,Phases=1,Linecode=CABBTG01_4_1,Length=0.017000000,Units=km
new line.RML10199320 bus1=BBT150301721.1.2.0,bus2=RML1060199320.1.2.0,Phases=2,Linecode=CABBTG05_4_2,Length=0.017000000,Units=km
new line.RML10201261 bus1=BBT150546978.1.2.0,bus2=RML1060201261.1.2.0,Phases=2,Linecode=CABBTG05_4_2,Length=0.017000000,Units=km
new line.RML10203847 bus1=BBT130340277.2.0,bus2=RML1060203847.2.0,Phases=1,Linecode=CABBTG02_4_1,Length=0.017000000,Units=km
new line.RML10212906 bus1=BBT127757578.1.0,bus2=RML1060212906.1.0,Phases=1,Linecode=CABBTG02_4_1,Length=0.017000000,Units=km
new line.RML10212944 bus1=BBT3217262.3.0,bus2=RML1060212944.3.0,Phases=1,Linecode=CABBTG02_4_1,Length=0.017000000,Units=km
new line.RML10212994 bus1=BBT104567796.1.2.0,bus2=RML1060212994.1.2.0,Phases=2,Linecode=CABBTG05_4_2,Length=0.017000000,Units=km
new line.RML10213022 bus1=BBT4118897.2.3.0,bus2=RML1060213022.2.3.0,Phases=2,Linecode=CABBTG05_4_2,Length=0.017000000,Units=km
new line.RML10213026 bus1=BBT1576490.1.0,bus2=RML1060213026.1.0,Phases=1,Linecode=CABBTG02_4_1,Length=0.017000000,Units=km
new line.RML10213043 bus1=BBT1939664.1.0,bus2=RML1060213043.1.0,Phases=1,Linecode=CABBTG02_4_1,Length=0.017000000,Units=km
new line.RML10217858 bus1=BBT26869555.1.2.0,bus2=RML1060217858.1.2.0,Phases=2,Linecode=CABBTG05_4_2,Length=0.017000000,Units=km
new line.RML10219091 bus1=BBT112685948.1.0,bus2=RML1060219091.1.0,Phases=1,Linecode=CABBTG02_4_1,Length=0.017000000,Units=km
new line.RML10219094 bus1=BBT5222188.2.0,bus2=RML1060219094.2.0,Phases=1,Linecode=CABBTG02_4_1,Length=0.017000000,Units=km
new line.RML10219428 bus1=BBT139955036.1.0,bus2=RML1060219428.1.0,Phases=1,Linecode=CABBTG01_4_1,Length=0.017000000,Units=km
new line.RML10219463 bus1=BBT4118596.2.0,bus2=RML1060219463.2.0,Phases=1,Linecode=CABBTG02_4_1,Length=0.017000000,Units=km
new line.RML10219467 bus1=BBT1943780.1.0,bus2=RML1060219467.1.0,Phases=1,Linecode=CABBTG02_4_1,Length=0.017000000,Units=km
new line.RML10219478 bus1=BBT127390547.1.2.0,bus2=RML1060219478.1.2.0,Phases=2,Linecode=CABBTG05_4_2,Length=0.017000000,Units=km
new line.RML10219509 bus1=BBT2408181.1.0,bus2=RML1060219509.1.0,Phases=1,Linecode=CABBTG02_4_1,Length=0.017000000,Units=km
new line.RML10222770 bus1=BBT4118771.1.0,bus2=RML1060222770.1.0,Phases=1,Linecode=CABBTG02_4_1,Length=0.017000000,Units=km
new line.RML10223032 bus1=BBT2408160.2.0,bus2=RML1060223032.2.0,Phases=1,Linecode=CABBTG01_4_1,Length=0.017000000,Units=km
new line.RML10224203 bus1=BBT1332799.1.0,bus2=RML1060224203.1.0,Phases=1,Linecode=CABBTG02_4_1,Length=0.017000000,Units=km
new line.RML10224339 bus1=BBT1332680.2.0,bus2=RML1060224339.2.0,Phases=1,Linecode=CABBTG02_4_1,Length=0.017000000,Units=km
new line.RML10226940 bus1=BBT5222195.1.0,bus2=RML1060226940.1.0,Phases=1,Linecode=CABBTG02_4_1,Length=0.017000000,Units=km
new line.RML10226943 bus1=BBT6274519.2.0,bus2=RML1060226943.2.0,Phases=1,Linecode=CABBTG02_4_1,Length=0.017000000,Units=km
new line.RML10226945 bus1=BBT112793482.1.2.0,bus2=RML1060226945.1.2.0,Phases=2,Linecode=CABBTG05_4_2,Length=0.017000000,Units=km
new line.RML10226950 bus1=BBT6128954.3.0,bus2=RML1060226950.3.0,Phases=1,Linecode=CABBTG02_4_1,Length=0.017000000,Units=km
new line.RML10227078 bus1=BBT6128940.2.0,bus2=RML1060227078.2.0,Phases=1,Linecode=CABBTG02_4_1,Length=0.017000000,Units=km
new line.RML10227083 bus1=BBT1940063.2.0,bus2=RML1060227083.2.0,Phases=1,Linecode=CABBTG02_4_1,Length=0.017000000,Units=km
new line.RML10227095 bus1=BBT1937158.1.0,bus2=RML1060227095.1.0,Phases=1,Linecode=CABBTG02_4_1,Length=0.017000000,Units=km
new line.RML10227110 bus1=BBT2012275.1.2.0,bus2=RML1060227110.1.2.0,Phases=2,Linecode=CABBTG05_4_2,Length=0.017000000,Units=km
new line.RML10237612 bus1=BBT146696456.1.2.3.0,bus2=RML1060237612.1.2.3.0,Phases=3,Linecode=CABBTG06_4_3,Length=0.017000000,Units=km
new line.RML10238087 bus1=BBT3466385.1.0,bus2=RML1060238087.1.0,Phases=1,Linecode=CABBTG02_4_1,Length=0.017000000,Units=km
new line.RML10241295 bus1=BBT1938614.3.0,bus2=RML1060241295.3.0,Phases=1,Linecode=CABBTG02_4_1,Length=0.017000000,Units=km
new line.RML10241303 bus1=BBT151090854.3.0,bus2=RML1060241303.3.0,Phases=1,Linecode=CABBTG02_4_1,Length=0.017000000,Units=km
new line.RML10241306 bus1=BBT151089765.1.0,bus2=RML1060241306.1.0,Phases=1,Linecode=CABBTG02_4_1,Length=0.017000000,Units=km
new line.RML10241364 bus1=BBT4912732.1.0,bus2=RML1060241364.1.0,Phases=1,Linecode=CABBTG02_4_1,Length=0.017000000,Units=km
new line.RML10241379 bus1=BBT127757410.1.0,bus2=RML1060241379.1.0,Phases=1,Linecode=CABBTG02_4_1,Length=0.017000000,Units=km
new line.RML10241384 bus1=BBT1627212.1.2.0,bus2=RML1060241384.1.2.0,Phases=2,Linecode=CABBTG05_4_2,Length=0.017000000,Units=km
new line.RML10241385 bus1=BBT1606051.1.2.0,bus2=RML1060241385.1.2.0,Phases=2,Linecode=CABBTG05_4_2,Length=0.017000000,Units=km
new line.RML10245693 bus1=BBT150435923.1.0,bus2=RML1060245693.1.0,Phases=1,Linecode=CABBTG01_4_1,Length=0.017000000,Units=km
new line.RML10247096 bus1=BBT150226825.1.2.0,bus2=RML1060247096.1.2.0,Phases=2,Linecode=CABBTG05_4_2,Length=0.017000000,Units=km
new line.RML10247109 bus1=BBT20083510.2.0,bus2=RML1060247109.2.0,Phases=1,Linecode=CABBTG02_4_1,Length=0.017000000,Units=km
new line.RML10249972 bus1=BBT1334122.2.0,bus2=RML1060249972.2.0,Phases=1,Linecode=CABBTG02_4_1,Length=0.017000000,Units=km
new line.RML10254455 bus1=BBT107852266.1.2.0,bus2=RML1060254455.1.2.0,Phases=2,Linecode=CABBTG05_4_2,Length=0.017000000,Units=km
new line.RML10254475 bus1=BBT151049681.1.2.0,bus2=RML1060254475.1.2.0,Phases=2,Linecode=CABBTG05_4_2,Length=0.017000000,Units=km
new line.RML10254478 bus1=BBT151047938.2.3.0,bus2=RML1060254478.2.3.0,Phases=2,Linecode=CABBTG05_4_2,Length=0.017000000,Units=km
new line.RML10254491 bus1=BBT151090367.1.0,bus2=RML1060254491.1.0,Phases=1,Linecode=CABBTG02_4_1,Length=0.017000000,Units=km
new line.RML10254496 bus1=BBT151049796.2.0,bus2=RML1060254496.2.0,Phases=1,Linecode=CABBTG02_4_1,Length=0.017000000,Units=km
new line.RML10254526 bus1=BBT151049796.1.0,bus2=RML1060254526.1.0,Phases=1,Linecode=CABBTG02_4_1,Length=0.017000000,Units=km
new line.RML10254527 bus1=BBT150521998.1.0,bus2=RML1060254527.1.0,Phases=1,Linecode=CABBTG02_4_1,Length=0.017000000,Units=km
new line.RML10254528 bus1=BBT151048053.2.0,bus2=RML1060254528.2.0,Phases=1,Linecode=CABBTG02_4_1,Length=0.017000000,Units=km
new line.RML10254529 bus1=BBT150521827.1.0,bus2=RML1060254529.1.0,Phases=1,Linecode=CABBTG02_4_1,Length=0.017000000,Units=km
new line.RML10254532 bus1=BBT151048053.3.0,bus2=RML1060254532.3.0,Phases=1,Linecode=CABBTG02_4_1,Length=0.017000000,Units=km
new line.RML10254534 bus1=BBT150522070.2.0,bus2=RML1060254534.2.0,Phases=1,Linecode=CABBTG02_4_1,Length=0.017000000,Units=km
new line.RML10254535 bus1=BBT151048053.3.0,bus2=RML1060254535.3.0,Phases=1,Linecode=CABBTG02_4_1,Length=0.017000000,Units=km
new line.RML10254536 bus1=BBT150521998.2.0,bus2=RML1060254536.2.0,Phases=1,Linecode=CABBTG02_4_1,Length=0.017000000,Units=km
new line.RML10254539 bus1=BBT151049796.3.0,bus2=RML1060254539.3.0,Phases=1,Linecode=CABBTG02_4_1,Length=0.017000000,Units=km
new line.RML10254540 bus1=BBT150522089.2.0,bus2=RML1060254540.2.0,Phases=1,Linecode=CABBTG02_4_1,Length=0.017000000,Units=km
new line.RML10254542 bus1=BBT150522070.1.0,bus2=RML1060254542.1.0,Phases=1,Linecode=CABBTG02_4_1,Length=0.017000000,Units=km
new line.RML10254545 bus1=BBT151048053.2.0,bus2=RML1060254545.2.0,Phases=1,Linecode=CABBTG02_4_1,Length=0.017000000,Units=km
new line.RML10254565 bus1=BBT150522000.1.0,bus2=RML1060254565.1.0,Phases=1,Linecode=CABBTG02_4_1,Length=0.017000000,Units=km
new line.RML10254567 bus1=BBT151047944.1.3.0,bus2=RML1060254567.1.3.0,Phases=2,Linecode=CABBTG05_4_2,Length=0.017000000,Units=km
new line.RML10254596 bus1=BBT150522086.1.0,bus2=RML1060254596.1.0,Phases=1,Linecode=CABBTG02_4_1,Length=0.017000000,Units=km
new line.RML10254602 bus1=BBT150522086.1.0,bus2=RML1060254602.1.0,Phases=1,Linecode=CABBTG02_4_1,Length=0.017000000,Units=km
new line.RML10254606 bus1=BBT151047944.1.0,bus2=RML1060254606.1.0,Phases=1,Linecode=CABBTG02_4_1,Length=0.017000000,Units=km
new line.RML10254620 bus1=BBT5222034.1.0,bus2=RML1060254620.1.0,Phases=1,Linecode=CABBTG02_4_1,Length=0.017000000,Units=km
new line.RML10254763 bus1=BBT150522030.3.0,bus2=RML1060254763.3.0,Phases=1,Linecode=CABBTG02_4_1,Length=0.017000000,Units=km
new line.RML10254765 bus1=BBT151049682.1.3.0,bus2=RML1060254765.1.3.0,Phases=2,Linecode=CABBTG05_4_2,Length=0.017000000,Units=km
new line.RML10254767 bus1=BBT150522030.1.0,bus2=RML1060254767.1.0,Phases=1,Linecode=CABBTG02_4_1,Length=0.017000000,Units=km
new line.RML10254769 bus1=BBT150522030.1.0,bus2=RML1060254769.1.0,Phases=1,Linecode=CABBTG02_4_1,Length=0.017000000,Units=km
new line.RML10254770 bus1=BBT151049680.3.0,bus2=RML1060254770.3.0,Phases=1,Linecode=CABBTG02_4_1,Length=0.017000000,Units=km
new line.RML10254772 bus1=BBT150522063.1.3.0,bus2=RML1060254772.1.3.0,Phases=2,Linecode=CABBTG05_4_2,Length=0.017000000,Units=km
new line.RML10254773 bus1=BBT150522063.1.3.0,bus2=RML1060254773.1.3.0,Phases=2,Linecode=CABBTG05_4_2,Length=0.017000000,Units=km
new line.RML10254775 bus1=BBT151049681.1.2.0,bus2=RML1060254775.1.2.0,Phases=2,Linecode=CABBTG05_4_2,Length=0.017000000,Units=km
new line.RML10254787 bus1=BBT150522030.2.0,bus2=RML1060254787.2.0,Phases=1,Linecode=CABBTG02_4_1,Length=0.017000000,Units=km
new line.RML10254791 bus1=BBT151049796.2.3.0,bus2=RML1060254791.2.3.0,Phases=2,Linecode=CABBTG05_4_2,Length=0.017000000,Units=km
new line.RML10254833 bus1=BBT150521998.3.0,bus2=RML1060254833.3.0,Phases=1,Linecode=CABBTG02_4_1,Length=0.017000000,Units=km
new line.RML10254835 bus1=BBT5222258.1.0,bus2=RML1060254835.1.0,Phases=1,Linecode=CABBTG02_4_1,Length=0.017000000,Units=km
new line.RML10255034 bus1=BBT3221861.1.0,bus2=RML1060255034.1.0,Phases=1,Linecode=CABBTG02_4_1,Length=0.017000000,Units=km
new line.RML10255042 bus1=BBT150522086.1.0,bus2=RML1060255042.1.0,Phases=1,Linecode=CABBTG02_4_1,Length=0.017000000,Units=km
new line.RML10255044 bus1=BBT151047932.2.0,bus2=RML1060255044.2.0,Phases=1,Linecode=CABBTG02_4_1,Length=0.017000000,Units=km
new line.RML10255053 bus1=BBT151089398.2.0,bus2=RML1060255053.2.0,Phases=1,Linecode=CABBTG02_4_1,Length=0.017000000,Units=km
new line.RML10255055 bus1=BBT21639946.2.0,bus2=RML1060255055.2.0,Phases=1,Linecode=CABBTG02_4_1,Length=0.017000000,Units=km
new line.RML10255089 bus1=BBT1586948.1.2.0,bus2=RML1060255089.1.2.0,Phases=2,Linecode=CABBTG05_4_2,Length=0.017000000,Units=km
new line.RML10255107 bus1=BBT1951886.1.0,bus2=RML1060255107.1.0,Phases=1,Linecode=CABBTG02_4_1,Length=0.017000000,Units=km
new line.RML10255137 bus1=BBT1333296.1.2.0,bus2=RML1060255137.1.2.0,Phases=2,Linecode=CABBTG05_4_2,Length=0.017000000,Units=km
new line.RML10255204 bus1=BBT2405241.1.2.0,bus2=RML1060255204.1.2.0,Phases=2,Linecode=CABBTG05_4_2,Length=0.017000000,Units=km
new line.RML10255364 bus1=BBT150667221.1.0,bus2=RML1060255364.1.0,Phases=1,Linecode=CABBTG02_4_1,Length=0.017000000,Units=km
new line.RML10263228 bus1=BBT151049681.1.0,bus2=RML1060263228.1.0,Phases=1,Linecode=CABBTG01_4_1,Length=0.017000000,Units=km
new line.RML10263281 bus1=BBT151047938.2.0,bus2=RML1060263281.2.0,Phases=1,Linecode=CABBTG02_4_1,Length=0.017000000,Units=km
new line.RML10263282 bus1=BBT150667249.2.0,bus2=RML1060263282.2.0,Phases=1,Linecode=CABBTG02_4_1,Length=0.017000000,Units=km
new line.RML10263292 bus1=BBT134925333.1.0,bus2=RML1060263292.1.0,Phases=1,Linecode=CABBTG01_4_1,Length=0.017000000,Units=km
new line.RML10265384 bus1=BBT151410189.1.2.0,bus2=RML1060265384.1.2.0,Phases=2,Linecode=CABBTG05_4_2,Length=0.017000000,Units=km
new line.RML10265412 bus1=BBT1579514.1.2.3.0,bus2=RML1060265412.1.2.3.0,Phases=3,Linecode=CABBTG06_4_3,Length=0.017000000,Units=km
new line.RML10265466 bus1=BBT112685780.1.2.0,bus2=RML1060265466.1.2.0,Phases=2,Linecode=CABBTG05_4_2,Length=0.017000000,Units=km
new line.RML10265535 bus1=BBT1580466.1.0,bus2=RML1060265535.1.0,Phases=1,Linecode=CABBTG02_4_1,Length=0.017000000,Units=km
new line.RML10265644 bus1=BBT4118596.1.0,bus2=RML1060265644.1.0,Phases=1,Linecode=CABBTG02_4_1,Length=0.017000000,Units=km
new line.RML10265647 bus1=BBT5222209.2.0,bus2=RML1060265647.2.0,Phases=1,Linecode=CABBTG02_4_1,Length=0.017000000,Units=km
new line.RML10265653 bus1=BBT149566486.2.0,bus2=RML1060265653.2.0,Phases=1,Linecode=CABBTG02_4_1,Length=0.017000000,Units=km
new line.RML10265656 bus1=BBT3217458.1.0,bus2=RML1060265656.1.0,Phases=1,Linecode=CABBTG02_4_1,Length=0.017000000,Units=km
new line.RML10266496 bus1=BBT151355218.1.0,bus2=RML1060266496.1.0,Phases=1,Linecode=CABBTG02_4_1,Length=0.017000000,Units=km
new line.RML10266802 bus1=BBT151448507.1.2.0,bus2=RML1060266802.1.2.0,Phases=2,Linecode=CABBTG05_4_2,Length=0.017000000,Units=km
new line.RML10267220 bus1=BBT99835124.2.0,bus2=RML1060267220.2.0,Phases=1,Linecode=CABBTG02_4_1,Length=0.017000000,Units=km
new line.RML10267267 bus1=BBT22758763.1.2.0,bus2=RML1060267267.1.2.0,Phases=2,Linecode=CABBTG05_4_2,Length=0.017000000,Units=km
new line.RML10267377 bus1=BBT4078717.1.2.0,bus2=RML1060267377.1.2.0,Phases=2,Linecode=CABBTG05_4_2,Length=0.017000000,Units=km
new line.RML10267830 bus1=BBT2027759.1.2.0,bus2=RML1060267830.1.2.0,Phases=2,Linecode=CABBTG05_4_2,Length=0.017000000,Units=km
new line.RML10267914 bus1=BBT150667148.2.0,bus2=RML1060267914.2.0,Phases=1,Linecode=CABBTG02_4_1,Length=0.017000000,Units=km
new line.RML10267916 bus1=BBT150667148.2.0,bus2=RML1060267916.2.0,Phases=1,Linecode=CABBTG02_4_1,Length=0.017000000,Units=km
new line.RML10267918 bus1=BBT150667249.1.2.0,bus2=RML1060267918.1.2.0,Phases=2,Linecode=CABBTG05_4_2,Length=0.017000000,Units=km
new line.RML10267919 bus1=BBT150667166.2.0,bus2=RML1060267919.2.0,Phases=1,Linecode=CABBTG02_4_1,Length=0.017000000,Units=km
new line.RML10267920 bus1=BBT150667148.2.0,bus2=RML1060267920.2.0,Phases=1,Linecode=CABBTG02_4_1,Length=0.017000000,Units=km
new line.RML10267921 bus1=BBT150667260.1.3.0,bus2=RML1060267921.1.3.0,Phases=2,Linecode=CABBTG05_4_2,Length=0.017000000,Units=km
new line.RML10267926 bus1=BBT150667211.1.2.0,bus2=RML1060267926.1.2.0,Phases=2,Linecode=CABBTG05_4_2,Length=0.017000000,Units=km
new line.RML10267929 bus1=BBT150667219.2.3.0,bus2=RML1060267929.2.3.0,Phases=2,Linecode=CABBTG05_4_2,Length=0.017000000,Units=km
new line.RML10267931 bus1=BBT150667193.3.0,bus2=RML1060267931.3.0,Phases=1,Linecode=CABBTG02_4_1,Length=0.017000000,Units=km
new line.RML10267935 bus1=BBT150667193.2.3.0,bus2=RML1060267935.2.3.0,Phases=2,Linecode=CABBTG05_4_2,Length=0.017000000,Units=km
new line.RML10267936 bus1=BBT150667166.3.0,bus2=RML1060267936.3.0,Phases=1,Linecode=CABBTG02_4_1,Length=0.017000000,Units=km
new line.RML10267938 bus1=BBT150667169.2.0,bus2=RML1060267938.2.0,Phases=1,Linecode=CABBTG02_4_1,Length=0.017000000,Units=km