new line.10015683 bus1=BBT145527484.1.2.0,bus2=BBT145527491.1.2.0,Phases=2,Linecode=BT521_BT521_7_2_1,Length=0.000501000,Units=km
new line.1239251 bus1=BBT1334248.1.2.3.0,bus2=BBT1334234.1.2.3.0,Phases=3,Linecode=BT108_BT107_7_3_1,Length=0.037028000,Units=km
new line.1239258 bus1=BBT1334255.1.2.3.0,bus2=BBT1334241.1.2.3.0,Phases=3,Linecode=BT107_BT107_7_3_1,Length=0.027814000,Units=km
new line.1239265 bus1=BBT1334262.1.2.3.0,bus2=BBT1334248.1.2.3.0,Phases=3,Linecode=BT108_BT107_7_3_1,Length=0.029080000,Units=km
new line.1239272 bus1=BBT1334269.1.2.3.0,bus2=BBT1334255.1.2.3.0,Phases=3,Linecode=BT107_BT107_7_3_1,Length=0.028612000,Units=km
new line.1239279 bus1=BBT1334269.1.2.3.0,bus2=BBT1334262.1.2.3.0,Phases=3,Linecode=BT108_BT107_7_3_1,Length=0.025505000,Units=km
new line.1239286 bus1=BBT5335245.1.2.3.0,bus2=BBT5335252.1.2.3.0,Phases=3,Linecode=BT509_BT509_7_3_1,Length=0.000501000,Units=km
new line.1239293 bus1=BBT1334276.1.2.3.0,bus2=BBT3753735.1.2.3.0,Phases=3,Linecode=BT808_BT808_4_3_3,Length=0.039840000,Units=km
new line.1239300 bus1=BBT1334283.1.2.3.0,bus2=BBT1334269.1.2.3.0,Phases=3,Linecode=BT108_BT107_7_3_1,Length=0.047652000,Units=km
new line.1239307 bus1=BBT1334220.1.2.3.0,bus2=BBT1334283.1.2.3.0,Phases=3,Linecode=BT509_BT509_7_3_1,Length=0.000501000,Units=km
new line.1239314 bus1=BBT1334283.1.2.3.0,bus2=BBT3753763.1.2.3.0,Phases=3,Linecode=BT108_BT107_7_3_1,Length=0.042537000,Units=km
new line.1239321 bus1=BBT1334283.1.2.0,bus2=BBT3466378.1.2.0,Phases=2,Linecode=BT808_BT808_4_2_3,Length=0.042028000,Units=km
new line.1239328 bus1=BBT1334290.1.2.3.0,bus2=BBT1334276.1.2.3.0,Phases=3,Linecode=BT810_BT810_4_3_4,Length=0.038303000,Units=km
new line.1239335 bus1=BBT3753763.1.2.3.0,bus2=BBT1334290.1.2.3.0,Phases=3,Linecode=BT810_BT810_4_3_4,Length=0.038225000,Units=km
new line.1239342 bus1=BBT3753763.1.2.0,bus2=BBT3753770.1.2.0,Phases=2,Linecode=BT107_BT106_7_2_1,Length=0.016285000,Units=km
new line.1239349 bus1=BBT3753763.1.2.3.0,bus2=BBT1334304.1.2.3.0,Phases=3,Linecode=BT106_BT106_7_3_1,Length=0.040016000,Units=km
new line.1239356 bus1=BBT1334325.1.2.3.0,bus2=BBT1334318.1.2.3.0,Phases=3,Linecode=BT106_BT106_7_3_1,Length=0.035482000,Units=km
new line.1239363 bus1=BBT1334325.1.2.0,bus2=BBT1334339.1.2.0,Phases=2,Linecode=BT106_BT106_7_2_1,Length=0.032769000,Units=km
new line.1239370 bus1=BBT1334346.1.2.3.0,bus2=BBT1334325.1.2.3.0,Phases=3,Linecode=BT108_BT107_7_3_1,Length=0.039066000,Units=km
new line.1239377 bus1=BBT1334346.1.2.3.0,bus2=BBT1334332.1.2.3.0,Phases=3,Linecode=BT107_BT106_7_3_1,Length=0.032215000,Units=km
new line.1239384 bus1=BBT1334360.1.2.3.0,bus2=BBT1334346.1.2.3.0,Phases=3,Linecode=BT108_BT107_7_3_1,Length=0.030622000,Units=km
new line.1239391 bus1=BBT1334360.1.2.3.0,bus2=BBT1334367.1.2.3.0,Phases=3,Linecode=BT107_BT106_7_3_1,Length=0.033614000,Units=km
new line.1239398 bus1=BBT1334367.1.2.3.0,bus2=BBT1334388.1.2.3.0,Phases=3,Linecode=BT107_BT106_7_3_1,Length=0.035819000,Units=km
new line.1239405 bus1=BBT1334374.1.2.0,bus2=BBT1334353.1.2.0,Phases=2,Linecode=BT106_BT106_7_2_1,Length=0.030028000,Units=km
new line.1239412 bus1=BBT1334381.1.2.3.0,bus2=BBT1334360.1.2.3.0,Phases=3,Linecode=BT108_BT107_7_3_1,Length=0.034072000,Units=km
new line.1239419 bus1=BBT1334311.1.2.3.0,bus2=BBT1334381.1.2.3.0,Phases=3,Linecode=BT307_BT307_7_3_1,Length=0.000501000,Units=km
new line.1239426 bus1=BBT1334381.1.2.3.0,bus2=BBT1334402.1.2.3.0,Phases=3,Linecode=BT108_BT107_7_3_1,Length=0.029845000,Units=km
new line.1239433 bus1=BBT1402197.1.2.3.0,bus2=BBT1402204.1.2.3.0,Phases=3,Linecode=BT514_BT514_7_3_1,Length=0.000501000,Units=km
new line.1239440 bus1=BBT155279585.1.2.3.0,bus2=BBT1334409.1.2.3.0,Phases=3,Linecode=BT107_BT106_7_3_1,Length=0.010635000,Units=km
new line.1239447 bus1=BBT1334402.1.2.0,bus2=BBT1334374.1.2.0,Phases=2,Linecode=BT106_BT106_7_2_1,Length=0.033851000,Units=km
new line.1239454 bus1=BBT1334402.1.2.3.0,bus2=BBT1334416.1.2.3.0,Phases=3,Linecode=BT108_BT107_7_3_1,Length=0.037028000,Units=km
new line.1239461 bus1=BBT1334402.1.2.0,bus2=BBT1334430.1.2.0,Phases=2,Linecode=BT106_BT106_7_2_1,Length=0.046666000,Units=km
new line.1239468 bus1=BBT1334409.1.2.3.0,bus2=BBT2189018.1.2.3.0,Phases=3,Linecode=BT107_BT106_7_3_1,Length=0.022481000,Units=km
new line.1239475 bus1=BBT1334416.1.2.3.0,bus2=BBT1334444.1.2.3.0,Phases=3,Linecode=BT108_BT107_7_3_1,Length=0.048619000,Units=km
new line.1239482 bus1=BBT1334423.1.2.0,bus2=BBT1334395.1.2.0,Phases=2,Linecode=BT106_BT106_7_2_1,Length=0.040832000,Units=km
new line.1239489 bus1=BBT1334430.1.2.0,bus2=BBT1334451.1.2.0,Phases=2,Linecode=BT106_BT106_7_2_1,Length=0.044962000,Units=km
new line.1239496 bus1=BBT1334444.1.2.0,bus2=BBT1334423.1.2.0,Phases=2,Linecode=BT106_BT106_7_2_1,Length=0.042737000,Units=km
new line.1239503 bus1=BBT1334444.1.2.0,bus2=BBT1334458.1.2.0,Phases=2,Linecode=BT106_BT106_7_2_1,Length=0.036070000,Units=km
new line.1239510 bus1=BBT1334479.1.2.0,bus2=BBT2711680.1.2.0,Phases=2,Linecode=BT808_BT808_4_2_3,Length=0.042028000,Units=km
new line.1239517 bus1=BBT1334486.1.2.3.0,bus2=BBT1334472.1.2.3.0,Phases=3,Linecode=BT108_BT107_7_3_1,Length=0.035623000,Units=km
new line.1239524 bus1=BBT1334493.1.2.0,bus2=BBT1334479.1.2.0,Phases=2,Linecode=BT106_BT106_7_2_1,Length=0.039220000,Units=km
new line.1239531 bus1=BBT1334493.1.2.3.0,bus2=BBT1334486.1.2.3.0,Phases=3,Linecode=BT108_BT107_7_3_1,Length=0.037217000,Units=km
new line.1239538 bus1=BBT1334500.1.2.3.0,bus2=BBT1334493.1.2.3.0,Phases=3,Linecode=BT108_BT107_7_3_1,Length=0.024849000,Units=km
new line.1239545 bus1=BBT1334465.1.2.3.0,bus2=BBT1334500.1.2.3.0,Phases=3,Linecode=BT521_BT521_7_3_1,Length=0.000501000,Units=km
new line.1239552 bus1=BBT1334500.1.2.3.0,bus2=BBT1334514.1.2.3.0,Phases=3,Linecode=BT108_BT107_7_3_1,Length=0.035014000,Units=km
new line.1239559 bus1=BBT1334514.1.2.3.0,bus2=BBT1334521.1.2.3.0,Phases=3,Linecode=BT108_BT107_7_3_1,Length=0.029218000,Units=km
new line.1239566 bus1=BBT1334521.1.2.3.0,bus2=BBT1334535.1.2.3.0,Phases=3,Linecode=BT108_BT107_7_3_1,Length=0.036249000,Units=km
new line.1239573 bus1=BBT1334521.1.2.0,bus2=BBT1334507.1.2.0,Phases=2,Linecode=BT106_BT106_7_2_1,Length=0.040832000,Units=km
new line.1239580 bus1=BBT1334521.1.2.0,bus2=BBT1334528.1.2.0,Phases=2,Linecode=BT106_BT106_7_2_1,Length=0.033028000,Units=km
new line.1239587 bus1=BBT1334528.1.2.0,bus2=BBT1334542.1.2.0,Phases=2,Linecode=BT106_BT106_7_2_1,Length=0.033629000,Units=km
new line.1239608 bus1=BBT1334542.1.2.0,bus2=BBT1334549.1.2.0,Phases=2,Linecode=BT106_BT106_7_2_1,Length=0.034683000,Units=km
new line.1239615 bus1=BBT1334549.1.2.0,bus2=BBT1334556.1.2.0,Phases=2,Linecode=BT106_BT106_7_2_1,Length=0.026936000,Units=km
new line.1239622 bus1=BBT1334570.1.2.0,bus2=BBT1334297.1.2.0,Phases=2,Linecode=BT107_BT106_7_2_1,Length=0.037751000,Units=km
new line.1239629 bus1=BBT1334570.1.2.0,bus2=BBT1334591.1.2.0,Phases=2,Linecode=BT107_BT106_7_2_1,Length=0.031777000,Units=km
new line.1239636 bus1=BBT1334577.1.2.0,bus2=BBT1334570.1.2.0,Phases=2,Linecode=BT107_BT106_7_2_1,Length=0.034028000,Units=km
new line.1239643 bus1=BBT1334584.1.2.0,bus2=BBT1334598.1.2.0,Phases=2,Linecode=BT107_BT106_7_2_1,Length=0.034028000,Units=km
new line.1239650 bus1=BBT1334584.1.2.0,bus2=BBT1334577.1.2.0,Phases=2,Linecode=BT107_BT106_7_2_1,Length=0.027742000,Units=km
new line.1239657 bus1=BBT1334591.1.2.0,bus2=BBT1334612.1.2.0,Phases=2,Linecode=BT107_BT106_7_2_1,Length=0.027742000,Units=km
new line.10051936 bus1=BBT146577316.1.2.3.0,bus2=BBT159906455.1.2.3.0,Phases=3,Linecode=BT518_BT518_7_3_1,Length=0.000501000,Units=km
new line.10051943 bus1=BBT146577323.1.2.3.0,bus2=BBT146577435.1.2.3.0,Phases=3,Linecode=BT803_BT803_4_3_4,Length=0.034998000,Units=km
new line.10051950 bus1=BBT146577442.1.2.3.0,bus2=BBT146577323.1.2.3.0,Phases=3,Linecode=BT803_BT803_4_3_4,Length=0.032768000,Units=km
new line.10051957 bus1=BBT146577435.1.2.3.0,bus2=BBT146577449.1.2.3.0,Phases=3,Linecode=BT803_BT803_4_3_4,Length=0.034144000,Units=km
new line.10051964 bus1=BBT146577449.1.2.3.0,bus2=BBT146577456.1.2.3.0,Phases=3,Linecode=BT803_BT803_4_3_4,Length=0.034998000,Units=km
new line.10051971 bus1=BBT146577456.1.2.3.0,bus2=BBT146577463.1.2.3.0,Phases=3,Linecode=BT803_BT803_4_3_4,Length=0.034898000,Units=km
new line.10051978 bus1=BBT146577435.1.2.3.0,bus2=BBT146577491.1.2.3.0,Phases=3,Linecode=BT803_BT803_4_3_4,Length=0.036068000,Units=km
new line.10051985 bus1=BBT146577491.1.2.3.0,bus2=BBT146577498.1.2.3.0,Phases=3,Linecode=BT803_BT803_4_3_4,Length=0.035523000,Units=km
new line.10051992 bus1=BBT146577638.1.2.3.0,bus2=BBT146577442.1.2.3.0,Phases=3,Linecode=BT803_BT803_4_3_4,Length=0.034998000,Units=km
new line.10053574 bus1=BBT146644012.1.2.0,bus2=BBT146644019.1.2.0,Phases=2,Linecode=BT513_BT513_7_2_1,Length=0.000501000,Units=km
new line.10055667 bus1=BBT146696351.1.2.3.0,bus2=BBT146696358.1.2.3.0,Phases=3,Linecode=BT518_BT518_7_3_1,Length=0.000501000,Units=km
new line.10055674 bus1=BBT146696358.1.2.3.0,bus2=BBT146696372.1.2.3.0,Phases=3,Linecode=BT803_BT803_4_3_4,Length=0.031919000,Units=km
new line.10055681 bus1=BBT146696358.1.2.3.0,bus2=BBT146696379.1.2.3.0,Phases=3,Linecode=BT803_BT803_4_3_4,Length=0.031397000,Units=km
new line.10055695 bus1=BBT146696379.1.2.3.0,bus2=BBT146696407.1.2.3.0,Phases=3,Linecode=BT803_BT803_4_3_4,Length=0.031397000,Units=km
new line.10055702 bus1=BBT146696372.1.2.3.0,bus2=BBT146696414.1.2.3.0,Phases=3,Linecode=BT803_BT803_4_3_4,Length=0.024708000,Units=km
new line.10055709 bus1=BBT146696414.1.2.3.0,bus2=BBT146696421.1.2.3.0,Phases=3,Linecode=BT803_BT803_4_3_4,Length=0.024196000,Units=km
new line.10055716 bus1=BBT146696421.1.2.3.0,bus2=BBT146696428.1.2.3.0,Phases=3,Linecode=BT803_BT803_4_3_4,Length=0.025564000,Units=km
new line.10055723 bus1=BBT146696428.1.2.3.0,bus2=BBT146696435.1.2.3.0,Phases=3,Linecode=BT803_BT803_4_3_4,Length=0.024708000,Units=km
new line.10055730 bus1=BBT146696435.1.2.3.0,bus2=BBT146696456.1.2.3.0,Phases=3,Linecode=BT803_BT803_4_3_4,Length=0.024708000,Units=km
new line.10055737 bus1=BBT146696421.1.2.3.0,bus2=BBT146696463.1.2.3.0,Phases=3,Linecode=BT803_BT803_4_3_4,Length=0.032769000,Units=km
new line.10055744 bus1=BBT146696435.1.2.3.0,bus2=BBT146696470.1.2.3.0,Phases=3,Linecode=BT803_BT803_4_3_4,Length=0.032769000,Units=km
new line.10055751 bus1=BBT31106270.1.2.0,bus2=BBT146696477.1.2.0,Phases=2,Linecode=BT803_BT803_4_2_4,Length=0.058005000,Units=km
new line.10055765 bus1=BBT146696477.1.2.0,bus2=BBT146696491.1.2.0,Phases=2,Linecode=BT803_BT803_4_2_4,Length=0.030028000,Units=km
new line.10055772 bus1=BBT146696491.1.2.0,bus2=BBT146696498.1.2.0,Phases=2,Linecode=BT803_BT803_4_2_4,Length=0.024708000,Units=km
new line.10055779 bus1=BBT146696407.1.2.3.0,bus2=BBT146696505.1.2.3.0,Phases=3,Linecode=BT803_BT803_4_3_4,Length=0.032262000,Units=km
new line.10055786 bus1=BBT146696505.1.2.3.0,bus2=BBT146696512.1.2.3.0,Phases=3,Linecode=BT803_BT803_4_3_4,Length=0.031397000,Units=km
new line.1242023 bus1=BBT1336957.1.2.0,bus2=BBT1336964.1.2.0,Phases=2,Linecode=BT513_BT513_7_2_1,Length=0.000501000,Units=km
new line.1242121 bus1=BBT1337055.1.2.0,bus2=BBT3466308.1.2.0,Phases=2,Linecode=BT808_BT808_4_2_3,Length=0.036729000,Units=km
new line.1242128 bus1=BBT1337069.1.2.3.0,bus2=BBT1337062.1.2.3.0,Phases=3,Linecode=BT107_BT107_7_3_1,Length=0.034683000,Units=km
new line.1242135 bus1=BBT1337069.1.2.3.0,bus2=BBT1337055.1.2.3.0,Phases=3,Linecode=BT107_BT107_7_3_1,Length=0.037230000,Units=km
new line.1242142 bus1=BBT1337069.1.2.0,bus2=BBT3466301.1.2.0,Phases=2,Linecode=BT808_BT808_4_2_3,Length=0.039978000,Units=km
new line.1242149 bus1=BBT1337076.1.2.3.0,bus2=BBT1337069.1.2.3.0,Phases=3,Linecode=BT107_BT107_7_3_1,Length=0.031635000,Units=km
new line.1242156 bus1=BBT1337083.1.2.3.0,bus2=BBT1337076.1.2.3.0,Phases=3,Linecode=BT108_BT108_7_3_1,Length=0.032769000,Units=km
new line.1242163 bus1=BBT1337097.1.2.3.0,bus2=BBT1337090.1.2.3.0,Phases=3,Linecode=BT107_BT107_7_3_1,Length=0.034495000,Units=km
new line.1242170 bus1=BBT1337097.1.2.3.0,bus2=BBT1337083.1.2.3.0,Phases=3,Linecode=BT108_BT108_7_3_1,Length=0.028856000,Units=km
new line.1242177 bus1=BBT1337097.1.2.3.0,bus2=BBT1337104.1.2.3.0,Phases=3,Linecode=BT107_BT107_7_3_1,Length=0.043283000,Units=km
new line.1242184 bus1=BBT1337104.1.2.3.0,bus2=BBT1337118.1.2.3.0,Phases=3,Linecode=BT107_BT107_7_3_1,Length=0.038603000,Units=km
new line.1242191 bus1=BBT1337111.1.2.3.0,bus2=BBT1337097.1.2.3.0,Phases=3,Linecode=BT108_BT108_7_3_1,Length=0.029166000,Units=km
new line.1242198 bus1=BBT1337048.1.2.3.0,bus2=BBT1337111.1.2.3.0,Phases=3,Linecode=BT307_BT307_7_3_1,Length=0.000501000,Units=km
new line.1242205 bus1=BBT1337111.1.2.3.0,bus2=BBT1337132.1.2.3.0,Phases=3,Linecode=BT108_BT108_7_3_1,Length=0.031077000,Units=km
new line.1242212 bus1=BBT1337132.1.2.3.0,bus2=BBT1337146.1.2.3.0,Phases=3,Linecode=BT108_BT108_7_3_1,Length=0.029693000,Units=km
new line.1242219 bus1=BBT1337139.1.2.0,bus2=BBT1337125.1.2.0,Phases=2,Linecode=BT108_BT107_7_2_1,Length=0.036906000,Units=km
new line.1242226 bus1=BBT1337146.1.2.0,bus2=BBT1337139.1.2.0,Phases=2,Linecode=BT108_BT107_7_2_1,Length=0.025070000,Units=km
new line.1242233 bus1=BBT1337146.1.2.0,bus2=BBT1337153.1.2.0,Phases=2,Linecode=BT108_BT107_7_2_1,Length=0.032463000,Units=km
new line.1242240 bus1=BBT1337146.1.2.3.0,bus2=BBT1337160.1.2.3.0,Phases=3,Linecode=BT108_BT108_7_3_1,Length=0.039978000,Units=km
new line.1242247 bus1=BBT1337153.1.2.0,bus2=BBT1337167.1.2.0,Phases=2,Linecode=BT108_BT107_7_2_1,Length=0.033300000,Units=km
new line.1242254 bus1=BBT1337160.1.2.3.0,bus2=BBT1337181.1.2.3.0,Phases=3,Linecode=BT108_BT108_7_3_1,Length=0.038848000,Units=km
new line.1242261 bus1=BBT1337167.1.2.0,bus2=BBT1337174.1.2.0,Phases=2,Linecode=BT108_BT107_7_2_1,Length=0.033629000,Units=km
new line.1242303 bus1=BBT1337258.1.2.0,bus2=BBT1337244.1.2.0,Phases=2,Linecode=BT108_BT107_7_2_1,Length=0.042455000,Units=km
new line.1242310 bus1=BBT1337272.1.2.3.0,bus2=BBT1337251.1.2.3.0,Phases=3,Linecode=BT108_BT108_7_3_1,Length=0.030541000,Units=km
new line.1242317 bus1=BBT1337272.1.2.0,bus2=BBT1337258.1.2.0,Phases=2,Linecode=BT108_BT107_7_2_1,Length=0.040327000,Units=km
new line.1242324 bus1=BBT1337272.1.2.0,bus2=BBT1337279.1.2.0,Phases=2,Linecode=BT108_BT107_7_2_1,Length=0.041356000,Units=km
new line.1242331 bus1=BBT1337279.1.2.0,bus2=BBT1337293.1.2.0,Phases=2,Linecode=BT108_BT107_7_2_1,Length=0.040513000,Units=km
new line.1242338 bus1=BBT1337286.1.2.3.0,bus2=BBT1337272.1.2.3.0,Phases=3,Linecode=BT108_BT108_7_3_1,Length=0.040513000,Units=km
new line.1242345 bus1=BBT1337307.1.2.3.0,bus2=BBT1337286.1.2.3.0,Phases=3,Linecode=BT108_BT108_7_3_1,Length=0.040240000,Units=km
new line.1242352 bus1=BBT1337230.1.2.3.0,bus2=BBT1337307.1.2.3.0,Phases=3,Linecode=BT521_BT521_7_3_1,Length=0.000501000,Units=km
new line.1237585 bus1=BBT1332652.1.2.3.0,bus2=BBT1332659.1.2.3.0,Phases=3,Linecode=BT521_BT521_7_3_1,Length=0.000501000,Units=km
new line.1237592 bus1=BBT1332673.1.2.3.0,bus2=BBT1332680.1.2.3.0,Phases=3,Linecode=BT803_BT803_4_3_4,Length=0.036689000,Units=km
new line.1237606 bus1=BBT1332680.1.2.3.0,bus2=BBT153813775.1.2.3.0,Phases=3,Linecode=BT803_BT803_4_3_4,Length=0.035369000,Units=km
new line.1237613 bus1=BBT1332701.1.2.3.0,bus2=BBT1332694.1.2.3.0,Phases=3,Linecode=BT106_BT106_7_3_1,Length=0.028189000,Units=km
new line.1237620 bus1=BBT1332701.1.2.0,bus2=BBT1332722.1.2.0,Phases=2,Linecode=BT808_BT808_4_2_3,Length=0.033255000,Units=km
new line.1237627 bus1=BBT1332708.1.2.0,bus2=BBT1332687.1.2.0,Phases=2,Linecode=BT106_BT106_7_2_1,Length=0.045504000,Units=km
new line.1237634 bus1=BBT1332708.1.2.3.0,bus2=BBT1332750.1.2.3.0,Phases=3,Linecode=BT106_BT106_7_3_1,Length=0.028437000,Units=km
new line.1237641 bus1=BBT1332715.1.2.3.0,bus2=BBT1332701.1.2.3.0,Phases=3,Linecode=BT106_BT106_7_3_1,Length=0.025952000,Units=km
new line.1237648 bus1=BBT1332722.1.2.0,bus2=BBT1332729.1.2.0,Phases=2,Linecode=BT808_BT808_4_2_3,Length=0.024341000,Units=km
new line.1237655 bus1=BBT1332743.1.2.3.0,bus2=BBT1332708.1.2.3.0,Phases=3,Linecode=BT106_BT106_7_3_1,Length=0.035242000,Units=km
new line.1237662 bus1=BBT1332743.1.2.3.0,bus2=BBT1332715.1.2.3.0,Phases=3,Linecode=BT106_BT106_7_3_1,Length=0.042502000,Units=km
new line.1237669 bus1=BBT1332743.1.2.3.0,bus2=BBT1332764.1.2.3.0,Phases=3,Linecode=BT106_BT106_7_3_1,Length=0.039575000,Units=km
new line.1237676 bus1=BBT1332757.1.2.3.0,bus2=BBT1332743.1.2.3.0,Phases=3,Linecode=BT106_BT106_7_3_1,Length=0.019113000,Units=km
new line.1237683 bus1=BBT1332764.1.2.3.0,bus2=BBT1332799.1.2.3.0,Phases=3,Linecode=BT106_BT106_7_3_1,Length=0.040240000,Units=km
new line.1237690 bus1=BBT1332771.1.2.3.0,bus2=BBT2188990.1.2.3.0,Phases=3,Linecode=BT803_BT803_4_3_4,Length=0.025564000,Units=km
new line.1237697 bus1=BBT1332771.1.2.3.0,bus2=BBT1332792.1.2.3.0,Phases=3,Linecode=BT803_BT803_4_3_4,Length=0.034423000,Units=km
new line.1237704 bus1=BBT1332778.1.2.3.0,bus2=BBT1332736.1.2.3.0,Phases=3,Linecode=BT106_BT106_7_3_1,Length=0.030161000,Units=km
new line.1237711 bus1=BBT1332785.1.2.3.0,bus2=BBT1332757.1.2.3.0,Phases=3,Linecode=BT108_BT107_7_3_1,Length=0.037604000,Units=km
new line.1237718 bus1=BBT1332792.1.2.3.0,bus2=BBT1332841.1.2.3.0,Phases=3,Linecode=BT803_BT803_4_3_4,Length=0.031635000,Units=km
new line.1237725 bus1=BBT1332799.1.2.0,bus2=BBT3466294.1.2.0,Phases=2,Linecode=BT808_BT808_4_2_3,Length=0.044962000,Units=km
new line.1237732 bus1=BBT1332813.1.2.3.0,bus2=BBT171128043.1.2.3.0,Phases=3,Linecode=BT803_BT803_4_3_4,Length=0.015271000,Units=km
new line.1237739 bus1=BBT1332820.1.2.3.0,bus2=BBT1332785.1.2.3.0,Phases=3,Linecode=BT108_BT107_7_3_1,Length=0.030541000,Units=km
new line.1237746 bus1=BBT1332820.1.2.3.0,bus2=BBT1332806.1.2.3.0,Phases=3,Linecode=BT107_BT106_7_3_1,Length=0.009438000,Units=km
new line.1237753 bus1=BBT1332820.1.2.3.0,bus2=BBT1332855.1.2.3.0,Phases=3,Linecode=BT107_BT106_7_3_1,Length=0.024217000,Units=km
new line.1237760 bus1=BBT1332827.1.2.3.0,bus2=BBT1332778.1.2.3.0,Phases=3,Linecode=BT106_BT106_7_3_1,Length=0.023031000,Units=km
new line.1237767 bus1=BBT1332834.1.2.3.0,bus2=BBT1332820.1.2.3.0,Phases=3,Linecode=BT108_BT107_7_3_1,Length=0.011185000,Units=km
new line.1237774 bus1=BBT1332666.1.2.3.0,bus2=BBT1332834.1.2.3.0,Phases=3,Linecode=BT513_BT513_7_3_1,Length=0.000501000,Units=km
new line.1237781 bus1=BBT1332834.1.2.3.0,bus2=BBT1332862.1.2.3.0,Phases=3,Linecode=BT108_BT107_7_3_1,Length=0.031397000,Units=km
new line.1237788 bus1=BBT1332848.1.2.3.0,bus2=BBT1332813.1.2.3.0,Phases=3,Linecode=BT106_BT106_7_3_1,Length=0.030541000,Units=km
new line.1237795 bus1=BBT1332855.1.2.3.0,bus2=BBT1332876.1.2.3.0,Phases=3,Linecode=BT107_BT106_7_3_1,Length=0.034423000,Units=km
new line.1237802 bus1=BBT1332862.1.2.3.0,bus2=BBT1332869.1.2.3.0,Phases=3,Linecode=BT108_BT107_7_3_1,Length=0.040513000,Units=km
new line.1237809 bus1=BBT1332869.1.2.3.0,bus2=BBT1332827.1.2.3.0,Phases=3,Linecode=BT106_BT106_7_3_1,Length=0.039474000,Units=km
new line.1237816 bus1=BBT1332869.1.2.3.0,bus2=BBT1332848.1.2.3.0,Phases=3,Linecode=BT107_BT106_7_3_1,Length=0.027796000,Units=km
new line.1237823 bus1=BBT1332869.1.2.3.0,bus2=BBT1332890.1.2.3.0,Phases=3,Linecode=BT108_BT107_7_3_1,Length=0.028029000,Units=km
new line.1237830 bus1=BBT1332869.1.2.3.0,bus2=BBT1332918.1.2.3.0,Phases=3,Linecode=BT106_BT106_7_3_1,Length=0.044962000,Units=km
new line.1237837 bus1=BBT1332876.1.2.3.0,bus2=BBT1332897.1.2.3.0,Phases=3,Linecode=BT107_BT106_7_3_1,Length=0.034683000,Units=km
new line.1237844 bus1=BBT1332890.1.2.3.0,bus2=BBT1332904.1.2.3.0,Phases=3,Linecode=BT108_BT107_7_3_1,Length=0.034999000,Units=km
new line.1237851 bus1=BBT1332897.1.2.3.0,bus2=BBT1332932.1.2.3.0,Phases=3,Linecode=BT107_BT106_7_3_1,Length=0.030012000,Units=km
new line.1237858 bus1=BBT1332911.1.2.3.0,bus2=BBT1332883.1.2.3.0,Phases=3,Linecode=BT107_BT106_7_3_1,Length=0.040513000,Units=km
new line.1237865 bus1=BBT1332918.1.2.3.0,bus2=BBT1332925.1.2.3.0,Phases=3,Linecode=BT106_BT106_7_3_1,Length=0.022481000,Units=km
new line.1237872 bus1=BBT1332925.1.2.3.0,bus2=BBT1332946.1.2.3.0,Phases=3,Linecode=BT106_BT106_7_3_1,Length=0.027796000,Units=km
new line.1237879 bus1=BBT1332932.1.2.3.0,bus2=BBT1332911.1.2.3.0,Phases=3,Linecode=BT107_BT106_7_3_1,Length=0.041198000,Units=km
new line.1237886 bus1=BBT1332932.1.2.3.0,bus2=BBT1332939.1.2.3.0,Phases=3,Linecode=BT106_BT106_7_3_1,Length=0.030244000,Units=km
new line.1237893 bus1=BBT1332932.1.2.3.0,bus2=BBT2138695.1.2.3.0,Phases=3,Linecode=BT810_BT810_4_3_4,Length=0.037458000,Units=km
new line.1237900 bus1=BBT1332946.1.2.3.0,bus2=BBT1332960.1.2.3.0,Phases=3,Linecode=BT106_BT106_7_3_1,Length=0.030541000,Units=km
new line.1237907 bus1=BBT1332953.1.2.3.0,bus2=BBT2369534.1.2.3.0,Phases=3,Linecode=BT106_BT106_7_3_1,Length=0.031919000,Units=km
new line.1237914 bus1=BBT1332960.1.2.3.0,bus2=BBT1332953.1.2.3.0,Phases=3,Linecode=BT106_BT106_7_3_1,Length=0.029693000,Units=km
new line.1237921 bus1=BBT1332960.1.2.0,bus2=BBT1332967.1.2.0,Phases=2,Linecode=BT106_BT106_7_2_1,Length=0.030541000,Units=km
new line.1237928 bus1=BBT1332960.1.2.3.0,bus2=BBT1332974.1.2.3.0,Phases=3,Linecode=BT106_BT106_7_3_1,Length=0.035524000,Units=km
new line.1237935 bus1=BBT1332967.1.2.0,bus2=BBT1332981.1.2.0,Phases=2,Linecode=BT106_BT106_7_2_1,Length=0.034145000,Units=km
new line.1238117 bus1=BBT1333170.1.2.3.0,bus2=BBT1333163.1.2.3.0,Phases=3,Linecode=BT108_BT108_7_3_1,Length=0.037751000,Units=km
new line.1238124 bus1=BBT1333170.1.2.3.0,bus2=BBT1333177.1.2.3.0,Phases=3,Linecode=BT107_BT107_7_3_1,Length=0.041356000,Units=km
new line.1238131 bus1=BBT1333184.1.2.3.0,bus2=BBT1333170.1.2.3.0,Phases=3,Linecode=BT108_BT108_7_3_1,Length=0.038290000,Units=km
new line.1238138 bus1=BBT1333198.1.2.3.0,bus2=BBT1333184.1.2.3.0,Phases=3,Linecode=BT108_BT108_7_3_1,Length=0.037817000,Units=km
new line.1238145 bus1=BBT1333198.1.2.0,bus2=BBT1333191.1.2.0,Phases=2,Linecode=BT106_BT106_7_2_1,Length=0.045504000,Units=km
new line.1238152 bus1=BBT1333198.1.2.3.0,bus2=BBT1333205.1.2.3.0,Phases=3,Linecode=BT107_BT107_7_3_1,Length=0.038964000,Units=km
new line.1238159 bus1=BBT1333205.1.2.3.0,bus2=BBT1333219.1.2.3.0,Phases=3,Linecode=BT107_BT107_7_3_1,Length=0.035524000,Units=km
new line.1238166 bus1=BBT1333212.1.2.3.0,bus2=BBT1333198.1.2.3.0,Phases=3,Linecode=BT108_BT108_7_3_1,Length=0.031077000,Units=km
new line.1238173 bus1=BBT1333156.1.2.3.0,bus2=BBT1333212.1.2.3.0,Phases=3,Linecode=BT521_BT521_7_3_1,Length=0.000501000,Units=km
new line.1238180 bus1=BBT1333212.1.2.3.0,bus2=BBT1333226.1.2.3.0,Phases=3,Linecode=BT108_BT108_7_3_1,Length=0.031397000,Units=km
new line.1238187 bus1=BBT1333219.1.2.3.0,bus2=BBT1333233.1.2.3.0,Phases=3,Linecode=BT107_BT107_7_3_1,Length=0.036373000,Units=km
new line.1238194 bus1=BBT1333226.1.2.3.0,bus2=BBT1333247.1.2.3.0,Phases=3,Linecode=BT108_BT108_7_3_1,Length=0.029693000,Units=km
new line.1238201 bus1=BBT1333247.1.2.0,bus2=BBT1333240.1.2.0,Phases=2,Linecode=BT107_BT107_7_2_1,Length=0.036729000,Units=km
new line.1238208 bus1=BBT1333247.1.2.3.0,bus2=BBT1333254.1.2.3.0,Phases=3,Linecode=BT107_BT107_7_3_1,Length=0.039676000,Units=km
new line.1238215 bus1=BBT1333247.1.2.3.0,bus2=BBT1333261.1.2.3.0,Phases=3,Linecode=BT108_BT108_7_3_1,Length=0.028856000,Units=km
new line.1238222 bus1=BBT1333254.1.2.3.0,bus2=BBT1333268.1.2.3.0,Phases=3,Linecode=BT107_BT107_7_3_1,Length=0.036906000,Units=km
new line.1238229 bus1=BBT1333261.1.2.3.0,bus2=BBT1333275.1.2.3.0,Phases=3,Linecode=BT108_BT108_7_3_1,Length=0.030541000,Units=km
new line.1238236 bus1=BBT1333268.1.2.3.0,bus2=BBT1333282.1.2.3.0,Phases=3,Linecode=BT107_BT107_7_3_1,Length=0.032769000,Units=km
new line.1238243 bus1=BBT1333310.1.2.0,bus2=BBT1333303.1.2.0,Phases=2,Linecode=BT108_BT107_7_2_1,Length=0.031077000,Units=km
new line.1238250 bus1=BBT1333310.1.2.0,bus2=BBT1333296.1.2.0,Phases=2,Linecode=BT106_BT106_7_2_1,Length=0.043283000,Units=km
new line.1238257 bus1=BBT1333310.1.2.0,bus2=BBT1333331.1.2.0,Phases=2,Linecode=BT106_BT106_7_2_1,Length=0.034495000,Units=km
new line.1238264 bus1=BBT1333324.1.2.0,bus2=BBT1333310.1.2.0,Phases=2,Linecode=BT108_BT107_7_2_1,Length=0.038290000,Units=km
new line.1238271 bus1=BBT1333289.1.2.0,bus2=BBT1333324.1.2.0,Phases=2,Linecode=BT513_BT513_7_2_1,Length=0.000501000,Units=km
new line.1238278 bus1=BBT1333324.1.2.0,bus2=BBT1333338.1.2.0,Phases=2,Linecode=BT108_BT107_7_2_1,Length=0.040513000,Units=km
new line.1238285 bus1=BBT1333331.1.2.0,bus2=BBT1333345.1.2.0,Phases=2,Linecode=BT106_BT106_7_2_1,Length=0.029693000,Units=km
new line.1238292 bus1=BBT1333338.1.2.0,bus2=BBT1333317.1.2.0,Phases=2,Linecode=BT106_BT106_7_2_1,Length=0.042737000,Units=km
new line.1238299 bus1=BBT1333338.1.2.0,bus2=BBT1333352.1.2.0,Phases=2,Linecode=BT108_BT107_7_2_1,Length=0.036906000,Units=km
new line.1238306 bus1=BBT1333338.1.2.0,bus2=BBT1333359.1.2.0,Phases=2,Linecode=BT106_BT106_7_2_1,Length=0.039373000,Units=km
new line.1238313 bus1=BBT1333345.1.2.0,bus2=BBT1333366.1.2.0,Phases=2,Linecode=BT106_BT106_7_2_1,Length=0.030541000,Units=km
new line.1238320 bus1=BBT1333359.1.2.0,bus2=BBT1333387.1.2.0,Phases=2,Linecode=BT106_BT106_7_2_1,Length=0.036906000,Units=km
new line.1238327 bus1=BBT1333366.1.2.0,bus2=BBT1333380.1.2.0,Phases=2,Linecode=BT106_BT106_7_2_1,Length=0.030244000,Units=km
new line.1238334 bus1=BBT1333380.1.2.0,bus2=BBT1333373.1.2.0,Phases=2,Linecode=BT106_BT106_7_2_1,Length=0.028856000,Units=km
new line.1238341 bus1=BBT1333380.1.2.0,bus2=BBT1333394.1.2.0,Phases=2,Linecode=BT106_BT106_7_2_1,Length=0.037751000,Units=km
new line.1238348 bus1=BBT1333380.1.2.0,bus2=BBT3466336.1.2.0,Phases=2,Linecode=BT808_BT808_4_2_3,Length=0.030541000,Units=km
new line.1238355 bus1=BBT1333394.1.2.0,bus2=BBT1333401.1.2.0,Phases=2,Linecode=BT106_BT106_7_2_1,Length=0.041356000,Units=km
new line.1238362 bus1=BBT2138835.1.2.0,bus2=BBT1338161.1.2.0,Phases=2,Linecode=BT808_BT808_4_2_3,Length=0.041198000,Units=km
new line.1238369 bus1=BBT1333429.1.2.0,bus2=BBT1333415.1.2.0,Phases=2,Linecode=BT108_BT107_7_2_1,Length=0.038290000,Units=km
new line.1238376 bus1=BBT1333436.1.2.0,bus2=BBT1333422.1.2.0,Phases=2,Linecode=BT107_BT107_7_2_1,Length=0.039461000,Units=km
new line.1238383 bus1=BBT1333436.1.2.0,bus2=BBT1333429.1.2.0,Phases=2,Linecode=BT108_BT107_7_2_1,Length=0.038290000,Units=km
new line.1238390 bus1=BBT1333436.1.2.0,bus2=BBT1333443.1.2.0,Phases=2,Linecode=BT107_BT107_7_2_1,Length=0.020817000,Units=km
new line.1238397 bus1=BBT1333450.1.2.0,bus2=BBT1333436.1.2.0,Phases=2,Linecode=BT108_BT107_7_2_1,Length=0.039676000,Units=km
new line.1238404 bus1=BBT1333408.1.2.0,bus2=BBT1333450.1.2.0,Phases=2,Linecode=BT307_BT307_7_2_1,Length=0.000501000,Units=km
new line.1238411 bus1=BBT1333450.1.2.0,bus2=BBT1333457.1.2.0,Phases=2,Linecode=BT108_BT107_7_2_1,Length=0.041897000,Units=km
new line.1238418 bus1=BBT1333457.1.2.0,bus2=BBT1333464.1.2.0,Phases=2,Linecode=BT108_BT107_7_2_1,Length=0.041356000,Units=km
new line.1238425 bus1=BBT1333464.1.2.0,bus2=BBT1333471.1.2.0,Phases=2,Linecode=BT108_BT107_7_2_1,Length=0.040832000,Units=km
new line.1238432 bus1=BBT1333471.1.2.0,bus2=BBT2711673.1.2.0,Phases=2,Linecode=BT808_BT808_4_2_3,Length=0.026430000,Units=km
new line.1238439 bus1=BBT1333492.1.2.0,bus2=BBT1333506.1.2.0,Phases=2,Linecode=BT106_BT106_7_2_1,Length=0.038603000,Units=km
new line.1238446 bus1=BBT1333492.1.2.0,bus2=BBT1333485.1.2.0,Phases=2,Linecode=BT106_BT106_7_2_1,Length=0.034495000,Units=km
new line.1238453 bus1=BBT1333513.1.2.0,bus2=BBT1333499.1.2.0,Phases=2,Linecode=BT106_BT106_7_2_1,Length=0.034145000,Units=km
new line.1238460 bus1=BBT1333513.1.2.0,bus2=BBT1333548.1.2.0,Phases=2,Linecode=BT106_BT106_7_2_1,Length=0.044119000,Units=km
new line.1238467 bus1=BBT1333520.1.2.0,bus2=BBT1333492.1.2.0,Phases=2,Linecode=BT108_BT107_7_2_1,Length=0.041897000,Units=km
new line.1238474 bus1=BBT1333527.1.2.0,bus2=BBT1333513.1.2.0,Phases=2,Linecode=BT106_BT106_7_2_1,Length=0.037751000,Units=km
new line.1238481 bus1=BBT1333534.1.2.0,bus2=BBT1333520.1.2.0,Phases=2,Linecode=BT108_BT107_7_2_1,Length=0.040513000,Units=km
new line.1238488 bus1=BBT1333478.1.2.0,bus2=BBT1333534.1.2.0,Phases=2,Linecode=BT521_BT521_7_2_1,Length=0.000501000,Units=km
new line.1238495 bus1=BBT1333534.1.2.0,bus2=BBT1333555.1.2.0,Phases=2,Linecode=BT108_BT107_7_2_1,Length=0.011667000,Units=km
new line.1238502 bus1=BBT1333541.1.2.0,bus2=BBT1333527.1.2.0,Phases=2,Linecode=BT106_BT106_7_2_1,Length=0.032262000,Units=km
new line.1238509 bus1=BBT1333555.1.2.0,bus2=BBT1333541.1.2.0,Phases=2,Linecode=BT106_BT106_7_2_1,Length=0.017500000,Units=km
new line.1238516 bus1=BBT1333555.1.2.0,bus2=BBT1333562.1.2.0,Phases=2,Linecode=BT106_BT106_7_2_1,Length=0.013044000,Units=km
new line.1238523 bus1=BBT1333555.1.2.0,bus2=BBT1333569.1.2.0,Phases=2,Linecode=BT108_BT107_7_2_1,Length=0.021963000,Units=km
new line.1238530 bus1=BBT1333562.1.2.0,bus2=BBT1333576.1.2.0,Phases=2,Linecode=BT106_BT106_7_2_1,Length=0.035524000,Units=km
new line.1238537 bus1=BBT1333569.1.2.0,bus2=BBT1333583.1.2.0,Phases=2,Linecode=BT108_BT107_7_2_1,Length=0.032262000,Units=km
new line.1238544 bus1=BBT1333583.1.2.0,bus2=BBT1333590.1.2.0,Phases=2,Linecode=BT106_BT106_7_2_1,Length=0.034145000,Units=km
new line.1238551 bus1=BBT1337244.1.2.0,bus2=BBT1337265.1.2.0,Phases=2,Linecode=BT106_BT106_7_2_1,Length=0.041789000,Units=km
new line.1238558 bus1=BBT1337244.1.2.0,bus2=BBT1337237.1.2.0,Phases=2,Linecode=BT108_BT107_7_2_1,Length=0.029166000,Units=km
new line.1238565 bus1=BBT1333611.1.2.3.0,bus2=BBT1333604.1.2.3.0,Phases=3,Linecode=BT108_BT108_7_3_1,Length=0.039978000,Units=km
new line.1238579 bus1=BBT1333611.1.2.3.0,bus2=BBT1333618.1.2.3.0,Phases=3,Linecode=BT107_BT107_7_3_1,Length=0.033629000,Units=km
new line.1238586 bus1=BBT1333618.1.2.3.0,bus2=BBT1333632.1.2.3.0,Phases=3,Linecode=BT107_BT107_7_3_1,Length=0.035524000,Units=km
new line.1238593 bus1=BBT1333625.1.2.3.0,bus2=BBT1333611.1.2.3.0,Phases=3,Linecode=BT108_BT108_7_3_1,Length=0.026638000,Units=km
new line.1238600 bus1=BBT1333597.1.2.3.0,bus2=BBT1333625.1.2.3.0,Phases=3,Linecode=BT307_BT307_7_3_1,Length=0.000501000,Units=km
new line.1238607 bus1=BBT1333625.1.2.3.0,bus2=BBT1333639.1.2.3.0,Phases=3,Linecode=BT108_BT108_7_3_1,Length=0.029166000,Units=km