new line.TR10000012 bus1=BMT5989958B.2,bus2=BMT175111921.2,Phases=1,Linecode=CAB202_3_1,Length=0.183814000,Units=km
new line.TR10000026 bus1=BMT5990007B.2,bus2=BMT2679315B.2,Phases=1,Linecode=CAB202_3_1,Length=0.137224000,Units=km
new line.TR10000033 bus1=BMT5990014B.3,bus2=BMT159319257.3,Phases=1,Linecode=CAB202_3_1,Length=0.130037000,Units=km
new line.TR10000047 bus1=BMT5990035B.2,bus2=BMT175111932.2,Phases=1,Linecode=CAB202_3_1,Length=0.192911000,Units=km
new line.TR10000054 bus1=BMT5990042B.2,bus2=BMT151001515.2,Phases=1,Linecode=CAB202_3_1,Length=0.249059000,Units=km
new line.TR10000061 bus1=BMT5990091B.2,bus2=BMT175111934.2,Phases=1,Linecode=CAB202_3_1,Length=0.073029000,Units=km
new line.TR10000068 bus1=BMT5990126B.2,bus2=BMT175111929.2,Phases=1,Linecode=CAB202_3_1,Length=0.090951000,Units=km
new line.TR10000075 bus1=BMT5990133B.2,bus2=BMT103407747.2,Phases=1,Linecode=CAB202_3_1,Length=0.033092000,Units=km
new line.TR10000082 bus1=BMT5990140B.2,bus2=BMT103407831.2,Phases=1,Linecode=CAB202_3_1,Length=0.063052000,Units=km
new line.TR10000089 bus1=BMT5990154B.2,bus2=BMT175111938.2,Phases=1,Linecode=CAB202_3_1,Length=0.129943000,Units=km
new line.TR10000096 bus1=BMT5990161B.2,bus2=BMT175111940.2,Phases=1,Linecode=CAB202_3_1,Length=0.198349000,Units=km
new line.TR10000236 bus1=BMT5990287B.2,bus2=BMT5990294B.2,Phases=1,Linecode=CAB202_3_1,Length=0.077634000,Units=km
new line.TR10000243 bus1=BMT5990294B.2,bus2=BMT103408020.2,Phases=1,Linecode=CAB202_3_1,Length=0.409216000,Units=km
new line.TR10000250 bus1=BMT5990308B.2,bus2=BMT2679546B.2,Phases=1,Linecode=CAB202_3_1,Length=0.311276000,Units=km
new line.TR10000362 bus1=BMT5990469B.2,bus2=BMT103408734.2,Phases=1,Linecode=CAB202_3_1,Length=0.307120000,Units=km
new line.TR10000649 bus1=BMT5990826B.2,bus2=BMT103408860.2,Phases=1,Linecode=CAB202_3_1,Length=0.036613000,Units=km
new line.TR10000656 bus1=BMT5990861B.2,bus2=BMT159194824.2,Phases=1,Linecode=CAB202_3_1,Length=0.073522000,Units=km
new line.TR10000663 bus1=BMT5990889B.2,bus2=BMT159194825.2,Phases=1,Linecode=CAB202_3_1,Length=0.100877000,Units=km
new line.TR10000670 bus1=BMT5990896B.2,bus2=BMT103408188.2,Phases=1,Linecode=CAB202_3_1,Length=0.109590000,Units=km
new line.TR10000719 bus1=BMT5990994B.2,bus2=BMT103408223.2,Phases=1,Linecode=CAB202_3_1,Length=0.159695000,Units=km
new line.TR10000831 bus1=BMT5991225B.2,bus2=BMT156261195.2,Phases=1,Linecode=CAB202_3_1,Length=0.275710000,Units=km
new line.TR10000838 bus1=BMT5991232B.1,bus2=BMT5991246B.1,Phases=1,Linecode=CAB202_3_1,Length=0.060347000,Units=km
new line.TR10000845 bus1=BMT5991246B.1,bus2=BMT156823572.1,Phases=1,Linecode=CAB202_3_1,Length=0.274032000,Units=km
new line.TR10000894 bus1=BMT5991295B.1,bus2=BMT103332189.1,Phases=1,Linecode=CAB202_3_1,Length=0.229526000,Units=km
new line.TR10000936 bus1=BMT5991386B.1.2.3,bus2=BMT103404331.1.2.3,Phases=3,Linecode=CAB203_3_3,Length=0.203929000,Units=km
new line.TR10000943 bus1=BMT5991407B.1.2.3,bus2=BMT2680673B.1.2.3,Phases=3,Linecode=CAB207_3_3,Length=0.231354000,Units=km
new line.TR10000950 bus1=BMT5991414B.1.2.3,bus2=BMT5991407B.1.2.3,Phases=3,Linecode=CAB207_3_3,Length=0.199906000,Units=km
new line.TR10000957 bus1=BMT5991421B.1.2.3,bus2=BMT2680666B.1.2.3,Phases=3,Linecode=CAB207_3_3,Length=0.291601000,Units=km
new line.TR10000964 bus1=BMT103385487.1,bus2=BMT103385494.1,Phases=1,Linecode=CAB102_3_1,Length=0.028218000,Units=km
new line.TR10000971 bus1=BMT5991477B.1.2.3,bus2=BMT5991603B.1.2.3,Phases=3,Linecode=CAB207_3_3,Length=0.392856000,Units=km
new line.TR10000978 bus1=BMT5991484B.1.2.3,bus2=BMT164113078.1.2.3,Phases=3,Linecode=CAB203_3_3,Length=0.183406000,Units=km
new line.TR10000985 bus1=BMT5991512B.1.2.3,bus2=BMT5991519B.1.2.3,Phases=3,Linecode=CAB207_3_3,Length=0.210972000,Units=km
new line.TR10000992 bus1=BMT5991519B.1.2.3,bus2=BMT5991526B.1.2.3,Phases=3,Linecode=CAB207_3_3,Length=0.035120000,Units=km
new line.TR10000999 bus1=BMT5991526B.1.2.3,bus2=BMT5991477B.1.2.3,Phases=3,Linecode=CAB207_3_3,Length=0.111241000,Units=km
new line.TR10001006 bus1=BMT5991554B.3,bus2=BMT164113082.3,Phases=1,Linecode=CAB202_3_1,Length=0.142124000,Units=km
new line.TR10001013 bus1=BMT5991561B.2,bus2=BMT164113083.2,Phases=1,Linecode=CAB202_3_1,Length=0.044858000,Units=km
new line.TR10001020 bus1=BMT5991568B.1,bus2=BMT158285442.1,Phases=1,Linecode=CAB202_3_1,Length=0.046154000,Units=km
new line.TR10001027 bus1=BMT5991575B.1,bus2=BMT158285444.1,Phases=1,Linecode=CAB202_3_1,Length=0.387494000,Units=km
new line.TR10001034 bus1=BMT103409448.1,bus2=BMT103409455.1,Phases=1,Linecode=CAB202_3_1,Length=0.089547000,Units=km
new line.TR10001041 bus1=BMT103409448.1,bus2=BMT103409462.1,Phases=1,Linecode=CAB202_3_1,Length=0.101094000,Units=km
new line.TR10001048 bus1=BMT5991603B.1.2.3,bus2=BMT5971590B.1.2.3,Phases=3,Linecode=CAB207_3_3,Length=0.391871000,Units=km
new line.TR10001055 bus1=BMT5991659B.3,bus2=BMT164113087.3,Phases=1,Linecode=CAB202_3_1,Length=0.142633000,Units=km
new line.TR10001076 bus1=BMT5991701B.1.2.3,bus2=BMT2674877B.1.2.3,Phases=3,Linecode=CAB203_3_3,Length=0.054505000,Units=km
new line.TR10001083 bus1=BMT5991708B.2,bus2=BMT103331083.2,Phases=1,Linecode=CAB202_3_1,Length=0.055674000,Units=km
new line.TR10001146 bus1=BMT5991778B.1.2.3,bus2=BMT5991792B.1.2.3,Phases=3,Linecode=CAB207_3_3,Length=0.026215000,Units=km
new line.TR10001153 bus1=BMT5991785B.2,bus2=BMT103331111.2,Phases=1,Linecode=CAB202_3_1,Length=0.209563000,Units=km
new line.TR10001160 bus1=BMT5991792B.1.2.3,bus2=BMT2680694B.1.2.3,Phases=3,Linecode=CAB207_3_3,Length=0.273410000,Units=km
new line.TR10001167 bus1=BMT5991799B.2,bus2=BMT5991785B.2,Phases=1,Linecode=CAB202_3_1,Length=0.056776000,Units=km
new line.TR10001174 bus1=BMT5991806B.2,bus2=BMT5991799B.2,Phases=1,Linecode=CAB202_3_1,Length=0.189138000,Units=km
new line.TR10001181 bus1=BMT5991813B.2,bus2=BMT5991806B.2,Phases=1,Linecode=CAB202_3_1,Length=0.207016000,Units=km
new line.TR10001188 bus1=BMT5991820B.2,bus2=BMT2684579B.2,Phases=1,Linecode=CAB202_3_1,Length=0.154704000,Units=km
new line.TR10001195 bus1=BMT5991834B.2,bus2=BMT2684467B.2,Phases=1,Linecode=CAB202_3_1,Length=0.055183000,Units=km
new line.TR10001223 bus1=BMT5991918B.1.2.3,bus2=BMT159319253.1.2.3,Phases=3,Linecode=CAB203_3_3,Length=0.081896000,Units=km
new line.TR10001230 bus1=BMT5991925B.1,bus2=BMT159319254.1,Phases=1,Linecode=CAB202_3_1,Length=0.140096000,Units=km
new line.TR10001370 bus1=BMT5992107B.2,bus2=BMT5992114B.2,Phases=1,Linecode=CAB202_3_1,Length=0.285624000,Units=km
new line.TR10001377 bus1=BMT5992114B.2,bus2=BMT5992121B.2,Phases=1,Linecode=CAB202_3_1,Length=0.132573000,Units=km
new line.TR10001384 bus1=BMT5992121B.2,bus2=BMT5992128B.2,Phases=1,Linecode=CAB202_3_1,Length=0.117770000,Units=km
new line.TR10001391 bus1=BMT5992128B.2,bus2=BMT2684474B.2,Phases=1,Linecode=CAB202_3_1,Length=0.082604000,Units=km
new line.TR10001433 bus1=BMT5992177B.2,bus2=BMT156660589.2,Phases=1,Linecode=CAB202_3_1,Length=0.134054000,Units=km
new line.TR10001440 bus1=BMT5992184B.2,bus2=BMT5992191B.2,Phases=1,Linecode=CAB202_3_1,Length=0.034221000,Units=km
new line.TR10001447 bus1=BMT5992191B.2,bus2=BMT156660595.2,Phases=1,Linecode=CAB202_3_1,Length=0.187949000,Units=km
new line.TR10001454 bus1=BMT5992219B.1.2.3,bus2=BMT5992226B.1.2.3,Phases=3,Linecode=CAB203_3_3,Length=0.071808000,Units=km
new line.TR10001461 bus1=BMT5992226B.1.2.3,bus2=BMT5992233B.1.2.3,Phases=3,Linecode=CAB203_3_3,Length=0.039378000,Units=km
new line.TR10001468 bus1=BMT5992233B.1.2.3,bus2=BMT2674933B.1.2.3,Phases=3,Linecode=CAB203_3_3,Length=0.066069000,Units=km
new line.TR10001475 bus1=BMT5992240B.1.2.3,bus2=BMT5992275B.1.2.3,Phases=3,Linecode=CAB203_3_3,Length=0.114343000,Units=km
new line.TR10001482 bus1=BMT5992247B.1.2.3,bus2=BMT2680708B.1.2.3,Phases=3,Linecode=CAB207_3_3,Length=0.096419000,Units=km
new line.TR10001489 bus1=BMT5992275B.1.2.3,bus2=BMT2675066B.1.2.3,Phases=3,Linecode=CAB203_3_3,Length=0.087723000,Units=km
new line.TR10001496 bus1=BMT5992282B.1.2.3,bus2=BMT103404352.1.2.3,Phases=3,Linecode=CAB203_3_3,Length=0.102062000,Units=km
new line.TR10001503 bus1=BMT5992303B.2,bus2=BMT5992310B.2,Phases=1,Linecode=CAB202_3_1,Length=0.074061000,Units=km
new line.TR10001510 bus1=BMT5992310B.2,bus2=BMT103409070.2,Phases=1,Linecode=CAB202_3_1,Length=0.111457000,Units=km
new line.TR10001517 bus1=BMT5992345B.2,bus2=BMT166024458.2,Phases=1,Linecode=CAB202_3_1,Length=0.122275000,Units=km
new line.TR10001524 bus1=BMT5992352B.2,bus2=BMT5992359B.2,Phases=1,Linecode=CAB202_3_1,Length=0.291900000,Units=km
new line.TR10001531 bus1=BMT5992359B.2,bus2=BMT2674996B.2,Phases=1,Linecode=CAB202_3_1,Length=0.350963000,Units=km
new line.TR10001538 bus1=BMT5992366B.2,bus2=BMT103409315.2,Phases=1,Linecode=CAB202_3_1,Length=0.163007000,Units=km
new line.TR10001545 bus1=BMT5992373B.1.2.3,bus2=BMT2680736B.1.2.3,Phases=3,Linecode=CAB207_3_3,Length=0.212829000,Units=km
new line.TR10001552 bus1=BMT5992401B.1.2.3,bus2=BMT5992408B.1.2.3,Phases=3,Linecode=CAB203_3_3,Length=0.149931000,Units=km
new line.TR10001559 bus1=BMT5992408B.1.2.3,bus2=BMT159319262.1.2.3,Phases=3,Linecode=CAB203_3_3,Length=0.131297000,Units=km
new line.TR10001566 bus1=BMT5992415B.1.2.3,bus2=BMT156264235.1.2.3,Phases=3,Linecode=CAB207_3_3,Length=0.312939000,Units=km
new line.TR10001573 bus1=BMT5992422B.1,bus2=BMT169487027.1,Phases=1,Linecode=CABD02_3_1,Length=0.081987000,Units=km
new line.TR10001580 bus1=BMT5992464B.2,bus2=BMT176611000.2,Phases=1,Linecode=CAB202_3_1,Length=0.071535000,Units=km
new line.TR10001587 bus1=BMT5992513B.1.2.3,bus2=BMT5992520B.1.2.3,Phases=3,Linecode=CAB207_3_3,Length=0.205916000,Units=km
new line.TR10001594 bus1=BMT5992520B.1.2.3,bus2=BMT103385564.1.2.3,Phases=3,Linecode=CAB207_3_3,Length=0.242964000,Units=km
new line.TR10001601 bus1=BMT5992527B.1.2.3,bus2=BMT5992534B.1.2.3,Phases=3,Linecode=CAB207_3_3,Length=0.102885000,Units=km
new line.TR10001608 bus1=BMT5992534B.1.2.3,bus2=BMT2680785B.1.2.3,Phases=3,Linecode=CAB207_3_3,Length=0.050987000,Units=km
new line.TR10001615 bus1=BMT5992541B.1.2.3,bus2=BMT5992548B.1.2.3,Phases=3,Linecode=CAB207_3_3,Length=0.066258000,Units=km
new line.TR10001622 bus1=BMT5992548B.1.2.3,bus2=BMT5992555B.1.2.3,Phases=3,Linecode=CAB207_3_3,Length=0.633400000,Units=km
new line.TR10001629 bus1=BMT5992555B.1.2.3,bus2=BMT5992562B.1.2.3,Phases=3,Linecode=CAB207_3_3,Length=0.169370000,Units=km
new line.TR10001636 bus1=BMT5992562B.1.2.3,bus2=BMT5992569B.1.2.3,Phases=3,Linecode=CAB207_3_3,Length=0.275647000,Units=km
new line.TR10001643 bus1=BMT5992569B.1.2.3,bus2=BMT103385571.1.2.3,Phases=3,Linecode=CAB207_3_3,Length=0.289083000,Units=km
new line.TR10001650 bus1=BMT5992625B.2,bus2=BMT5992632B.2,Phases=1,Linecode=CAB202_3_1,Length=0.032545000,Units=km
new line.TR10001657 bus1=BMT5992632B.2,bus2=BMT5992639B.2,Phases=1,Linecode=CAB202_3_1,Length=0.139776000,Units=km
new line.TR10001664 bus1=BMT5992639B.2,bus2=BMT156660590.2,Phases=1,Linecode=CAB202_3_1,Length=0.286940000,Units=km
new line.TR10001741 bus1=BMT161323296.3,bus2=BMT161323297.3,Phases=1,Linecode=CABD02_3_1,Length=0.126580000,Units=km
new line.TR10001825 bus1=BMT5993185B.2,bus2=BMT2684537B.2,Phases=1,Linecode=CAB202_3_1,Length=0.052135000,Units=km
new line.TR10001853 bus1=BMT5993290B.2,bus2=BMT5993297B.2,Phases=1,Linecode=CAB202_3_1,Length=0.260586000,Units=km
new line.TR10001860 bus1=BMT5993297B.2,bus2=BMT5993304B.2,Phases=1,Linecode=CAB202_3_1,Length=0.199502000,Units=km
new line.TR10001867 bus1=BMT5993304B.2,bus2=BMT103330117.2,Phases=1,Linecode=CAB202_3_1,Length=0.071118000,Units=km
new line.TR10001909 bus1=BMT5993416B.2,bus2=BMT103330978.2,Phases=1,Linecode=CAB202_3_1,Length=0.171967000,Units=km
new line.TR10001916 bus1=BMT5993423B.2,bus2=BMT2684726B.2,Phases=1,Linecode=CAB202_3_1,Length=0.041933000,Units=km
new line.TR10001930 bus1=BMT5993486B.2,bus2=BMT5993493B.2,Phases=1,Linecode=CAB202_3_1,Length=0.163128000,Units=km
new line.TR10001937 bus1=BMT5993493B.2,bus2=BMT103330999.2,Phases=1,Linecode=CAB202_3_1,Length=0.151446000,Units=km
new line.TR10001979 bus1=BMT5993654B.1.2.3,bus2=BMT5993668B.1.2.3,Phases=3,Linecode=CAB202_3_3,Length=0.075116000,Units=km
new line.TR10001986 bus1=BMT5993668B.1.2.3,bus2=BMT103393005.1.2.3,Phases=3,Linecode=CAB202_3_3,Length=0.518833000,Units=km
new line.TR10001993 bus1=BMT5993675B.2,bus2=BMT103401510.2,Phases=1,Linecode=CAB202_3_1,Length=0.381408000,Units=km
new line.TR10002021 bus1=BMT5993731B.2,bus2=BMT5993675B.2,Phases=1,Linecode=CAB202_3_1,Length=0.041996000,Units=km
new line.TR10002049 bus1=BMT5993808B.2,bus2=BMT5993829B.2,Phases=1,Linecode=CAB202_3_1,Length=0.034815000,Units=km
new line.TR10002063 bus1=BMT5993829B.2,bus2=BMT156144946.2,Phases=1,Linecode=CAB202_3_1,Length=0.045436000,Units=km
new line.TR10002077 bus1=BMT5993899B.2,bus2=BMT5993934B.2,Phases=1,Linecode=CAB202_3_1,Length=0.076763000,Units=km
new line.TR10002091 bus1=BMT5993934B.2,bus2=BMT5993976B.2,Phases=1,Linecode=CAB202_3_1,Length=0.276785000,Units=km
new line.TR10002112 bus1=BMT5993976B.2,bus2=BMT5994011B.2,Phases=1,Linecode=CAB202_3_1,Length=0.148893000,Units=km
new line.TR10002119 bus1=BMT5994011B.2,bus2=BMT5994046B.2,Phases=1,Linecode=CAB202_3_1,Length=0.354540000,Units=km
new line.TR10002126 bus1=BMT5994046B.2,bus2=BMT5994067B.2,Phases=1,Linecode=CAB202_3_1,Length=0.042739000,Units=km
new line.TR10019192 bus1=BMT6019792B.1,bus2=BMT155234897.1,Phases=1,Linecode=CAB202_3_1,Length=0.089452000,Units=km
new line.TR10019199 bus1=BMT6019813B.1,bus2=BMT6019820B.1,Phases=1,Linecode=CAB202_3_1,Length=0.287538000,Units=km
new line.TR10019206 bus1=BMT6019820B.1,bus2=BMT2682269B.1,Phases=1,Linecode=CAB202_3_1,Length=0.055436000,Units=km
new line.TR10019304 bus1=BMT6019960B.1,bus2=BMT166868050.1,Phases=1,Linecode=CAB202_3_1,Length=0.426472000,Units=km
new line.TR10019535 bus1=BMT6020198B.1,bus2=BMT6020240B.1,Phases=1,Linecode=CAB202_3_1,Length=0.177824000,Units=km
new line.TR10019577 bus1=BMT6020240B.1,bus2=BMT103391374.1,Phases=1,Linecode=CAB202_3_1,Length=0.036998000,Units=km
new line.TR10020004 bus1=BMT6020765B.1,bus2=BMT103391430.1,Phases=1,Linecode=CAB202_3_1,Length=0.325994000,Units=km
new line.TR10020011 bus1=BMT6020772B.1,bus2=BMT103391458.1,Phases=1,Linecode=CAB202_3_1,Length=0.061660000,Units=km
new line.TR10020060 bus1=BMT6020884B.1,bus2=BMT6020961B.1,Phases=1,Linecode=CAB202_3_1,Length=0.141603000,Units=km
new line.TR10020109 bus1=BMT6020961B.1,bus2=BMT103391465.1,Phases=1,Linecode=CAB202_3_1,Length=0.114010000,Units=km
new line.TR10020116 bus1=BMT6020982B.1,bus2=BMT103391479.1,Phases=1,Linecode=CAB202_3_1,Length=0.186651000,Units=km
new line.TR10020123 bus1=BMT6020989B.1,bus2=BMT103391486.1,Phases=1,Linecode=CAB202_3_1,Length=0.192597000,Units=km
new line.TR10020130 bus1=BMT6020996B.1,bus2=BMT6021003B.1,Phases=1,Linecode=CAB202_3_1,Length=0.108418000,Units=km
new line.TR10020137 bus1=BMT6021003B.1,bus2=BMT103391493.1,Phases=1,Linecode=CAB202_3_1,Length=0.247765000,Units=km
new line.TR10020144 bus1=BMT6021038B.1,bus2=BMT103391507.1,Phases=1,Linecode=CAB202_3_1,Length=0.149640000,Units=km
new line.TR10020200 bus1=BMT6021178B.1,bus2=BMT6021192B.1,Phases=1,Linecode=CAB202_3_1,Length=0.202957000,Units=km
new line.TR10020207 bus1=BMT6021192B.1,bus2=BMT103391514.1,Phases=1,Linecode=CAB202_3_1,Length=0.197922000,Units=km
new line.TR10020214 bus1=BMT6021199B.1,bus2=BMT2681926B.1,Phases=1,Linecode=CAB202_3_1,Length=0.227509000,Units=km
new line.TR10020221 bus1=BMT6021206B.1,bus2=BMT6021213B.1,Phases=1,Linecode=CAB202_3_1,Length=0.182970000,Units=km
new line.TR10020228 bus1=BMT6021213B.1,bus2=BMT103391577.1,Phases=1,Linecode=CAB202_3_1,Length=0.132857000,Units=km
new line.TR10020242 bus1=BMT6021255B.1.2.3,bus2=BMT6021290B.1.2.3,Phases=3,Linecode=CAB204_3_3,Length=0.315667000,Units=km
new line.TR10020256 bus1=BMT6021290B.1.2.3,bus2=BMT103386628.1.2.3,Phases=3,Linecode=CAB204_3_3,Length=0.617772000,Units=km
new line.TR10020263 bus1=BMT6021297B.3,bus2=BMT6021304B.3,Phases=1,Linecode=CAB202_3_1,Length=0.308363000,Units=km
new line.TR10020270 bus1=BMT6021304B.3,bus2=BMT167921204.3,Phases=1,Linecode=CAB202_3_1,Length=0.299902000,Units=km
new line.TR10020277 bus1=BMT6021311B.1.2.3,bus2=BMT6026624B.1.2.3,Phases=3,Linecode=CAB204_3_3,Length=0.519467000,Units=km
new line.TR10020354 bus1=BMT6021430B.2,bus2=BMT6021437B.2,Phases=1,Linecode=CAB202_3_1,Length=0.190034000,Units=km
new line.TR10020361 bus1=BMT6021437B.2,bus2=BMT138492314.2,Phases=1,Linecode=CAB202_3_1,Length=0.132776000,Units=km
new line.TR10020368 bus1=BMT138492314.2,bus2=BMT138492328.2,Phases=1,Linecode=CAB202_3_1,Length=0.124179000,Units=km
new line.TR10020690 bus1=BMT6021864B.2,bus2=BMT2681254B.2,Phases=1,Linecode=CAB202_3_1,Length=0.050850000,Units=km
new line.TR10020697 bus1=BMT6021871B.2,bus2=BMT6021899B.2,Phases=1,Linecode=CAB202_3_1,Length=0.087100000,Units=km
new line.TR10020704 bus1=BMT6021899B.2,bus2=BMT6021906B.2,Phases=1,Linecode=CAB202_3_1,Length=0.047166000,Units=km
new line.TR10020711 bus1=BMT6021906B.2,bus2=BMT164398045.2,Phases=1,Linecode=CAB202_3_1,Length=0.395231000,Units=km
new line.TR10020753 bus1=BMT6022032B.2,bus2=BMT6022039B.2,Phases=1,Linecode=CAB202_3_1,Length=0.181978000,Units=km
new line.TR10020760 bus1=BMT6022039B.2,bus2=BMT103402518.2,Phases=1,Linecode=CAB202_3_1,Length=0.127002000,Units=km
new line.TR10020907 bus1=BMT6022256B.2,bus2=BMT103402560.2,Phases=1,Linecode=CAB202_3_1,Length=0.057010000,Units=km
new line.TR10020914 bus1=BMT6022270B.2,bus2=BMT163267947.2,Phases=1,Linecode=CAB202_3_1,Length=0.184091000,Units=km
new line.TR10020991 bus1=BMT6022487B.2,bus2=BMT2680841B.2,Phases=1,Linecode=CAB202_3_1,Length=0.083520000,Units=km
new line.TR10020998 bus1=BMT6022494B.2,bus2=BMT163270219.2,Phases=1,Linecode=CAB202_3_1,Length=0.199953000,Units=km
new line.TR10021005 bus1=BMT6022529B.2,bus2=BMT163267952.2,Phases=1,Linecode=CAB202_3_1,Length=0.067867000,Units=km
new line.TR10021075 bus1=BMT6022662B.3,bus2=BMT160136661.3,Phases=1,Linecode=CAB202_3_1,Length=0.045591000,Units=km
new line.TR10021082 bus1=BMT6022683B.2,bus2=BMT2680946B.2,Phases=1,Linecode=CAB202_3_1,Length=0.134730000,Units=km
new line.TR10021089 bus1=BMT6022690B.2,bus2=BMT2680967B.2,Phases=1,Linecode=CAB202_3_1,Length=0.443018000,Units=km
new line.TR10021096 bus1=BMT6022697B.2,bus2=BMT103402749.2,Phases=1,Linecode=CAB202_3_1,Length=0.483250000,Units=km
new line.TR10021103 bus1=BMT103402749.2,bus2=BMT103402756.2,Phases=1,Linecode=CAB202_3_1,Length=0.031814000,Units=km
new line.TR10021138 bus1=BMT6022921B.2,bus2=BMT160189130.2,Phases=1,Linecode=CABD02_3_1,Length=0.206512000,Units=km
new line.TR10021145 bus1=BMT6022949B.2,bus2=BMT6022956B.2,Phases=1,Linecode=CAB202_3_1,Length=0.074433000,Units=km
new line.TR10021152 bus1=BMT6022956B.2,bus2=BMT103402924.2,Phases=1,Linecode=CAB202_3_1,Length=0.102064000,Units=km
new line.TR10021159 bus1=BMT6023005B.2,bus2=BMT2681135B.2,Phases=1,Linecode=CAB202_3_1,Length=0.254172000,Units=km
new line.TR10021166 bus1=BMT6023026B.2,bus2=BMT2681051B.2,Phases=1,Linecode=CAB202_3_1,Length=0.079991000,Units=km
new line.TR10021173 bus1=BMT6023033B.2,bus2=BMT103402798.2,Phases=1,Linecode=CAB202_3_1,Length=0.102270000,Units=km
new line.TR10021180 bus1=BMT6023040B.2,bus2=BMT6023033B.2,Phases=1,Linecode=CAB202_3_1,Length=0.050338000,Units=km
new line.TR10021187 bus1=BMT6023047B.1,bus2=BMT155234888.1,Phases=1,Linecode=CAB202_3_1,Length=0.193661000,Units=km
new line.TR10021194 bus1=BMT155234888.1,bus2=BMT6023061B.1,Phases=1,Linecode=CAB202_3_1,Length=0.205013000,Units=km
new line.TR10021201 bus1=BMT6023061B.1,bus2=BMT103392347.1,Phases=1,Linecode=CAB202_3_1,Length=0.231147000,Units=km
new line.TR10021299 bus1=BMT6023292B.1,bus2=BMT6023320B.1,Phases=1,Linecode=CAB202_3_1,Length=0.066277000,Units=km
new line.TR10021313 bus1=BMT6023320B.1,bus2=BMT155235089.1,Phases=1,Linecode=CAB202_3_1,Length=0.105795000,Units=km
new line.TR10021320 bus1=BMT6023348B.1,bus2=BMT6023355B.1,Phases=1,Linecode=CAB202_3_1,Length=0.070546000,Units=km
new line.TR10021327 bus1=BMT6023355B.1,bus2=BMT103393719.1,Phases=1,Linecode=CAB202_3_1,Length=0.389011000,Units=km
new line.TR10021334 bus1=BMT6023362B.1,bus2=BMT6023369B.1,Phases=1,Linecode=CAB203_3_1,Length=0.112268000,Units=km
new line.TR10021341 bus1=BMT6023369B.1,bus2=BMT168217695.1,Phases=1,Linecode=CAB203_3_1,Length=0.110377000,Units=km
new line.TR10021348 bus1=BMT6023376B.1,bus2=BMT6023383B.1,Phases=1,Linecode=CAB202_3_1,Length=0.274231000,Units=km
new line.TR10021355 bus1=BMT6023383B.1,bus2=BMT6023390B.1,Phases=1,Linecode=CAB202_3_1,Length=0.221170000,Units=km
new line.TR10021362 bus1=BMT6023390B.1,bus2=BMT6023418B.1,Phases=1,Linecode=CAB202_3_1,Length=0.540939000,Units=km
new line.TR10021369 bus1=BMT6023418B.1,bus2=BMT2679028B.1,Phases=1,Linecode=CAB202_3_1,Length=0.342358000,Units=km
new line.TR10021376 bus1=BMT6023425B.1,bus2=BMT103393747.1,Phases=1,Linecode=CAB202_3_1,Length=0.445116000,Units=km
new line.TR10021383 bus1=BMT6023432B.1,bus2=BMT6023439B.1,Phases=1,Linecode=CAB202_3_1,Length=0.127604000,Units=km
new line.TR10021390 bus1=BMT6023439B.1,bus2=BMT6023446B.1,Phases=1,Linecode=CAB202_3_1,Length=0.101694000,Units=km
new line.TR10021397 bus1=BMT6023446B.1,bus2=BMT103393845.1,Phases=1,Linecode=CAB202_3_1,Length=0.079836000,Units=km
new line.TR10021404 bus1=BMT6023453B.1,bus2=BMT6023551B.1,Phases=1,Linecode=CAB202_3_1,Length=0.140826000,Units=km
new line.TR10021411 bus1=BMT6023460B.1,bus2=BMT6023453B.1,Phases=1,Linecode=CAB202_3_1,Length=0.214148000,Units=km
new line.TR10021418 bus1=BMT6023467B.1,bus2=BMT6024090B.1,Phases=1,Linecode=CAB202_3_1,Length=0.046001000,Units=km
new line.TR10021425 bus1=BMT160425546.1,bus2=BMT2682276B.1,Phases=1,Linecode=CAB202_3_1,Length=0.123379000,Units=km
new line.TR10021432 bus1=BMT6023481B.1,bus2=BMT2682290B.1,Phases=1,Linecode=CAB202_3_1,Length=0.212155000,Units=km
new line.TR10021439 bus1=BMT6023551B.1,bus2=BMT6023558B.1,Phases=1,Linecode=CAB202_3_1,Length=0.163636000,Units=km
new line.TR10021446 bus1=BMT6023558B.1,bus2=BMT155234893.1,Phases=1,Linecode=CAB202_3_1,Length=0.103263000,Units=km
new line.TR10021453 bus1=BMT6023565B.1,bus2=BMT103392403.1,Phases=1,Linecode=CAB202_3_1,Length=0.127001000,Units=km
new line.TR10021460 bus1=BMT6023572B.1,bus2=BMT6023579B.1,Phases=1,Linecode=CAB202_3_1,Length=0.304058000,Units=km
new line.TR10021467 bus1=BMT6023579B.1,bus2=BMT6023628B.1,Phases=1,Linecode=CAB202_3_1,Length=0.146526000,Units=km
new line.TR10021474 bus1=BMT6023586B.1,bus2=BMT6023593B.1,Phases=1,Linecode=CAB202_3_1,Length=0.357735000,Units=km
new line.TR10021481 bus1=BMT6023593B.1,bus2=BMT155234896.1,Phases=1,Linecode=CAB202_3_1,Length=0.151660000,Units=km
new line.TR10021488 bus1=BMT6023607B.1,bus2=BMT103392690.1,Phases=1,Linecode=CAB202_3_1,Length=0.323827000,Units=km
new line.TR10021495 bus1=BMT6023628B.1,bus2=BMT2682129B.1,Phases=1,Linecode=CAB202_3_1,Length=0.135323000,Units=km
new line.TR10021502 bus1=BMT6023635B.1,bus2=BMT6023642B.1,Phases=1,Linecode=CAB202_3_1,Length=0.081357000,Units=km
new line.TR10021509 bus1=BMT6023642B.1,bus2=BMT6023649B.1,Phases=1,Linecode=CAB202_3_1,Length=0.092657000,Units=km
new line.TR10021516 bus1=BMT6023649B.1,bus2=BMT6019155B.1,Phases=1,Linecode=CAB202_3_1,Length=0.123395000,Units=km
new line.TR10021523 bus1=BMT6023656B.1,bus2=BMT2681716B.1,Phases=1,Linecode=CAB202_3_1,Length=0.192138000,Units=km
new line.TR10021551 bus1=BMT6023677B.1,bus2=BMT6023698B.1,Phases=1,Linecode=CAB202_3_1,Length=0.324581000,Units=km
new line.TR10021572 bus1=BMT6023698B.1,bus2=BMT103391227.1,Phases=1,Linecode=CAB202_3_1,Length=0.320493000,Units=km
new line.TR10021579 bus1=BMT6023712B.1,bus2=BMT6023719B.1,Phases=1,Linecode=CAB202_3_1,Length=0.403876000,Units=km
new line.TR10021586 bus1=BMT6023719B.1,bus2=BMT103392221.1,Phases=1,Linecode=CAB202_3_1,Length=0.115712000,Units=km
new line.TR10021600 bus1=BMT6023733B.1,bus2=BMT6023740B.1,Phases=1,Linecode=CAB202_3_1,Length=0.191961000,Units=km
new line.TR10021607 bus1=BMT6023740B.1,bus2=BMT6023817B.1,Phases=1,Linecode=CAB202_3_1,Length=0.240140000,Units=km
new line.TR10021670 bus1=BMT6023817B.1,bus2=BMT6023824B.1,Phases=1,Linecode=CAB202_3_1,Length=0.260736000,Units=km
new line.TR10021677 bus1=BMT6023824B.1,bus2=BMT167016742.1,Phases=1,Linecode=CAB202_3_1,Length=0.161331000,Units=km
new line.TR10021684 bus1=BMT6023838B.1,bus2=BMT167016745.1,Phases=1,Linecode=CAB202_3_1,Length=0.216282000,Units=km
new line.TR10021691 bus1=BMT6023845B.1,bus2=BMT167016747.1,Phases=1,Linecode=CAB202_3_1,Length=0.131963000,Units=km
new line.TR10021698 bus1=BMT6023852B.1,bus2=BMT2681968B.1,Phases=1,Linecode=CAB202_3_1,Length=0.211250000,Units=km
new line.TR10021719 bus1=BMT6023873B.1,bus2=BMT6023964B.1,Phases=1,Linecode=CAB202_3_1,Length=0.207974000,Units=km
new line.TR10021810 bus1=BMT6023964B.1,bus2=BMT167016748.1,Phases=1,Linecode=CAB202_3_1,Length=0.240738000,Units=km
new line.TR10021824 bus1=BMT6023978B.1,bus2=BMT103391297.1,Phases=1,Linecode=CAB202_3_1,Length=0.041882000,Units=km
new line.TR10021831 bus1=BMT6023999B.1,bus2=BMT6024160B.1,Phases=1,Linecode=CAB202_3_1,Length=0.130915000,Units=km
new line.TR10021852 bus1=BMT6024034B.1,bus2=BMT103392172.1,Phases=1,Linecode=CAB202_3_1,Length=0.516860000,Units=km
new line.TR10021859 bus1=BMT6024041B.1,bus2=BMT103392186.1,Phases=1,Linecode=CAB202_3_1,Length=0.412826000,Units=km
new line.TR10021880 bus1=BMT103392200.1,bus2=BMT103392207.1,Phases=1,Linecode=CAB103_3_1,Length=0.051546000,Units=km
new line.TR10021908 bus1=BMT6024090B.1,bus2=BMT6024097B.1,Phases=1,Linecode=CAB202_3_1,Length=0.191096000,Units=km
new line.TR10021915 bus1=BMT6024097B.1,bus2=BMT6024104B.1,Phases=1,Linecode=CAB202_3_1,Length=0.300538000,Units=km
new line.TR10021922 bus1=BMT6024104B.1,bus2=BMT6024111B.1,Phases=1,Linecode=CAB202_3_1,Length=0.103969000,Units=km
new line.TR10021929 bus1=BMT6024111B.1,bus2=BMT6024118B.1,Phases=1,Linecode=CAB202_3_1,Length=0.175104000,Units=km
new line.TR10021936 bus1=BMT6024118B.1,bus2=BMT103393866.1,Phases=1,Linecode=CAB202_3_1,Length=0.039052000,Units=km
new line.TR10021971 bus1=BMT6024153B.1,bus2=BMT6024167B.1,Phases=1,Linecode=CAB202_3_1,Length=0.092671000,Units=km
new line.TR10021978 bus1=BMT6024160B.1,bus2=BMT2681954B.1,Phases=1,Linecode=CAB202_3_1,Length=0.213343000,Units=km
new line.TR10021985 bus1=BMT6024167B.1,bus2=BMT103393880.1,Phases=1,Linecode=CAB202_3_1,Length=0.169411000,Units=km
new line.TR10058315 bus1=BMT6088147B.1,bus2=BMT103416826.1,Phases=1,Linecode=CAB202_3_1,Length=0.054250000,Units=km
new line.TR10058322 bus1=BMT103416826.1,bus2=BMT6088189B.1,Phases=1,Linecode=CAB202_3_1,Length=0.067190000,Units=km
new line.TR10058350 bus1=BMT6088189B.1,bus2=BMT103416833.1,Phases=1,Linecode=CAB202_3_1,Length=0.065928000,Units=km
new line.TR10058763 bus1=BMT6088714B.1,bus2=BMT103416889.1,Phases=1,Linecode=CAB202_3_1,Length=0.462607000,Units=km
new line.TR10058770 bus1=BMT6088721B.1,bus2=BMT103416903.1,Phases=1,Linecode=CAB202_3_1,Length=0.109671000,Units=km
new line.TR10058777 bus1=BMT6088728B.1,bus2=BMT103416896.1,Phases=1,Linecode=CAB202_3_1,Length=0.138130000,Units=km
new line.TR10058784 bus1=BMT6088735B.1,bus2=BMT6088742B.1,Phases=1,Linecode=CAB202_3_1,Length=0.036218000,Units=km
new line.TR10058791 bus1=BMT6088742B.1,bus2=BMT2699699B.1,Phases=1,Linecode=CAB202_3_1,Length=0.048730000,Units=km
new line.TR10058875 bus1=BMT6088854B.1,bus2=BMT169728333.1,Phases=1,Linecode=CAB202_3_1,Length=0.047019000,Units=km
new line.TR10058889 bus1=BMT6088868B.1,bus2=BMT103416952.1,Phases=1,Linecode=CAB202_3_1,Length=0.261559000,Units=km
new line.TR10058896 bus1=BMT169712998.1,bus2=BMT169712999.1,Phases=1,Linecode=CAB202_3_1,Length=0.043025000,Units=km
new line.TR10058903 bus1=BMT6088882B.1,bus2=BMT2699727B.1,Phases=1,Linecode=CAB202_3_1,Length=0.104132000,Units=km
new line.TR10058938 bus1=BMT6089015B.1,bus2=BMT169728336.1,Phases=1,Linecode=CAB202_3_1,Length=0.076121000,Units=km
new line.TR10058945 bus1=BMT160270033.1,bus2=BMT160270034.1,Phases=1,Linecode=CAB202_3_1,Length=0.199987000,Units=km
new line.TR10059183 bus1=BMT6089463B.1,bus2=BMT103417197.1,Phases=1,Linecode=CAB202_3_1,Length=0.038269000,Units=km
new line.TR10059211 bus1=BMT6089533B.1,bus2=BMT6089547B.1,Phases=1,Linecode=CAB202_3_1,Length=0.057924000,Units=km
new line.TR10059218 bus1=BMT6089547B.1,bus2=BMT6089463B.1,Phases=1,Linecode=CAB202_3_1,Length=0.264190000,Units=km
new line.TR10059246 bus1=BMT6089652B.1,bus2=BMT2699769B.1,Phases=1,Linecode=CAB202_3_1,Length=0.088056000,Units=km
new line.TR10059253 bus1=BMT6089659B.1,bus2=BMT103417211.1,Phases=1,Linecode=CAB202_3_1,Length=0.125587000,Units=km
new line.TR10059463 bus1=BMT6090366B.1,bus2=BMT6090464B.1,Phases=1,Linecode=CAB202_3_1,Length=0.023842000,Units=km
new line.TR10059477 bus1=BMT6090429B.1,bus2=BMT6090436B.1,Phases=1,Linecode=CAB202_3_1,Length=0.033916000,Units=km
new line.TR10059484 bus1=BMT6090436B.1,bus2=BMT6090443B.1,Phases=1,Linecode=CAB202_3_1,Length=0.030508000,Units=km
new line.TR10059491 bus1=BMT6090443B.1,bus2=BMT6090366B.1,Phases=1,Linecode=CAB202_3_1,Length=0.022097000,Units=km
new line.TR10059498 bus1=BMT6090464B.1,bus2=BMT6090485B.1,Phases=1,Linecode=CAB202_3_1,Length=0.026614000,Units=km
new line.TR10059505 bus1=BMT6090485B.1,bus2=BMT6090492B.1,Phases=1,Linecode=CAB202_3_1,Length=0.024988000,Units=km
new line.TR10059512 bus1=BMT6090492B.1,bus2=BMT6090506B.1,Phases=1,Linecode=CAB202_3_1,Length=0.026912000,Units=km
new line.TR10059526 bus1=BMT6090506B.1,bus2=BMT6090513B.1,Phases=1,Linecode=CAB202_3_1,Length=0.162663000,Units=km
new line.TR10059533 bus1=BMT6090513B.1,bus2=BMT2699811B.1,Phases=1,Linecode=CAB202_3_1,Length=0.065437000,Units=km
new line.TR10059764 bus1=BMT127231351.1.2.3,bus2=BMT2690886B.1.2.3,Phases=3,Linecode=CAB207_3_3,Length=0.120709000,Units=km
new line.TR10059771 bus1=BMT150145065.1,bus2=BMT6091227B.1,Phases=1,Linecode=CAB202_3_1,Length=0.034422000,Units=km
new line.TR10059778 bus1=BMT6091227B.1,bus2=BMT6091234B.1,Phases=1,Linecode=CAB202_3_1,Length=0.127412000,Units=km
new line.TR10059785 bus1=BMT6091234B.1,bus2=BMT6091241B.1,Phases=1,Linecode=CAB202_3_1,Length=0.024585000,Units=km