new line.CTR11607 bus1=BMT103388462.2,bus2=BMT103388511.2,Phases=1,LineCode=tieSwitch1,Length=0.001,Units=km,switch=T !numEQ 166471
new line.CTR11685033 bus1=BMTSEGM#58425165.1.2.3,bus2=BMTSEGM#35055099.1.2.3,Phases=3,LineCode=tieSwitch,Length=0.001,Units=km,switch=T !numEQ 
new line.CTR11685059 bus1=BMTSEGM#58425295.1.2.3,bus2=BMTSEGM#35055177.1.2.3,Phases=3,LineCode=tieSwitch,Length=0.001,Units=km,switch=T !numEQ 
new line.CTR11685164 bus1=BMTSEGM#58425820.1.2.3,bus2=BMTSEGM#35055492.1.2.3,Phases=3,LineCode=tieSwitch,Length=0.001,Units=km,switch=T !numEQ 
open line.CTR11685164 term=1
new line.CTR11685176 bus1=BMTSEGM#58425880.1.2.3,bus2=BMTSEGM#35055528.1.2.3,Phases=3,LineCode=tieSwitch,Length=0.001,Units=km,switch=T !numEQ 
open line.CTR11685176 term=1
new line.CTR11685184 bus1=BMTSEGM#58425920.1.2.3,bus2=BMTSEGM#35055552.1.2.3,Phases=3,LineCode=tieSwitch,Length=0.001,Units=km,switch=T !numEQ 
new line.CTR11685200 bus1=BMTSEGM#58426000.1.2.3,bus2=BMTSEGM#35055600.1.2.3,Phases=3,LineCode=tieSwitch,Length=0.001,Units=km,switch=T !numEQ 
new line.CTR11685236 bus1=BMTSEGM#58426180.1.2.3,bus2=BMTSEGM#35055708.1.2.3,Phases=3,LineCode=tieSwitch,Length=0.001,Units=km,switch=T !numEQ 
open line.CTR11685236 term=1
new line.CTR11685244 bus1=BMTSEGM#58426220.1.2.3,bus2=BMTSEGM#35055732.1.2.3,Phases=3,LineCode=tieSwitch,Length=0.001,Units=km,switch=T !numEQ 
new line.CTR11685252 bus1=BMTSEGM#58426260.1.2.3,bus2=BMTSEGM#35055756.1.2.3,Phases=3,LineCode=tieSwitch,Length=0.001,Units=km,switch=T !numEQ 
new line.CTR11685288 bus1=BMTSEGM#58426440.1.2.3,bus2=BMTSEGM#35055864.1.2.3,Phases=3,LineCode=tieSwitch,Length=0.001,Units=km,switch=T !numEQ 
new line.CTR11685296 bus1=BMTSEGM#58426480.1.2.3,bus2=BMTSEGM#35055888.1.2.3,Phases=3,LineCode=tieSwitch,Length=0.001,Units=km,switch=T !numEQ 
new line.CTR11685304 bus1=BMTSEGM#58426520.1.2.3,bus2=BMTSEGM#35055912.1.2.3,Phases=3,LineCode=tieSwitch,Length=0.001,Units=km,switch=T !numEQ 
open line.CTR11685304 term=1
new line.CTR11685332 bus1=BMTSEGM#58426660.1.2.3,bus2=BMTSEGM#35055996.1.2.3,Phases=3,LineCode=tieSwitch,Length=0.001,Units=km,switch=T !numEQ 
new line.CTR11685340 bus1=BMTSEGM#58426700.1.2.3,bus2=BMTSEGM#35056020.1.2.3,Phases=3,LineCode=tieSwitch,Length=0.001,Units=km,switch=T !numEQ 
open line.CTR11685340 term=1
new line.CTR11685356 bus1=BMTSEGM#58426780.1.2.3,bus2=BMTSEGM#35056068.1.2.3,Phases=3,LineCode=tieSwitch,Length=0.001,Units=km,switch=T !numEQ 
new line.CTR11685384 bus1=BMTSEGM#58426920.1.2.3,bus2=BMTSEGM#35056152.1.2.3,Phases=3,LineCode=tieSwitch,Length=0.001,Units=km,switch=T !numEQ 
new line.CTR11685392 bus1=BMTSEGM#58426960.1.2.3,bus2=BMTSEGM#35056176.1.2.3,Phases=3,LineCode=tieSwitch,Length=0.001,Units=km,switch=T !numEQ 
open line.CTR11685392 term=1
new line.CTR11685408 bus1=BMTSEGM#58427040.1.2.3,bus2=BMTSEGM#35056224.1.2.3,Phases=3,LineCode=tieSwitch,Length=0.001,Units=km,switch=T !numEQ 
new line.CTR11685436 bus1=BMTSEGM#58427180.1.2.3,bus2=BMTSEGM#35056308.1.2.3,Phases=3,LineCode=tieSwitch,Length=0.001,Units=km,switch=T !numEQ 
new line.CTR11685452 bus1=BMTSEGM#58427260.1.2.3,bus2=BMTSEGM#35056356.1.2.3,Phases=3,LineCode=tieSwitch,Length=0.001,Units=km,switch=T !numEQ 
new line.CTR11685460 bus1=BMTSEGM#58427300.1.2.3,bus2=BMTSEGM#35056380.1.2.3,Phases=3,LineCode=tieSwitch,Length=0.001,Units=km,switch=T !numEQ 
open line.CTR11685460 term=1
new line.CTR11685488 bus1=BMTSEGM#58427440.1.2.3,bus2=BMTSEGM#35056464.1.2.3,Phases=3,LineCode=tieSwitch,Length=0.001,Units=km,switch=T !numEQ 
new line.CTR11685504 bus1=BMTSEGM#58427520.1.2.3,bus2=BMTSEGM#35056512.1.2.3,Phases=3,LineCode=tieSwitch,Length=0.001,Units=km,switch=T !numEQ 
open line.CTR11685504 term=1
new line.CTR11685512 bus1=BMTSEGM#58427560.1.2.3,bus2=BMTSEGM#35056536.1.2.3,Phases=3,LineCode=tieSwitch,Length=0.001,Units=km,switch=T !numEQ 
new line.CTR129281 bus1=BMT171566584.1.2.3,bus2=BMT171566590.1.2.3,Phases=3,LineCode=tieSwitch,Length=0.001,Units=km,switch=T !numEQ 23142
open line.CTR129281 term=1
new line.CTR1359 bus1=BMT103405318.3,bus2=BMT103406018.3,Phases=1,LineCode=tieSwitch1,Length=0.001,Units=km,switch=T !numEQ 202450
new line.CTR136095 bus1=BMT103364963.3,bus2=BMT103365075.3,Phases=1,LineCode=tieSwitch1,Length=0.001,Units=km,switch=T !numEQ 105801
new line.CTR136158 bus1=BMT103338419.3,bus2=BMT103864140.3,Phases=1,LineCode=tieSwitch1,Length=0.001,Units=km,switch=T !numEQ 105812
new line.CTR136186 bus1=BMT103357403.1,bus2=BMT165184537.1,Phases=1,LineCode=tieSwitch1,Length=0.001,Units=km,switch=T !numEQ 105818
new line.CTR136557 bus1=BMT103397982.2,bus2=BMT103398164.2,Phases=1,LineCode=tieSwitch1,Length=0.001,Units=km,switch=T !numEQ 109933
new line.CTR136585 bus1=BMT103386999.1,bus2=BMT103387426.1,Phases=1,LineCode=tieSwitch1,Length=0.001,Units=km,switch=T !numEQ 109927
new line.CTR136683 bus1=BMT103539760.2,bus2=BMT103542385.2,Phases=1,LineCode=tieSwitch1,Length=0.001,Units=km,switch=T !numEQ 109951
new line.CTR137103 bus1=BMT103397513.2,bus2=BMT103399354.2,Phases=1,LineCode=tieSwitch1,Length=0.001,Units=km,switch=T !numEQ 109749
new line.CTR13711 bus1=BMT153841696.1.2.3,bus2=BMT153843738.1.2.3,Phases=3,LineCode=tieSwitch,Length=0.001,Units=km,switch=T !numEQ 23183
new line.CTR137313 bus1=BMT103407299.2,bus2=BMT176610989.2,Phases=1,LineCode=tieSwitch1,Length=0.001,Units=km,switch=T !numEQ 109730
new line.CTR141209 bus1=BMT176761466.1.2.3,bus2=BMT176761504.1.2.3,Phases=3,LineCode=tieSwitch,Length=0.001,Units=km,switch=T !numEQ 23189
new line.CTR142430 bus1=BMT103384738.1.2.3,bus2=BMT103384794.1.2.3,Phases=3,LineCode=tieSwitch,Length=0.001,Units=km,switch=T !numEQ 117766
new line.CTR1429 bus1=BMT103411205.2,bus2=BMT103415685.2,Phases=1,LineCode=tieSwitch1,Length=0.001,Units=km,switch=T !numEQ 205147
new line.CTR14883 bus1=BMT103325826.2,bus2=BMT157259837.2,Phases=1,LineCode=tieSwitch1,Length=0.001,Units=km,switch=T !numEQ 133372
new line.CTR148835 bus1=BMT103377913.1,bus2=BMT103377927.1,Phases=1,LineCode=tieSwitch1,Length=0.001,Units=km,switch=T !numEQ 166431
new line.CTR157228 bus1=BMT103344775.3,bus2=BMT136485092.3,Phases=1,LineCode=tieSwitch1,Length=0.001,Units=km,switch=T !numEQ 200801
new line.CTR16283 bus1=BMT103543085.2,bus2=BMT165998189.2,Phases=1,LineCode=tieSwitch1,Length=0.001,Units=km,switch=T !numEQ 185479
new line.CTR162989 bus1=BMT148898602.1.2.3,bus2=BMT173951634.1.2.3,Phases=3,LineCode=tieSwitch,Length=0.001,Units=km,switch=T !numEQ 128723
new line.CTR107791 bus1=BMT173193190.1.2.3,bus2=BMT173193391.1.2.3,Phases=3,LineCode=tieSwitch,Length=0.001,Units=km,switch=T !numEQ 77061
new line.CTR107941 bus1=BMT103394496.2,bus2=BMT103394706.2,Phases=1,LineCode=tieSwitch1,Length=0.001,Units=km,switch=T !numEQ 130240
new line.CTR108200 bus1=BMT103382547.1.2.3,bus2=BMT103383674.1.2.3,Phases=3,LineCode=tieSwitch,Length=0.001,Units=km,switch=T !numEQ 201094
new line.CTR118497 bus1=BMT103364669.3,bus2=BMT103364739.3,Phases=1,LineCode=tieSwitch1,Length=0.001,Units=km,switch=T !numEQ 164933
new line.CTR127793 bus1=BMT103344978.3,bus2=BMT136485274.3,Phases=1,LineCode=tieSwitch1,Length=0.001,Units=km,switch=T !numEQ 187251
new line.CTR134541 bus1=BMT171023577.1.2.3,bus2=BMT2876841.1.2.3,Phases=3,LineCode=tieSwitch,Length=0.001,Units=km,switch=T !numEQ 104983
open line.CTR134541 term=1
new line.CTR134639 bus1=BMT103365663.2,bus2=BMT103365803.2,Phases=1,LineCode=tieSwitch1,Length=0.001,Units=km,switch=T !numEQ 105011
new line.CTR134667 bus1=BMT103326841.3,bus2=BMT103326904.3,Phases=1,LineCode=tieSwitch1,Length=0.001,Units=km,switch=T !numEQ 104940
new line.CTR134695 bus1=BMT103368274.3,bus2=BMT164770372.3,Phases=1,LineCode=tieSwitch1,Length=0.001,Units=km,switch=T !numEQ 104944
new line.CTR134723 bus1=BMT103371515.1,bus2=BMT155026346.1,Phases=1,LineCode=tieSwitch1,Length=0.001,Units=km,switch=T !numEQ 104948
new line.CTR134884 bus1=BMT103544149.3,bus2=BMT121231903.3,Phases=1,LineCode=tieSwitch1,Length=0.001,Units=km,switch=T !numEQ 166198
new line.CTR134947 bus1=BMT103343865.3,bus2=BMT136485463.3,Phases=1,LineCode=tieSwitch1,Length=0.001,Units=km,switch=T !numEQ 104918
new line.CTR135227 bus1=BMT103404226.3,bus2=BMT103409469.3,Phases=1,LineCode=tieSwitch1,Length=0.001,Units=km,switch=T !numEQ 109517
new line.CTR135395 bus1=BMT103335164.3,bus2=BMT150883843.3,Phases=1,LineCode=tieSwitch1,Length=0.001,Units=km,switch=T !numEQ 109481
new line.CTR139945 bus1=BMT103392298.1,bus2=BMT167936313.1,Phases=1,LineCode=tieSwitch1,Length=0.001,Units=km,switch=T !numEQ 113199
new line.CTR140260 bus1=BMT103355548.3,bus2=BMT103355562.3,Phases=1,LineCode=tieSwitch1,Length=0.001,Units=km,switch=T !numEQ 200304
new line.CTR141163 bus1=BMT103364683.3,bus2=BMT103364690.3,Phases=1,LineCode=tieSwitch1,Length=0.001,Units=km,switch=T !numEQ 113683
new line.CTR147113 bus1=BMT103397485.2,bus2=BMT103399382.2,Phases=1,LineCode=tieSwitch1,Length=0.001,Units=km,switch=T !numEQ 163897
new line.CTR147169 bus1=BMT103395546.1,bus2=BMT103396981.1,Phases=1,LineCode=tieSwitch1,Length=0.001,Units=km,switch=T !numEQ 163898
new line.CTR147239 bus1=BMT103371760.1,bus2=BMT155026182.1,Phases=1,LineCode=tieSwitch1,Length=0.001,Units=km,switch=T !numEQ 165857
new line.CTR147267 bus1=BMT103373818.1,bus2=BMT103373832.1,Phases=1,LineCode=tieSwitch1,Length=0.001,Units=km,switch=T !numEQ 165858
new line.CTR147393 bus1=BMT103393096.1,bus2=BMT103401216.1,Phases=1,LineCode=tieSwitch1,Length=0.001,Units=km,switch=T !numEQ 163686
new line.CTR148331 bus1=BMT103361491.3,bus2=BMT103361505.3,Phases=1,LineCode=tieSwitch1,Length=0.001,Units=km,switch=T !numEQ 167417
new line.CTR148387 bus1=BMT103368932.3,bus2=BMT159926682.3,Phases=1,LineCode=tieSwitch1,Length=0.001,Units=km,switch=T !numEQ 143579
new line.CTR150739 bus1=BMT103370654.3,bus2=BMT104369638.3,Phases=1,LineCode=tieSwitch1,Length=0.001,Units=km,switch=T !numEQ 165610
new line.CTR150767 bus1=BMT157784623.1,bus2=BMT157784685.1,Phases=1,LineCode=tieSwitch1,Length=0.001,Units=km,switch=T !numEQ 165870
new line.CTR150795 bus1=BMT103383632.2,bus2=BMT103383646.2,Phases=1,LineCode=tieSwitch1,Length=0.001,Units=km,switch=T !numEQ 165614
new line.CTR150851 bus1=BMT103334464.3,bus2=BMT151318110.3,Phases=1,LineCode=tieSwitch1,Length=0.001,Units=km,switch=T !numEQ 164930
new line.CTR152027 bus1=BMT103393684.2,bus2=BMT160420580.2,Phases=1,LineCode=tieSwitch1,Length=0.001,Units=km,switch=T !numEQ 144585
new line.CTR15849 bus1=BMT103360826.1,bus2=BMT103361043.1,Phases=1,LineCode=tieSwitch1,Length=0.001,Units=km,switch=T !numEQ 101853
new line.CTR16577 bus1=BMT103345174.2,bus2=BMT103345181.2,Phases=1,LineCode=tieSwitch1,Length=0.001,Units=km,switch=T !numEQ 22176
new line.CTR175162 bus1=BMT103364578.3,bus2=BMT103364620.3,Phases=1,LineCode=tieSwitch1,Length=0.001,Units=km,switch=T !numEQ 144839
new line.CTR175295 bus1=BMT103358614.3,bus2=BMT103358635.3,Phases=1,LineCode=tieSwitch1,Length=0.001,Units=km,switch=T !numEQ 105793
new line.CTR175309 bus1=BMT103364802.3,bus2=BMT159985515.3,Phases=1,LineCode=tieSwitch1,Length=0.001,Units=km,switch=T !numEQ 105799
new line.CTR175750 bus1=BMT103404667.1.2.3,bus2=BMT149939010.1.2.3,Phases=3,LineCode=tieSwitch,Length=0.001,Units=km,switch=T !numEQ 22484
new line.CTR175806 bus1=BMT103334142.1,bus2=BMT103334177.1,Phases=1,LineCode=tieSwitch1,Length=0.001,Units=km,switch=T !numEQ 109479
new line.CTR176387 bus1=BMT103367567.1.2.3,bus2=BMT156483106.1.2.3,Phases=3,LineCode=tieSwitch,Length=0.001,Units=km,switch=T !numEQ 104910
new line.CTR176401 bus1=BMT103344831.3,bus2=BMT136485141.3,Phases=1,LineCode=tieSwitch1,Length=0.001,Units=km,switch=T !numEQ 104921
new line.CTR176429 bus1=BMT103326701.3,bus2=BMT103327037.3,Phases=1,LineCode=tieSwitch1,Length=0.001,Units=km,switch=T !numEQ 104939
new line.CTR176471 bus1=BMT103343564.2,bus2=BMT103345629.2,Phases=1,LineCode=tieSwitch1,Length=0.001,Units=km,switch=T !numEQ 104916
new line.CTR176506 bus1=BMT103379796.1,bus2=BMT148832434.1,Phases=1,LineCode=tieSwitch1,Length=0.001,Units=km,switch=T !numEQ 104930
new line.CTR176520 bus1=BMT103344089.3,bus2=BMT136485540.3,Phases=1,LineCode=tieSwitch1,Length=0.001,Units=km,switch=T !numEQ 104923
new line.CTR176534 bus1=BMT103380454.1,bus2=BMT170440526.1,Phases=1,LineCode=tieSwitch1,Length=0.001,Units=km,switch=T !numEQ 104927
new line.CTR176562 bus1=BMT103371606.1,bus2=BMT163674676.1,Phases=1,LineCode=tieSwitch1,Length=0.001,Units=km,switch=T !numEQ 104949
new line.CTR176590 bus1=BMT103329494.1.2.3,bus2=BMT103332441.1.2.3,Phases=3,LineCode=tieSwitch,Length=0.001,Units=km,switch=T !numEQ 20221
new line.CTR176604 bus1=BMT103394503.2,bus2=BMT158879650.2,Phases=1,LineCode=tieSwitch1,Length=0.001,Units=km,switch=T !numEQ 104961
new line.CTR176618 bus1=BMT103387951.2,bus2=BMT103389008.2,Phases=1,LineCode=tieSwitch1,Length=0.001,Units=km,switch=T !numEQ 104964
new line.CTR176660 bus1=BMT103387104.1,bus2=BMT103387118.1,Phases=1,LineCode=tieSwitch1,Length=0.001,Units=km,switch=T !numEQ 104970
new line.CTR11327 bus1=BMT103355856.1,bus2=BMT103355870.1,Phases=1,LineCode=tieSwitch1,Length=0.001,Units=km,switch=T !numEQ 187250
new line.CTR130145 bus1=BMT103356486.1,bus2=BMT103360147.1,Phases=1,LineCode=tieSwitch1,Length=0.001,Units=km,switch=T !numEQ 101857
new line.CTR130173 bus1=BMT103362079.2,bus2=BMT148294873.2,Phases=1,LineCode=tieSwitch1,Length=0.001,Units=km,switch=T !numEQ 101847
new line.CTR130257 bus1=BMT103358922.1,bus2=BMT103359013.1,Phases=1,LineCode=tieSwitch1,Length=0.001,Units=km,switch=T !numEQ 101873
new line.CTR130299 bus1=BMT103341499.1,bus2=BMT103341527.1,Phases=1,LineCode=tieSwitch1,Length=0.001,Units=km,switch=T !numEQ 101871
new line.CTR130509 bus1=BMT103382428.1.2.3,bus2=BMT152695999.1.2.3,Phases=3,LineCode=tieSwitch,Length=0.001,Units=km,switch=T !numEQ 101511
new line.CTR143207 bus1=BMT103368862.1.2.3,bus2=BMT174052458.1.2.3,Phases=3,LineCode=tieSwitch,Length=0.001,Units=km,switch=T !numEQ 21057
new line.CTR144187 bus1=BMT103384472.3,bus2=BMT103384479.3,Phases=1,LineCode=tieSwitch1,Length=0.001,Units=km,switch=T !numEQ 124808
new line.CTR152461 bus1=BMT103387699.3,bus2=BMT103390219.3,Phases=1,LineCode=tieSwitch1,Length=0.001,Units=km,switch=T !numEQ 145158
new line.CTR16409 bus1=BMT103378858.1,bus2=BMT103378956.1,Phases=1,LineCode=tieSwitch1,Length=0.001,Units=km,switch=T !numEQ 22445
new line.CTR16423 bus1=BMT103345223.2,bus2=BMT103345230.2,Phases=1,LineCode=tieSwitch1,Length=0.001,Units=km,switch=T !numEQ 21799
new line.CTR16451 bus1=BMT103345251.2,bus2=BMT103345412.2,Phases=1,LineCode=tieSwitch1,Length=0.001,Units=km,switch=T !numEQ 104925
new line.CTR16493 bus1=BMT103356444.1,bus2=BMT103360210.1,Phases=1,LineCode=tieSwitch1,Length=0.001,Units=km,switch=T !numEQ 101849
new line.CTR17389 bus1=BMT103540579.3,bus2=BMT122147832.3,Phases=1,LineCode=tieSwitch1,Length=0.001,Units=km,switch=T !numEQ 180333
new line.CTR174350 bus1=BMT103406823.1,bus2=BMT103852779.1,Phases=1,LineCode=tieSwitch1,Length=0.001,Units=km,switch=T !numEQ 109731
new line.CTR174371 bus1=BMT103408230.2,bus2=BMT103408258.2,Phases=1,LineCode=tieSwitch1,Length=0.001,Units=km,switch=T !numEQ 109738
new line.CTR174385 bus1=BMT103393880.1,bus2=BMT103393936.1,Phases=1,LineCode=tieSwitch1,Length=0.001,Units=km,switch=T !numEQ 109740
new line.CTR174560 bus1=BMT103407740.2,bus2=BMT103409049.2,Phases=1,LineCode=tieSwitch1,Length=0.001,Units=km,switch=T !numEQ 109791
new line.CTR174889 bus1=BMT103417309.1,bus2=BMT134570788.1,Phases=1,LineCode=tieSwitch1,Length=0.001,Units=km,switch=T !numEQ 21239
new line.CTR174903 bus1=BMT103402651.2,bus2=BMT103403169.2,Phases=1,LineCode=tieSwitch1,Length=0.001,Units=km,switch=T !numEQ 109924
new line.CTR174917 bus1=BMT103387510.1,bus2=BMT103387531.1,Phases=1,LineCode=tieSwitch1,Length=0.001,Units=km,switch=T !numEQ 109926
new line.CTR174945 bus1=BMT103397555.2,bus2=BMT103399214.2,Phases=1,LineCode=tieSwitch1,Length=0.001,Units=km,switch=T !numEQ 109930
new line.CTR174959 bus1=BMT103397681.2,bus2=BMT103397968.2,Phases=1,LineCode=tieSwitch1,Length=0.001,Units=km,switch=T !numEQ 109932
new line.CTR192256 bus1=BMT103541566.2,bus2=BMT103541580.2,Phases=1,LineCode=tieSwitch1,Length=0.001,Units=km,switch=T !numEQ 140725
new line.CTR192648 bus1=BMT103340995.1,bus2=BMT103341009.1,Phases=1,LineCode=tieSwitch1,Length=0.001,Units=km,switch=T !numEQ 144594
new line.CTR19265 bus1=BMT103386614.1.2.3,bus2=BMT103386621.1.2.3,Phases=3,LineCode=tieSwitch,Length=0.001,Units=km,switch=T !numEQ 22401
new line.CTR192662 bus1=BMT103341016.1,bus2=BMT103341030.1,Phases=1,LineCode=tieSwitch1,Length=0.001,Units=km,switch=T !numEQ 144633
new line.CTR192676 bus1=BMT103543967.3,bus2=BMT121403921.3,Phases=1,LineCode=tieSwitch1,Length=0.001,Units=km,switch=T !numEQ 180541
new line.CTR192900 bus1=BMT103363983.3,bus2=BMT103364011.3,Phases=1,LineCode=tieSwitch1,Length=0.001,Units=km,switch=T !numEQ 144220
new line.CTR192914 bus1=BMT103364039.3,bus2=BMT103364067.3,Phases=1,LineCode=tieSwitch1,Length=0.001,Units=km,switch=T !numEQ 144222
new line.CTR1933 bus1=BMT158481247.1.2.3,bus2=BMT174910048.1.2.3,Phases=3,LineCode=tieSwitch,Length=0.001,Units=km,switch=T !numEQ 20425
new line.CTR201461 bus1=BMT103336648.3,bus2=BMT160136662.3,Phases=1,LineCode=tieSwitch1,Length=0.001,Units=km,switch=T !numEQ 144129
new line.CTR20147 bus1=BMT158495554.1,bus2=BMT158495556.1,Phases=1,LineCode=tieSwitch1,Length=0.001,Units=km,switch=T !numEQ 23190
new line.CTR20189 bus1=BMT103539858.1.2.3,bus2=BMT153480238.1.2.3,Phases=3,LineCode=tieSwitch,Length=0.001,Units=km,switch=T !numEQ 186938
new line.CTR201951 bus1=BMT161338582.1.2.3,bus2=BMT171043814.1.2.3,Phases=3,LineCode=tieSwitch,Length=0.001,Units=km,switch=T !numEQ 81605
new line.CTR202007 bus1=BMT106449877.1.2.3,bus2=BMT157658072.1.2.3,Phases=3,LineCode=tieSwitch,Length=0.001,Units=km,switch=T !numEQ 23417
new line.CTR202133 bus1=BMT103386628.3,bus2=BMT167921203.3,Phases=1,LineCode=tieSwitch1,Length=0.001,Units=km,switch=T !numEQ 193678
new line.CTR202168 bus1=BMT103365705.2,bus2=BMT103365775.2,Phases=1,LineCode=tieSwitch1,Length=0.001,Units=km,switch=T !numEQ 189729
new line.CTR20217 bus1=BMT103539872.1,bus2=BMT103540341.1,Phases=1,LineCode=tieSwitch1,Length=0.001,Units=km,switch=T !numEQ 20269
new line.CTR202882 bus1=BMT103334702.1,bus2=BMT167139407.1,Phases=1,LineCode=tieSwitch1,Length=0.001,Units=km,switch=T !numEQ 187247
new line.CTR202896 bus1=BMT103360756.1,bus2=BMT170425668.1,Phases=1,LineCode=tieSwitch1,Length=0.001,Units=km,switch=T !numEQ 187248
new line.CTR202910 bus1=BMT99312733.3,bus2=BMT159645848.3,Phases=1,LineCode=tieSwitch1,Length=0.001,Units=km,switch=T !numEQ 187249
new line.CTR202924 bus1=BMT170191130.1.2.3,bus2=BMT7165314.1.2.3,Phases=3,LineCode=tieSwitch,Length=0.001,Units=km,switch=T !numEQ 186950
open line.CTR202924 term=1
new line.CTR203001 bus1=BMT103542014.1,bus2=BMT109437757.1,Phases=1,LineCode=tieSwitch1,Length=0.001,Units=km,switch=T !numEQ 166768
new line.CTR203064 bus1=BMT103346112.2,bus2=BMT103346154.2,Phases=1,LineCode=tieSwitch1,Length=0.001,Units=km,switch=T !numEQ 101859
new line.CTR203211 bus1=BMT103542119.1,bus2=BMT103542182.1,Phases=1,LineCode=tieSwitch1,Length=0.001,Units=km,switch=T !numEQ 166769
new line.CTR203225 bus1=BMT103346462.2,bus2=BMT103346476.2,Phases=1,LineCode=tieSwitch1,Length=0.001,Units=km,switch=T !numEQ 104937
new line.CTR203365 bus1=BMT103346826.1,bus2=BMT103366286.1,Phases=1,LineCode=tieSwitch1,Length=0.001,Units=km,switch=T !numEQ 21681
new line.CTR10207 bus1=BMT103363801.3,bus2=BMT103365348.3,Phases=1,LineCode=tieSwitch1,Length=0.001,Units=km,switch=T !numEQ 144223
new line.CTR10235 bus1=BMT103364025.3,bus2=BMT103364081.3,Phases=1,LineCode=tieSwitch1,Length=0.001,Units=km,switch=T !numEQ 144221
new line.CTR132133 bus1=BMT103342122.1,bus2=BMT136474676.1,Phases=1,LineCode=tieSwitch1,Length=0.001,Units=km,switch=T !numEQ 104894
new line.CTR132161 bus1=BMT103342269.1,bus2=BMT156266306.1,Phases=1,LineCode=tieSwitch1,Length=0.001,Units=km,switch=T !numEQ 104895
new line.CTR132217 bus1=BMT103380153.1,bus2=BMT171024257.1,Phases=1,LineCode=tieSwitch1,Length=0.001,Units=km,switch=T !numEQ 104899
new line.CTR132245 bus1=BMT103342948.1,bus2=BMT136474235.1,Phases=1,LineCode=tieSwitch1,Length=0.001,Units=km,switch=T !numEQ 104901
new line.CTR132273 bus1=BMT103342871.1,bus2=BMT136474438.1,Phases=1,LineCode=tieSwitch1,Length=0.001,Units=km,switch=T !numEQ 104903
new line.CTR13245 bus1=BMT103330173.2,bus2=BMT103330600.2,Phases=1,LineCode=tieSwitch1,Length=0.001,Units=km,switch=T !numEQ 166315
new line.CTR13273 bus1=BMT103330852.2,bus2=BMT103330887.2,Phases=1,LineCode=tieSwitch1,Length=0.001,Units=km,switch=T !numEQ 167414
new line.CTR13301 bus1=BMT103330117.2,bus2=BMT103331055.2,Phases=1,LineCode=tieSwitch1,Length=0.001,Units=km,switch=T !numEQ 166313
new line.CTR133022 bus1=BMT103367707.1.2.3,bus2=BMT161080443.1.2.3,Phases=3,LineCode=tieSwitch,Length=0.001,Units=km,switch=T !numEQ 104239
new line.CTR138391 bus1=BMT103417561.1,bus2=BMT103417673.1,Phases=1,LineCode=tieSwitch1,Length=0.001,Units=km,switch=T !numEQ 110614
new line.CTR138615 bus1=BMT103400012.2,bus2=BMT164480038.2,Phases=1,LineCode=tieSwitch1,Length=0.001,Units=km,switch=T !numEQ 110474
new line.CTR138643 bus1=BMT172466977.1.2.3,bus2=BMT172466978.1.2.3,Phases=3,LineCode=tieSwitch,Length=0.001,Units=km,switch=T !numEQ 110486
new line.CTR155835 bus1=BMT103329585.2,bus2=BMT103331664.2,Phases=1,LineCode=tieSwitch1,Length=0.001,Units=km,switch=T !numEQ 136392
new line.CTR155905 bus1=BMT103346357.1.2.3,bus2=BMT14862864.1.2.3,Phases=3,LineCode=tieSwitch,Length=0.001,Units=km,switch=T !numEQ 136444
open line.CTR155905 term=1
new line.CTR156031 bus1=BMT103346294.1.2.3,bus2=BMT103346308.1.2.3,Phases=3,LineCode=tieSwitch,Length=0.001,Units=km,switch=T !numEQ 136442
new line.CTR160637 bus1=BMT155858608.1.2.3,bus2=BMT173494593.1.2.3,Phases=3,LineCode=tieSwitch,Length=0.001,Units=km,switch=T !numEQ 131081
new line.CTR161253 bus1=BMT158495306.1.2.3,bus2=BMT158495309.1.2.3,Phases=3,LineCode=tieSwitch,Length=0.001,Units=km,switch=T !numEQ 127843
new line.CTR170353 bus1=BMT103534370.1,bus2=BMT103536792.1,Phases=1,LineCode=tieSwitch1,Length=0.001,Units=km,switch=T !numEQ 133355
new line.CTR17095 bus1=BMT103377990.1,bus2=BMT164072754.1,Phases=1,LineCode=tieSwitch1,Length=0.001,Units=km,switch=T !numEQ 165797
new line.CTR17123 bus1=BMT103378018.1,bus2=BMT103378074.1,Phases=1,LineCode=tieSwitch1,Length=0.001,Units=km,switch=T !numEQ 165798
new line.CTR178361 bus1=BMT103347008.2,bus2=BMT103365628.2,Phases=1,LineCode=tieSwitch1,Length=0.001,Units=km,switch=T !numEQ 105000
new line.CTR178683 bus1=BMT103341898.2,bus2=BMT103346028.2,Phases=1,LineCode=tieSwitch1,Length=0.001,Units=km,switch=T !numEQ 104904
new line.CTR18327 bus1=BMT103539578.2,bus2=BMT103543050.2,Phases=1,LineCode=tieSwitch1,Length=0.001,Units=km,switch=T !numEQ 109943
new line.CTR194223 bus1=BMT103389680.2,bus2=BMT103389694.2,Phases=1,LineCode=tieSwitch1,Length=0.001,Units=km,switch=T !numEQ 144590
new line.CTR194279 bus1=BMT103388413.2,bus2=BMT103388560.2,Phases=1,LineCode=tieSwitch1,Length=0.001,Units=km,switch=T !numEQ 166469
new line.CTR194328 bus1=BMT103388399.2,bus2=BMT103388588.2,Phases=1,LineCode=tieSwitch1,Length=0.001,Units=km,switch=T !numEQ 166470
new line.CTR194342 bus1=BMT103388378.2,bus2=BMT103388616.2,Phases=1,LineCode=tieSwitch1,Length=0.001,Units=km,switch=T !numEQ 166468
new line.CTR194468 bus1=BMT154670897.2,bus2=BMT173994918.2,Phases=1,LineCode=tieSwitch1,Length=0.001,Units=km,switch=T !numEQ 144846
new line.CTR194482 bus1=BMT103344110.3,bus2=BMT136485792.3,Phases=1,LineCode=tieSwitch1,Length=0.001,Units=km,switch=T !numEQ 167411
new line.CTR194622 bus1=BMT103358299.1,bus2=BMT103358320.1,Phases=1,LineCode=tieSwitch1,Length=0.001,Units=km,switch=T !numEQ 167388
new line.CTR197492 bus1=BMT103330026.2,bus2=BMT103331188.2,Phases=1,LineCode=tieSwitch1,Length=0.001,Units=km,switch=T !numEQ 166316
new line.CTR197772 bus1=BMT103357424.1,bus2=BMT103357592.1,Phases=1,LineCode=tieSwitch1,Length=0.001,Units=km,switch=T !numEQ 164626
new line.CTR197786 bus1=BMT103388896.1,bus2=BMT103388903.1,Phases=1,LineCode=tieSwitch1,Length=0.001,Units=km,switch=T !numEQ 143490
new line.CTR198493 bus1=BMT103356759.1,bus2=BMT122846929.1,Phases=1,LineCode=tieSwitch1,Length=0.001,Units=km,switch=T !numEQ 22007
new line.CTR198927 bus1=BMT103343816.3,bus2=BMT175849288.3,Phases=1,LineCode=tieSwitch1,Length=0.001,Units=km,switch=T !numEQ 104919
new line.CTR198955 bus1=BMT103343802.3,bus2=BMT136484966.3,Phases=1,LineCode=tieSwitch1,Length=0.001,Units=km,switch=T !numEQ 21291
new line.CTR199004 bus1=BMT103344047.3,bus2=BMT136485890.3,Phases=1,LineCode=tieSwitch1,Length=0.001,Units=km,switch=T !numEQ 164997
new line.CTR20693 bus1=BMT103346896.1,bus2=BMT103366174.1,Phases=1,LineCode=tieSwitch1,Length=0.001,Units=km,switch=T !numEQ 165372
new line.CTR206984 bus1=BMT103361085.1,bus2=BMT169710268.1,Phases=1,LineCode=tieSwitch1,Length=0.001,Units=km,switch=T !numEQ 165861
new line.CTR206998 bus1=BMT103360847.1,bus2=BMT103361001.1,Phases=1,LineCode=tieSwitch1,Length=0.001,Units=km,switch=T !numEQ 165862
new line.CTR207096 bus1=BMT103360840.1,bus2=BMT103361022.1,Phases=1,LineCode=tieSwitch1,Length=0.001,Units=km,switch=T !numEQ 165863
new line.CTR20721 bus1=BMT103346910.3,bus2=BMT157301101.3,Phases=1,LineCode=tieSwitch1,Length=0.001,Units=km,switch=T !numEQ 164043
new line.CTR207418 bus1=BMT103405493.3,bus2=BMT169991001.3,Phases=1,LineCode=tieSwitch1,Length=0.001,Units=km,switch=T !numEQ 180054
new line.CTR20749 bus1=BMT103542602.1,bus2=BMT103542826.1,Phases=1,LineCode=tieSwitch1,Length=0.001,Units=km,switch=T !numEQ 166467
new line.CTR20763 bus1=BMT103366230.1,bus2=BMT155564192.1,Phases=1,LineCode=tieSwitch1,Length=0.001,Units=km,switch=T !numEQ 163820
new line.CTR209098 bus1=BMT103383093.2,bus2=BMT175463292.2,Phases=1,LineCode=tieSwitch1,Length=0.001,Units=km,switch=T !numEQ 22472
new line.CTR16325 bus1=BMT160910932.1.2.3,bus2=BMT162479177.1.2.3,Phases=3,LineCode=tieSwitch,Length=0.001,Units=km,switch=T !numEQ 21959
new line.CTR16353 bus1=BMT103379411.1,bus2=BMT103379425.1,Phases=1,LineCode=tieSwitch1,Length=0.001,Units=km,switch=T !numEQ 113160
new line.CTR169429 bus1=BMT103391626.1,bus2=BMT103391633.1,Phases=1,LineCode=tieSwitch1,Length=0.001,Units=km,switch=T !numEQ 113224
new line.CTR172481 bus1=BMT103342248.1,bus2=BMT136473612.1,Phases=1,LineCode=tieSwitch1,Length=0.001,Units=km,switch=T !numEQ 22169
new line.CTR172509 bus1=BMT103417057.1,bus2=BMT103417099.1,Phases=1,LineCode=tieSwitch1,Length=0.001,Units=km,switch=T !numEQ 143581
new line.CTR172537 bus1=BMT103417050.1,bus2=BMT169702520.1,Phases=1,LineCode=tieSwitch1,Length=0.001,Units=km,switch=T !numEQ 143580
new line.CTR172586 bus1=BMT103391395.1,bus2=BMT103392165.1,Phases=1,LineCode=tieSwitch1,Length=0.001,Units=km,switch=T !numEQ 51518
new line.CTR172733 bus1=BMT103371102.3,bus2=BMT103371116.3,Phases=1,LineCode=tieSwitch1,Length=0.001,Units=km,switch=T !numEQ 165291
new line.CTR172803 bus1=BMT103405864.3,bus2=BMT103405899.3,Phases=1,LineCode=tieSwitch1,Length=0.001,Units=km,switch=T !numEQ 140264
new line.CTR172817 bus1=BMT103405920.3,bus2=BMT103405948.3,Phases=1,LineCode=tieSwitch1,Length=0.001,Units=km,switch=T !numEQ 140265
new line.CTR172971 bus1=BMT103405325.3,bus2=BMT103405633.3,Phases=1,LineCode=tieSwitch1,Length=0.001,Units=km,switch=T !numEQ 110463
new line.CTR172999 bus1=BMT103417708.1,bus2=BMT103417722.1,Phases=1,LineCode=tieSwitch1,Length=0.001,Units=km,switch=T !numEQ 110496
new line.CTR173062 bus1=BMT103337880.3,bus2=BMT103337901.3,Phases=1,LineCode=tieSwitch1,Length=0.001,Units=km,switch=T !numEQ 110504
new line.CTR179019 bus1=BMT103385984.1.2.3,bus2=BMT150567177.1.2.3,Phases=3,LineCode=tieSwitch,Length=0.001,Units=km,switch=T !numEQ 102312
new line.CTR186222 bus1=BMT170948447.1.2.3,bus2=BMT170948448.1.2.3,Phases=3,LineCode=tieSwitch,Length=0.001,Units=km,switch=T !numEQ 96099
new line.CTR1905 bus1=BMT158481064.1.2.3,bus2=BMT170191124.1.2.3,Phases=3,LineCode=tieSwitch,Length=0.001,Units=km,switch=T !numEQ 133175
new line.CTR190597 bus1=BMT103316061.1.2.3,bus2=BMT148437830.1.2.3,Phases=3,LineCode=tieSwitch,Length=0.001,Units=km,switch=T !numEQ 184515
new line.CTR190814 bus1=BMT103369933.3,bus2=BMT103369989.3,Phases=1,LineCode=tieSwitch1,Length=0.001,Units=km,switch=T !numEQ 147013
new line.CTR190856 bus1=BMT103329466.3,bus2=BMT103332462.3,Phases=1,LineCode=tieSwitch1,Length=0.001,Units=km,switch=T !numEQ 145120
new line.CTR191129 bus1=BMT103405871.3,bus2=BMT103405885.3,Phases=1,LineCode=tieSwitch1,Length=0.001,Units=km,switch=T !numEQ 163903
new line.CTR191528 bus1=BMT103366951.3,bus2=BMT157377210.3,Phases=1,LineCode=tieSwitch1,Length=0.001,Units=km,switch=T !numEQ 164382
new line.CTR191556 bus1=BMT103346868.3,bus2=BMT103366258.3,Phases=1,LineCode=tieSwitch1,Length=0.001,Units=km,switch=T !numEQ 167650
new line.CTR191598 bus1=BMT103414439.3,bus2=BMT154035801.3,Phases=1,LineCode=tieSwitch1,Length=0.001,Units=km,switch=T !numEQ 146980
new line.CTR191612 bus1=BMT103414495.3,bus2=BMT154035825.3,Phases=1,LineCode=tieSwitch1,Length=0.001,Units=km,switch=T !numEQ 164400
new line.CTR191787 bus1=BMT103377185.1,bus2=BMT103377220.1,Phases=1,LineCode=tieSwitch1,Length=0.001,Units=km,switch=T !numEQ 164318
new line.CTR191801 bus1=BMT103377234.1,bus2=BMT103377297.1,Phases=1,LineCode=tieSwitch1,Length=0.001,Units=km,switch=T !numEQ 164320
new line.CTR191815 bus1=BMT103377255.1,bus2=BMT103377283.1,Phases=1,LineCode=tieSwitch1,Length=0.001,Units=km,switch=T !numEQ 164319
new line.CTR191829 bus1=BMT103376422.1,bus2=BMT103376443.1,Phases=1,LineCode=tieSwitch1,Length=0.001,Units=km,switch=T !numEQ 164321
new line.CTR191990 bus1=BMT103413424.3,bus2=BMT154035961.3,Phases=1,LineCode=tieSwitch1,Length=0.001,Units=km,switch=T !numEQ 166501
new line.CTR192123 bus1=BMT103330915.2,bus2=BMT103330936.2,Phases=1,LineCode=tieSwitch1,Length=0.001,Units=km,switch=T !numEQ 166312
new line.CTR196449 bus1=BMT103419157.1,bus2=BMT103419178.1,Phases=1,LineCode=tieSwitch1,Length=0.001,Units=km,switch=T !numEQ 185027