new line.RML10001902 bus1=BBT3015120.1.0,bus2=RML1060001902.1.0,Phases=1,Linecode=CABBT811_4_1,Length=0.017000000,Units=km
new line.RML10041842 bus1=BBT1384022.1.0,bus2=RML1060041842.1.0,Phases=1,Linecode=CABBTG02_4_1,Length=0.017000000,Units=km
new line.RML10044296 bus1=BBT1069911.1.2.0,bus2=RML1060044296.1.2.0,Phases=2,Linecode=CABBTG05_4_2,Length=0.017000000,Units=km
new line.RML10045634 bus1=BBT148210441.1.2.3.0,bus2=RML1060045634.1.2.3.0,Phases=3,Linecode=CABBTG07_4_3,Length=0.017000000,Units=km
new line.RML10055085 bus1=BBT3301399.1.0,bus2=RML1060055085.1.0,Phases=1,Linecode=CABBTG01_4_1,Length=0.017000000,Units=km
new line.RML10069389 bus1=BBT1071318.1.2.3.0,bus2=RML1060069389.1.2.3.0,Phases=3,Linecode=CABBTG06_4_3,Length=0.010000000,Units=km
new line.RML10074793 bus1=BBT149143639.1.2.3.0,bus2=RML1060074793.1.2.3.0,Phases=3,Linecode=CABBTG08_4_3,Length=0.016000000,Units=km
new line.RML10079262 bus1=BBT149228689.1.2.0,bus2=RML1060079262.1.2.0,Phases=2,Linecode=CABBTG05_4_2,Length=0.030000000,Units=km
new line.RML10090769 bus1=BBT90455997.1.2.0,bus2=RML1060090769.1.2.0,Phases=2,Linecode=CABBTG05_4_2,Length=0.017000000,Units=km
new line.RML10092201 bus1=BBT20285533.1.0,bus2=RML1060092201.1.0,Phases=1,Linecode=CABBTG01_4_1,Length=0.017000000,Units=km
new line.RML10105950 bus1=BBT3298956.1.2.0,bus2=RML1060105950.1.2.0,Phases=2,Linecode=CABBTG05_4_2,Length=0.017000000,Units=km
new line.RML10109736 bus1=BBT29669481.1.0,bus2=RML1060109736.1.0,Phases=1,Linecode=CABBTG01_4_1,Length=0.017000000,Units=km
new line.RML10114630 bus1=BBT2409466.1.3.0,bus2=RML1060114630.1.3.0,Phases=2,Linecode=CABBTG05_4_2,Length=0.017000000,Units=km
new line.RML10117196 bus1=BBT1069904.2.0,bus2=RML1060117196.2.0,Phases=1,Linecode=CABBTG02_4_1,Length=0.006000000,Units=km
new line.RML10123271 bus1=BBT2221082.3.0,bus2=RML1060123271.3.0,Phases=1,Linecode=CABBT811_4_1,Length=0.011000000,Units=km
new line.RML10123382 bus1=BBT1068322.2.0,bus2=RML1060123382.2.0,Phases=1,Linecode=CABBTG01_4_1,Length=0.017000000,Units=km
new line.RML10124939 bus1=BBT3015120.1.3.0,bus2=RML1060124939.1.3.0,Phases=2,Linecode=CABBTG05_4_2,Length=0.017000000,Units=km
new line.RML10125276 bus1=BBT1064241.1.0,bus2=RML1060125276.1.0,Phases=1,Linecode=CABBTG01_4_1,Length=0.017000000,Units=km
new line.RML10126017 bus1=BBT1246213.1.0,bus2=RML1060126017.1.0,Phases=1,Linecode=CABBTG01_4_1,Length=0.017000000,Units=km
new line.RML10126429 bus1=BBT1071122.1.2.0,bus2=RML1060126429.1.2.0,Phases=2,Linecode=CABBTG05_4_2,Length=0.017000000,Units=km
new line.RML10126864 bus1=BBT2156661.1.0,bus2=RML1060126864.1.0,Phases=1,Linecode=CABBTG01_4_1,Length=0.017000000,Units=km
new line.RML10129093 bus1=BBT150464471.2.0,bus2=RML1060129093.2.0,Phases=1,Linecode=CABBTG01_4_1,Length=0.017000000,Units=km
new line.RML10142241 bus1=BBT1063233.1.2.0,bus2=RML1060142241.1.2.0,Phases=2,Linecode=CABBTG04_4_2,Length=0.017000000,Units=km
new line.RML10142399 bus1=BBT112865566.1.2.0,bus2=RML1060142399.1.2.0,Phases=2,Linecode=CABBTG05_4_2,Length=0.010000000,Units=km
new line.RML10142431 bus1=BBT1070793.2.3.0,bus2=RML1060142431.2.3.0,Phases=2,Linecode=CABBTG05_4_2,Length=0.017000000,Units=km
new line.RML10142849 bus1=BBT1071458.1.2.3.0,bus2=RML1060142849.1.2.3.0,Phases=3,Linecode=CABBTG06_4_3,Length=0.020000000,Units=km
new line.RML10158088 bus1=BBT1248054.1.2.0,bus2=RML1060158088.1.2.0,Phases=2,Linecode=CABBTG05_4_2,Length=0.017000000,Units=km
new line.RML10160616 bus1=BBT123997757.1.2.0,bus2=RML1060160616.1.2.0,Phases=2,Linecode=CABBTG04_4_2,Length=0.025000000,Units=km
new line.RML10165003 bus1=BBT3432831.1.0,bus2=RML1060165003.1.0,Phases=1,Linecode=CABBTG01_4_1,Length=0.017000000,Units=km
new line.RML10165933 bus1=BBT2183177.3.0,bus2=RML1060165933.3.0,Phases=1,Linecode=CABBTG01_4_1,Length=0.011000000,Units=km
new line.RML10166112 bus1=BBT123997757.3.0,bus2=RML1060166112.3.0,Phases=1,Linecode=CABBTG01_4_1,Length=0.012000000,Units=km
new line.RML10181161 bus1=BBT2315393.1.2.0,bus2=RML1060181161.1.2.0,Phases=2,Linecode=CABBTG04_4_2,Length=0.017000000,Units=km
new line.RML10181165 bus1=BBT1065249.1.2.0,bus2=RML1060181165.1.2.0,Phases=2,Linecode=CABBTG04_4_2,Length=0.017000000,Units=km
new line.RML10189373 bus1=BBT1063009.1.2.0,bus2=RML1060189373.1.2.0,Phases=2,Linecode=CABBTG05_4_2,Length=0.017000000,Units=km
new line.RML10189462 bus1=BBT1248782.2.0,bus2=RML1060189462.2.0,Phases=1,Linecode=CABBTG02_4_1,Length=0.017000000,Units=km
new line.RML10209919 bus1=BBT123996497.2.3.0,bus2=RML1060209919.2.3.0,Phases=2,Linecode=CABBTG05_4_2,Length=0.017000000,Units=km
new line.RML10213166 bus1=BBT1069778.2.3.0,bus2=RML1060213166.2.3.0,Phases=2,Linecode=CABBTG05_4_2,Length=0.017000000,Units=km
new line.RML10213432 bus1=BBT3015246.2.3.0,bus2=RML1060213432.2.3.0,Phases=2,Linecode=CABBTG05_4_2,Length=0.017000000,Units=km
new line.RML10225537 bus1=BBT1064409.3.0,bus2=RML1060225537.3.0,Phases=1,Linecode=CABBTG02_4_1,Length=0.017000000,Units=km
new line.RML10228980 bus1=BBT1246626.1.3.0,bus2=RML1060228980.1.3.0,Phases=2,Linecode=CABBTG05_4_2,Length=0.017000000,Units=km
new line.RML10233979 bus1=BBT2594329.1.0,bus2=RML1060233979.1.0,Phases=1,Linecode=CABBTG02_4_1,Length=0.017000000,Units=km
new line.RML10233991 bus1=BBT2594329.2.0,bus2=RML1060233991.2.0,Phases=1,Linecode=CABBTG02_4_1,Length=0.017000000,Units=km
new line.RML10234015 bus1=BBT123997757.3.0,bus2=RML1060234015.3.0,Phases=1,Linecode=CABBTG02_4_1,Length=0.017000000,Units=km
new line.RML10234016 bus1=BBT123996693.2.0,bus2=RML1060234016.2.0,Phases=1,Linecode=CABBTG02_4_1,Length=0.017000000,Units=km
new line.RML10240823 bus1=BBT1068378.2.0,bus2=RML1060240823.2.0,Phases=1,Linecode=CABBTG02_4_1,Length=0.017000000,Units=km
new line.RML10241105 bus1=BBT29669481.1.3.0,bus2=RML1060241105.1.3.0,Phases=2,Linecode=CABBTG05_4_2,Length=0.017000000,Units=km
new line.RML10243645 bus1=BBT124002391.1.0,bus2=RML1060243645.1.0,Phases=1,Linecode=CABBTG02_4_1,Length=0.017000000,Units=km
new line.RML10255175 bus1=BBT123997757.2.0,bus2=RML1060255175.2.0,Phases=1,Linecode=CABBTG02_4_1,Length=0.017000000,Units=km
new line.RML10258868 bus1=BBT2315449.1.2.3.0,bus2=RML1060258868.1.2.3.0,Phases=3,Linecode=CABBTG06_4_3,Length=0.017000000,Units=km
new line.RML10264137 bus1=BBT123997001.2.0,bus2=RML1060264137.2.0,Phases=1,Linecode=CABBTG02_4_1,Length=0.017000000,Units=km
new line.RML10267188 bus1=BBT123997106.1.2.0,bus2=RML1060267188.1.2.0,Phases=2,Linecode=CABBTG05_4_2,Length=0.017000000,Units=km
new line.RML10267445 bus1=BBT124003210.1.0,bus2=RML1060267445.1.0,Phases=1,Linecode=CABBT811_4_1,Length=0.017000000,Units=km
new line.RML10268447 bus1=BBT123998128.2.0,bus2=RML1060268447.2.0,Phases=1,Linecode=CABBT811_4_1,Length=0.017000000,Units=km
new line.RML10271999 bus1=BBT151468366.1.0,bus2=RML1060271999.1.0,Phases=1,Linecode=CABBTG02_4_1,Length=0.017000000,Units=km
new line.RML10272991 bus1=BBT1071983.1.0,bus2=RML1060272991.1.0,Phases=1,Linecode=CABBTG02_4_1,Length=0.017000000,Units=km
new line.RML10282449 bus1=BBT1071038.1.2.3.0,bus2=RML1060282449.1.2.3.0,Phases=3,Linecode=CABBTG06_4_3,Length=0.017000000,Units=km
new line.RML10282452 bus1=BBT1066446.2.0,bus2=RML1060282452.2.0,Phases=1,Linecode=CABBTG02_4_1,Length=0.017000000,Units=km
new line.RML10282456 bus1=BBT2221061.2.0,bus2=RML1060282456.2.0,Phases=1,Linecode=CABBTG02_4_1,Length=0.017000000,Units=km
new line.RML10282459 bus1=BBT123996497.1.0,bus2=RML1060282459.1.0,Phases=1,Linecode=CABBTG02_4_1,Length=0.017000000,Units=km
new line.RML10284269 bus1=BBT2315393.1.2.0,bus2=RML1060284269.1.2.0,Phases=2,Linecode=CABBTG05_4_2,Length=0.017000000,Units=km
new line.RML10284275 bus1=BBT1071304.2.3.0,bus2=RML1060284275.2.3.0,Phases=2,Linecode=CABBTG05_4_2,Length=0.017000000,Units=km
new line.RML10284288 bus1=BBT151469014.2.0,bus2=RML1060284288.2.0,Phases=1,Linecode=CABBTG02_4_1,Length=0.017000000,Units=km
new line.RML10299825 bus1=BBT1246633.1.0,bus2=RML1060299825.1.0,Phases=1,Linecode=CABBTG02_4_1,Length=0.017000000,Units=km
new line.RML10301415 bus1=BBT151469062.1.0,bus2=RML1060301415.1.0,Phases=1,Linecode=CABBTG02_4_1,Length=0.017000000,Units=km
new line.RML10301484 bus1=BBT151468958.2.3.0,bus2=RML1060301484.2.3.0,Phases=2,Linecode=CABBTG05_4_2,Length=0.017000000,Units=km
new line.RML10301847 bus1=BBT2315449.1.3.0,bus2=RML1060301847.1.3.0,Phases=2,Linecode=CABBTG05_4_2,Length=0.017000000,Units=km
new line.RML10301911 bus1=BBT123995972.2.0,bus2=RML1060301911.2.0,Phases=1,Linecode=CABBTG02_4_1,Length=0.017000000,Units=km
new line.RML10302766 bus1=BBT151468958.1.0,bus2=RML1060302766.1.0,Phases=1,Linecode=CABBTG02_4_1,Length=0.017000000,Units=km
new line.RML10308757 bus1=BBT3015344.1.0,bus2=RML1060308757.1.0,Phases=1,Linecode=CABBTG02_4_1,Length=0.017000000,Units=km
new line.RML10313357 bus1=BBT1071920.2.0,bus2=RML1060313357.2.0,Phases=1,Linecode=CABBTG02_4_1,Length=0.017000000,Units=km
new line.RML10325078 bus1=BBT3015379.1.2.0,bus2=RML1060325078.1.2.0,Phases=2,Linecode=CABBTG05_4_2,Length=0.017000000,Units=km
new line.RML10332028 bus1=BBT1072382.1.0,bus2=RML1060332028.1.0,Phases=1,Linecode=CABBTG01_4_1,Length=0.017000000,Units=km
new line.RML10332033 bus1=BBT2315575.1.0,bus2=RML1060332033.1.0,Phases=1,Linecode=CABBTG02_4_1,Length=0.017000000,Units=km
new line.RML10332215 bus1=BBT123997757.1.0,bus2=RML1060332215.1.0,Phases=1,Linecode=CABBTG02_4_1,Length=0.017000000,Units=km
new line.RML10333643 bus1=BBT2221068.2.0,bus2=RML1060333643.2.0,Phases=1,Linecode=CABBTG02_4_1,Length=0.017000000,Units=km
new line.RML10333652 bus1=BBT151468958.1.0,bus2=RML1060333652.1.0,Phases=1,Linecode=CABBTG02_4_1,Length=0.017000000,Units=km
new line.RML10335769 bus1=BBT2221061.2.0,bus2=RML1060335769.2.0,Phases=1,Linecode=CABBTG01_4_1,Length=0.017000000,Units=km
new line.RML10335771 bus1=BBT2221082.1.0,bus2=RML1060335771.1.0,Phases=1,Linecode=CABBTG01_4_1,Length=0.017000000,Units=km
new line.RML10335772 bus1=BBT1246290.1.0,bus2=RML1060335772.1.0,Phases=1,Linecode=CABBTG01_4_1,Length=0.017000000,Units=km
new line.RML10335773 bus1=BBT1247200.1.3.0,bus2=RML1060335773.1.3.0,Phases=2,Linecode=CABBTG05_4_2,Length=0.017000000,Units=km
new line.RML10335831 bus1=BBT123997106.3.0,bus2=RML1060335831.3.0,Phases=1,Linecode=CABBTG01_4_1,Length=0.017000000,Units=km
new line.RML10335836 bus1=BBT2315547.1.2.0,bus2=RML1060335836.1.2.0,Phases=2,Linecode=CABBTG05_4_2,Length=0.017000000,Units=km
new line.RML10335840 bus1=BBT2315428.1.0,bus2=RML1060335840.1.0,Phases=1,Linecode=CABBTG02_4_1,Length=0.017000000,Units=km
new line.RML10335847 bus1=BBT1071913.1.0,bus2=RML1060335847.1.0,Phases=1,Linecode=CABBTG02_4_1,Length=0.017000000,Units=km
new line.RML10335855 bus1=BBT112865566.3.0,bus2=RML1060335855.3.0,Phases=1,Linecode=CABBTG01_4_1,Length=0.017000000,Units=km
new line.RML10335878 bus1=BBT1246626.2.3.0,bus2=RML1060335878.2.3.0,Phases=2,Linecode=CABBTG05_4_2,Length=0.017000000,Units=km
new line.RML10335881 bus1=BBT1383987.3.0,bus2=RML1060335881.3.0,Phases=1,Linecode=CABBTG01_4_1,Length=0.017000000,Units=km
new line.RML10339997 bus1=BBT124003210.1.0,bus2=RML1060339997.1.0,Phases=1,Linecode=CABBTG02_4_1,Length=0.017000000,Units=km
new line.RML10340211 bus1=BBT1071570.1.2.0,bus2=RML1060340211.1.2.0,Phases=2,Linecode=CABBTG05_4_2,Length=0.017000000,Units=km
new line.RML10340520 bus1=BBT1069869.1.2.3.0,bus2=RML1060340520.1.2.3.0,Phases=3,Linecode=CABBTG06_4_3,Length=0.017000000,Units=km
new line.RML10343162 bus1=BBT1246633.1.0,bus2=RML1060343162.1.0,Phases=1,Linecode=CABBTG02_4_1,Length=0.017000000,Units=km
new line.RML10343256 bus1=BBT1072809.1.2.0,bus2=RML1060343256.1.2.0,Phases=2,Linecode=CABBTG05_4_2,Length=0.017000000,Units=km
new line.RML10343309 bus1=BBT123999829.1.0,bus2=RML1060343309.1.0,Phases=1,Linecode=CABBTG02_4_1,Length=0.017000000,Units=km
new line.RML10343372 bus1=BBT1072326.1.0,bus2=RML1060343372.1.0,Phases=1,Linecode=CABBTG02_4_1,Length=0.017000000,Units=km
new line.RML10344393 bus1=BBT2104938.1.2.0,bus2=RML1060344393.1.2.0,Phases=2,Linecode=CABBTG05_4_2,Length=0.017000000,Units=km
new line.RML10344425 bus1=BBT1069869.1.2.0,bus2=RML1060344425.1.2.0,Phases=2,Linecode=CABBTG05_4_2,Length=0.017000000,Units=km
new line.RML10345838 bus1=BBT151469014.3.0,bus2=RML1060345838.3.0,Phases=1,Linecode=CABBTG02_4_1,Length=0.017000000,Units=km
new line.RML10345939 bus1=BBT151468975.3.0,bus2=RML1060345939.3.0,Phases=1,Linecode=CABBTG02_4_1,Length=0.017000000,Units=km
new line.RML10346402 bus1=BBT1246570.1.2.3.0,bus2=RML1060346402.1.2.3.0,Phases=3,Linecode=CABBTG07_4_3,Length=0.017000000,Units=km
new line.RML10346865 bus1=BBT1065172.1.0,bus2=RML1060346865.1.0,Phases=1,Linecode=CABBTG02_4_1,Length=0.017000000,Units=km
new line.RML10353981 bus1=BBT1064318.1.0,bus2=RML1060353981.1.0,Phases=1,Linecode=CABBTG02_4_1,Length=0.017000000,Units=km
new line.RML10354084 bus1=BBT1065704.2.0,bus2=RML1060354084.2.0,Phases=1,Linecode=CABBTG02_4_1,Length=0.017000000,Units=km
new line.RML10355256 bus1=BBT151469156.1.0,bus2=RML1060355256.1.0,Phases=1,Linecode=CABBTG02_4_1,Length=0.017000000,Units=km
new line.RML10359109 bus1=BBT152709212.1.2.3.0,bus2=RML1060359109.1.2.3.0,Phases=3,Linecode=CABBTG12_4_3,Length=0.030000000,Units=km
new line.RML10361916 bus1=BBT2315421.1.3.0,bus2=RML1060361916.1.3.0,Phases=2,Linecode=CABBTG05_4_2,Length=0.017000000,Units=km
new line.RML10362854 bus1=BBT152223118.1.2.3.0,bus2=RML1060362854.1.2.3.0,Phases=3,Linecode=CABBT809_4_3,Length=0.017000000,Units=km
new line.RML10366641 bus1=BBT2315421.2.3.0,bus2=RML1060366641.2.3.0,Phases=2,Linecode=CABBTG05_4_2,Length=0.017000000,Units=km
new line.RML10368114 bus1=BBT151468975.1.3.0,bus2=RML1060368114.1.3.0,Phases=2,Linecode=CABBTG05_4_2,Length=0.017000000,Units=km
new line.RML10377382 bus1=BBT2315456.2.3.0,bus2=RML1060377382.2.3.0,Phases=2,Linecode=CABBTG05_4_2,Length=0.017000000,Units=km
new line.RML10377391 bus1=BBT1072403.1.0,bus2=RML1060377391.1.0,Phases=1,Linecode=CABBTG01_4_1,Length=0.017000000,Units=km
new line.RML10377404 bus1=BBT2315442.1.3.0,bus2=RML1060377404.1.3.0,Phases=2,Linecode=CABBTG05_4_2,Length=0.017000000,Units=km
new line.RML10379164 bus1=BBT2315554.2.3.0,bus2=RML1060379164.2.3.0,Phases=2,Linecode=CABBT811_4_2,Length=0.017000000,Units=km
new line.RML10379290 bus1=BBT151469159.2.0,bus2=RML1060379290.2.0,Phases=1,Linecode=CABBTG02_4_1,Length=0.017000000,Units=km
new line.RML10381276 bus1=BBT152813068.1.2.0,bus2=RML1060381276.1.2.0,Phases=2,Linecode=CABBTG05_4_2,Length=0.010000000,Units=km
new line.RML10384007 bus1=BBT2315456.1.0,bus2=RML1060384007.1.0,Phases=1,Linecode=CABBTG02_4_1,Length=0.017000000,Units=km
new line.RML10390273 bus1=BBT1065837.1.2.0,bus2=RML1060390273.1.2.0,Phases=2,Linecode=CABBTG05_4_2,Length=0.017000000,Units=km
new line.RML10392959 bus1=BBT1071535.1.2.0,bus2=RML1060392959.1.2.0,Phases=2,Linecode=CABBTG05_4_2,Length=0.017000000,Units=km
new line.RML10398685 bus1=BBT1072102.1.2.3.0,bus2=RML1060398685.1.2.3.0,Phases=3,Linecode=CABBTG06_4_3,Length=0.017000000,Units=km
new line.RML10398983 bus1=BBT151468350.1.3.0,bus2=RML1060398983.1.3.0,Phases=2,Linecode=CABBTG05_4_2,Length=0.017000000,Units=km
new line.RML10402906 bus1=BBT1071493.1.2.3.0,bus2=RML1060402906.1.2.3.0,Phases=3,Linecode=CABBTG07_4_3,Length=0.017000000,Units=km
new line.RML10403427 bus1=BBT1384036.2.3.0,bus2=RML1060403427.2.3.0,Phases=2,Linecode=CABBTG13_4_2,Length=0.017000000,Units=km
new line.RML10403543 bus1=BBT1068322.1.0,bus2=RML1060403543.1.0,Phases=1,Linecode=CABBTG02_4_1,Length=0.017000000,Units=km
new line.RML10403557 bus1=BBT1065326.1.2.0,bus2=RML1060403557.1.2.0,Phases=2,Linecode=CABBTG05_4_2,Length=0.017000000,Units=km
new line.RML10405887 bus1=BBT4533854.3.0,bus2=RML1060405887.3.0,Phases=1,Linecode=CABBTG02_4_1,Length=0.017000000,Units=km
new line.RML10411088 bus1=BBT1246227.1.2.3.0,bus2=RML1060411088.1.2.3.0,Phases=3,Linecode=CABBTG06_4_3,Length=0.017000000,Units=km
new line.RML10411239 bus1=BBT2315505.3.0,bus2=RML1060411239.3.0,Phases=1,Linecode=CABBTG02_4_1,Length=0.017000000,Units=km
new line.RML10414002 bus1=BBT150465134.3.0,bus2=RML1060414002.3.0,Phases=1,Linecode=CABBTG02_4_1,Length=0.017000000,Units=km
new line.RML10415428 bus1=BBT2511246.1.2.3.0,bus2=RML1060415428.1.2.3.0,Phases=3,Linecode=CABBTG07_4_3,Length=0.017000000,Units=km
new line.RML10421101 bus1=BBT123996497.1.0,bus2=RML1060421101.1.0,Phases=1,Linecode=CABBTG02_4_1,Length=0.017000000,Units=km
new line.RML10437784 bus1=BBT4047312.1.3.0,bus2=RML1060437784.1.3.0,Phases=2,Linecode=CABBTG05_4_2,Length=0.017000000,Units=km
new line.RML10446731 bus1=BBT153604312.1.2.0,bus2=RML1060446731.1.2.0,Phases=2,Linecode=CABBTG05_4_2,Length=0.017000000,Units=km
new line.RML10452660 bus1=BBT123996910.1.0,bus2=RML1060452660.1.0,Phases=1,Linecode=CABBTG02_4_1,Length=0.017000000,Units=km
new line.RML10452715 bus1=BBT124002391.1.2.0,bus2=RML1060452715.1.2.0,Phases=2,Linecode=CABBTG05_4_2,Length=0.017000000,Units=km
new line.RML10463432 bus1=BBT1071892.1.0,bus2=RML1060463432.1.0,Phases=1,Linecode=CABBTG02_4_1,Length=0.017000000,Units=km
new line.RML10463442 bus1=BBT124003406.2.0,bus2=RML1060463442.2.0,Phases=1,Linecode=CABBTG02_4_1,Length=0.017000000,Units=km
new line.RML10463449 bus1=BBT2315568.1.2.3.0,bus2=RML1060463449.1.2.3.0,Phases=3,Linecode=CABBTG06_4_3,Length=0.017000000,Units=km
new line.RML10463995 bus1=BBT3013580.1.0,bus2=RML1060463995.1.0,Phases=1,Linecode=CABBTG02_4_1,Length=0.017000000,Units=km
new line.RML10466516 bus1=BBT1247200.1.0,bus2=RML1060466516.1.0,Phases=1,Linecode=CABBTG02_4_1,Length=0.017000000,Units=km
new line.RML10467081 bus1=BBT3015330.1.2.3.0,bus2=RML1060467081.1.2.3.0,Phases=3,Linecode=CABBTG12_4_3,Length=0.011000000,Units=km
new line.RML10474030 bus1=BBT3602735.1.2.0,bus2=RML1060474030.1.2.0,Phases=2,Linecode=CABBTG05_4_2,Length=0.012000000,Units=km
new line.RML10474113 bus1=BBT151469158.1.0,bus2=RML1060474113.1.0,Phases=1,Linecode=CABBTG02_4_1,Length=0.012000000,Units=km
new line.RML10476195 bus1=BBT1064241.2.0,bus2=RML1060476195.2.0,Phases=1,Linecode=CABBTG01_4_1,Length=0.010000000,Units=km
new line.RML10480543 bus1=BBT2315442.1.2.0,bus2=RML1060480543.1.2.0,Phases=2,Linecode=CABBTG05_4_2,Length=0.008000000,Units=km
new line.RML10482211 bus1=BBT1069995.1.0,bus2=RML1060482211.1.0,Phases=1,Linecode=CABBTG02_4_1,Length=0.017000000,Units=km
new line.RML10484653 bus1=BBT1071990.3.0,bus2=RML1060484653.3.0,Phases=1,Linecode=CABBTG02_4_1,Length=0.014000000,Units=km
new line.RML10484662 bus1=BBT1069841.2.3.0,bus2=RML1060484662.2.3.0,Phases=2,Linecode=CABBTG05_4_2,Length=0.017000000,Units=km
new line.RML10484696 bus1=BBT112865566.1.0,bus2=RML1060484696.1.0,Phases=1,Linecode=CABBTG02_4_1,Length=0.009000000,Units=km
new line.RML10489541 bus1=BBT154635451.1.2.0,bus2=RML1060489541.1.2.0,Phases=2,Linecode=CABBT811_4_2,Length=0.025000000,Units=km
new line.RML10493292 bus1=BBT155667938.1.2.0,bus2=RML1060493292.1.2.0,Phases=2,Linecode=CABBTG05_4_2,Length=0.017000000,Units=km
new line.RML10495712 bus1=BBT151468978.1.2.0,bus2=RML1060495712.1.2.0,Phases=2,Linecode=CABBT811_4_2,Length=0.020000000,Units=km
new line.RML10497017 bus1=BBT1070793.1.2.0,bus2=RML1060497017.1.2.0,Phases=2,Linecode=CABBT811_4_2,Length=0.016000000,Units=km
new line.RML10503674 bus1=BBT151468978.1.0,bus2=RML1060503674.1.0,Phases=1,Linecode=CABBTG02_4_1,Length=0.015000000,Units=km
new line.RML10508700 bus1=BBT156080473.1.2.0,bus2=RML1060508700.1.2.0,Phases=2,Linecode=CABBTG05_4_2,Length=0.015000000,Units=km
new line.RML10514408 bus1=BBT2121192.1.2.0,bus2=RML1060514408.1.2.0,Phases=2,Linecode=CABBTG05_4_2,Length=0.017000000,Units=km
new line.RML10520397 bus1=BBT1065242.1.0,bus2=RML1060520397.1.0,Phases=1,Linecode=CABBTG02_4_1,Length=0.015000000,Units=km
new line.RML10531678 bus1=BBT3013580.1.2.0,bus2=RML1060531678.1.2.0,Phases=2,Linecode=CABBTG05_4_2,Length=0.012000000,Units=km
new line.RML10534331 bus1=BBT154236693.1.2.0,bus2=RML1060534331.1.2.0,Phases=2,Linecode=CABBTG05_4_2,Length=0.017000000,Units=km
new line.RML10534675 bus1=BBT153860733.1.2.0,bus2=RML1060534675.1.2.0,Phases=2,Linecode=CABBTG05_4_2,Length=0.018000000,Units=km
new line.RML10537597 bus1=BBT156830242.1.2.0,bus2=RML1060537597.1.2.0,Phases=2,Linecode=CABBTG05_4_2,Length=0.015000000,Units=km
new line.RML10540941 bus1=BBT1069904.2.0,bus2=RML1060540941.2.0,Phases=1,Linecode=CABBT802_4_1,Length=0.015000000,Units=km
new line.RML10542700 bus1=BBT123997757.1.2.0,bus2=RML1060542700.1.2.0,Phases=2,Linecode=CABBTG04_4_2,Length=0.024000000,Units=km
new line.RML10543107 bus1=BBT154236693.1.2.0,bus2=RML1060543107.1.2.0,Phases=2,Linecode=CABBTG05_4_2,Length=0.012000000,Units=km
new line.RML10543476 bus1=BBT153940243.1.2.0,bus2=RML1060543476.1.2.0,Phases=2,Linecode=CABBTG05_4_2,Length=0.016000000,Units=km
new line.RML10548183 bus1=BBT123997001.2.0,bus2=RML1060548183.2.0,Phases=1,Linecode=CABBT802_4_1,Length=0.021000000,Units=km
new line.RML10552154 bus1=BBT157122775.3.0,bus2=RML1060552154.3.0,Phases=1,Linecode=CABBTG02_4_1,Length=0.011000000,Units=km
new line.RML10557016 bus1=BBT157205035.1.0,bus2=RML1060557016.1.0,Phases=1,Linecode=CABBTG02_4_1,Length=0.011000000,Units=km
new line.RML10557299 bus1=BBT1074041.1.2.0,bus2=RML1060557299.1.2.0,Phases=2,Linecode=CABBTG05_4_2,Length=0.028000000,Units=km
new line.RML10557581 bus1=BBT156869528.1.2.0,bus2=RML1060557581.1.2.0,Phases=2,Linecode=CABBTG05_4_2,Length=0.018000000,Units=km
new line.RML10558390 bus1=BBT155667938.1.2.0,bus2=RML1060558390.1.2.0,Phases=2,Linecode=CABBTG05_4_2,Length=0.017000000,Units=km
new line.RML10558800 bus1=BBT157277101.2.0,bus2=RML1060558800.2.0,Phases=1,Linecode=CABBTG02_4_1,Length=0.025000000,Units=km
new line.RML10560925 bus1=BBT1072375.1.0,bus2=RML1060560925.1.0,Phases=1,Linecode=CABBTG02_4_1,Length=0.020000000,Units=km
new line.RML10561000 bus1=BBT157243955.3.0,bus2=RML1060561000.3.0,Phases=1,Linecode=CABBTG02_4_1,Length=0.023000000,Units=km
new line.RML10563371 bus1=BBT153944547.1.2.0,bus2=RML1060563371.1.2.0,Phases=2,Linecode=CABBTG05_4_2,Length=0.016000000,Units=km
new line.RML10570328 bus1=BBT157496476.1.0,bus2=RML1060570328.1.0,Phases=1,Linecode=CABBTG02_4_1,Length=0.017000000,Units=km
new line.RML10571711 bus1=BBT151469156.1.0,bus2=RML1060571711.1.0,Phases=1,Linecode=CABBT802_4_1,Length=0.030000000,Units=km
new line.RML10573949 bus1=BBT157496475.2.0,bus2=RML1060573949.2.0,Phases=1,Linecode=CABBTG02_4_1,Length=0.015000000,Units=km
new line.RML10578101 bus1=BBT3015113.1.2.3.0,bus2=RML1060578101.1.2.3.0,Phases=3,Linecode=CABBTG06_4_3,Length=0.010000000,Units=km
new line.RML10580557 bus1=BBT1070009.1.0,bus2=RML1060580557.1.0,Phases=1,Linecode=CABBT802_4_1,Length=0.023000000,Units=km
new line.RML10581484 bus1=BBT157255901.2.0,bus2=RML1060581484.2.0,Phases=1,Linecode=CABBT802_4_1,Length=0.015000000,Units=km
new line.RML10583396 bus1=BBT1070562.2.0,bus2=RML1060583396.2.0,Phases=1,Linecode=CABBTG02_4_1,Length=0.008000000,Units=km
new line.RML10584623 bus1=BBT43215734.1.2.3.0,bus2=RML1060584623.1.2.3.0,Phases=3,Linecode=CABBT514_7_3,Length=0.010000000,Units=km
new line.RML10591420 bus1=BBT157978110.1.2.0,bus2=RML1060591420.1.2.0,Phases=2,Linecode=CABBTG05_4_2,Length=0.026000000,Units=km
new line.RML10598284 bus1=BBT157205035.1.0,bus2=RML1060598284.1.0,Phases=1,Linecode=CABBT802_4_1,Length=0.013000000,Units=km
new line.RML10598568 bus1=BBT156869528.1.2.0,bus2=RML1060598568.1.2.0,Phases=2,Linecode=CABBT811_4_2,Length=0.012000000,Units=km
new line.RML10600777 bus1=BBT2221089.1.2.0,bus2=RML1060600777.1.2.0,Phases=2,Linecode=CABBT811_4_2,Length=0.012000000,Units=km
new line.RML10603440 bus1=BBT158071546.1.2.0,bus2=RML1060603440.1.2.0,Phases=2,Linecode=CABBTG05_4_2,Length=0.030000000,Units=km
new line.RML10603451 bus1=BBT2132637.1.2.0,bus2=RML1060603451.1.2.0,Phases=2,Linecode=CABBTG13_4_2,Length=0.012000000,Units=km
new line.RML10609037 bus1=BBT157243972.1.0,bus2=RML1060609037.1.0,Phases=1,Linecode=CABBTG02_4_1,Length=0.014000000,Units=km
new line.RML10609039 bus1=BBT128337904.1.3.0,bus2=RML1060609039.1.3.0,Phases=2,Linecode=CABBTG05_4_2,Length=0.010000000,Units=km
new line.RML10609969 bus1=BBT3015337.1.2.0,bus2=RML1060609969.1.2.0,Phases=2,Linecode=CABBTG05_4_2,Length=0.016000000,Units=km
new line.RML10615045 bus1=BBT2853595.1.2.0,bus2=RML1060615045.1.2.0,Phases=2,Linecode=CABBTG05_4_2,Length=0.013000000,Units=km
new line.RML10616910 bus1=BBT1064276.1.2.0,bus2=RML1060616910.1.2.0,Phases=2,Linecode=CABBTG05_4_2,Length=0.018000000,Units=km
new line.RML10616912 bus1=BBT1070968.2.3.0,bus2=RML1060616912.2.3.0,Phases=2,Linecode=CABBTG05_4_2,Length=0.015000000,Units=km
new line.RML10616916 bus1=BBT151468978.1.2.0,bus2=RML1060616916.1.2.0,Phases=2,Linecode=CABBTG05_4_2,Length=0.016000000,Units=km
new line.RML10616921 bus1=BBT151469438.3.0,bus2=RML1060616921.3.0,Phases=1,Linecode=CABBTG02_4_1,Length=0.008000000,Units=km
new line.RML10619834 bus1=BBT1070583.2.0,bus2=RML1060619834.2.0,Phases=1,Linecode=CABBTG02_4_1,Length=0.015000000,Units=km
new line.RML10620156 bus1=BBT1070002.1.0,bus2=RML1060620156.1.0,Phases=1,Linecode=CABBTG02_4_1,Length=0.017000000,Units=km
new line.RML10620161 bus1=BBT2183184.2.0,bus2=RML1060620161.2.0,Phases=1,Linecode=CABBTG02_4_1,Length=0.015000000,Units=km
new line.RML10620212 bus1=BBT1248383.1.2.3.0,bus2=RML1060620212.1.2.3.0,Phases=3,Linecode=CABBTG06_4_3,Length=0.008000000,Units=km
new line.RML10632898 bus1=BBT124003406.2.0,bus2=RML1060632898.2.0,Phases=1,Linecode=CABBTG02_4_1,Length=0.010000000,Units=km
new line.RML10632903 bus1=BBT157833574.2.0,bus2=RML1060632903.2.0,Phases=1,Linecode=CABBTG02_4_1,Length=0.025000000,Units=km
new line.RML10633757 bus1=BBT157205017.2.0,bus2=RML1060633757.2.0,Phases=1,Linecode=CABBT802_4_1,Length=0.017000000,Units=km
new line.RML10638602 bus1=BBT124004505.3.0,bus2=RML1060638602.3.0,Phases=1,Linecode=CABBTG02_4_1,Length=0.010000000,Units=km
new line.RML10639487 bus1=BBT1069729.1.0,bus2=RML1060639487.1.0,Phases=1,Linecode=CABBTG02_4_1,Length=0.017000000,Units=km
new line.RML10639523 bus1=BBT1070604.2.0,bus2=RML1060639523.2.0,Phases=1,Linecode=CABBTG02_4_1,Length=0.017000000,Units=km
new line.RML10639524 bus1=BBT1072025.1.0,bus2=RML1060639524.1.0,Phases=1,Linecode=CABBTG02_4_1,Length=0.017000000,Units=km
new line.RML10639527 bus1=BBT1069813.1.2.0,bus2=RML1060639527.1.2.0,Phases=2,Linecode=CABBTG05_4_2,Length=0.017000000,Units=km
new line.RML10639528 bus1=BBT157277101.1.0,bus2=RML1060639528.1.0,Phases=1,Linecode=CABBTG02_4_1,Length=0.017000000,Units=km
new line.RML10641082 bus1=BBT1065368.3.0,bus2=RML1060641082.3.0,Phases=1,Linecode=CABBT802_4_1,Length=0.015000000,Units=km
new line.RML10644843 bus1=BBT2409459.2.0,bus2=RML1060644843.2.0,Phases=1,Linecode=CABBT802_4_1,Length=0.016000000,Units=km
new line.RML10647185 bus1=BBT1072389.3.0,bus2=RML1060647185.3.0,Phases=1,Linecode=CABBT802_4_1,Length=0.012000000,Units=km
new line.RML10647902 bus1=BBT1071759.3.0,bus2=RML1060647902.3.0,Phases=1,Linecode=CABBT802_4_1,Length=0.018000000,Units=km
new line.RML10647925 bus1=BBT159659636.1.2.0,bus2=RML1060647925.1.2.0,Phases=2,Linecode=CABBTG05_4_2,Length=0.012000000,Units=km
new line.RML10647981 bus1=BBT159662774.1.2.0,bus2=RML1060647981.1.2.0,Phases=2,Linecode=CABBTG05_4_2,Length=0.016000000,Units=km
new line.RML10648098 bus1=BBT159667003.1.2.0,bus2=RML1060648098.1.2.0,Phases=2,Linecode=CABBTG05_4_2,Length=0.024000000,Units=km
new line.RML10655858 bus1=BBT151469014.1.3.0,bus2=RML1060655858.1.3.0,Phases=2,Linecode=CABBTG05_4_2,Length=0.016000000,Units=km
new line.RML10659591 bus1=BBT1248341.1.2.3.0,bus2=RML1060659591.1.2.3.0,Phases=3,Linecode=CABBT813_4_3,Length=0.025000000,Units=km
new line.RML10659842 bus1=BBT1066019.1.2.3.0,bus2=RML1060659842.1.2.3.0,Phases=3,Linecode=CABBT803_4_3,Length=0.015000000,Units=km
new line.RML10664570 bus1=BBT1071080.1.2.0,bus2=RML1060664570.1.2.0,Phases=2,Linecode=CABBTG05_4_2,Length=0.017000000,Units=km
new line.RML10667298 bus1=BBT157833376.1.0,bus2=RML1060667298.1.0,Phases=1,Linecode=CABBTG02_4_1,Length=0.015000000,Units=km
new line.RML10669856 bus1=BBT1071290.1.2.0,bus2=RML1060669856.1.2.0,Phases=2,Linecode=CABBT801_4_2,Length=0.025000000,Units=km
new line.RML10669869 bus1=BBT157122775.1.0,bus2=RML1060669869.1.0,Phases=1,Linecode=CABBTG02_4_1,Length=0.013000000,Units=km
new line.RML10674871 bus1=BBT1064416.1.2.3.0,bus2=RML1060674871.1.2.3.0,Phases=3,Linecode=CABBTG06_4_3,Length=0.015000000,Units=km
new line.RML10675143 bus1=BBT1065704.1.2.0,bus2=RML1060675143.1.2.0,Phases=2,Linecode=CABBT811_4_2,Length=0.017000000,Units=km
new line.RML10675164 bus1=BBT157244006.1.0,bus2=RML1060675164.1.0,Phases=1,Linecode=CABBTG02_4_1,Length=0.017000000,Units=km
new line.RML10676117 bus1=BBT1071255.2.0,bus2=RML1060676117.2.0,Phases=1,Linecode=CABBT802_4_1,Length=0.012000000,Units=km
new line.RML10676218 bus1=BBT157833370.3.0,bus2=RML1060676218.3.0,Phases=1,Linecode=CABBT802_4_1,Length=0.012000000,Units=km
new line.RML10681500 bus1=BBT123998765.2.3.0,bus2=RML1060681500.2.3.0,Phases=2,Linecode=CABBTG05_4_2,Length=0.014000000,Units=km
new line.RML10685054 bus1=BBT124003406.1.2.0,bus2=RML1060685054.1.2.0,Phases=2,Linecode=CABBT811_4_2,Length=0.015000000,Units=km
new line.RML10686461 bus1=BBT1246150.2.0,bus2=RML1060686461.2.0,Phases=1,Linecode=CABBT802_4_1,Length=0.014000000,Units=km
new line.RML10686491 bus1=BBT157833560.1.0,bus2=RML1060686491.1.0,Phases=1,Linecode=CABBT802_4_1,Length=0.013000000,Units=km
new line.RML10687136 bus1=BBT151468304.2.0,bus2=RML1060687136.2.0,Phases=1,Linecode=CABBT802_4_1,Length=0.016000000,Units=km
new line.RML10694755 bus1=BBT123997008.2.3.0,bus2=RML1060694755.2.3.0,Phases=2,Linecode=CABBTG05_4_2,Length=0.007000000,Units=km
new line.RML10694758 bus1=BBT157833337.3.0,bus2=RML1060694758.3.0,Phases=1,Linecode=CABBT802_4_1,Length=0.008000000,Units=km
new line.RML10697787 bus1=BBT1065690.1.2.0,bus2=RML1060697787.1.2.0,Phases=2,Linecode=CABBT811_4_2,Length=0.015000000,Units=km
new line.RML10709414 bus1=BBT3015120.2.3.0,bus2=RML1060709414.2.3.0,Phases=2,Linecode=CABBTG05_4_2,Length=0.012000000,Units=km
new line.RML10709778 bus1=BBT1071248.1.0,bus2=RML1060709778.1.0,Phases=1,Linecode=CABBT802_4_1,Length=0.017000000,Units=km