new line.11055493 bus1=BBT2704922.1.2.0,bus2=BBT2704929.1.2.0,Phases=2,Linecode=BT316_BT316_7_2_1,Length=0.000501000,Units=km
new line.11059637 bus1=BBT2705706.1.2.0,bus2=BBT2705713.1.2.0,Phases=2,Linecode=BT518_BT518_7_2_1,Length=0.000501000,Units=km
new line.11059644 bus1=BBT2705713.1.2.0,bus2=BBT2705734.1.2.0,Phases=2,Linecode=BT808_BT808_4_2_3,Length=0.057087000,Units=km
new line.11059651 bus1=BBT2705713.1.2.0,bus2=BBT3444962.1.2.0,Phases=2,Linecode=BT808_BT808_4_2_3,Length=0.042492000,Units=km
new line.11059693 bus1=BBT2705720.1.2.0,bus2=BBT2705727.1.2.0,Phases=2,Linecode=BT808_BT808_4_2_3,Length=0.038839000,Units=km
new line.11060603 bus1=BBT2705909.1.2.0,bus2=BBT2705916.1.2.0,Phases=2,Linecode=BT518_BT518_7_2_1,Length=0.000501000,Units=km
new line.11062031 bus1=BBT2706084.1.2.0,bus2=BBT2706091.1.2.0,Phases=2,Linecode=BT316_BT316_7_2_1,Length=0.000501000,Units=km
new line.11170776 bus1=BBT2718446.1.2.0,bus2=BBT2718453.1.2.0,Phases=2,Linecode=BT808_BT808_4_2_3,Length=0.060381000,Units=km
new line.11170797 bus1=BBT2718453.1.2.0,bus2=BBT2718460.1.2.0,Phases=2,Linecode=BT808_BT808_4_2_3,Length=0.061334000,Units=km
new line.11659502 bus1=BBT2797994.1.2.0,bus2=BBT2798001.1.2.0,Phases=2,Linecode=BT316_BT316_7_2_1,Length=0.000501000,Units=km
new line.11660265 bus1=BBT2798267.1.2.0,bus2=BBT2798274.1.2.0,Phases=2,Linecode=BT316_BT316_7_2_1,Length=0.000501000,Units=km
new line.11667209 bus1=BBT2799394.1.2.0,bus2=BBT2799401.1.2.0,Phases=2,Linecode=BT316_BT316_7_2_1,Length=0.000501000,Units=km
new line.11671927 bus1=BBT2800304.1.2.0,bus2=BBT2800311.1.2.0,Phases=2,Linecode=BT316_BT316_7_2_1,Length=0.000501000,Units=km
new line.11672662 bus1=BBT2800689.1.2.0,bus2=BBT2800696.1.2.0,Phases=2,Linecode=BT521_BT521_7_2_1,Length=0.000501000,Units=km
new line.11976826 bus1=BBT161108181.1.2.3.0,bus2=BBT2853595.1.2.3.0,Phases=3,Linecode=BT803_BT803_4_3_4,Length=0.019701000,Units=km
new line.11976847 bus1=BBT161108953.1.2.3.0,bus2=BBT32306528.1.2.3.0,Phases=3,Linecode=BT803_BT803_4_3_4,Length=0.023004000,Units=km
new line.12193938 bus1=BBT2893971.1.2.0,bus2=BBT2893978.1.2.0,Phases=2,Linecode=BT316_BT316_7_2_1,Length=0.000501000,Units=km
new line.12195247 bus1=BBT2894041.1.2.0,bus2=BBT2894048.1.2.0,Phases=2,Linecode=BT518_BT518_7_2_1,Length=0.000501000,Units=km
new line.12195254 bus1=BBT2894048.1.2.0,bus2=BBT2894055.1.2.0,Phases=2,Linecode=BT808_BT808_4_2_3,Length=0.041237000,Units=km
new line.12199615 bus1=BBT2898157.1.2.0,bus2=BBT2898164.1.2.0,Phases=2,Linecode=BT513_BT513_7_2_1,Length=0.000501000,Units=km
new line.12523484 bus1=BBT2969571.1.2.0,bus2=BBT2969578.1.2.0,Phases=2,Linecode=BT316_BT316_7_2_1,Length=0.000501000,Units=km
new line.12523505 bus1=BBT2969585.1.2.0,bus2=BBT2969592.1.2.0,Phases=2,Linecode=BT316_BT316_7_2_1,Length=0.000501000,Units=km
new line.12523512 bus1=BBT2969592.1.2.0,bus2=BBT3590023.1.2.0,Phases=2,Linecode=BT808_BT808_4_2_3,Length=0.035062000,Units=km
new line.12685520 bus1=BBT3013573.1.2.3.0,bus2=BBT3013580.1.2.3.0,Phases=3,Linecode=BT810_BT810_4_3_4,Length=0.028165000,Units=km
new line.12685527 bus1=BBT3013573.1.2.3.0,bus2=BBT3015120.1.2.3.0,Phases=3,Linecode=BT810_BT810_4_3_4,Length=0.029073000,Units=km
new line.12685548 bus1=BBT3013580.1.2.3.0,bus2=BBT3013587.1.2.3.0,Phases=3,Linecode=BT810_BT810_4_3_4,Length=0.028165000,Units=km
new line.12686416 bus1=BBT3015113.1.2.3.0,bus2=BBT3015141.1.2.3.0,Phases=3,Linecode=BT810_BT810_4_3_4,Length=0.030071000,Units=km
new line.12686423 bus1=BBT3015113.1.2.3.0,bus2=BBT3015127.1.2.3.0,Phases=3,Linecode=BT810_BT810_4_3_4,Length=0.027170000,Units=km
new line.12691883 bus1=BBT3015337.1.2.3.0,bus2=BBT3015358.1.2.3.0,Phases=3,Linecode=BT810_BT810_4_3_4,Length=0.027023000,Units=km
new line.12691890 bus1=BBT3015337.1.2.3.0,bus2=BBT3015344.1.2.3.0,Phases=3,Linecode=BT803_BT803_4_3_4,Length=0.035063000,Units=km
new line.12691911 bus1=BBT3015330.1.2.3.0,bus2=BBT3015337.1.2.3.0,Phases=3,Linecode=BT803_BT803_4_3_4,Length=0.025024000,Units=km
new line.12691932 bus1=BBT3015323.1.2.3.0,bus2=BBT3015330.1.2.3.0,Phases=3,Linecode=BT803_BT803_4_3_4,Length=0.025004000,Units=km
new line.12691974 bus1=BBT3015344.1.2.3.0,bus2=BBT3015351.1.2.3.0,Phases=3,Linecode=BT803_BT803_4_3_4,Length=0.035005000,Units=km
new line.12691995 bus1=BBT3015351.1.2.3.0,bus2=BBT3015379.1.2.3.0,Phases=3,Linecode=BT810_BT810_4_3_4,Length=0.035005000,Units=km
new line.12692121 bus1=BBT3015400.1.2.3.0,bus2=BBT3015407.1.2.3.0,Phases=3,Linecode=BT810_BT810_4_3_4,Length=0.032254000,Units=km
new line.12692142 bus1=BBT3015407.1.2.3.0,bus2=BBT3015414.1.2.3.0,Phases=3,Linecode=BT810_BT810_4_3_4,Length=0.028076000,Units=km
new line.12692156 bus1=BBT3015414.1.2.3.0,bus2=BBT3015421.1.2.3.0,Phases=3,Linecode=BT810_BT810_4_3_4,Length=0.026081000,Units=km
new line.12692170 bus1=BBT3015379.1.2.3.0,bus2=BBT3015386.1.2.3.0,Phases=3,Linecode=BT810_BT810_4_3_4,Length=0.029005000,Units=km
new line.12696342 bus1=BBT3017920.1.2.0,bus2=BBT3017927.1.2.0,Phases=2,Linecode=BT316_BT316_7_2_1,Length=0.000501000,Units=km
new line.13115054 bus1=BBT3298949.1.2.0,bus2=BBT3298956.1.2.0,Phases=2,Linecode=BT513_BT513_7_2_1,Length=0.000501000,Units=km
new line.13117287 bus1=BBT3301392.1.2.0,bus2=BBT3301399.1.2.0,Phases=2,Linecode=BT316_BT316_7_2_1,Length=0.000501000,Units=km
new line.13119093 bus1=BBT3302071.1.2.0,bus2=BBT3302078.1.2.0,Phases=2,Linecode=BT518_BT518_7_2_1,Length=0.000501000,Units=km
new line.13119100 bus1=BBT3302078.1.2.0,bus2=BBT3302085.1.2.0,Phases=2,Linecode=BT814_BT814_4_2_3,Length=0.021192000,Units=km
new line.13119296 bus1=BBT3302155.1.2.0,bus2=BBT3302162.1.2.0,Phases=2,Linecode=BT316_BT316_7_2_1,Length=0.000501000,Units=km
new line.13119527 bus1=BBT3302295.2.0,bus2=BBT3302302.2.0,Phases=1,Linecode=BT816_BT816_4_1_2,Length=0.058144000,Units=km
new line.13119611 bus1=BBT3302729.1.2.0,bus2=BBT3302736.1.2.0,Phases=2,Linecode=BT316_BT316_7_2_1,Length=0.000501000,Units=km
new line.13119632 bus1=BBT3302393.1.2.0,bus2=BBT3302400.1.2.0,Phases=2,Linecode=BT513_BT513_7_2_1,Length=0.000501000,Units=km
new line.13120010 bus1=BBT3303590.1.2.0,bus2=BBT3303597.1.2.0,Phases=2,Linecode=BT316_BT316_7_2_1,Length=0.000501000,Units=km
new line.13120087 bus1=BBT3303604.1.2.0,bus2=BBT3303611.1.2.0,Phases=2,Linecode=BT316_BT316_7_2_1,Length=0.000501000,Units=km
new line.13240284 bus1=BBT3432831.1.3.0,bus2=BBT29669481.1.3.0,Phases=2,Linecode=BT808_BT808_4_2_3,Length=0.032655000,Units=km
new line.13240305 bus1=BBT3432817.1.2.3.0,bus2=BBT1070548.1.2.3.0,Phases=3,Linecode=BT108_BT107_7_3_1,Length=0.010442000,Units=km
new line.13240312 bus1=BBT3432817.1.3.0,bus2=BBT3432824.1.3.0,Phases=2,Linecode=BT107_BT107_7_2_1,Length=0.009221000,Units=km
new line.13240319 bus1=BBT3432817.1.3.0,bus2=BBT3432831.1.3.0,Phases=2,Linecode=BT107_BT107_7_2_1,Length=0.036680000,Units=km
new line.16399629 bus1=BBT23339465.1.2.0,bus2=BBT23339472.1.2.0,Phases=2,Linecode=BT316_BT316_7_2_1,Length=0.000501000,Units=km
new line.16399636 bus1=BBT23339269.1.2.0,bus2=BBT23339276.1.2.0,Phases=2,Linecode=BT304_BT304_7_2_1,Length=0.000501000,Units=km
new line.17353715 bus1=BBT61677254.1.2.0,bus2=BBT61682462.1.2.0,Phases=2,Linecode=BT814_BT814_4_2_3,Length=0.021958000,Units=km
new line.17926063 bus1=BBT93457254.1.2.0,bus2=BBT93457261.1.2.0,Phases=2,Linecode=BT519_BT519_7_2_1,Length=0.000501000,Units=km
new line.10727956 bus1=BBT2661424.1.2.0,bus2=BBT2661431.1.2.0,Phases=2,Linecode=BT519_BT519_7_2_1,Length=0.000501000,Units=km
new line.10727970 bus1=BBT2661438.1.2.0,bus2=BBT2661445.1.2.0,Phases=2,Linecode=BT519_BT519_7_2_1,Length=0.000501000,Units=km
new line.10738176 bus1=BBT2662383.1.2.0,bus2=BBT2662390.1.2.0,Phases=2,Linecode=BT317_BT317_7_2_1,Length=0.000501000,Units=km
new line.11027220 bus1=BBT2701646.1.2.0,bus2=BBT2701653.1.2.0,Phases=2,Linecode=BT316_BT316_7_2_1,Length=0.000501000,Units=km
new line.11314199 bus1=BBT2739544.1.2.0,bus2=BBT2739551.1.2.0,Phases=2,Linecode=BT513_BT513_7_2_1,Length=0.000501000,Units=km
new line.11314206 bus1=BBT2739551.1.2.0,bus2=BBT2739558.1.2.0,Phases=2,Linecode=BT807_BT807_4_2_3,Length=0.039450000,Units=km
new line.12180631 bus1=BBT2892438.1.2.0,bus2=BBT2892445.1.2.0,Phases=2,Linecode=BT316_BT316_7_2_1,Length=0.000501000,Units=km
new line.12490766 bus1=BBT2960401.1.2.0,bus2=BBT2960408.1.2.0,Phases=2,Linecode=BT316_BT316_7_2_1,Length=0.000501000,Units=km
new line.12490822 bus1=BBT2960387.1.2.0,bus2=BBT2960394.1.2.0,Phases=2,Linecode=BT316_BT316_7_2_1,Length=0.000501000,Units=km
new line.12806774 bus1=BBT3051569.1.2.0,bus2=BBT3051576.1.2.0,Phases=2,Linecode=BT513_BT513_7_2_1,Length=0.000501000,Units=km
new line.12806809 bus1=BBT3051583.1.2.0,bus2=BBT3051590.1.2.0,Phases=2,Linecode=BT316_BT316_7_2_1,Length=0.000501000,Units=km
new line.12819325 bus1=BBT3058555.1.2.0,bus2=BBT3058562.1.2.0,Phases=2,Linecode=BT304_BT304_7_2_1,Length=0.000501000,Units=km
new line.13414962 bus1=BBT3889049.1.2.3.0,bus2=BBT3889056.1.2.3.0,Phases=3,Linecode=BT308_BT308_7_3_1,Length=0.000501000,Units=km
new line.16322244 bus1=BBT20285526.1.2.0,bus2=BBT20285533.1.2.0,Phases=2,Linecode=BT316_BT316_7_2_1,Length=0.000501000,Units=km
new line.17334794 bus1=BBT65931574.1.2.0,bus2=BBT65931581.1.2.0,Phases=2,Linecode=BT505_BT505_7_2_1,Length=0.000501000,Units=km
new line.17983092 bus1=BBT1064451.1.2.3.0,bus2=BBT112865559.1.2.3.0,Phases=3,Linecode=BT803_BT803_4_3_4,Length=0.014869000,Units=km
new line.17983099 bus1=BBT157833579.1.2.3.0,bus2=BBT112865566.1.2.3.0,Phases=3,Linecode=BT803_BT803_4_3_4,Length=0.043088000,Units=km
new line.18651305 bus1=BBT138727584.1.2.3.0,bus2=BBT1070646.1.2.3.0,Phases=3,Linecode=BT803_BT803_4_3_4,Length=0.019650000,Units=km
new line.18799892 bus1=BBT151468303.1.2.3.0,bus2=BBT151468304.1.2.3.0,Phases=3,Linecode=BT518_BT518_7_3_1,Length=0.000501000,Units=km
new line.18799893 bus1=BBT151468304.1.2.3.0,bus2=BBT151468350.1.2.3.0,Phases=3,Linecode=BT803_BT803_4_3_4,Length=0.021958000,Units=km
new line.18799895 bus1=BBT151468304.1.2.3.0,bus2=BBT151468364.1.2.3.0,Phases=3,Linecode=BT803_BT803_4_3_4,Length=0.021637000,Units=km
new line.18799896 bus1=BBT151468365.1.2.3.0,bus2=BBT157496472.1.2.3.0,Phases=3,Linecode=BT803_BT803_4_3_4,Length=0.031069000,Units=km
new line.18799897 bus1=BBT151468366.1.2.3.0,bus2=BBT151468365.1.2.3.0,Phases=3,Linecode=BT803_BT803_4_3_4,Length=0.040503000,Units=km
new line.18799898 bus1=BBT151468350.1.2.3.0,bus2=BBT151468367.1.2.3.0,Phases=3,Linecode=BT803_BT803_4_3_4,Length=0.036897000,Units=km
new line.18799899 bus1=BBT151468367.1.2.3.0,bus2=BBT151468375.1.2.3.0,Phases=3,Linecode=BT803_BT803_4_3_4,Length=0.030533000,Units=km
new line.18799901 bus1=BBT151468903.1.2.3.0,bus2=BBT151468904.1.2.3.0,Phases=3,Linecode=BT518_BT518_7_3_1,Length=0.000501000,Units=km
new line.18799903 bus1=BBT1071983.1.2.3.0,bus2=BBT151468933.1.2.3.0,Phases=3,Linecode=BT803_BT803_4_3_4,Length=0.029416000,Units=km
new line.18799904 bus1=BBT151468933.1.2.3.0,bus2=BBT151468958.1.2.3.0,Phases=3,Linecode=BT803_BT803_4_3_4,Length=0.034675000,Units=km
new line.18799905 bus1=BBT151468958.1.2.3.0,bus2=BBT151468968.1.2.3.0,Phases=3,Linecode=BT803_BT803_4_3_4,Length=0.028306000,Units=km
new line.18799906 bus1=BBT151468904.1.2.3.0,bus2=BBT151468975.1.2.3.0,Phases=3,Linecode=BT803_BT803_4_3_4,Length=0.044951000,Units=km
new line.18799907 bus1=BBT151468975.1.2.3.0,bus2=BBT151468978.1.2.3.0,Phases=3,Linecode=BT803_BT803_4_3_4,Length=0.036061000,Units=km
new line.18799908 bus1=BBT151468978.1.2.3.0,bus2=BBT151468986.1.2.3.0,Phases=3,Linecode=BT803_BT803_4_3_4,Length=0.031069000,Units=km
new line.18799909 bus1=BBT151468904.1.2.3.0,bus2=BBT151468987.1.2.3.0,Phases=3,Linecode=BT803_BT803_4_3_4,Length=0.030533000,Units=km
new line.18799910 bus1=BBT151468987.1.2.3.0,bus2=BBT151469006.1.2.3.0,Phases=3,Linecode=BT803_BT803_4_3_4,Length=0.031911000,Units=km
new line.18799911 bus1=BBT151469006.1.2.3.0,bus2=BBT151469014.1.2.3.0,Phases=3,Linecode=BT803_BT803_4_3_4,Length=0.028022000,Units=km
new line.18799912 bus1=BBT151469014.1.2.3.0,bus2=BBT151469062.1.2.3.0,Phases=3,Linecode=BT803_BT803_4_3_4,Length=0.028306000,Units=km
new line.18799914 bus1=BBT151468975.1.2.3.0,bus2=BBT151469156.1.2.3.0,Phases=3,Linecode=BT803_BT803_4_3_4,Length=0.021474000,Units=km
new line.18799915 bus1=BBT151469156.1.2.3.0,bus2=BBT151469157.1.2.3.0,Phases=3,Linecode=BT803_BT803_4_3_4,Length=0.023858000,Units=km
new line.18799916 bus1=BBT151469157.1.2.3.0,bus2=BBT151469158.1.2.3.0,Phases=3,Linecode=BT803_BT803_4_3_4,Length=0.039667000,Units=km
new line.18799917 bus1=BBT151469158.1.2.3.0,bus2=BBT151469159.1.2.3.0,Phases=3,Linecode=BT803_BT803_4_3_4,Length=0.044951000,Units=km
new line.18799920 bus1=BBT151468958.1.2.3.0,bus2=BBT151469438.1.2.3.0,Phases=3,Linecode=BT803_BT803_4_3_4,Length=0.020252000,Units=km
new line.18991672 bus1=BBT151468350.1.2.3.0,bus2=BBT157205017.1.2.3.0,Phases=3,Linecode=BT803_BT803_4_3_4,Length=0.030237000,Units=km
new line.18991673 bus1=BBT157205017.1.2.3.0,bus2=BBT157205018.1.2.3.0,Phases=3,Linecode=BT803_BT803_4_3_4,Length=0.040503000,Units=km
new line.18991674 bus1=BBT157205018.1.2.3.0,bus2=BBT157205023.1.2.3.0,Phases=3,Linecode=BT803_BT803_4_3_4,Length=0.039667000,Units=km
new line.18991675 bus1=BBT157205023.1.2.3.0,bus2=BBT157205035.1.2.3.0,Phases=3,Linecode=BT803_BT803_4_3_4,Length=0.039969000,Units=km
new line.18992867 bus1=BBT157243562.1.2.3.0,bus2=BBT157243563.1.2.3.0,Phases=3,Linecode=BT518_BT518_7_3_1,Length=0.000501000,Units=km
new line.18992905 bus1=BBT157243563.1.2.3.0,bus2=BBT157243953.1.2.3.0,Phases=3,Linecode=BT803_BT803_4_3_4,Length=0.042445000,Units=km
new line.18992906 bus1=BBT157243953.1.2.3.0,bus2=BBT157243954.1.2.3.0,Phases=3,Linecode=BT803_BT803_4_3_4,Length=0.031895000,Units=km
new line.18992907 bus1=BBT157243954.1.2.3.0,bus2=BBT157243955.1.2.3.0,Phases=3,Linecode=BT803_BT803_4_3_4,Length=0.039629000,Units=km
new line.18992908 bus1=BBT157243563.1.2.3.0,bus2=BBT157243971.1.2.3.0,Phases=3,Linecode=BT803_BT803_4_3_4,Length=0.028849000,Units=km
new line.18992909 bus1=BBT157243971.1.2.3.0,bus2=BBT157243972.1.2.3.0,Phases=3,Linecode=BT803_BT803_4_3_4,Length=0.037221000,Units=km
new line.18992910 bus1=BBT151468350.1.2.3.0,bus2=BBT157243975.1.2.3.0,Phases=3,Linecode=BT803_BT803_4_3_4,Length=0.034415000,Units=km
new line.18992914 bus1=BBT157243972.1.2.3.0,bus2=BBT157244006.1.2.3.0,Phases=3,Linecode=BT803_BT803_4_3_4,Length=0.036365000,Units=km
new line.18993479 bus1=BBT157243975.1.2.3.0,bus2=BBT157255878.1.2.3.0,Phases=3,Linecode=BT803_BT803_4_3_4,Length=0.031895000,Units=km
new line.18993483 bus1=BBT157255878.1.2.3.0,bus2=BBT157255901.1.2.3.0,Phases=3,Linecode=BT803_BT803_4_3_4,Length=0.024087000,Units=km
new line.10718198 bus1=BBT2875036.1.2.0,bus2=BBT2875043.1.2.0,Phases=2,Linecode=BT521_BT521_7_2_1,Length=0.000501000,Units=km
new line.11007032 bus1=BBT2699819.1.2.0,bus2=BBT2699826.1.2.0,Phases=2,Linecode=BT316_BT316_7_2_1,Length=0.000501000,Units=km
new line.11496157 bus1=BBT2772563.1.2.0,bus2=BBT2772570.1.2.0,Phases=2,Linecode=BT316_BT316_7_2_1,Length=0.000501000,Units=km
new line.11496164 bus1=BBT2772577.1.2.0,bus2=BBT2772584.1.2.0,Phases=2,Linecode=BT316_BT316_7_2_1,Length=0.000501000,Units=km
new line.12155830 bus1=BBT2888070.1.2.0,bus2=BBT2888077.1.2.0,Phases=2,Linecode=BT521_BT521_7_2_1,Length=0.000501000,Units=km
new line.12712372 bus1=BBT3022967.1.2.0,bus2=BBT3022974.1.2.0,Phases=2,Linecode=BT316_BT316_7_2_1,Length=0.000501000,Units=km
new line.12720590 bus1=BBT3024906.1.2.0,bus2=BBT3024913.1.2.0,Phases=2,Linecode=BT316_BT316_7_2_1,Length=0.000501000,Units=km
new line.12720611 bus1=BBT3024920.1.2.0,bus2=BBT3024927.1.2.0,Phases=2,Linecode=BT513_BT513_7_2_1,Length=0.000501000,Units=km
new line.13037123 bus1=BBT3206955.1.2.0,bus2=BBT1063793.1.2.0,Phases=2,Linecode=BT808_BT808_4_2_3,Length=0.055224000,Units=km
new line.13037137 bus1=BBT3206962.1.2.0,bus2=BBT3206955.1.2.0,Phases=2,Linecode=BT808_BT808_4_2_3,Length=0.056442000,Units=km
new line.13037144 bus1=BBT1063786.1.2.0,bus2=BBT3206962.1.2.0,Phases=2,Linecode=BT307_BT307_7_2_1,Length=0.000501000,Units=km
new line.13037151 bus1=BBT3206962.1.2.0,bus2=BBT3206969.1.2.0,Phases=2,Linecode=BT808_BT808_4_2_3,Length=0.050255000,Units=km
new line.13037172 bus1=BBT3206969.1.2.0,bus2=BBT3206976.1.2.0,Phases=2,Linecode=BT808_BT808_4_2_3,Length=0.055612000,Units=km
new line.13037200 bus1=BBT3206976.1.2.0,bus2=BBT3242529.1.2.0,Phases=2,Linecode=BT808_BT808_4_2_3,Length=0.032392000,Units=km
new line.13037277 bus1=BBT3206990.1.2.0,bus2=BBT3206997.1.2.0,Phases=2,Linecode=BT316_BT316_7_2_1,Length=0.000501000,Units=km
new line.13649161 bus1=BBT4601089.1.2.3.0,bus2=BBT4601096.1.2.3.0,Phases=3,Linecode=BT308_BT308_7_3_1,Length=0.000501000,Units=km
new line.13660375 bus1=BBT4629418.1.2.3.0,bus2=BBT4629425.1.2.3.0,Phases=3,Linecode=BT509_BT509_7_3_1,Length=0.000501000,Units=km
new line.16999578 bus1=BBT43141933.1.2.0,bus2=BBT43141940.1.2.0,Phases=2,Linecode=BT304_BT304_7_2_1,Length=0.000501000,Units=km
new line.17000180 bus1=BBT43163108.1.2.0,bus2=BBT43163115.1.2.0,Phases=2,Linecode=BT304_BT304_7_2_1,Length=0.000501000,Units=km
new line.17419011 bus1=BBT70347251.1.2.0,bus2=BBT70347258.1.2.0,Phases=2,Linecode=BT304_BT304_7_2_1,Length=0.000501000,Units=km
new line.17419228 bus1=BBT70351192.1.2.0,bus2=BBT70351199.1.2.0,Phases=2,Linecode=BT304_BT304_7_2_1,Length=0.000501000,Units=km
new line.17419375 bus1=BBT70358668.1.2.0,bus2=BBT70358675.1.2.0,Phases=2,Linecode=BT304_BT304_7_2_1,Length=0.000501000,Units=km
new line.17419459 bus1=BBT70382524.1.2.0,bus2=BBT70382531.1.2.0,Phases=2,Linecode=BT304_BT304_7_2_1,Length=0.000501000,Units=km
new line.17428951 bus1=BBT69123812.1.2.0,bus2=BBT69123819.1.2.0,Phases=2,Linecode=BT307_BT307_7_2_1,Length=0.000501000,Units=km
new line.18014305 bus1=BBT118336619.1.2.0,bus2=BBT118336626.1.2.0,Phases=2,Linecode=BT518_BT518_7_2_1,Length=0.000501000,Units=km
new line.18382414 bus1=BBT123994033.1.2.3.0,bus2=BBT123994040.1.2.3.0,Phases=3,Linecode=BT518_BT518_7_3_1,Length=0.000501000,Units=km
new line.18382526 bus1=BBT123994040.1.2.3.0,bus2=BBT123995972.1.2.3.0,Phases=3,Linecode=BT803_BT803_4_3_4,Length=0.027591000,Units=km
new line.18382533 bus1=BBT123994040.1.2.3.0,bus2=BBT123996371.1.2.3.0,Phases=3,Linecode=BT803_BT803_4_3_4,Length=0.031150000,Units=km
new line.18382547 bus1=BBT123996371.1.2.3.0,bus2=BBT123996497.1.2.3.0,Phases=3,Linecode=BT810_BT810_4_3_4,Length=0.029703000,Units=km
new line.18382575 bus1=BBT123996371.1.2.3.0,bus2=BBT123996693.1.2.3.0,Phases=3,Linecode=BT810_BT810_4_3_4,Length=0.041875000,Units=km
new line.18382589 bus1=BBT123995972.1.2.3.0,bus2=BBT123996910.1.2.3.0,Phases=3,Linecode=BT810_BT810_4_3_4,Length=0.019853000,Units=km
new line.18382603 bus1=BBT123996910.1.2.3.0,bus2=BBT123997001.1.2.3.0,Phases=3,Linecode=BT810_BT810_4_3_4,Length=0.029073000,Units=km
new line.18382610 bus1=BBT123997001.1.2.3.0,bus2=BBT123997008.1.2.3.0,Phases=3,Linecode=BT810_BT810_4_3_4,Length=0.024087000,Units=km
new line.18382624 bus1=BBT123997008.1.2.3.0,bus2=BBT123998765.1.2.3.0,Phases=3,Linecode=BT810_BT810_4_3_4,Length=0.030615000,Units=km
new line.18382645 bus1=BBT123995972.1.2.3.0,bus2=BBT123997106.1.2.3.0,Phases=3,Linecode=BT810_BT810_4_3_4,Length=0.031150000,Units=km
new line.18382666 bus1=BBT123997106.1.2.3.0,bus2=BBT123997288.1.2.3.0,Phases=3,Linecode=BT810_BT810_4_3_4,Length=0.018114000,Units=km
new line.18382743 bus1=BBT123997288.1.2.3.0,bus2=BBT123997757.1.2.3.0,Phases=3,Linecode=BT810_BT810_4_3_4,Length=0.039604000,Units=km
new line.18382757 bus1=BBT123997757.1.2.3.0,bus2=BBT123997981.1.2.3.0,Phases=3,Linecode=BT810_BT810_4_3_4,Length=0.041732000,Units=km
new line.18382799 bus1=BBT123998128.1.2.3.0,bus2=BBT128337904.1.2.3.0,Phases=3,Linecode=BT810_BT810_4_3_4,Length=0.018977000,Units=km
new line.18382827 bus1=BBT123998765.1.2.3.0,bus2=BBT123998128.1.2.3.0,Phases=3,Linecode=BT810_BT810_4_3_4,Length=0.036241000,Units=km
new line.18382855 bus1=BBT123998765.1.2.3.0,bus2=BBT123999829.1.2.3.0,Phases=3,Linecode=BT810_BT810_4_3_4,Length=0.043938000,Units=km
new line.18382946 bus1=BBT123997001.1.2.3.0,bus2=BBT124000991.1.2.3.0,Phases=3,Linecode=BT810_BT810_4_3_4,Length=0.036802000,Units=km
new line.18382995 bus1=BBT123996693.1.2.3.0,bus2=BBT124001985.1.2.3.0,Phases=3,Linecode=BT810_BT810_4_3_4,Length=0.007213000,Units=km
new line.18383058 bus1=BBT124001985.1.2.3.0,bus2=BBT124002391.1.2.3.0,Phases=3,Linecode=BT810_BT810_4_3_4,Length=0.024417000,Units=km
new line.18383072 bus1=BBT124001985.1.2.3.0,bus2=BBT124003210.1.2.3.0,Phases=3,Linecode=BT810_BT810_4_3_4,Length=0.020522000,Units=km
new line.18383086 bus1=BBT124001985.1.2.3.0,bus2=BBT124003406.1.2.3.0,Phases=3,Linecode=BT810_BT810_4_3_4,Length=0.037808000,Units=km
new line.18383114 bus1=BBT124003406.1.2.3.0,bus2=BBT124004456.1.2.3.0,Phases=3,Linecode=BT810_BT810_4_3_4,Length=0.017032000,Units=km
new line.18383121 bus1=BBT124004456.1.2.3.0,bus2=BBT124004463.1.2.3.0,Phases=3,Linecode=BT810_BT810_4_3_4,Length=0.034211000,Units=km
new line.18383128 bus1=BBT124004456.1.2.3.0,bus2=BBT124004498.1.2.3.0,Phases=3,Linecode=BT810_BT810_4_3_4,Length=0.027591000,Units=km
new line.18383135 bus1=BBT124004498.1.2.3.0,bus2=BBT124004505.1.2.3.0,Phases=3,Linecode=BT810_BT810_4_3_4,Length=0.031770000,Units=km
new line.18383142 bus1=BBT124004456.1.2.3.0,bus2=BBT124004603.1.2.3.0,Phases=3,Linecode=BT810_BT810_4_3_4,Length=0.012044000,Units=km
new line.18383191 bus1=BBT123997106.1.2.3.0,bus2=BBT124005485.1.2.3.0,Phases=3,Linecode=BT810_BT810_4_3_4,Length=0.036802000,Units=km
new line.19046812 bus1=BBT158780223.1.2.3.0,bus2=BBT2315449.1.2.3.0,Phases=3,Linecode=BT518_BT518_7_3_1,Length=0.000501000,Units=km
new line.19112246 bus1=BBT161108180.1.2.3.0,bus2=BBT161108181.1.2.3.0,Phases=3,Linecode=BT513_BT513_7_3_1,Length=0.000501000,Units=km
new line.19112251 bus1=BBT161108181.1.2.3.0,bus2=BBT161108360.1.2.3.0,Phases=3,Linecode=BT803_BT803_4_3_4,Length=0.022476000,Units=km
new line.18994143 bus1=BBT151469157.1.2.3.0,bus2=BBT157277101.1.2.3.0,Phases=3,Linecode=BT803_BT803_4_3_4,Length=0.036061000,Units=km
new line.19130156 bus1=BBT161714233.1.2.0,bus2=BBT161714234.1.2.0,Phases=2,Linecode=BT518_BT518_7_2_1,Length=0.000501000,Units=km
new line.19130453 bus1=BBT1066159.1.2.0,bus2=BBT161721688.1.2.0,Phases=2,Linecode=BT807_BT807_4_2_3,Length=0.032020000,Units=km
new line.19130454 bus1=BBT161721688.1.2.0,bus2=BBT161721689.1.2.0,Phases=2,Linecode=BT807_BT807_4_2_3,Length=0.024763000,Units=km
new line.19200441 bus1=BBT164526053.1.2.3.0,bus2=BBT164526054.1.2.3.0,Phases=3,Linecode=BT513_BT513_7_3_1,Length=0.000501000,Units=km
new line.19200443 bus1=BBT164526084.1.2.3.0,bus2=BBT164526085.1.2.3.0,Phases=3,Linecode=BT518_BT518_7_3_1,Length=0.000501000,Units=km
new line.19200445 bus1=BBT164526224.1.2.3.0,bus2=BBT164526225.1.2.3.0,Phases=3,Linecode=BT518_BT518_7_3_1,Length=0.000501000,Units=km
new line.19200446 bus1=BBT164526085.1.2.3.0,bus2=BBT164526240.1.2.3.0,Phases=3,Linecode=BT803_BT803_4_3_4,Length=0.029838000,Units=km
new line.19200447 bus1=BBT164526240.1.2.3.0,bus2=BBT164526241.1.2.3.0,Phases=3,Linecode=BT803_BT803_4_3_4,Length=0.031150000,Units=km
new line.19200448 bus1=BBT164526241.1.2.3.0,bus2=BBT164526247.1.2.3.0,Phases=3,Linecode=BT803_BT803_4_3_4,Length=0.032578000,Units=km
new line.19200449 bus1=BBT164526247.1.2.3.0,bus2=BBT164526256.1.2.3.0,Phases=3,Linecode=BT803_BT803_4_3_4,Length=0.033621000,Units=km
new line.19200450 bus1=BBT164526256.1.2.3.0,bus2=BBT164526257.1.2.3.0,Phases=3,Linecode=BT803_BT803_4_3_4,Length=0.035516000,Units=km
new line.19200451 bus1=BBT164526085.1.2.3.0,bus2=BBT164526270.1.2.3.0,Phases=3,Linecode=BT803_BT803_4_3_4,Length=0.024702000,Units=km
new line.19200452 bus1=BBT164526270.1.2.3.0,bus2=BBT164526274.1.2.3.0,Phases=3,Linecode=BT803_BT803_4_3_4,Length=0.025558000,Units=km
new line.19200453 bus1=BBT164526274.1.2.3.0,bus2=BBT164526275.1.2.3.0,Phases=3,Linecode=BT803_BT803_4_3_4,Length=0.031390000,Units=km
new line.19200454 bus1=BBT164526275.1.2.3.0,bus2=BBT164526282.1.2.3.0,Phases=3,Linecode=BT803_BT803_4_3_4,Length=0.025460000,Units=km
new line.19200455 bus1=BBT164526275.1.2.3.0,bus2=BBT164526283.1.2.3.0,Phases=3,Linecode=BT803_BT803_4_3_4,Length=0.006001000,Units=km
new line.19200456 bus1=BBT164526283.1.2.3.0,bus2=BBT164526284.1.2.3.0,Phases=3,Linecode=BT803_BT803_4_3_4,Length=0.036130000,Units=km
new line.19200457 bus1=BBT164526284.1.2.3.0,bus2=BBT164526285.1.2.3.0,Phases=3,Linecode=BT803_BT803_4_3_4,Length=0.034718000,Units=km
new line.19200458 bus1=BBT164526257.1.2.3.0,bus2=BBT164526286.1.2.3.0,Phases=3,Linecode=BT803_BT803_4_3_4,Length=0.032285000,Units=km
new line.19200459 bus1=BBT164526284.1.2.3.0,bus2=BBT164526290.1.2.3.0,Phases=3,Linecode=BT803_BT803_4_3_4,Length=0.006084000,Units=km
new line.19200461 bus1=BBT164526270.1.2.3.0,bus2=BBT164526304.1.2.3.0,Phases=3,Linecode=BT803_BT803_4_3_4,Length=0.029534000,Units=km
new line.19200462 bus1=BBT164526240.1.2.3.0,bus2=BBT164526305.1.2.3.0,Phases=3,Linecode=BT803_BT803_4_3_4,Length=0.029159000,Units=km
new line.19200463 bus1=BBT164526305.1.2.3.0,bus2=BBT164526306.1.2.3.0,Phases=3,Linecode=BT803_BT803_4_3_4,Length=0.030021000,Units=km
new line.19200465 bus1=BBT164526225.1.2.3.0,bus2=BBT164526311.1.2.3.0,Phases=3,Linecode=BT803_BT803_4_3_4,Length=0.031069000,Units=km
new line.19200467 bus1=BBT164526225.1.2.3.0,bus2=BBT164526313.1.2.3.0,Phases=3,Linecode=BT803_BT803_4_3_4,Length=0.023605000,Units=km
new line.19200468 bus1=BBT164526313.1.2.3.0,bus2=BBT164526314.1.2.3.0,Phases=3,Linecode=BT803_BT803_4_3_4,Length=0.036365000,Units=km
new line.19200469 bus1=BBT164526314.1.2.3.0,bus2=BBT164526315.1.2.3.0,Phases=3,Linecode=BT803_BT803_4_3_4,Length=0.031310000,Units=km
new line.19200471 bus1=BBT164526311.1.2.3.0,bus2=BBT164526316.1.2.3.0,Phases=3,Linecode=BT803_BT803_4_3_4,Length=0.009221000,Units=km
new line.19200472 bus1=BBT164526316.1.2.3.0,bus2=BBT164526317.1.2.3.0,Phases=3,Linecode=BT803_BT803_4_3_4,Length=0.017208000,Units=km
new line.19200473 bus1=BBT164526317.1.2.3.0,bus2=BBT164526342.1.2.3.0,Phases=3,Linecode=BT803_BT803_4_3_4,Length=0.026081000,Units=km
new line.19200474 bus1=BBT164526316.1.2.3.0,bus2=BBT164526343.1.2.3.0,Phases=3,Linecode=BT803_BT803_4_3_4,Length=0.010819000,Units=km
new line.19200475 bus1=BBT164526343.1.2.3.0,bus2=BBT164526344.1.2.3.0,Phases=3,Linecode=BT803_BT803_4_3_4,Length=0.034487000,Units=km
new line.19200476 bus1=BBT164526344.1.2.3.0,bus2=BBT164526356.1.2.3.0,Phases=3,Linecode=BT803_BT803_4_3_4,Length=0.031911000,Units=km
new line.19200477 bus1=BBT164526356.1.2.3.0,bus2=BBT164526362.1.2.3.0,Phases=3,Linecode=BT803_BT803_4_3_4,Length=0.029159000,Units=km
new line.19200478 bus1=BBT164526356.1.2.3.0,bus2=BBT164526363.1.2.3.0,Phases=3,Linecode=BT803_BT803_4_3_4,Length=0.023349000,Units=km
new line.19200479 bus1=BBT164526363.1.2.3.0,bus2=BBT164526364.1.2.3.0,Phases=3,Linecode=BT803_BT803_4_3_4,Length=0.021637000,Units=km
new line.19200480 bus1=BBT164526316.1.2.3.0,bus2=BBT164526376.1.2.3.0,Phases=3,Linecode=BT803_BT803_4_3_4,Length=0.026424000,Units=km
new line.19200481 bus1=BBT164526376.1.2.3.0,bus2=BBT164526377.1.2.3.0,Phases=3,Linecode=BT803_BT803_4_3_4,Length=0.034675000,Units=km
new line.19200482 bus1=BBT164526377.1.2.3.0,bus2=BBT164526378.1.2.3.0,Phases=3,Linecode=BT803_BT803_4_3_4,Length=0.034661000,Units=km
new line.19200483 bus1=BBT164526378.1.2.3.0,bus2=BBT164526379.1.2.3.0,Phases=3,Linecode=BT803_BT803_4_3_4,Length=0.024763000,Units=km
new line.19200485 bus1=BBT164526054.1.2.3.0,bus2=BBT164526393.1.2.3.0,Phases=3,Linecode=BT805_BT805_4_3_4,Length=0.019420000,Units=km
new line.19200486 bus1=BBT164526393.1.2.3.0,bus2=BBT164526394.1.2.3.0,Phases=3,Linecode=BT805_BT805_4_3_4,Length=0.010772000,Units=km
new line.19200487 bus1=BBT164526393.1.2.3.0,bus2=BBT164526395.1.2.3.0,Phases=3,Linecode=BT803_BT803_4_3_4,Length=0.026405000,Units=km
new line.19200488 bus1=BBT164526395.1.2.3.0,bus2=BBT164526396.1.2.3.0,Phases=3,Linecode=BT803_BT803_4_3_4,Length=0.034415000,Units=km
new line.19200489 bus1=BBT164526396.1.2.3.0,bus2=BBT164526397.1.2.3.0,Phases=3,Linecode=BT803_BT803_4_3_4,Length=0.036775000,Units=km
new line.19200490 bus1=BBT164526397.1.2.3.0,bus2=BBT164526398.1.2.3.0,Phases=3,Linecode=BT803_BT803_4_3_4,Length=0.033843000,Units=km
new line.19200491 bus1=BBT164526054.1.2.3.0,bus2=BBT164526406.1.2.3.0,Phases=3,Linecode=BT805_BT805_4_3_4,Length=0.030021000,Units=km
new line.19200492 bus1=BBT164526406.1.2.3.0,bus2=BBT164526409.1.2.3.0,Phases=3,Linecode=BT803_BT803_4_3_4,Length=0.006326000,Units=km
new line.19200494 bus1=BBT164526409.1.2.3.0,bus2=BBT164526410.1.2.3.0,Phases=3,Linecode=BT803_BT803_4_3_4,Length=0.043573000,Units=km
new line.19200495 bus1=BBT164526410.1.2.3.0,bus2=BBT164526411.1.2.3.0,Phases=3,Linecode=BT803_BT803_4_3_4,Length=0.041779000,Units=km
new line.19200496 bus1=BBT164526411.1.2.3.0,bus2=BBT164526414.1.2.3.0,Phases=3,Linecode=BT803_BT803_4_3_4,Length=0.040823000,Units=km
new line.19200497 bus1=BBT164526409.1.2.3.0,bus2=BBT164526415.1.2.3.0,Phases=3,Linecode=BT803_BT803_4_3_4,Length=0.040317000,Units=km
new line.19200498 bus1=BBT164526415.1.2.3.0,bus2=BBT164526416.1.2.3.0,Phases=3,Linecode=BT803_BT803_4_3_4,Length=0.042196000,Units=km
new line.19200499 bus1=BBT164526416.1.2.3.0,bus2=BBT164526417.1.2.3.0,Phases=3,Linecode=BT803_BT803_4_3_4,Length=0.044425000,Units=km
new line.19200500 bus1=BBT164526275.1.2.3.0,bus2=BBT164526418.1.2.3.0,Phases=3,Linecode=BT803_BT803_4_3_4,Length=0.043423000,Units=km
new line.19200502 bus1=BBT164526393.1.2.3.0,bus2=BBT164526421.1.2.3.0,Phases=3,Linecode=BT803_BT803_4_3_4,Length=0.010632000,Units=km
new line.19200503 bus1=BBT164526421.1.2.3.0,bus2=BBT164526422.1.2.3.0,Phases=3,Linecode=BT803_BT803_4_3_4,Length=0.024702000,Units=km
new line.19200504 bus1=BBT164526422.1.2.3.0,bus2=BBT164526423.1.2.3.0,Phases=3,Linecode=BT803_BT803_4_3_4,Length=0.029159000,Units=km
new line.19200506 bus1=BBT164526423.1.2.3.0,bus2=BBT164526424.1.2.3.0,Phases=3,Linecode=BT803_BT803_4_3_4,Length=0.018791000,Units=km
new line.19200507 bus1=BBT164526424.1.2.3.0,bus2=BBT164526427.1.2.3.0,Phases=3,Linecode=BT803_BT803_4_3_4,Length=0.008487000,Units=km