new load.3000254432M1 bus1=RML1051611571.1.2.3.0,Phases=3,kv=0.22,kW=0.70164,pf=0.92,Vminpu=0.92,Vmaxpu=1.5,model=8,zipv=[0.5,0,0.5,1,0,0,0],daily=RES2_4,status=variable
new load.3000254433M1 bus1=RML1051611571.1.2.3.0,Phases=3,kv=0.22,kW=0.01462,pf=0.92,Vminpu=0.92,Vmaxpu=1.5,model=8,zipv=[0.5,0,0.5,1,0,0,0],daily=COM1_7,status=variable
new load.3000254435M1 bus1=RML1051611585.1.2.3.0,Phases=3,kv=0.22,kW=1.36232,pf=0.92,Vminpu=0.92,Vmaxpu=1.5,model=8,zipv=[0.5,0,0.5,1,0,0,0],daily=RES5_6,status=variable
new load.3000254436M1 bus1=RML1051611592.2.3.0,Phases=2,kv=0.22,kW=1.4139,pf=0.92,Vminpu=0.92,Vmaxpu=1.5,model=8,zipv=[0.5,0,0.5,1,0,0,0],daily=RES4_6,status=variable
new load.3000254437M1 bus1=RML1051611599.1.2.3.0,Phases=3,kv=0.22,kW=1.57746,pf=0.92,Vminpu=0.92,Vmaxpu=1.5,model=8,zipv=[0.5,0,0.5,1,0,0,0],daily=RES3_4,status=variable
new load.3000254438M1 bus1=RML1051609954.2.0,Phases=1,kv=0.127,kW=1.46742,pf=0.92,Vminpu=0.92,Vmaxpu=1.5,model=8,zipv=[0.5,0,0.5,1,0,0,0],daily=RES3_4,status=variable
new load.3000254440M1 bus1=RML1051609968.2.3.0,Phases=2,kv=0.22,kW=0.50078,pf=0.92,Vminpu=0.92,Vmaxpu=1.5,model=8,zipv=[0.5,0,0.5,1,0,0,0],daily=RES1_2,status=variable
new load.3000254442M1 bus1=RML1051609975.1.2.0,Phases=2,kv=0.22,kW=0.6053,pf=0.92,Vminpu=0.92,Vmaxpu=1.5,model=8,zipv=[0.5,0,0.5,1,0,0,0],daily=RES3_4,status=variable
new load.3000254445M1 bus1=RML1051623352.1.0,Phases=1,kv=0.127,kW=1.06688,pf=0.92,Vminpu=0.92,Vmaxpu=1.5,model=8,zipv=[0.5,0,0.5,1,0,0,0],daily=RES2_4,status=variable
new load.3000254446M1 bus1=RML1051623331.1.2.3.0,Phases=3,kv=0.22,kW=2.03708,pf=0.92,Vminpu=0.92,Vmaxpu=1.5,model=8,zipv=[0.5,0,0.5,1,0,0,0],daily=RES4_6,status=variable
new load.3000254447M1 bus1=RML1051623289.1.2.3.0,Phases=3,kv=0.22,kW=1.3938,pf=0.92,Vminpu=0.92,Vmaxpu=1.5,model=8,zipv=[0.5,0,0.5,1,0,0,0],daily=RES4_6,status=variable
new load.3000254448M1 bus1=RML1051623303.1.0,Phases=1,kv=0.127,kW=1.15338,pf=0.92,Vminpu=0.92,Vmaxpu=1.5,model=8,zipv=[0.5,0,0.5,1,0,0,0],daily=RES2_4,status=variable
new load.3000254449M1 bus1=RML1051623240.1.2.3.0,Phases=3,kv=0.22,kW=0.01462,pf=0.92,Vminpu=0.92,Vmaxpu=1.5,model=8,zipv=[0.5,0,0.5,1,0,0,0],daily=COM1_7,status=variable
new load.3000254451M1 bus1=RML1051623261.3.0,Phases=1,kv=0.127,kW=0.89356,pf=0.92,Vminpu=0.92,Vmaxpu=1.5,model=8,zipv=[0.5,0,0.5,1,0,0,0],daily=RES1_2,status=variable
new load.3000254452M1 bus1=RML1051623128.1.2.0,Phases=2,kv=0.22,kW=1.2473,pf=0.92,Vminpu=0.92,Vmaxpu=1.5,model=8,zipv=[0.5,0,0.5,1,0,0,0],daily=RES3_4,status=variable
new load.3000254453M1 bus1=RML1051623247.2.3.0,Phases=2,kv=0.22,kW=1.11494,pf=0.92,Vminpu=0.92,Vmaxpu=1.5,model=8,zipv=[0.5,0,0.5,1,0,0,0],daily=RES2_4,status=variable
new load.3000254454M1 bus1=RML1051623310.3.0,Phases=1,kv=0.127,kW=0.54988,pf=0.92,Vminpu=0.92,Vmaxpu=1.5,model=8,zipv=[0.5,0,0.5,1,0,0,0],daily=RES1_2,status=variable
new load.3000254455M1 bus1=RML1051623296.3.0,Phases=1,kv=0.127,kW=0.8458,pf=0.92,Vminpu=0.92,Vmaxpu=1.5,model=8,zipv=[0.5,0,0.5,1,0,0,0],daily=RES2_4,status=variable
new load.3000254456M1 bus1=RML1051623268.2.0,Phases=1,kv=0.127,kW=0.68734,pf=0.92,Vminpu=0.92,Vmaxpu=1.5,model=8,zipv=[0.5,0,0.5,1,0,0,0],daily=RES1_2,status=variable
new load.3000254457M1 bus1=RML1053152208.2.0,Phases=1,kv=0.127,kW=0.05892,pf=0.92,Vminpu=0.92,Vmaxpu=1.5,model=8,zipv=[0.5,0,0.5,1,0,0,0],daily=RES1_2,status=variable
new load.3000254458M1 bus1=RML1051623317.1.2.0,Phases=2,kv=0.22,kW=0.79484,pf=0.92,Vminpu=0.92,Vmaxpu=1.5,model=8,zipv=[0.5,0,0.5,1,0,0,0],daily=RES3_4,status=variable
new load.3000254459M1 bus1=RML1051623324.1.3.0,Phases=2,kv=0.22,kW=1.21104,pf=0.92,Vminpu=0.92,Vmaxpu=1.5,model=8,zipv=[0.5,0,0.5,1,0,0,0],daily=RES2_4,status=variable
new load.3000254460M1 bus1=RML1051623345.1.2.3.0,Phases=3,kv=0.22,kW=0.2062,pf=0.92,Vminpu=0.92,Vmaxpu=1.5,model=8,zipv=[0.5,0,0.5,1,0,0,0],daily=RES1_2,status=variable
new load.3000254549M1 bus1=RML1051610017.1.2.0,Phases=2,kv=0.22,kW=0.95154,pf=0.92,Vminpu=0.92,Vmaxpu=1.5,model=8,zipv=[0.5,0,0.5,1,0,0,0],daily=RES2_4,status=variable
new load.3000606187M1 bus1=RML1051615505.2.0,Phases=1,kv=0.127,kW=0.30644,pf=0.92,Vminpu=0.92,Vmaxpu=1.5,model=8,zipv=[0.5,0,0.5,1,0,0,0],daily=RES1_10,status=variable
new load.3000606188M1 bus1=RML1051615526.2.0,Phases=1,kv=0.127,kW=0.53298,pf=0.92,Vminpu=0.92,Vmaxpu=1.5,model=8,zipv=[0.5,0,0.5,1,0,0,0],daily=RES2_10,status=variable
new load.3000606189M1 bus1=RML1051916673.2.0,Phases=1,kv=0.127,kW=1.10594,pf=0.92,Vminpu=0.92,Vmaxpu=1.5,model=8,zipv=[0.5,0,0.5,1,0,0,0],daily=RES2_10,status=variable
new load.3000606190M1 bus1=RML1051916694.1.0,Phases=1,kv=0.127,kW=0.23984,pf=0.92,Vminpu=0.92,Vmaxpu=1.5,model=8,zipv=[0.5,0,0.5,1,0,0,0],daily=RES2_10,status=variable
new load.3000606191M1 bus1=RML1051916687.2.0,Phases=1,kv=0.127,kW=1.20588,pf=0.92,Vminpu=0.92,Vmaxpu=1.5,model=8,zipv=[0.5,0,0.5,1,0,0,0],daily=RES2_10,status=variable
new load.3000606192M1 bus1=RML1051916722.2.3.0,Phases=2,kv=0.22,kW=0.63958,pf=0.92,Vminpu=0.92,Vmaxpu=1.5,model=8,zipv=[0.5,0,0.5,1,0,0,0],daily=RES2_10,status=variable
new load.3000606193M1 bus1=RML1051916736.2.0,Phases=1,kv=0.127,kW=0.81946,pf=0.92,Vminpu=0.92,Vmaxpu=1.5,model=8,zipv=[0.5,0,0.5,1,0,0,0],daily=RES2_10,status=variable
new load.3000606195M1 bus1=RML1051916785.1.0,Phases=1,kv=0.127,kW=0.22844,pf=0.92,Vminpu=0.92,Vmaxpu=1.5,model=8,zipv=[0.5,0,0.5,1,0,0,0],daily=RES1_10,status=variable
new load.3000606197M1 bus1=RML1051916757.3.0,Phases=1,kv=0.127,kW=0.94622,pf=0.92,Vminpu=0.92,Vmaxpu=1.5,model=8,zipv=[0.5,0,0.5,1,0,0,0],daily=RES3_11,status=variable
new load.3000606199M1 bus1=RML1051916848.2.3.0,Phases=2,kv=0.22,kW=0.33986,pf=0.92,Vminpu=0.92,Vmaxpu=1.5,model=8,zipv=[0.5,0,0.5,1,0,0,0],daily=RES1_10,status=variable
new load.3000606201M1 bus1=RML1051916834.1.2.0,Phases=2,kv=0.22,kW=0.266,pf=0.92,Vminpu=0.92,Vmaxpu=1.5,model=8,zipv=[0.5,0,0.5,1,0,0,0],daily=COM1_15,status=variable
new load.3000606202M1 bus1=RML1051916806.1.0,Phases=1,kv=0.127,kW=0.39558,pf=0.92,Vminpu=0.92,Vmaxpu=1.5,model=8,zipv=[0.5,0,0.5,1,0,0,0],daily=RES1_10,status=variable
new load.3000606204M1 bus1=RML1051916813.1.3.0,Phases=2,kv=0.22,kW=0.94622,pf=0.92,Vminpu=0.92,Vmaxpu=1.5,model=8,zipv=[0.5,0,0.5,1,0,0,0],daily=RES3_11,status=variable
new load.3000606205M1 bus1=RML1051916827.1.3.0,Phases=2,kv=0.22,kW=0.88608,pf=0.92,Vminpu=0.92,Vmaxpu=1.5,model=8,zipv=[0.5,0,0.5,1,0,0,0],daily=RES2_10,status=variable
new load.3000606206M1 bus1=RML1051916792.3.0,Phases=1,kv=0.127,kW=0.74768,pf=0.92,Vminpu=0.92,Vmaxpu=1.5,model=8,zipv=[0.5,0,0.5,1,0,0,0],daily=RES3_11,status=variable
new load.3000606207M1 bus1=RML1051916792.3.0,Phases=1,kv=0.127,kW=0.1669,pf=0.92,Vminpu=0.92,Vmaxpu=1.5,model=8,zipv=[0.5,0,0.5,1,0,0,0],daily=COM1_15,status=variable
new load.3000606209M1 bus1=RML1051916799.2.0,Phases=1,kv=0.127,kW=0.94606,pf=0.92,Vminpu=0.92,Vmaxpu=1.5,model=8,zipv=[0.5,0,0.5,1,0,0,0],daily=RES2_10,status=variable
new load.3000606210M1 bus1=RML1051916820.1.2.3.0,Phases=3,kv=0.22,kW=1.44476,pf=0.92,Vminpu=0.92,Vmaxpu=1.5,model=8,zipv=[0.5,0,0.5,1,0,0,0],daily=COM1_15,status=variable
new load.3000606211M1 bus1=RML1051916925.1.0,Phases=1,kv=0.127,kW=0.11144,pf=0.92,Vminpu=0.92,Vmaxpu=1.5,model=8,zipv=[0.5,0,0.5,1,0,0,0],daily=RES1_10,status=variable
new load.3000606212M1 bus1=RML1051916911.2.3.0,Phases=2,kv=0.22,kW=0.77304,pf=0.92,Vminpu=0.92,Vmaxpu=1.5,model=8,zipv=[0.5,0,0.5,1,0,0,0],daily=RES3_11,status=variable
new load.3000606213M1 bus1=RML1051916904.1.0,Phases=1,kv=0.127,kW=0.7062,pf=0.92,Vminpu=0.92,Vmaxpu=1.5,model=8,zipv=[0.5,0,0.5,1,0,0,0],daily=RES2_10,status=variable
new load.3000606214M1 bus1=RML1051916939.2.0,Phases=1,kv=0.127,kW=0.69954,pf=0.92,Vminpu=0.92,Vmaxpu=1.5,model=8,zipv=[0.5,0,0.5,1,0,0,0],daily=RES2_10,status=variable
new load.3000606215M1 bus1=RML1051921825.2.3.0,Phases=2,kv=0.22,kW=0.73078,pf=0.92,Vminpu=0.92,Vmaxpu=1.5,model=8,zipv=[0.5,0,0.5,1,0,0,0],daily=RES3_11,status=variable
new load.3000606216M1 bus1=RML1051921874.2.3.0,Phases=2,kv=0.22,kW=0.1932,pf=0.92,Vminpu=0.92,Vmaxpu=1.5,model=8,zipv=[0.5,0,0.5,1,0,0,0],daily=RES2_10,status=variable
new load.3000606217M1 bus1=RML1051921881.2.0,Phases=1,kv=0.127,kW=0.7595,pf=0.92,Vminpu=0.92,Vmaxpu=1.5,model=8,zipv=[0.5,0,0.5,1,0,0,0],daily=RES2_10,status=variable
new load.3000606218M1 bus1=RML1051921993.2.3.0,Phases=2,kv=0.22,kW=0.95448,pf=0.92,Vminpu=0.92,Vmaxpu=1.5,model=8,zipv=[0.5,0,0.5,1,0,0,0],daily=COM1_15,status=variable
new load.3000606219M1 bus1=RML1060805589.1.2.0,Phases=2,kv=0.22,kW=0.71812,pf=0.92,Vminpu=0.92,Vmaxpu=1.5,model=8,zipv=[0.5,0,0.5,1,0,0,0],daily=RES3_11,status=variable
new load.3000606220M1 bus1=RML1051922007.1.2.0,Phases=2,kv=0.22,kW=1.09262,pf=0.92,Vminpu=0.92,Vmaxpu=1.5,model=8,zipv=[0.5,0,0.5,1,0,0,0],daily=RES2_10,status=variable
new load.3000606222M1 bus1=RML1051922049.1.2.0,Phases=2,kv=0.22,kW=1.11096,pf=0.92,Vminpu=0.92,Vmaxpu=1.5,model=8,zipv=[0.5,0,0.5,1,0,0,0],daily=RES3_11,status=variable
new load.3000606223M1 bus1=RML1051922042.2.3.0,Phases=2,kv=0.22,kW=1.29648,pf=0.92,Vminpu=0.92,Vmaxpu=1.5,model=8,zipv=[0.5,0,0.5,1,0,0,0],daily=RES4_12,status=variable
new load.3000606225M1 bus1=RML1051921986.1.2.0,Phases=2,kv=0.22,kW=0.88608,pf=0.92,Vminpu=0.92,Vmaxpu=1.5,model=8,zipv=[0.5,0,0.5,1,0,0,0],daily=RES2_10,status=variable
new load.3000606240M1 bus1=RML1051922098.1.2.3.0,Phases=3,kv=0.22,kW=0.75518,pf=0.92,Vminpu=0.92,Vmaxpu=1.5,model=8,zipv=[0.5,0,0.5,1,0,0,0],daily=RES5_12,status=variable
new load.3000606241M1 bus1=RML1051922091.1.2.3.0,Phases=3,kv=0.22,kW=0.9194,pf=0.92,Vminpu=0.92,Vmaxpu=1.5,model=8,zipv=[0.5,0,0.5,1,0,0,0],daily=RES2_10,status=variable
new load.3000606242M1 bus1=RML1060620212.1.2.3.0,Phases=3,kv=0.22,kW=1.21286,pf=0.92,Vminpu=0.92,Vmaxpu=1.5,model=8,zipv=[0.5,0,0.5,1,0,0,0],daily=RES5_12,status=variable
new load.3000606243M1 bus1=RML1051922077.1.2.3.0,Phases=3,kv=0.22,kW=1.32576,pf=0.92,Vminpu=0.92,Vmaxpu=1.5,model=8,zipv=[0.5,0,0.5,1,0,0,0],daily=RES4_12,status=variable
new load.3000606244M1 bus1=RML1051922070.2.3.0,Phases=2,kv=0.22,kW=0.87018,pf=0.92,Vminpu=0.92,Vmaxpu=1.5,model=8,zipv=[0.5,0,0.5,1,0,0,0],daily=RES3_11,status=variable
new load.3000606245M1 bus1=RML1051922070.2.3.0,Phases=2,kv=0.22,kW=0.04172,pf=0.92,Vminpu=0.92,Vmaxpu=1.5,model=8,zipv=[0.5,0,0.5,1,0,0,0],daily=COM1_15,status=variable
new load.3000606246M1 bus1=RML1051922021.1.2.0,Phases=2,kv=0.22,kW=0.65958,pf=0.92,Vminpu=0.92,Vmaxpu=1.5,model=8,zipv=[0.5,0,0.5,1,0,0,0],daily=RES2_10,status=variable
new load.3000606247M1 bus1=RML1051921860.1.2.3.0,Phases=3,kv=0.22,kW=0.86174,pf=0.92,Vminpu=0.92,Vmaxpu=1.5,model=8,zipv=[0.5,0,0.5,1,0,0,0],daily=RES3_11,status=variable
new load.3000606248M1 bus1=RML1051921867.1.2.3.0,Phases=3,kv=0.22,kW=2.02034,pf=0.92,Vminpu=0.92,Vmaxpu=1.5,model=8,zipv=[0.5,0,0.5,1,0,0,0],daily=RES5_12,status=variable
new load.3000606249M1 bus1=RML1053465717.1.0,Phases=1,kv=0.127,kW=0.1669,pf=0.92,Vminpu=0.92,Vmaxpu=1.5,model=8,zipv=[0.5,0,0.5,1,0,0,0],daily=COM1_15,status=variable
new load.3000606250M1 bus1=RML1051921818.2.0,Phases=1,kv=0.127,kW=0.46636,pf=0.92,Vminpu=0.92,Vmaxpu=1.5,model=8,zipv=[0.5,0,0.5,1,0,0,0],daily=RES2_10,status=variable
new load.3000606251M1 bus1=RML1051916946.3.0,Phases=1,kv=0.127,kW=0.97936,pf=0.92,Vminpu=0.92,Vmaxpu=1.5,model=8,zipv=[0.5,0,0.5,1,0,0,0],daily=RES2_10,status=variable
new load.3000606252M1 bus1=RML1051916918.1.2.3.0,Phases=3,kv=0.22,kW=0.80614,pf=0.92,Vminpu=0.92,Vmaxpu=1.5,model=8,zipv=[0.5,0,0.5,1,0,0,0],daily=RES2_10,status=variable
new load.3000606253M1 bus1=RML1051916932.2.3.0,Phases=2,kv=0.22,kW=1.20448,pf=0.92,Vminpu=0.92,Vmaxpu=1.5,model=8,zipv=[0.5,0,0.5,1,0,0,0],daily=RES4_12,status=variable
new load.3000606255M1 bus1=RML1051916890.2.0,Phases=1,kv=0.127,kW=0.273,pf=0.92,Vminpu=0.92,Vmaxpu=1.5,model=8,zipv=[0.5,0,0.5,1,0,0,0],daily=RES1_10,status=variable
new load.3000606258M1 bus1=RML1051916855.1.0,Phases=1,kv=0.127,kW=0.11144,pf=0.92,Vminpu=0.92,Vmaxpu=1.5,model=8,zipv=[0.5,0,0.5,1,0,0,0],daily=RES1_10,status=variable
new load.3000606259M1 bus1=RML1051916750.2.0,Phases=1,kv=0.127,kW=0.8128,pf=0.92,Vminpu=0.92,Vmaxpu=1.5,model=8,zipv=[0.5,0,0.5,1,0,0,0],daily=RES2_10,status=variable
new load.3000606260M1 bus1=RML1051916764.2.0,Phases=1,kv=0.127,kW=0.39,pf=0.92,Vminpu=0.92,Vmaxpu=1.5,model=8,zipv=[0.5,0,0.5,1,0,0,0],daily=RES1_10,status=variable
new load.3000606261M1 bus1=RML1051916778.3.0,Phases=1,kv=0.127,kW=0.39,pf=0.92,Vminpu=0.92,Vmaxpu=1.5,model=8,zipv=[0.5,0,0.5,1,0,0,0],daily=RES1_10,status=variable
new load.3000606262M1 bus1=RML1051916743.3.0,Phases=1,kv=0.127,kW=0.78616,pf=0.92,Vminpu=0.92,Vmaxpu=1.5,model=8,zipv=[0.5,0,0.5,1,0,0,0],daily=RES2_10,status=variable
new load.3000606263M1 bus1=RML1051916743.3.0,Phases=1,kv=0.127,kW=0.20058,pf=0.92,Vminpu=0.92,Vmaxpu=1.5,model=8,zipv=[0.5,0,0.5,1,0,0,0],daily=RES1_10,status=variable
new load.3000606264M1 bus1=RML1051916729.1.0,Phases=1,kv=0.127,kW=0.8026,pf=0.92,Vminpu=0.92,Vmaxpu=1.5,model=8,zipv=[0.5,0,0.5,1,0,0,0],daily=RES3_11,status=variable
new load.3000606265M1 bus1=RML1051916715.2.0,Phases=1,kv=0.127,kW=1.17924,pf=0.92,Vminpu=0.92,Vmaxpu=1.5,model=8,zipv=[0.5,0,0.5,1,0,0,0],daily=RES2_10,status=variable
new load.3000606266M1 bus1=RML1051916701.2.0,Phases=1,kv=0.127,kW=0.46244,pf=0.92,Vminpu=0.92,Vmaxpu=1.5,model=8,zipv=[0.5,0,0.5,1,0,0,0],daily=RES1_10,status=variable
new load.3000606267M1 bus1=RML1051916708.1.3.0,Phases=2,kv=0.22,kW=0.71954,pf=0.92,Vminpu=0.92,Vmaxpu=1.5,model=8,zipv=[0.5,0,0.5,1,0,0,0],daily=RES2_10,status=variable
new load.3000606269M1 bus1=RML1051918346.3.0,Phases=1,kv=0.127,kW=0.36772,pf=0.92,Vminpu=0.92,Vmaxpu=1.5,model=8,zipv=[0.5,0,0.5,1,0,0,0],daily=RES1_10,status=variable
new load.3000606270M1 bus1=RML1058743148.1.2.3.0,Phases=3,kv=0.22,kW=0.73952,pf=0.92,Vminpu=0.92,Vmaxpu=1.5,model=8,zipv=[0.5,0,0.5,1,0,0,0],daily=RES2_10,status=variable
new load.3000606271M1 bus1=RML1051918311.2.0,Phases=1,kv=0.127,kW=0.7262,pf=0.92,Vminpu=0.92,Vmaxpu=1.5,model=8,zipv=[0.5,0,0.5,1,0,0,0],daily=RES2_10,status=variable
new load.3000606272M1 bus1=RML1051918353.1.0,Phases=1,kv=0.127,kW=0.21172,pf=0.92,Vminpu=0.92,Vmaxpu=1.5,model=8,zipv=[0.5,0,0.5,1,0,0,0],daily=RES1_10,status=variable
new load.3000606273M1 bus1=RML1051918360.1.2.0,Phases=2,kv=0.22,kW=0.0678,pf=0.92,Vminpu=0.92,Vmaxpu=1.5,model=8,zipv=[0.5,0,0.5,1,0,0,0],daily=COM1_15,status=variable
new load.3000606274M1 bus1=RML1051918374.1.2.0,Phases=2,kv=0.22,kW=0.34544,pf=0.92,Vminpu=0.92,Vmaxpu=1.5,model=8,zipv=[0.5,0,0.5,1,0,0,0],daily=RES1_10,status=variable
new load.3000606276M1 bus1=RML1051918395.2.0,Phases=1,kv=0.127,kW=0.00422,pf=0.92,Vminpu=0.92,Vmaxpu=1.5,model=8,zipv=[0.5,0,0.5,1,0,0,0],daily=RES3_11,status=variable
new load.3000606277M1 bus1=RML1051918381.1.2.0,Phases=2,kv=0.22,kW=0.00522,pf=0.92,Vminpu=0.92,Vmaxpu=1.5,model=8,zipv=[0.5,0,0.5,1,0,0,0],daily=COM1_15,status=variable
new load.3000606278M1 bus1=RML1051918444.3.0,Phases=1,kv=0.127,kW=0.79948,pf=0.92,Vminpu=0.92,Vmaxpu=1.5,model=8,zipv=[0.5,0,0.5,1,0,0,0],daily=RES2_10,status=variable
new load.3000606279M1 bus1=RML1051918486.1.2.3.0,Phases=3,kv=0.22,kW=0.59138,pf=0.92,Vminpu=0.92,Vmaxpu=1.5,model=8,zipv=[0.5,0,0.5,1,0,0,0],daily=RES3_11,status=variable
new load.3000606280M1 bus1=RML1051916883.3.0,Phases=1,kv=0.127,kW=0.7795,pf=0.92,Vminpu=0.92,Vmaxpu=1.5,model=8,zipv=[0.5,0,0.5,1,0,0,0],daily=RES2_10,status=variable
new load.3000606281M1 bus1=RML1051916862.1.0,Phases=1,kv=0.127,kW=1.4489,pf=0.92,Vminpu=0.92,Vmaxpu=1.5,model=8,zipv=[0.5,0,0.5,1,0,0,0],daily=RES3_11,status=variable
new load.3000606282M1 bus1=RML1051916841.1.2.3.0,Phases=3,kv=0.22,kW=0.91274,pf=0.92,Vminpu=0.92,Vmaxpu=1.5,model=8,zipv=[0.5,0,0.5,1,0,0,0],daily=RES2_10,status=variable
new load.3000606283M1 bus1=RML1051916841.1.2.3.0,Phases=3,kv=0.22,kW=0.15648,pf=0.92,Vminpu=0.92,Vmaxpu=1.5,model=8,zipv=[0.5,0,0.5,1,0,0,0],daily=COM1_15,status=variable
new load.3000606284M1 bus1=RML1051916869.2.0,Phases=1,kv=0.127,kW=1.26304,pf=0.92,Vminpu=0.92,Vmaxpu=1.5,model=8,zipv=[0.5,0,0.5,1,0,0,0],daily=RES3_11,status=variable
new load.3000606285M1 bus1=RML1051916876.1.2.0,Phases=2,kv=0.22,kW=0.3733,pf=0.92,Vminpu=0.92,Vmaxpu=1.5,model=8,zipv=[0.5,0,0.5,1,0,0,0],daily=RES1_10,status=variable
new load.3000606287M1 bus1=RML1051918528.1.2.3.0,Phases=3,kv=0.22,kW=0.25072,pf=0.92,Vminpu=0.92,Vmaxpu=1.5,model=8,zipv=[0.5,0,0.5,1,0,0,0],daily=RES1_10,status=variable
new load.3000606288M1 bus1=RML1051918521.1.2.3.0,Phases=3,kv=0.22,kW=6.73486,pf=0.92,Vminpu=0.92,Vmaxpu=1.5,model=8,zipv=[0.5,0,0.5,1,0,0,0],daily=RES6_11,status=variable
new load.3000606289M1 bus1=RML1051918633.1.2.3.0,Phases=3,kv=0.22,kW=0.42638,pf=0.92,Vminpu=0.92,Vmaxpu=1.5,model=8,zipv=[0.5,0,0.5,1,0,0,0],daily=RES2_10,status=variable
new load.3000606290M1 bus1=RML1051918647.1.2.3.0,Phases=3,kv=0.22,kW=0.48506,pf=0.92,Vminpu=0.92,Vmaxpu=1.5,model=8,zipv=[0.5,0,0.5,1,0,0,0],daily=COM1_15,status=variable
new load.3000606291M1 bus1=RML1051918647.1.2.3.0,Phases=3,kv=0.22,kW=0.7062,pf=0.92,Vminpu=0.92,Vmaxpu=1.5,model=8,zipv=[0.5,0,0.5,1,0,0,0],daily=RES2_10,status=variable
new load.3000606292M1 bus1=RML1059810256.1.2.0,Phases=2,kv=0.22,kW=1.43868,pf=0.92,Vminpu=0.92,Vmaxpu=1.5,model=8,zipv=[0.5,0,0.5,1,0,0,0],daily=RES4_12,status=variable
new load.3000606294M1 bus1=RML1051918682.1.2.3.0,Phases=3,kv=0.22,kW=11.08324,pf=0.92,Vminpu=0.92,Vmaxpu=1.5,model=8,zipv=[0.5,0,0.5,1,0,0,0],daily=COM3_12,status=variable
new load.3000606295M1 bus1=RML1051918682.1.2.3.0,Phases=3,kv=0.22,kW=1.0645,pf=0.92,Vminpu=0.92,Vmaxpu=1.5,model=8,zipv=[0.5,0,0.5,1,0,0,0],daily=RES3_11,status=variable
new load.3000606296M1 bus1=RML1051918682.1.2.3.0,Phases=3,kv=0.22,kW=1.17256,pf=0.92,Vminpu=0.92,Vmaxpu=1.5,model=8,zipv=[0.5,0,0.5,1,0,0,0],daily=RES2_10,status=variable
new load.3000606297M1 bus1=RML1051918682.1.2.3.0,Phases=3,kv=0.22,kW=1.31958,pf=0.92,Vminpu=0.92,Vmaxpu=1.5,model=8,zipv=[0.5,0,0.5,1,0,0,0],daily=COM1_15,status=variable
new load.3000606298M1 bus1=RML1051918668.1.2.3.0,Phases=3,kv=0.22,kW=0.09472,pf=0.92,Vminpu=0.92,Vmaxpu=1.5,model=8,zipv=[0.5,0,0.5,1,0,0,0],daily=RES1_10,status=variable
new load.3000606300M1 bus1=RML1051918710.1.2.3.0,Phases=3,kv=0.22,kW=1.07718,pf=0.92,Vminpu=0.92,Vmaxpu=1.5,model=8,zipv=[0.5,0,0.5,1,0,0,0],daily=RES3_11,status=variable
new load.3000606301M1 bus1=RML1051918724.3.0,Phases=1,kv=0.127,kW=0.71286,pf=0.92,Vminpu=0.92,Vmaxpu=1.5,model=8,zipv=[0.5,0,0.5,1,0,0,0],daily=RES2_10,status=variable
new load.3000606302M1 bus1=RML1051918724.3.0,Phases=1,kv=0.127,kW=0.17322,pf=0.92,Vminpu=0.92,Vmaxpu=1.5,model=8,zipv=[0.5,0,0.5,1,0,0,0],daily=RES2_10,status=variable
new load.3000606304M1 bus1=RML1051922931.1.2.0,Phases=2,kv=0.22,kW=0.07824,pf=0.92,Vminpu=0.92,Vmaxpu=1.5,model=8,zipv=[0.5,0,0.5,1,0,0,0],daily=COM1_15,status=variable
new load.3000606305M1 bus1=RML1051922924.1.2.0,Phases=2,kv=0.22,kW=0.86596,pf=0.92,Vminpu=0.92,Vmaxpu=1.5,model=8,zipv=[0.5,0,0.5,1,0,0,0],daily=RES3_11,status=variable
new load.3000606306M1 bus1=RML1051922910.1.3.0,Phases=2,kv=0.22,kW=0.6729,pf=0.92,Vminpu=0.92,Vmaxpu=1.5,model=8,zipv=[0.5,0,0.5,1,0,0,0],daily=RES2_10,status=variable
new load.3000606307M1 bus1=RML1051922903.1.2.3.0,Phases=3,kv=0.22,kW=9.2091,pf=0.92,Vminpu=0.92,Vmaxpu=1.5,model=8,zipv=[0.5,0,0.5,1,0,0,0],daily=IND3_20,status=variable
new load.3000606308M1 bus1=RML1051922903.1.2.3.0,Phases=3,kv=0.22,kW=0.59294,pf=0.92,Vminpu=0.92,Vmaxpu=1.5,model=8,zipv=[0.5,0,0.5,1,0,0,0],daily=RES2_10,status=variable
new load.3000606309M1 bus1=RML1051922938.2.3.0,Phases=2,kv=0.22,kW=1.02648,pf=0.92,Vminpu=0.92,Vmaxpu=1.5,model=8,zipv=[0.5,0,0.5,1,0,0,0],daily=RES3_11,status=variable
new load.3000606311M1 bus1=RML1051922973.2.3.0,Phases=2,kv=0.22,kW=0.72234,pf=0.92,Vminpu=0.92,Vmaxpu=1.5,model=8,zipv=[0.5,0,0.5,1,0,0,0],daily=RES3_11,status=variable
new load.3000606312M1 bus1=RML1051922980.2.3.0,Phases=2,kv=0.22,kW=0.25072,pf=0.92,Vminpu=0.92,Vmaxpu=1.5,model=8,zipv=[0.5,0,0.5,1,0,0,0],daily=RES1_10,status=variable
new load.3000606313M1 bus1=RML1051922987.1.2.0,Phases=2,kv=0.22,kW=1.19546,pf=0.92,Vminpu=0.92,Vmaxpu=1.5,model=8,zipv=[0.5,0,0.5,1,0,0,0],daily=RES3_11,status=variable
new load.3000606314M1 bus1=RML1051922994.1.2.3.0,Phases=3,kv=0.22,kW=0.07244,pf=0.92,Vminpu=0.92,Vmaxpu=1.5,model=8,zipv=[0.5,0,0.5,1,0,0,0],daily=RES1_10,status=variable
new load.3000606326M1 bus1=RML1051922959.1.2.3.0,Phases=3,kv=0.22,kW=3.90142,pf=0.92,Vminpu=0.92,Vmaxpu=1.5,model=8,zipv=[0.5,0,0.5,1,0,0,0],daily=COM3_12,status=variable
new load.3000606327M1 bus1=RML1051923050.1.0,Phases=1,kv=0.127,kW=0.36216,pf=0.92,Vminpu=0.92,Vmaxpu=1.5,model=8,zipv=[0.5,0,0.5,1,0,0,0],daily=RES1_10,status=variable
new load.3000606328M1 bus1=RML1051923043.1.0,Phases=1,kv=0.127,kW=0.67956,pf=0.92,Vminpu=0.92,Vmaxpu=1.5,model=8,zipv=[0.5,0,0.5,1,0,0,0],daily=RES2_10,status=variable
new load.3000606329M1 bus1=RML1051923036.3.0,Phases=1,kv=0.127,kW=0.3733,pf=0.92,Vminpu=0.92,Vmaxpu=1.5,model=8,zipv=[0.5,0,0.5,1,0,0,0],daily=RES1_10,status=variable
new load.3000606330M1 bus1=RML1051918738.2.0,Phases=1,kv=0.127,kW=0.29992,pf=0.92,Vminpu=0.92,Vmaxpu=1.5,model=8,zipv=[0.5,0,0.5,1,0,0,0],daily=RES3_11,status=variable
new load.3000606331M1 bus1=RML1051918731.1.3.0,Phases=2,kv=0.22,kW=0.53298,pf=0.92,Vminpu=0.92,Vmaxpu=1.5,model=8,zipv=[0.5,0,0.5,1,0,0,0],daily=RES2_10,status=variable
new load.3000606332M1 bus1=RML1051918703.3.0,Phases=1,kv=0.127,kW=0.34216,pf=0.92,Vminpu=0.92,Vmaxpu=1.5,model=8,zipv=[0.5,0,0.5,1,0,0,0],daily=RES3_11,status=variable
new load.3000606333M1 bus1=RML1051918717.1.0,Phases=1,kv=0.127,kW=0.55298,pf=0.92,Vminpu=0.92,Vmaxpu=1.5,model=8,zipv=[0.5,0,0.5,1,0,0,0],daily=RES2_10,status=variable
new load.3000606334M1 bus1=RML1051918661.2.3.0,Phases=2,kv=0.22,kW=0.83946,pf=0.92,Vminpu=0.92,Vmaxpu=1.5,model=8,zipv=[0.5,0,0.5,1,0,0,0],daily=RES2_10,status=variable
new load.3000606335M1 bus1=RML1051918675.1.3.0,Phases=2,kv=0.22,kW=0.53226,pf=0.92,Vminpu=0.92,Vmaxpu=1.5,model=8,zipv=[0.5,0,0.5,1,0,0,0],daily=RES3_11,status=variable
new load.3000606336M1 bus1=RML1051918689.2.3.0,Phases=2,kv=0.22,kW=1.05182,pf=0.92,Vminpu=0.92,Vmaxpu=1.5,model=8,zipv=[0.5,0,0.5,1,0,0,0],daily=RES3_11,status=variable
new load.3000606337M1 bus1=RML1051918619.1.2.0,Phases=2,kv=0.22,kW=1.13632,pf=0.92,Vminpu=0.92,Vmaxpu=1.5,model=8,zipv=[0.5,0,0.5,1,0,0,0],daily=RES3_11,status=variable
new load.3000606340M1 bus1=RML1051918535.1.2.0,Phases=2,kv=0.22,kW=0.54492,pf=0.92,Vminpu=0.92,Vmaxpu=1.5,model=8,zipv=[0.5,0,0.5,1,0,0,0],daily=RES3_11,status=variable
new load.3000606341M1 bus1=RML1051918451.1.0,Phases=1,kv=0.127,kW=0.94806,pf=0.92,Vminpu=0.92,Vmaxpu=1.5,model=8,zipv=[0.5,0,0.5,1,0,0,0],daily=RES5_12,status=variable
new load.3000606342M1 bus1=RML1051918472.2.3.0,Phases=2,kv=0.22,kW=0.06686,pf=0.92,Vminpu=0.92,Vmaxpu=1.5,model=8,zipv=[0.5,0,0.5,1,0,0,0],daily=RES1_10,status=variable
new load.3000606343M1 bus1=RML1051918472.2.3.0,Phases=2,kv=0.22,kW=0.94152,pf=0.92,Vminpu=0.92,Vmaxpu=1.5,model=8,zipv=[0.5,0,0.5,1,0,0,0],daily=RES5_12,status=variable
new load.3000606344M1 bus1=RML1051918416.1.3.0,Phases=2,kv=0.22,kW=1.0645,pf=0.92,Vminpu=0.92,Vmaxpu=1.5,model=8,zipv=[0.5,0,0.5,1,0,0,0],daily=RES3_11,status=variable
new load.3000606346M1 bus1=RML1051918367.2.3.0,Phases=2,kv=0.22,kW=0.3343,pf=0.92,Vminpu=0.92,Vmaxpu=1.5,model=8,zipv=[0.5,0,0.5,1,0,0,0],daily=RES1_10,status=variable
new load.3000606348M1 bus1=RML1051918318.1.2.0,Phases=2,kv=0.22,kW=1.12786,pf=0.92,Vminpu=0.92,Vmaxpu=1.5,model=8,zipv=[0.5,0,0.5,1,0,0,0],daily=RES3_11,status=variable
new load.3000606349M1 bus1=RML1051918339.1.0,Phases=1,kv=0.127,kW=0.9589,pf=0.92,Vminpu=0.92,Vmaxpu=1.5,model=8,zipv=[0.5,0,0.5,1,0,0,0],daily=RES3_11,status=variable
new load.3000606350M1 bus1=RML1051918297.1.2.0,Phases=2,kv=0.22,kW=0.7139,pf=0.92,Vminpu=0.92,Vmaxpu=1.5,model=8,zipv=[0.5,0,0.5,1,0,0,0],daily=RES3_11,status=variable
new load.3000606351M1 bus1=RML1051918297.1.2.0,Phases=2,kv=0.22,kW=0.25558,pf=0.92,Vminpu=0.92,Vmaxpu=1.5,model=8,zipv=[0.5,0,0.5,1,0,0,0],daily=COM1_15,status=variable
new load.3000606352M1 bus1=RML1051918290.2.0,Phases=1,kv=0.127,kW=0.273,pf=0.92,Vminpu=0.92,Vmaxpu=1.5,model=8,zipv=[0.5,0,0.5,1,0,0,0],daily=RES1_10,status=variable
new load.3000606354M1 bus1=RML1051918283.3.0,Phases=1,kv=0.127,kW=0.04458,pf=0.92,Vminpu=0.92,Vmaxpu=1.5,model=8,zipv=[0.5,0,0.5,1,0,0,0],daily=RES1_10,status=variable
new load.3000606355M1 bus1=RML1051916666.3.0,Phases=1,kv=0.127,kW=0.234,pf=0.92,Vminpu=0.92,Vmaxpu=1.5,model=8,zipv=[0.5,0,0.5,1,0,0,0],daily=RES1_10,status=variable
new load.3000606356M1 bus1=RML1051615519.3.0,Phases=1,kv=0.127,kW=0.94518,pf=0.92,Vminpu=0.92,Vmaxpu=1.5,model=8,zipv=[0.5,0,0.5,1,0,0,0],daily=RES4_12,status=variable
new load.3000606357M1 bus1=RML1051615498.2.0,Phases=1,kv=0.127,kW=0.54632,pf=0.92,Vminpu=0.92,Vmaxpu=1.5,model=8,zipv=[0.5,0,0.5,1,0,0,0],daily=RES2_10,status=variable
new load.3000606358M1 bus1=RML1051615512.2.0,Phases=1,kv=0.127,kW=0.6729,pf=0.92,Vminpu=0.92,Vmaxpu=1.5,model=8,zipv=[0.5,0,0.5,1,0,0,0],daily=RES2_10,status=variable
new load.3000606359M1 bus1=RML1051615491.3.0,Phases=1,kv=0.127,kW=0.21172,pf=0.92,Vminpu=0.92,Vmaxpu=1.5,model=8,zipv=[0.5,0,0.5,1,0,0,0],daily=RES1_10,status=variable
new load.3000606362M1 bus1=RML1051917331.3.0,Phases=1,kv=0.127,kW=0.01114,pf=0.92,Vminpu=0.92,Vmaxpu=1.5,model=8,zipv=[0.5,0,0.5,1,0,0,0],daily=RES1_10,status=variable
new load.3000606363M1 bus1=RML1051917338.2.0,Phases=1,kv=0.127,kW=1.24586,pf=0.92,Vminpu=0.92,Vmaxpu=1.5,model=8,zipv=[0.5,0,0.5,1,0,0,0],daily=RES2_10,status=variable
new load.3000606364M1 bus1=RML1051917345.1.0,Phases=1,kv=0.127,kW=1.1126,pf=0.92,Vminpu=0.92,Vmaxpu=1.5,model=8,zipv=[0.5,0,0.5,1,0,0,0],daily=RES2_10,status=variable
new load.3000606365M1 bus1=RML1051917380.1.2.0,Phases=2,kv=0.22,kW=0.23992,pf=0.92,Vminpu=0.92,Vmaxpu=1.5,model=8,zipv=[0.5,0,0.5,1,0,0,0],daily=COM1_15,status=variable
new load.3000606366M1 bus1=RML1051917394.1.0,Phases=1,kv=0.127,kW=0.9727,pf=0.92,Vminpu=0.92,Vmaxpu=1.5,model=8,zipv=[0.5,0,0.5,1,0,0,0],daily=RES2_10,status=variable
new load.3000606367M1 bus1=RML1051917478.1.0,Phases=1,kv=0.127,kW=0.6529,pf=0.92,Vminpu=0.92,Vmaxpu=1.5,model=8,zipv=[0.5,0,0.5,1,0,0,0],daily=RES2_10,status=variable
new load.3000606368M1 bus1=RML1051917520.1.0,Phases=1,kv=0.127,kW=0.89276,pf=0.92,Vminpu=0.92,Vmaxpu=1.5,model=8,zipv=[0.5,0,0.5,1,0,0,0],daily=RES2_10,status=variable
new load.3000606369M1 bus1=RML1051917513.2.3.0,Phases=2,kv=0.22,kW=1.00114,pf=0.92,Vminpu=0.92,Vmaxpu=1.5,model=8,zipv=[0.5,0,0.5,1,0,0,0],daily=RES3_11,status=variable
new load.3000606370M1 bus1=RML1051917457.3.0,Phases=1,kv=0.127,kW=0.7262,pf=0.92,Vminpu=0.92,Vmaxpu=1.5,model=8,zipv=[0.5,0,0.5,1,0,0,0],daily=RES2_10,status=variable
new load.3000606371M1 bus1=RML1051917443.1.0,Phases=1,kv=0.127,kW=0.3731,pf=0.92,Vminpu=0.92,Vmaxpu=1.5,model=8,zipv=[0.5,0,0.5,1,0,0,0],daily=RES2_10,status=variable
new load.3000606372M1 bus1=RML1051917408.1.0,Phases=1,kv=0.127,kW=0.7595,pf=0.92,Vminpu=0.92,Vmaxpu=1.5,model=8,zipv=[0.5,0,0.5,1,0,0,0],daily=RES2_10,status=variable
new load.3000606373M1 bus1=RML1051917415.1.2.3.0,Phases=3,kv=0.22,kW=1.54632,pf=0.92,Vminpu=0.92,Vmaxpu=1.5,model=8,zipv=[0.5,0,0.5,1,0,0,0],daily=RES5_12,status=variable
new load.3000606376M1 bus1=RML1051622372.3.0,Phases=1,kv=0.127,kW=0.64624,pf=0.92,Vminpu=0.92,Vmaxpu=1.5,model=8,zipv=[0.5,0,0.5,1,0,0,0],daily=RES2_10,status=variable
new load.3000606377M1 bus1=RML1051622351.3.0,Phases=1,kv=0.127,kW=1.026,pf=0.92,Vminpu=0.92,Vmaxpu=1.5,model=8,zipv=[0.5,0,0.5,1,0,0,0],daily=RES2_10,status=variable
new load.3000606378M1 bus1=RML1051622358.1.0,Phases=1,kv=0.127,kW=0.46802,pf=0.92,Vminpu=0.92,Vmaxpu=1.5,model=8,zipv=[0.5,0,0.5,1,0,0,0],daily=RES1_10,status=variable
new load.3000606379M1 bus1=RML1051622365.1.2.0,Phases=2,kv=0.22,kW=0.69954,pf=0.92,Vminpu=0.92,Vmaxpu=1.5,model=8,zipv=[0.5,0,0.5,1,0,0,0],daily=RES2_10,status=variable
new load.3000606380M1 bus1=RML1051622379.2.0,Phases=1,kv=0.127,kW=0.02786,pf=0.92,Vminpu=0.92,Vmaxpu=1.5,model=8,zipv=[0.5,0,0.5,1,0,0,0],daily=RES1_10,status=variable
new load.3000606381M1 bus1=RML1051622407.2.0,Phases=1,kv=0.127,kW=0.79416,pf=0.92,Vminpu=0.92,Vmaxpu=1.5,model=8,zipv=[0.5,0,0.5,1,0,0,0],daily=RES3_11,status=variable
new load.3000606382M1 bus1=RML1051622400.1.2.0,Phases=2,kv=0.22,kW=0.26744,pf=0.92,Vminpu=0.92,Vmaxpu=1.5,model=8,zipv=[0.5,0,0.5,1,0,0,0],daily=RES1_10,status=variable
new load.3000606384M1 bus1=RML1051917429.3.0,Phases=1,kv=0.127,kW=0.99268,pf=0.92,Vminpu=0.92,Vmaxpu=1.5,model=8,zipv=[0.5,0,0.5,1,0,0,0],daily=RES2_10,status=variable
new load.3000606385M1 bus1=RML1051917422.1.2.0,Phases=2,kv=0.22,kW=1.03916,pf=0.92,Vminpu=0.92,Vmaxpu=1.5,model=8,zipv=[0.5,0,0.5,1,0,0,0],daily=RES3_11,status=variable
new load.3000606388M1 bus1=RML1051917450.1.2.0,Phases=2,kv=0.22,kW=1.12084,pf=0.92,Vminpu=0.92,Vmaxpu=1.5,model=8,zipv=[0.5,0,0.5,1,0,0,0],daily=RES4_12,status=variable
new load.3000606389M1 bus1=RML1051917499.2.0,Phases=1,kv=0.127,kW=0.64624,pf=0.92,Vminpu=0.92,Vmaxpu=1.5,model=8,zipv=[0.5,0,0.5,1,0,0,0],daily=RES2_10,status=variable
new load.3000606390M1 bus1=RML1051917506.2.0,Phases=1,kv=0.127,kW=0.31758,pf=0.92,Vminpu=0.92,Vmaxpu=1.5,model=8,zipv=[0.5,0,0.5,1,0,0,0],daily=RES1_10,status=variable
new load.3000606391M1 bus1=RML1051917527.1.2.0,Phases=2,kv=0.22,kW=1.52822,pf=0.92,Vminpu=0.92,Vmaxpu=1.5,model=8,zipv=[0.5,0,0.5,1,0,0,0],daily=COM1_15,status=variable
new load.3000606392M1 bus1=RML1051917541.1.2.3.0,Phases=3,kv=0.22,kW=0.10432,pf=0.92,Vminpu=0.92,Vmaxpu=1.5,model=8,zipv=[0.5,0,0.5,1,0,0,0],daily=COM1_15,status=variable
new load.3000606393M1 bus1=RML1051917548.1.2.3.0,Phases=3,kv=0.22,kW=0.38642,pf=0.92,Vminpu=0.92,Vmaxpu=1.5,model=8,zipv=[0.5,0,0.5,1,0,0,0],daily=RES2_10,status=variable
new load.3000606394M1 bus1=RML1051917569.1.2.0,Phases=2,kv=0.22,kW=0.273,pf=0.92,Vminpu=0.92,Vmaxpu=1.5,model=8,zipv=[0.5,0,0.5,1,0,0,0],daily=RES1_10,status=variable