new load.3004765799M1 bus1=BMT119973088.1.2.3.0,Phases=3,kv=13.8,kW=1.91538,pf=0.92,Vminpu=0.93,Vmaxpu=1.5,model=1,daily=A4-1,status=variable
new load.3007510887M1 bus1=BMT120007780.1.2.3.0,Phases=3,kv=13.8,kW=10.21534,pf=0.92,Vminpu=0.93,Vmaxpu=1.5,model=1,daily=A4-1,status=variable
new load.3009000869M1 bus1=BMT170277753.1.2.3.0,Phases=3,kv=13.8,kW=427.9183,pf=0.92,Vminpu=0.93,Vmaxpu=1.5,model=1,daily=A4-5,status=variable
new load.3009002147M1 bus1=BMT172070261.1.2.3.0,Phases=3,kv=13.8,kW=58.33454,pf=0.92,Vminpu=0.93,Vmaxpu=1.5,model=1,daily=A4-2,status=variable
new load.3009002154M1 bus1=BMT120009005.1.2.3.0,Phases=3,kv=13.8,kW=44.04516,pf=0.92,Vminpu=0.93,Vmaxpu=1.5,model=1,daily=A4-3,status=variable
new load.3009002213M1 bus1=BMT167091773.1.2.3.0,Phases=3,kv=13.8,kW=6.38458,pf=0.92,Vminpu=0.93,Vmaxpu=1.5,model=1,daily=A4-1,status=variable
new load.3009005690M1 bus1=BMT119967908.1.2.3.0,Phases=3,kv=13.8,kW=44.04516,pf=0.92,Vminpu=0.93,Vmaxpu=1.5,model=1,daily=A4-3,status=variable
new load.3009005691M1 bus1=BMT173046217.1.2.3.0,Phases=3,kv=13.8,kW=14.93806,pf=0.92,Vminpu=0.93,Vmaxpu=1.5,model=1,daily=A4-4,status=variable
new load.3009006999M1 bus1=BMT172070292.1.2.3.0,Phases=3,kv=13.8,kW=20.19272,pf=0.92,Vminpu=0.93,Vmaxpu=1.5,model=1,daily=A4-2,status=variable
new load.3009007637M1 bus1=BMT161948751.1.2.3.0,Phases=3,kv=13.8,kW=117.69474,pf=0.92,Vminpu=0.93,Vmaxpu=1.5,model=1,daily=A4-6,status=variable
new load.3009007640M1 bus1=BMT119976525.1.2.3.0,Phases=3,kv=13.8,kW=6.38458,pf=0.92,Vminpu=0.93,Vmaxpu=1.5,model=1,daily=A4-1,status=variable
new load.3009007737M1 bus1=BMT119992716.1.2.3.0,Phases=3,kv=13.8,kW=3.1923,pf=0.92,Vminpu=0.93,Vmaxpu=1.5,model=1,daily=A4-1,status=variable
new load.3009008803M1 bus1=BMT150347573.1.2.3.0,Phases=3,kv=13.8,kW=17.9491,pf=0.92,Vminpu=0.93,Vmaxpu=1.5,model=1,daily=A4-2,status=variable
new load.3009009150M1 bus1=BMT120014521.1.2.3.0,Phases=3,kv=13.8,kW=67.11644,pf=0.92,Vminpu=0.93,Vmaxpu=1.5,model=1,daily=A4-3,status=variable
new load.3009009304M1 bus1=BMT150347117.1.2.3.0,Phases=3,kv=13.8,kW=33.55822,pf=0.92,Vminpu=0.93,Vmaxpu=1.5,model=1,daily=A4-3,status=variable
new load.3009009600M1 bus1=BMT120014094.1.2.3.0,Phases=3,kv=13.8,kW=149.56368,pf=0.92,Vminpu=0.93,Vmaxpu=1.5,model=1,daily=A4-5,status=variable
new load.3009010084M1 bus1=BMT119967922.1.2.3.0,Phases=3,kv=13.8,kW=33.65454,pf=0.92,Vminpu=0.93,Vmaxpu=1.5,model=1,daily=A4-2,status=variable
new load.3009010437M1 bus1=BMT168038297.1.2.3.0,Phases=3,kv=13.8,kW=6.38458,pf=0.92,Vminpu=0.93,Vmaxpu=1.5,model=1,daily=A4-1,status=variable
new load.3009010776M1 bus1=BMT173113698.1.2.3.0,Phases=3,kv=13.8,kW=8.53604,pf=0.92,Vminpu=0.93,Vmaxpu=1.5,model=1,daily=A4-4,status=variable
new load.3009011174M1 bus1=BMT134800796.1.2.3.0,Phases=3,kv=13.8,kW=35.89818,pf=0.92,Vminpu=0.93,Vmaxpu=1.5,model=1,daily=A4-2,status=variable
new load.3009011193M1 bus1=BMT173113376.1.2.3.0,Phases=3,kv=13.8,kW=8.97454,pf=0.92,Vminpu=0.93,Vmaxpu=1.5,model=1,daily=A4-2,status=variable
new load.3009011420M1 bus1=BMT170606081.1.2.3.0,Phases=3,kv=13.8,kW=1.59614,pf=0.92,Vminpu=0.93,Vmaxpu=1.5,model=1,daily=A4-1,status=variable
new load.3009011441M1 bus1=BMT119964702.1.2.3.0,Phases=3,kv=13.8,kW=76.82432,pf=0.92,Vminpu=0.93,Vmaxpu=1.5,model=1,daily=A4-4,status=variable
new load.3009011481M1 bus1=BMT120005806.1.2.3.0,Phases=3,kv=13.8,kW=12.80406,pf=0.92,Vminpu=0.93,Vmaxpu=1.5,model=1,daily=A4-4,status=variable
new load.3009012046M1 bus1=BMT150693813.1.2.3.0,Phases=3,kv=13.8,kW=3.1923,pf=0.92,Vminpu=0.93,Vmaxpu=1.5,model=1,daily=A4-1,status=variable
new load.3009012258M1 bus1=BMT150343874.1.2.3.0,Phases=3,kv=13.8,kW=186.9546,pf=0.92,Vminpu=0.93,Vmaxpu=1.5,model=1,daily=A4-5,status=variable
new load.3009012378M1 bus1=BMT120014549.1.2.3.0,Phases=3,kv=13.8,kW=16.7791,pf=0.92,Vminpu=0.93,Vmaxpu=1.5,model=1,daily=A4-3,status=variable
new load.3009012418M1 bus1=BMT150346831.1.2.3.0,Phases=3,kv=13.8,kW=24.68,pf=0.92,Vminpu=0.93,Vmaxpu=1.5,model=1,daily=A4-2,status=variable
new load.3009012435M1 bus1=BMT162020899.1.2.3.0,Phases=3,kv=13.8,kW=4.78844,pf=0.92,Vminpu=0.93,Vmaxpu=1.5,model=1,daily=A4-1,status=variable
new load.3009012437M1 bus1=BMT119949624.1.2.3.0,Phases=3,kv=13.8,kW=31.41092,pf=0.92,Vminpu=0.93,Vmaxpu=1.5,model=1,daily=A4-2,status=variable
new load.3009012453M1 bus1=BMT120005379.1.2.3.0,Phases=3,kv=13.8,kW=14.93806,pf=0.92,Vminpu=0.93,Vmaxpu=1.5,model=1,daily=A4-4,status=variable
new load.3009012784M1 bus1=BMT119977232.1.2.3.0,Phases=3,kv=13.8,kW=73.4086,pf=0.92,Vminpu=0.93,Vmaxpu=1.5,model=1,daily=A4-3,status=variable
new load.3009013333M1 bus1=BMT119949834.1.2.3.0,Phases=3,kv=13.8,kW=31.1591,pf=0.92,Vminpu=0.93,Vmaxpu=1.5,model=1,daily=A4-5,status=variable
new load.3009013543M1 bus1=BMT172070535.1.2.3.0,Phases=3,kv=13.8,kW=11.21818,pf=0.92,Vminpu=0.93,Vmaxpu=1.5,model=1,daily=A4-2,status=variable
new load.3009013545M1 bus1=BMT120005883.1.2.3.0,Phases=3,kv=13.8,kW=2.24364,pf=0.92,Vminpu=0.93,Vmaxpu=1.5,model=1,daily=A4-2,status=variable
new load.3009013546M1 bus1=BMT120005869.1.2.3.0,Phases=3,kv=13.8,kW=4.19478,pf=0.92,Vminpu=0.93,Vmaxpu=1.5,model=1,daily=A4-3,status=variable
new load.3009013784M1 bus1=BMT171499547.1.2.3.0,Phases=3,kv=13.8,kW=11.21818,pf=0.92,Vminpu=0.93,Vmaxpu=1.5,model=1,daily=A4-2,status=variable
new load.3009013800M1 bus1=BMT119973816.1.2.3.0,Phases=3,kv=13.8,kW=23.07128,pf=0.92,Vminpu=0.93,Vmaxpu=1.5,model=1,daily=A4-3,status=variable
new load.3009013981M1 bus1=BMT119960397.1.2.3.0,Phases=3,kv=13.8,kW=604.48654,pf=0.92,Vminpu=0.93,Vmaxpu=1.5,model=1,daily=A4-5,status=variable
new load.3009014230M1 bus1=BMT150347121.1.2.3.0,Phases=3,kv=13.8,kW=44.04516,pf=0.92,Vminpu=0.93,Vmaxpu=1.5,model=1,daily=A4-3,status=variable
new load.3009014490M1 bus1=BMT119974068.1.2.3.0,Phases=3,kv=13.8,kW=90.1877,pf=0.92,Vminpu=0.93,Vmaxpu=1.5,model=1,daily=A4-3,status=variable
new load.3009014676M1 bus1=BMT153531875.1.2.3.0,Phases=3,kv=13.8,kW=4.19478,pf=0.92,Vminpu=0.93,Vmaxpu=1.5,model=1,daily=A4-3,status=variable
new load.3009016110M1 bus1=BMT120013786.1.2.3.0,Phases=3,kv=13.8,kW=2.09738,pf=0.92,Vminpu=0.93,Vmaxpu=1.5,model=1,daily=A4-3,status=variable
new load.3009016144M1 bus1=BMT119961097.1.2.3.0,Phases=3,kv=13.8,kW=102.43242,pf=0.92,Vminpu=0.93,Vmaxpu=1.5,model=1,daily=A4-4,status=variable
new load.3009016197M1 bus1=BMT168273489.1.2.3.0,Phases=3,kv=13.8,kW=303.2819,pf=0.92,Vminpu=0.93,Vmaxpu=1.5,model=1,daily=A4-5,status=variable
new load.3009016368M1 bus1=BMT161275418.1.2.3.0,Phases=3,kv=13.8,kW=35.89818,pf=0.92,Vminpu=0.93,Vmaxpu=1.5,model=1,daily=A4-2,status=variable
new load.3009016538M1 bus1=BMT120005624.1.2.3.0,Phases=3,kv=13.8,kW=12.80406,pf=0.92,Vminpu=0.93,Vmaxpu=1.5,model=1,daily=A4-4,status=variable
new load.3009017328M1 bus1=BMT119949596.1.2.3.0,Phases=3,kv=13.8,kW=25.16866,pf=0.92,Vminpu=0.93,Vmaxpu=1.5,model=1,daily=A4-3,status=variable
new load.3009017556M1 bus1=BMT172402457.1.2.3.0,Phases=3,kv=13.8,kW=1.59614,pf=0.92,Vminpu=0.93,Vmaxpu=1.5,model=1,daily=A4-1,status=variable
new load.3009017999M1 bus1=BMT119949666.1.2.3.0,Phases=3,kv=13.8,kW=147.4864,pf=0.92,Vminpu=0.93,Vmaxpu=1.5,model=1,daily=A4-5,status=variable
new load.3009018521M1 bus1=BMT119994886.1.2.3.0,Phases=3,kv=13.8,kW=16.7791,pf=0.92,Vminpu=0.93,Vmaxpu=1.5,model=1,daily=A4-3,status=variable
new load.3009018644M1 bus1=BMT150343867.1.2.3.0,Phases=3,kv=13.8,kW=155.78266,pf=0.92,Vminpu=0.93,Vmaxpu=1.5,model=1,daily=A4-4,status=variable
new load.3009019167M1 bus1=BMT150343856.1.2.3.0,Phases=3,kv=13.8,kW=26.92364,pf=0.92,Vminpu=0.93,Vmaxpu=1.5,model=1,daily=A4-2,status=variable
new load.3009019465M1 bus1=BMT119992737.1.2.3.0,Phases=3,kv=13.8,kW=71.3112,pf=0.92,Vminpu=0.93,Vmaxpu=1.5,model=1,daily=A4-3,status=variable
new load.3009019623M1 bus1=BMT133989636.1.2.3.0,Phases=3,kv=13.8,kW=146.8172,pf=0.92,Vminpu=0.93,Vmaxpu=1.5,model=1,daily=A4-3,status=variable
new load.3009020114M1 bus1=BMT119965465.1.2.3.0,Phases=3,kv=13.8,kW=77.60338,pf=0.92,Vminpu=0.93,Vmaxpu=1.5,model=1,daily=A4-3,status=variable
new load.3009020424M1 bus1=BMT119963554.1.2.3.0,Phases=3,kv=13.8,kW=2.09738,pf=0.92,Vminpu=0.93,Vmaxpu=1.5,model=1,daily=A4-3,status=variable
new load.3009020861M1 bus1=BMT158448321.1.2.3.0,Phases=3,kv=13.8,kW=97.63184,pf=0.92,Vminpu=0.93,Vmaxpu=1.5,model=1,daily=A4-5,status=variable
new load.3009020938M1 bus1=BMT120020471.1.2.3.0,Phases=3,kv=13.8,kW=17.55762,pf=0.92,Vminpu=0.93,Vmaxpu=1.5,model=1,daily=A4-1,status=variable
new load.3009021083M1 bus1=BMT119993906.1.2.3.0,Phases=3,kv=13.8,kW=23.07128,pf=0.92,Vminpu=0.93,Vmaxpu=1.5,model=1,daily=A4-3,status=variable
new load.3009021641M1 bus1=BMT119978254.1.2.3.0,Phases=3,kv=13.8,kW=16.7791,pf=0.92,Vminpu=0.93,Vmaxpu=1.5,model=1,daily=A4-3,status=variable
new load.3009021706M1 bus1=BMT119992912.1.2.3.0,Phases=3,kv=13.8,kW=113.10248,pf=0.92,Vminpu=0.93,Vmaxpu=1.5,model=1,daily=A4-4,status=variable
new load.3009021840M1 bus1=BMT166660933.1.2.3.0,Phases=3,kv=13.8,kW=151.64096,pf=0.92,Vminpu=0.93,Vmaxpu=1.5,model=1,daily=A4-5,status=variable
new load.3009021857M1 bus1=BMT120014409.1.2.3.0,Phases=3,kv=13.8,kW=24.68,pf=0.92,Vminpu=0.93,Vmaxpu=1.5,model=1,daily=A4-2,status=variable
new load.3009021934M1 bus1=BMT119949778.1.2.3.0,Phases=3,kv=13.8,kW=54.0091,pf=0.92,Vminpu=0.93,Vmaxpu=1.5,model=1,daily=A4-5,status=variable
new load.3009022128M1 bus1=BMT119965500.1.2.3.0,Phases=3,kv=13.8,kW=78.95834,pf=0.92,Vminpu=0.93,Vmaxpu=1.5,model=1,daily=A4-4,status=variable
new load.3009022325M1 bus1=BMT151801261.1.2.3.0,Phases=3,kv=13.8,kW=96.0304,pf=0.92,Vminpu=0.93,Vmaxpu=1.5,model=1,daily=A4-4,status=variable
new load.3009022345M1 bus1=BMT120020730.1.2.3.0,Phases=3,kv=13.8,kW=87.49436,pf=0.92,Vminpu=0.93,Vmaxpu=1.5,model=1,daily=A4-4,status=variable
new load.3010001327M1 bus1=BMT150343860.1.2.3.0,Phases=3,kv=13.8,kW=28.73064,pf=0.92,Vminpu=0.93,Vmaxpu=1.5,model=1,daily=A4-1,status=variable
new load.3010002028M1 bus1=BMT120014577.1.2.3.0,Phases=3,kv=13.8,kW=23.07128,pf=0.92,Vminpu=0.93,Vmaxpu=1.5,model=1,daily=A4-3,status=variable
new load.3010105701M1 bus1=BMT119977246.1.2.3.0,Phases=3,kv=13.8,kW=153.10936,pf=0.92,Vminpu=0.93,Vmaxpu=1.5,model=1,daily=A4-3,status=variable
new load.3010217087M1 bus1=BMT120020303.1.2.3.0,Phases=3,kv=13.8,kW=13.46182,pf=0.92,Vminpu=0.93,Vmaxpu=1.5,model=1,daily=A4-2,status=variable
new load.3010314871M1 bus1=BMT119964898.1.2.3.0,Phases=3,kv=13.8,kW=50.33732,pf=0.92,Vminpu=0.93,Vmaxpu=1.5,model=1,daily=A4-3,status=variable
new load.3010331420M1 bus1=BMT119956981.1.2.3.0,Phases=3,kv=13.8,kW=10.48694,pf=0.92,Vminpu=0.93,Vmaxpu=1.5,model=1,daily=A4-3,status=variable
new load.3010364364M1 bus1=BMT119957863.1.2.3.0,Phases=3,kv=13.8,kW=27.26604,pf=0.92,Vminpu=0.93,Vmaxpu=1.5,model=1,daily=A4-3,status=variable
new load.3010431143M1 bus1=BMT150343839.1.2.3.0,Phases=3,kv=13.8,kW=69.21382,pf=0.92,Vminpu=0.93,Vmaxpu=1.5,model=1,daily=A4-3,status=variable
new load.3010626636M1 bus1=BMT120014493.1.2.3.0,Phases=3,kv=13.8,kW=41.94776,pf=0.92,Vminpu=0.93,Vmaxpu=1.5,model=1,daily=A4-3,status=variable
new load.3011045555M1 bus1=BMT120020625.1.2.3.0,Phases=3,kv=13.8,kW=17.9491,pf=0.92,Vminpu=0.93,Vmaxpu=1.5,model=1,daily=A4-2,status=variable
new load.3011308242M1 bus1=BMT120020289.1.2.3.0,Phases=3,kv=13.8,kW=2.134,pf=0.92,Vminpu=0.93,Vmaxpu=1.5,model=1,daily=A4-4,status=variable
new load.3011316731M1 bus1=BMT120014535.1.2.3.0,Phases=3,kv=13.8,kW=37.753,pf=0.92,Vminpu=0.93,Vmaxpu=1.5,model=1,daily=A4-3,status=variable
new load.3011426135M1 bus1=BMT120020989.1.2.3.0,Phases=3,kv=13.8,kW=42.68018,pf=0.92,Vminpu=0.93,Vmaxpu=1.5,model=1,daily=A4-4,status=variable
new load.3011469439M1 bus1=BMT150346951.1.2.3.0,Phases=3,kv=13.8,kW=78.95834,pf=0.92,Vminpu=0.93,Vmaxpu=1.5,model=1,daily=A4-4,status=variable
new load.3011743049M1 bus1=BMT136086864.1.2.3.0,Phases=3,kv=13.8,kW=2.24364,pf=0.92,Vminpu=0.93,Vmaxpu=1.5,model=1,daily=A4-2,status=variable
new load.3011823355M1 bus1=BMT150347984.1.2.3.0,Phases=3,kv=13.8,kW=20.19272,pf=0.92,Vminpu=0.93,Vmaxpu=1.5,model=1,daily=A4-2,status=variable
new load.3012126414M1 bus1=BMT154279963.1.2.3.0,Phases=3,kv=13.8,kW=52.43472,pf=0.92,Vminpu=0.93,Vmaxpu=1.5,model=1,daily=A4-3,status=variable
new load.3012144720M1 bus1=BMT149308821.1.2.3.0,Phases=3,kv=13.8,kW=17.07208,pf=0.92,Vminpu=0.93,Vmaxpu=1.5,model=1,daily=A4-4,status=variable
new load.3012148933M1 bus1=BMT151831128.1.2.3.0,Phases=3,kv=13.8,kW=813.5122,pf=0.92,Vminpu=0.93,Vmaxpu=1.5,model=1,daily=A4-7,status=variable
new load.3012240304M1 bus1=BMT153534564.1.2.3.0,Phases=3,kv=13.8,kW=18.8765,pf=0.92,Vminpu=0.93,Vmaxpu=1.5,model=1,daily=A4-3,status=variable
new load.3012864214M1 bus1=BMT172070500.1.2.3.0,Phases=3,kv=13.8,kW=89.74546,pf=0.92,Vminpu=0.93,Vmaxpu=1.5,model=1,daily=A4-2,status=variable
new load.3012988284M1 bus1=BMT160864475.1.2.3.0,Phases=3,kv=13.8,kW=2.07728,pf=0.92,Vminpu=0.93,Vmaxpu=1.5,model=1,daily=A4-5,status=variable
new load.3013063517M1 bus1=BMT172070382.1.2.3.0,Phases=3,kv=13.8,kW=3953.53314,pf=0.92,Vminpu=0.93,Vmaxpu=1.5,model=1,daily=A4-7,status=variable
new load.3013144443M1 bus1=BMT171326847.1.2.3.0,Phases=3,kv=13.8,kW=51.21622,pf=0.92,Vminpu=0.93,Vmaxpu=1.5,model=1,daily=A4-4,status=variable
new load.3013181982M1 bus1=BMT164992433.1.2.3.0,Phases=3,kv=13.8,kW=155.20674,pf=0.92,Vminpu=0.93,Vmaxpu=1.5,model=1,daily=A4-3,status=variable
new load.3013227209M1 bus1=BMT160604399.1.2.3.0,Phases=3,kv=13.8,kW=3.1923,pf=0.92,Vminpu=0.93,Vmaxpu=1.5,model=1,daily=A4-1,status=variable
new load.3013255373M1 bus1=BMT172070389.1.2.3.0,Phases=3,kv=13.8,kW=216.03642,pf=0.92,Vminpu=0.93,Vmaxpu=1.5,model=1,daily=A4-5,status=variable
new load.3013256854M1 bus1=BMT119992758.1.2.3.0,Phases=3,kv=13.8,kW=331.8606,pf=0.92,Vminpu=0.93,Vmaxpu=1.5,model=1,daily=A4-6,status=variable
new load.3013349279M1 bus1=BMT159185830.1.2.3.0,Phases=3,kv=13.8,kW=195.05712,pf=0.92,Vminpu=0.93,Vmaxpu=1.5,model=1,daily=A4-3,status=variable
new load.3013366695M1 bus1=BMT162150541.1.2.3.0,Phases=3,kv=13.8,kW=2.09738,pf=0.92,Vminpu=0.93,Vmaxpu=1.5,model=1,daily=A4-3,status=variable
new load.3013404412M1 bus1=BMT162405528.1.2.3.0,Phases=3,kv=13.8,kW=136.57658,pf=0.92,Vminpu=0.93,Vmaxpu=1.5,model=1,daily=A4-4,status=variable
new load.3013415335M1 bus1=BMT165919124.1.2.3.0,Phases=3,kv=13.8,kW=183.52476,pf=0.92,Vminpu=0.93,Vmaxpu=1.5,model=1,daily=A4-4,status=variable
new load.3013544104M1 bus1=BMT165518229.1.2.0,Phases=2,kv=13.8,kW=12.76918,pf=0.92,Vminpu=0.93,Vmaxpu=1.5,model=1,daily=A4-1,status=variable
new load.3013616807M1 bus1=BMT170884581.1.2.3.0,Phases=3,kv=13.8,kW=2.09738,pf=0.92,Vminpu=0.93,Vmaxpu=1.5,model=1,daily=A4-3,status=variable
new load.3013766387M1 bus1=BMT171443843.1.2.3.0,Phases=3,kv=13.8,kW=118.40458,pf=0.92,Vminpu=0.93,Vmaxpu=1.5,model=1,daily=A4-5,status=variable
new load.3013886546M1 bus1=BMT171808012.1.2.3.0,Phases=3,kv=13.8,kW=12.58434,pf=0.92,Vminpu=0.93,Vmaxpu=1.5,model=1,daily=A4-3,status=variable
