new line.10033204 bus1=BBT260390.1.2.3.0,bus2=BBT145949409.1.2.3.0,Phases=3,Linecode=BT803_BT803_4_3_4,Length=0.012082000,Units=km
new line.10043956 bus1=BBT146329824.1.2.0,bus2=BBT146329831.1.2.0,Phases=2,Linecode=BT518_BT518_7_2_1,Length=0.000500000,Units=km
new line.10043963 bus1=BBT146329873.1.2.0,bus2=BBT146329880.1.2.0,Phases=2,Linecode=BT518_BT518_7_2_1,Length=0.000500000,Units=km
new line.10091458 bus1=BBT147675854.1.2.0,bus2=BBT147675861.1.2.0,Phases=2,Linecode=BT521_BT521_7_2_1,Length=0.000500000,Units=km
new line.10093544 bus1=BBT147714354.1.2.3.0,bus2=BBT147714361.1.2.3.0,Phases=3,Linecode=BT513_BT513_7_3_1,Length=0.000500000,Units=km
new line.10093572 bus1=BBT147714361.1.2.3.0,bus2=BBT147714823.1.2.3.0,Phases=3,Linecode=BT803_BT803_4_3_4,Length=0.028633000,Units=km
new line.10093579 bus1=BBT147714361.1.2.3.0,bus2=BBT147714830.1.2.3.0,Phases=3,Linecode=BT803_BT803_4_3_4,Length=0.042044000,Units=km
new line.10093593 bus1=BBT147714823.1.2.3.0,bus2=BBT147714984.1.2.3.0,Phases=3,Linecode=BT803_BT803_4_3_4,Length=0.008246000,Units=km
new line.10093600 bus1=BBT147714984.1.2.3.0,bus2=BBT147714991.1.2.3.0,Phases=3,Linecode=BT803_BT803_4_3_4,Length=0.042056000,Units=km
new line.10093607 bus1=BBT147714823.1.2.3.0,bus2=BBT147714998.1.2.3.0,Phases=3,Linecode=BT803_BT803_4_3_4,Length=0.042950000,Units=km
new line.10093614 bus1=BBT147714830.1.2.3.0,bus2=BBT147715019.1.2.3.0,Phases=3,Linecode=BT803_BT803_4_3_4,Length=0.007280000,Units=km
new line.10093621 bus1=BBT147715019.1.2.3.0,bus2=BBT147715026.1.2.3.0,Phases=3,Linecode=BT803_BT803_4_3_4,Length=0.036232000,Units=km
new line.10093628 bus1=BBT147714830.1.2.3.0,bus2=BBT147715033.1.2.3.0,Phases=3,Linecode=BT803_BT803_4_3_4,Length=0.029964000,Units=km
new line.10093635 bus1=BBT147715033.1.2.3.0,bus2=BBT147715040.1.2.3.0,Phases=3,Linecode=BT803_BT803_4_3_4,Length=0.040715000,Units=km
new line.10093642 bus1=BBT147715040.1.2.3.0,bus2=BBT147715047.1.2.3.0,Phases=3,Linecode=BT803_BT803_4_3_4,Length=0.006708000,Units=km
new line.10093649 bus1=BBT147715047.1.2.3.0,bus2=BBT147715054.1.2.3.0,Phases=3,Linecode=BT803_BT803_4_3_4,Length=0.035352000,Units=km
new line.10093656 bus1=BBT147715040.1.2.3.0,bus2=BBT147715061.1.2.3.0,Phases=3,Linecode=BT803_BT803_4_3_4,Length=0.028633000,Units=km
new line.10093663 bus1=BBT147714998.1.2.3.0,bus2=BBT147715096.1.2.3.0,Phases=3,Linecode=BT803_BT803_4_3_4,Length=0.029964000,Units=km
new line.10093670 bus1=BBT147715096.1.2.3.0,bus2=BBT147715103.1.2.3.0,Phases=3,Linecode=BT803_BT803_4_3_4,Length=0.006324000,Units=km
new line.10093677 bus1=BBT147715103.1.2.3.0,bus2=BBT147715110.1.2.3.0,Phases=3,Linecode=BT803_BT803_4_3_4,Length=0.041589000,Units=km
new line.10093684 bus1=BBT147715096.1.2.3.0,bus2=BBT147715180.1.2.3.0,Phases=3,Linecode=BT803_BT803_4_3_4,Length=0.037573000,Units=km
new line.10093691 bus1=BBT147715180.1.2.3.0,bus2=BBT147715341.1.2.3.0,Phases=3,Linecode=BT803_BT803_4_3_4,Length=0.029964000,Units=km
new line.10093698 bus1=BBT147715341.1.2.3.0,bus2=BBT147715348.1.2.3.0,Phases=3,Linecode=BT803_BT803_4_3_4,Length=0.026831000,Units=km
new line.10094125 bus1=BBT147714991.1.2.3.0,bus2=BBT147729649.1.2.3.0,Phases=3,Linecode=BT803_BT803_4_3_4,Length=0.038010000,Units=km
new line.10094132 bus1=BBT147715026.1.2.3.0,bus2=BBT147729656.1.2.3.0,Phases=3,Linecode=BT803_BT803_4_3_4,Length=0.031302000,Units=km
new line.10094139 bus1=BBT147729656.1.2.3.0,bus2=BBT147729663.1.2.3.0,Phases=3,Linecode=BT803_BT803_4_3_4,Length=0.034882000,Units=km
new line.10094146 bus1=BBT147715054.1.2.3.0,bus2=BBT147729670.1.2.3.0,Phases=3,Linecode=BT803_BT803_4_3_4,Length=0.032200000,Units=km
new line.10094153 bus1=BBT147729670.1.2.3.0,bus2=BBT147729677.1.2.3.0,Phases=3,Linecode=BT803_BT803_4_3_4,Length=0.033538000,Units=km
new line.10095231 bus1=BBT147748101.1.2.3.0,bus2=BBT147748108.1.2.3.0,Phases=3,Linecode=BT518_BT518_7_3_1,Length=0.000500000,Units=km
new line.10095238 bus1=BBT147748108.1.2.3.0,bus2=BBT147748395.1.2.3.0,Phases=3,Linecode=BT803_BT803_4_3_4,Length=0.036246000,Units=km
new line.10095245 bus1=BBT147748395.1.2.3.0,bus2=BBT147748500.1.2.3.0,Phases=3,Linecode=BT803_BT803_4_3_4,Length=0.036246000,Units=km
new line.10095252 bus1=BBT147748500.1.2.3.0,bus2=BBT147748528.1.2.3.0,Phases=3,Linecode=BT803_BT803_4_3_4,Length=0.036246000,Units=km
new line.10095259 bus1=BBT147748108.1.2.3.0,bus2=BBT147748535.1.2.3.0,Phases=3,Linecode=BT803_BT803_4_3_4,Length=0.037118000,Units=km
new line.10095266 bus1=BBT147748395.1.2.3.0,bus2=BBT147748598.1.2.3.0,Phases=3,Linecode=BT803_BT803_4_3_4,Length=0.016552000,Units=km
new line.10095273 bus1=BBT147748598.1.2.3.0,bus2=BBT147748605.1.2.3.0,Phases=3,Linecode=BT803_BT803_4_3_4,Length=0.035774000,Units=km
new line.10095280 bus1=BBT147748605.1.2.3.0,bus2=BBT147748612.1.2.3.0,Phases=3,Linecode=BT803_BT803_4_3_4,Length=0.036246000,Units=km
new line.10095294 bus1=BBT147748598.1.2.3.0,bus2=BBT147748661.1.2.3.0,Phases=3,Linecode=BT803_BT803_4_3_4,Length=0.036246000,Units=km
new line.10095315 bus1=BBT147748535.1.2.3.0,bus2=BBT147748717.1.2.3.0,Phases=3,Linecode=BT803_BT803_4_3_4,Length=0.036246000,Units=km
new line.10095329 bus1=BBT147748717.1.2.3.0,bus2=BBT147750439.1.2.3.0,Phases=3,Linecode=BT803_BT803_4_3_4,Length=0.041142000,Units=km
new line.10095343 bus1=BBT147748661.1.2.3.0,bus2=BBT147750775.1.2.3.0,Phases=3,Linecode=BT803_BT803_4_3_4,Length=0.036671000,Units=km
new line.10095350 bus1=BBT147750775.1.2.3.0,bus2=BBT147750859.1.2.3.0,Phases=3,Linecode=BT803_BT803_4_3_4,Length=0.036671000,Units=km
new line.10095357 bus1=BBT147750859.1.2.3.0,bus2=BBT147750950.1.2.3.0,Phases=3,Linecode=BT803_BT803_4_3_4,Length=0.040715000,Units=km
new line.10095364 bus1=BBT147750775.1.2.3.0,bus2=BBT147751118.1.2.3.0,Phases=3,Linecode=BT803_BT803_4_3_4,Length=0.015651000,Units=km
new line.10095378 bus1=BBT147751489.1.2.3.0,bus2=BBT147751496.1.2.3.0,Phases=3,Linecode=BT518_BT518_7_3_1,Length=0.000500000,Units=km
new line.10095385 bus1=BBT147751496.1.2.3.0,bus2=BBT147751503.1.2.3.0,Phases=3,Linecode=BT803_BT803_4_3_4,Length=0.036671000,Units=km
new line.10095392 bus1=BBT147751503.1.2.3.0,bus2=BBT147751510.1.2.3.0,Phases=3,Linecode=BT803_BT803_4_3_4,Length=0.037573000,Units=km
new line.10095399 bus1=BBT147751496.1.2.3.0,bus2=BBT147751615.1.2.3.0,Phases=3,Linecode=BT803_BT803_4_3_4,Length=0.036246000,Units=km
new line.10095406 bus1=BBT147751615.1.2.3.0,bus2=BBT147751622.1.2.3.0,Phases=3,Linecode=BT803_BT803_4_3_4,Length=0.036246000,Units=km
new line.10095413 bus1=BBT147751615.1.2.3.0,bus2=BBT147751811.1.2.3.0,Phases=3,Linecode=BT803_BT803_4_3_4,Length=0.016552000,Units=km
new line.10095420 bus1=BBT147751811.1.2.3.0,bus2=BBT147751818.1.2.3.0,Phases=3,Linecode=BT803_BT803_4_3_4,Length=0.036671000,Units=km
new line.10095427 bus1=BBT147751811.1.2.3.0,bus2=BBT147751825.1.2.3.0,Phases=3,Linecode=BT803_BT803_4_3_4,Length=0.036246000,Units=km
new line.10095434 bus1=BBT147751825.1.2.3.0,bus2=BBT147751832.1.2.3.0,Phases=3,Linecode=BT803_BT803_4_3_4,Length=0.036671000,Units=km
new line.10095441 bus1=BBT147751832.1.2.3.0,bus2=BBT147751839.1.2.3.0,Phases=3,Linecode=BT803_BT803_4_3_4,Length=0.016552000,Units=km
new line.10095448 bus1=BBT147751832.1.2.3.0,bus2=BBT147751846.1.2.3.0,Phases=3,Linecode=BT803_BT803_4_3_4,Length=0.038907000,Units=km
new line.10000857 bus1=BBT145043217.1.2.0,bus2=BBT145043224.1.2.0,Phases=2,Linecode=BT518_BT518_7_2_1,Length=0.000500000,Units=km
new line.10001963 bus1=BBT145070993.1.2.0,bus2=BBT145071000.1.2.0,Phases=2,Linecode=BT521_BT521_7_2_1,Length=0.000500000,Units=km
new line.10009138 bus1=BBT145302322.1.2.3.0,bus2=BBT137044758.1.2.3.0,Phases=3,Linecode=BT518_BT518_7_3_1,Length=0.000500000,Units=km
new line.10070598 bus1=BBT147097696.1.2.0,bus2=BBT147097703.1.2.0,Phases=2,Linecode=BT518_BT518_7_2_1,Length=0.000501000,Units=km
new line.10070612 bus1=BBT147098886.1.2.0,bus2=BBT147098893.1.2.0,Phases=2,Linecode=BT518_BT518_7_2_1,Length=0.000501000,Units=km
new line.181199 bus1=BBT204999.1.2.3.0,bus2=BBT204992.1.2.3.0,Phases=3,Linecode=BT108_BT107_7_3_1,Length=0.032631000,Units=km
new line.181206 bus1=BBT205006.1.2.3.0,bus2=BBT205013.1.2.3.0,Phases=3,Linecode=BT107_BT106_7_3_1,Length=0.033351000,Units=km
new line.181220 bus1=BBT205146.1.2.3.0,bus2=BBT204999.1.2.3.0,Phases=3,Linecode=BT107_BT107_7_3_1,Length=0.034698000,Units=km
new line.181227 bus1=BBT205013.1.2.3.0,bus2=BBT205020.1.2.3.0,Phases=3,Linecode=BT107_BT106_7_3_1,Length=0.029820000,Units=km
new line.181234 bus1=BBT205034.1.2.3.0,bus2=BBT205041.1.2.3.0,Phases=3,Linecode=BT108_BT108_7_3_1,Length=0.035967000,Units=km
new line.181248 bus1=BBT205027.1.2.3.0,bus2=BBT205048.1.2.3.0,Phases=3,Linecode=BT508_BT508_7_3_1,Length=0.000504000,Units=km
new line.181255 bus1=BBT205048.1.2.3.0,bus2=BBT205062.1.2.3.0,Phases=3,Linecode=BT108_BT108_7_3_1,Length=0.036290000,Units=km
new line.181262 bus1=BBT205048.1.2.3.0,bus2=BBT5459913.1.2.3.0,Phases=3,Linecode=BT108_BT108_7_3_1,Length=0.017063000,Units=km
new line.181269 bus1=BBT205055.1.2.3.0,bus2=BBT3519786.1.2.3.0,Phases=3,Linecode=BT803_BT803_4_3_4,Length=0.036792000,Units=km
new line.181276 bus1=BBT205062.1.2.3.0,bus2=BBT205076.1.2.3.0,Phases=3,Linecode=BT108_BT108_7_3_1,Length=0.037027000,Units=km
new line.181283 bus1=BBT205069.1.2.3.0,bus2=BBT205055.1.2.3.0,Phases=3,Linecode=BT803_BT803_4_3_4,Length=0.034851000,Units=km
new line.181290 bus1=BBT205076.1.2.3.0,bus2=BBT205083.1.2.3.0,Phases=3,Linecode=BT107_BT107_7_3_1,Length=0.035516000,Units=km
new line.181297 bus1=BBT3518792.1.2.3.0,bus2=BBT205069.1.2.3.0,Phases=3,Linecode=BT803_BT803_4_3_4,Length=0.036272000,Units=km
new line.181304 bus1=BBT3518785.1.2.3.0,bus2=BBT3518792.1.2.3.0,Phases=3,Linecode=BT508_BT508_7_3_1,Length=0.000507000,Units=km
new line.181311 bus1=BBT3518792.1.2.3.0,bus2=BBT205090.1.2.3.0,Phases=3,Linecode=BT803_BT803_4_3_4,Length=0.035856000,Units=km
new line.181318 bus1=BBT205083.1.2.3.0,bus2=BBT205097.1.2.3.0,Phases=3,Linecode=BT107_BT107_7_3_1,Length=0.033238000,Units=km
new line.181325 bus1=BBT205090.1.2.3.0,bus2=BBT205104.1.2.3.0,Phases=3,Linecode=BT803_BT803_4_3_4,Length=0.035062000,Units=km
new line.181332 bus1=BBT205104.1.2.3.0,bus2=BBT205111.1.2.3.0,Phases=3,Linecode=BT803_BT803_4_3_4,Length=0.032708000,Units=km
new line.181339 bus1=BBT205111.1.2.3.0,bus2=BBT205118.1.2.3.0,Phases=3,Linecode=BT803_BT803_4_3_4,Length=0.031867000,Units=km
new line.181353 bus1=BBT205125.1.2.3.0,bus2=BBT205132.1.2.3.0,Phases=3,Linecode=BT512_BT512_7_3_1,Length=0.000503000,Units=km
new line.181360 bus1=BBT205153.1.2.3.0,bus2=BBT205146.1.2.3.0,Phases=3,Linecode=BT108_BT107_7_3_1,Length=0.038044000,Units=km
new line.181374 bus1=BBT205160.1.2.3.0,bus2=BBT205153.1.2.3.0,Phases=3,Linecode=BT108_BT107_7_3_1,Length=0.030507000,Units=km
new line.181381 bus1=BBT205139.1.2.3.0,bus2=BBT205160.1.2.3.0,Phases=3,Linecode=BT508_BT508_7_3_1,Length=0.000503000,Units=km
new line.181388 bus1=BBT205160.1.2.3.0,bus2=BBT205167.1.2.3.0,Phases=3,Linecode=BT108_BT107_7_3_1,Length=0.032654000,Units=km
new line.181395 bus1=BBT205167.1.2.3.0,bus2=BBT205174.1.2.3.0,Phases=3,Linecode=BT108_BT107_7_3_1,Length=0.035489000,Units=km
new line.181402 bus1=BBT205174.1.2.3.0,bus2=BBT205181.1.2.3.0,Phases=3,Linecode=BT108_BT107_7_3_1,Length=0.034072000,Units=km
new line.181416 bus1=BBT205202.1.2.3.0,bus2=BBT205195.1.2.3.0,Phases=3,Linecode=BT803_BT803_4_3_4,Length=0.041855000,Units=km
new line.181423 bus1=BBT205209.1.2.3.0,bus2=BBT205202.1.2.3.0,Phases=3,Linecode=BT803_BT803_4_3_4,Length=0.034822000,Units=km
new line.181430 bus1=BBT205188.1.2.3.0,bus2=BBT205209.1.2.3.0,Phases=3,Linecode=BT513_BT513_7_3_1,Length=0.000502000,Units=km
new line.181437 bus1=BBT205209.1.2.3.0,bus2=BBT205216.1.2.3.0,Phases=3,Linecode=BT803_BT803_4_3_4,Length=0.034964000,Units=km
new line.181444 bus1=BBT205216.1.2.3.0,bus2=BBT205223.1.2.3.0,Phases=3,Linecode=BT108_BT107_7_3_1,Length=0.033496000,Units=km
new line.181451 bus1=BBT205223.1.2.3.0,bus2=BBT205230.1.2.3.0,Phases=3,Linecode=BT108_BT107_7_3_1,Length=0.035605000,Units=km
new line.182214 bus1=BBT3276774.1.2.3.0,bus2=BBT3276781.1.2.3.0,Phases=3,Linecode=BT810_BT810_4_3_4,Length=0.031397000,Units=km
new line.182221 bus1=BBT3276788.1.2.3.0,bus2=BBT3276795.1.2.3.0,Phases=3,Linecode=BT810_BT810_4_3_4,Length=0.022358000,Units=km
new line.182228 bus1=BBT3276809.1.2.3.0,bus2=BBT3276816.1.2.3.0,Phases=3,Linecode=BT810_BT810_4_3_4,Length=0.029271000,Units=km
new line.182235 bus1=BBT3277103.1.2.3.0,bus2=BBT3277110.1.2.3.0,Phases=3,Linecode=BT810_BT810_4_3_4,Length=0.032385000,Units=km
new line.182249 bus1=BBT205923.1.2.0,bus2=BBT205916.1.2.0,Phases=2,Linecode=BT807_BT807_4_2_3,Length=0.022470000,Units=km
new line.182256 bus1=BBT205930.1.2.0,bus2=BBT205923.1.2.0,Phases=2,Linecode=BT807_BT807_4_2_3,Length=0.007615000,Units=km
new line.182263 bus1=BBT205930.1.2.0,bus2=BBT205958.1.2.0,Phases=2,Linecode=BT807_BT807_4_2_3,Length=0.025629000,Units=km
new line.182270 bus1=BBT205937.1.2.0,bus2=BBT205930.1.2.0,Phases=2,Linecode=BT807_BT807_4_2_3,Length=0.032890000,Units=km
new line.182277 bus1=BBT205951.1.2.0,bus2=BBT205937.1.2.0,Phases=2,Linecode=BT807_BT807_4_2_3,Length=0.032890000,Units=km
new line.182284 bus1=BBT205909.1.2.0,bus2=BBT205951.1.2.0,Phases=2,Linecode=BT311_BT311_7_2_1,Length=0.000500000,Units=km
new line.182291 bus1=BBT205951.1.2.0,bus2=BBT205965.1.2.0,Phases=2,Linecode=BT807_BT807_4_2_3,Length=0.031950000,Units=km
new line.182298 bus1=BBT205965.1.2.0,bus2=BBT205972.1.2.0,Phases=2,Linecode=BT807_BT807_4_2_3,Length=0.035436000,Units=km
new line.182305 bus1=BBT205972.1.2.0,bus2=BBT205944.1.2.0,Phases=2,Linecode=BT807_BT807_4_2_3,Length=0.037479000,Units=km
new line.182312 bus1=BBT205972.1.2.0,bus2=BBT205979.1.2.0,Phases=2,Linecode=BT807_BT807_4_2_3,Length=0.027200000,Units=km
new line.182319 bus1=BBT206000.1.2.0,bus2=BBT205993.1.2.0,Phases=2,Linecode=BT108_BT107_7_2_1,Length=0.033132000,Units=km
new line.182326 bus1=BBT205986.1.2.0,bus2=BBT206000.1.2.0,Phases=2,Linecode=BT307_BT307_7_2_1,Length=0.000500000,Units=km
new line.182333 bus1=BBT206000.1.2.0,bus2=BBT206007.1.2.0,Phases=2,Linecode=BT108_BT107_7_2_1,Length=0.030013000,Units=km
new line.182340 bus1=BBT206007.1.2.0,bus2=BBT206014.1.2.0,Phases=2,Linecode=BT106_BT106_7_2_1,Length=0.038048000,Units=km
new line.182347 bus1=BBT206014.1.2.0,bus2=BBT206021.1.2.0,Phases=2,Linecode=BT106_BT106_7_2_1,Length=0.033057000,Units=km
new line.182354 bus1=BBT206021.1.2.0,bus2=BBT206028.1.2.0,Phases=2,Linecode=BT106_BT106_7_2_1,Length=0.027016000,Units=km
new line.182361 bus1=BBT206028.1.2.0,bus2=BBT3130824.1.2.0,Phases=2,Linecode=BT106_BT106_7_2_1,Length=0.017028000,Units=km
new line.182368 bus1=BBT3277369.1.2.3.0,bus2=BBT3277376.1.2.3.0,Phases=3,Linecode=BT810_BT810_4_3_4,Length=0.021022000,Units=km
new line.182382 bus1=BBT206049.1.2.0,bus2=BBT206042.1.2.0,Phases=2,Linecode=BT107_BT107_7_2_1,Length=0.026923000,Units=km
new line.10097443 bus1=BBT147813516.1.2.3.0,bus2=BBT241868.1.2.3.0,Phases=3,Linecode=BT513_BT513_7_3_1,Length=0.000500000,Units=km
new line.10105262 bus1=BBT148012134.1.2.0,bus2=BBT148012141.1.2.0,Phases=2,Linecode=BT521_BT521_7_2_1,Length=0.000501000,Units=km
new line.181465 bus1=BBT205237.1.2.3.0,bus2=BBT205244.1.2.3.0,Phases=3,Linecode=BT311_BT311_7_3_1,Length=0.000500000,Units=km
new line.181479 bus1=BBT205251.1.2.3.0,bus2=BBT205258.1.2.3.0,Phases=3,Linecode=BT512_BT512_7_3_1,Length=0.000500000,Units=km
new line.181486 bus1=BBT205328.1.2.3.0,bus2=BBT205321.1.2.3.0,Phases=3,Linecode=BT108_BT107_7_3_1,Length=0.034924000,Units=km
new line.181493 bus1=BBT205265.1.2.3.0,bus2=BBT205272.1.2.3.0,Phases=3,Linecode=BT514_BT514_7_3_1,Length=0.000500000,Units=km
new line.181521 bus1=BBT205293.1.2.3.0,bus2=BBT205286.1.2.3.0,Phases=3,Linecode=BT108_BT107_7_3_1,Length=0.036051000,Units=km
new line.181528 bus1=BBT205300.1.2.3.0,bus2=BBT205293.1.2.3.0,Phases=3,Linecode=BT108_BT107_7_3_1,Length=0.035506000,Units=km
new line.181535 bus1=BBT205307.1.2.3.0,bus2=BBT205300.1.2.3.0,Phases=3,Linecode=BT108_BT107_7_3_1,Length=0.036711000,Units=km
new line.181542 bus1=BBT3048035.1.2.3.0,bus2=BBT205307.1.2.3.0,Phases=3,Linecode=BT513_BT513_7_3_1,Length=0.000500000,Units=km
new line.181549 bus1=BBT205307.1.2.3.0,bus2=BBT205314.1.2.3.0,Phases=3,Linecode=BT108_BT107_7_3_1,Length=0.035773000,Units=km
new line.181556 bus1=BBT205314.1.2.3.0,bus2=BBT3048042.1.2.3.0,Phases=3,Linecode=BT108_BT107_7_3_1,Length=0.036245000,Units=km
new line.181563 bus1=BBT205335.1.2.3.0,bus2=BBT205328.1.2.3.0,Phases=3,Linecode=BT108_BT107_7_3_1,Length=0.036051000,Units=km
new line.181570 bus1=BBT205342.1.2.3.0,bus2=BBT205335.1.2.3.0,Phases=3,Linecode=BT108_BT107_7_3_1,Length=0.036683000,Units=km
new line.181577 bus1=BBT205279.1.2.3.0,bus2=BBT205342.1.2.3.0,Phases=3,Linecode=BT513_BT513_7_3_1,Length=0.000500000,Units=km
new line.181584 bus1=BBT205342.1.2.3.0,bus2=BBT205349.1.2.3.0,Phases=3,Linecode=BT108_BT107_7_3_1,Length=0.035167000,Units=km
new line.181591 bus1=BBT205349.1.2.3.0,bus2=BBT205356.1.2.3.0,Phases=3,Linecode=BT108_BT107_7_3_1,Length=0.035689000,Units=km
new line.181598 bus1=BBT205356.1.2.3.0,bus2=BBT205363.1.2.3.0,Phases=3,Linecode=BT108_BT107_7_3_1,Length=0.035506000,Units=km
new line.181605 bus1=BBT205384.1.2.3.0,bus2=BBT205377.1.2.3.0,Phases=3,Linecode=BT108_BT107_7_3_1,Length=0.036341000,Units=km
new line.181612 bus1=BBT3618689.1.2.3.0,bus2=BBT3618696.1.2.3.0,Phases=3,Linecode=BT513_BT513_7_3_1,Length=0.000500000,Units=km
new line.181619 bus1=BBT205391.1.2.3.0,bus2=BBT205384.1.2.3.0,Phases=3,Linecode=BT108_BT107_7_3_1,Length=0.040306000,Units=km
new line.181640 bus1=BBT205398.1.2.3.0,bus2=BBT205391.1.2.3.0,Phases=3,Linecode=BT108_BT107_7_3_1,Length=0.033373000,Units=km
new line.181647 bus1=BBT205370.1.2.3.0,bus2=BBT205433.1.2.3.0,Phases=3,Linecode=BT514_BT514_7_3_1,Length=0.000500000,Units=km
new line.181654 bus1=BBT205405.1.2.3.0,bus2=BBT205398.1.2.3.0,Phases=3,Linecode=BT108_BT107_7_3_1,Length=0.032384000,Units=km
new line.181661 bus1=BBT205412.1.2.3.0,bus2=BBT205405.1.2.3.0,Phases=3,Linecode=BT108_BT107_7_3_1,Length=0.032384000,Units=km
new line.181668 bus1=BBT205433.1.2.3.0,bus2=BBT205412.1.2.3.0,Phases=3,Linecode=BT803_BT803_4_3_4,Length=0.033238000,Units=km
new line.181675 bus1=BBT205433.1.2.3.0,bus2=BBT114234040.1.2.3.0,Phases=3,Linecode=BT803_BT803_4_3_4,Length=0.029271000,Units=km
new line.181682 bus1=BBT205440.1.2.0,bus2=BBT205447.1.2.0,Phases=2,Linecode=BT107_BT106_7_2_1,Length=0.029407000,Units=km
new line.181689 bus1=BBT205447.1.2.0,bus2=BBT205454.1.2.0,Phases=2,Linecode=BT107_BT106_7_2_1,Length=0.030262000,Units=km
new line.181696 bus1=BBT205454.1.2.0,bus2=BBT205461.1.2.0,Phases=2,Linecode=BT107_BT106_7_2_1,Length=0.030410000,Units=km
new line.181703 bus1=BBT205461.1.2.0,bus2=BBT205468.1.2.0,Phases=2,Linecode=BT107_BT106_7_2_1,Length=0.030146000,Units=km
new line.182487 bus1=BBT206147.1.2.0,bus2=BBT206154.1.2.0,Phases=2,Linecode=BT107_BT107_7_2_1,Length=0.024039000,Units=km
new line.182494 bus1=BBT206168.1.2.0,bus2=BBT206175.1.2.0,Phases=2,Linecode=BT807_BT807_4_2_3,Length=0.027520000,Units=km
new line.182501 bus1=BBT206182.1.2.0,bus2=BBT206168.1.2.0,Phases=2,Linecode=BT807_BT807_4_2_3,Length=0.033453000,Units=km
new line.182508 bus1=BBT206189.1.2.0,bus2=BBT206182.1.2.0,Phases=2,Linecode=BT807_BT807_4_2_3,Length=0.033453000,Units=km
new line.182515 bus1=BBT206161.1.2.0,bus2=BBT206189.1.2.0,Phases=2,Linecode=BT307_BT307_7_2_1,Length=0.000504000,Units=km
new line.182522 bus1=BBT206189.1.2.0,bus2=BBT206196.1.2.0,Phases=2,Linecode=BT807_BT807_4_2_3,Length=0.036289000,Units=km
new line.182529 bus1=BBT206196.1.2.0,bus2=BBT206203.1.2.0,Phases=2,Linecode=BT807_BT807_4_2_3,Length=0.036415000,Units=km
new line.182536 bus1=BBT206203.1.2.0,bus2=BBT206210.1.2.0,Phases=2,Linecode=BT807_BT807_4_2_3,Length=0.027310000,Units=km
new line.182543 bus1=BBT206231.1.2.0,bus2=BBT206224.1.2.0,Phases=2,Linecode=BT107_BT107_7_2_1,Length=0.025296000,Units=km
new line.182550 bus1=BBT206231.1.2.0,bus2=BBT206259.1.2.0,Phases=2,Linecode=BT107_BT107_7_2_1,Length=0.029729000,Units=km
new line.182557 bus1=BBT206238.1.2.0,bus2=BBT206231.1.2.0,Phases=2,Linecode=BT108_BT108_7_2_1,Length=0.032890000,Units=km
new line.182564 bus1=BBT206245.1.2.0,bus2=BBT206238.1.2.0,Phases=2,Linecode=BT108_BT108_7_2_1,Length=0.033834000,Units=km
new line.182571 bus1=BBT206217.1.2.0,bus2=BBT206245.1.2.0,Phases=2,Linecode=BT311_BT311_7_2_1,Length=0.000500000,Units=km
new line.182578 bus1=BBT206245.1.2.0,bus2=BBT206266.1.2.0,Phases=2,Linecode=BT108_BT108_7_2_1,Length=0.034536000,Units=km
new line.182585 bus1=BBT206266.1.2.0,bus2=BBT206273.1.2.0,Phases=2,Linecode=BT108_BT108_7_2_1,Length=0.035464000,Units=km
new line.182592 bus1=BBT206273.1.2.0,bus2=BBT206252.1.2.0,Phases=2,Linecode=BT107_BT107_7_2_1,Length=0.025296000,Units=km
new line.182599 bus1=BBT206273.1.2.0,bus2=BBT206280.1.2.0,Phases=2,Linecode=BT107_BT107_7_2_1,Length=0.024997000,Units=km
new line.182606 bus1=BBT206301.1.2.0,bus2=BBT206294.1.2.0,Phases=2,Linecode=BT807_BT807_4_2_3,Length=0.026936000,Units=km
new line.182613 bus1=BBT206301.1.2.0,bus2=BBT206308.1.2.0,Phases=2,Linecode=BT807_BT807_4_2_3,Length=0.021549000,Units=km
new line.182620 bus1=BBT206315.1.2.0,bus2=BBT206301.1.2.0,Phases=2,Linecode=BT807_BT807_4_2_3,Length=0.035340000,Units=km
new line.182627 bus1=BBT206322.1.2.0,bus2=BBT206315.1.2.0,Phases=2,Linecode=BT807_BT807_4_2_3,Length=0.035340000,Units=km
new line.182634 bus1=BBT206287.1.2.0,bus2=BBT206322.1.2.0,Phases=2,Linecode=BT307_BT307_7_2_1,Length=0.000504000,Units=km
new line.182641 bus1=BBT206322.1.2.0,bus2=BBT206329.1.2.0,Phases=2,Linecode=BT807_BT807_4_2_3,Length=0.035261000,Units=km
new line.182648 bus1=BBT206329.1.2.0,bus2=BBT206343.1.2.0,Phases=2,Linecode=BT807_BT807_4_2_3,Length=0.034536000,Units=km
new line.182655 bus1=BBT206343.1.2.0,bus2=BBT206336.1.2.0,Phases=2,Linecode=BT807_BT807_4_2_3,Length=0.027511000,Units=km
new line.182662 bus1=BBT206343.1.2.0,bus2=BBT206350.1.2.0,Phases=2,Linecode=BT807_BT807_4_2_3,Length=0.024696000,Units=km
new line.182669 bus1=BBT206371.1.2.0,bus2=BBT206364.1.2.0,Phases=2,Linecode=BT107_BT107_7_2_1,Length=0.023416000,Units=km
new line.182676 bus1=BBT206378.1.2.0,bus2=BBT206371.1.2.0,Phases=2,Linecode=BT108_BT108_7_2_1,Length=0.035340000,Units=km
new line.182683 bus1=BBT206385.1.2.0,bus2=BBT206378.1.2.0,Phases=2,Linecode=BT108_BT108_7_2_1,Length=0.035693000,Units=km
new line.182690 bus1=BBT206357.1.2.0,bus2=BBT206385.1.2.0,Phases=2,Linecode=BT307_BT307_7_2_1,Length=0.000504000,Units=km
new line.10018994 bus1=BBT145621137.1.2.0,bus2=BBT145621144.1.2.0,Phases=2,Linecode=BT521_BT521_7_2_1,Length=0.000500000,Units=km
new line.10024251 bus1=BBT336025.1.2.3.0,bus2=BBT145779421.1.2.3.0,Phases=3,Linecode=BT803_BT803_4_3_4,Length=0.017999000,Units=km
new line.181710 bus1=BBT205475.1.2.3.0,bus2=BBT205440.1.2.3.0,Phases=3,Linecode=BT108_BT107_7_3_1,Length=0.028281000,Units=km
new line.181717 bus1=BBT205475.1.2.0,bus2=BBT205482.1.2.0,Phases=2,Linecode=BT107_BT106_7_2_1,Length=0.025176000,Units=km
new line.181724 bus1=BBT205482.1.2.0,bus2=BBT205489.1.2.0,Phases=2,Linecode=BT107_BT106_7_2_1,Length=0.034362000,Units=km
new line.181731 bus1=BBT205489.1.2.0,bus2=BBT205496.1.2.0,Phases=2,Linecode=BT107_BT106_7_2_1,Length=0.030262000,Units=km
new line.181738 bus1=BBT205496.1.2.0,bus2=BBT205503.1.2.0,Phases=2,Linecode=BT107_BT106_7_2_1,Length=0.031777000,Units=km
new line.181745 bus1=BBT205510.1.2.3.0,bus2=BBT205475.1.2.3.0,Phases=3,Linecode=BT108_BT107_7_3_1,Length=0.030410000,Units=km
new line.181752 bus1=BBT205426.1.2.3.0,bus2=BBT205510.1.2.3.0,Phases=3,Linecode=BT309_BT309_7_3_1,Length=0.000500000,Units=km
new line.181759 bus1=BBT205510.1.2.3.0,bus2=BBT205517.1.2.3.0,Phases=3,Linecode=BT108_BT107_7_3_1,Length=0.030262000,Units=km
new line.181766 bus1=BBT205517.1.2.3.0,bus2=BBT205524.1.2.3.0,Phases=3,Linecode=BT108_BT107_7_3_1,Length=0.032384000,Units=km
new line.181773 bus1=BBT205524.1.2.3.0,bus2=BBT205531.1.2.3.0,Phases=3,Linecode=BT803_BT803_4_3_4,Length=0.032384000,Units=km
new line.181780 bus1=BBT205531.1.2.3.0,bus2=BBT205538.1.2.3.0,Phases=3,Linecode=BT803_BT803_4_3_4,Length=0.032245000,Units=km
new line.181787 bus1=BBT205538.1.2.3.0,bus2=BBT205545.1.2.3.0,Phases=3,Linecode=BT803_BT803_4_3_4,Length=0.034781000,Units=km
new line.181794 bus1=BBT205545.1.2.3.0,bus2=BBT205552.1.2.3.0,Phases=3,Linecode=BT803_BT803_4_3_4,Length=0.029066000,Units=km
new line.181801 bus1=BBT205552.1.2.3.0,bus2=BBT205566.1.2.3.0,Phases=3,Linecode=BT803_BT803_4_3_4,Length=0.031141000,Units=km
new line.181808 bus1=BBT205566.1.2.3.0,bus2=BBT205580.1.2.3.0,Phases=3,Linecode=BT803_BT803_4_3_4,Length=0.033373000,Units=km
new line.181815 bus1=BBT205573.1.2.0,bus2=BBT205559.1.2.0,Phases=2,Linecode=BT107_BT106_7_2_1,Length=0.029271000,Units=km
new line.181822 bus1=BBT205580.1.2.3.0,bus2=BBT205587.1.2.3.0,Phases=3,Linecode=BT803_BT803_4_3_4,Length=0.026473000,Units=km
new line.181829 bus1=BBT205587.1.2.3.0,bus2=BBT205594.1.2.3.0,Phases=3,Linecode=BT803_BT803_4_3_4,Length=0.020222000,Units=km
new line.181836 bus1=BBT205594.1.2.0,bus2=BBT205573.1.2.0,Phases=2,Linecode=BT107_BT106_7_2_1,Length=0.030591000,Units=km
new line.181850 bus1=BBT205601.1.2.3.0,bus2=BBT205608.1.2.3.0,Phases=3,Linecode=BT311_BT311_7_3_1,Length=0.000500000,Units=km
new line.181864 bus1=BBT205615.1.2.3.0,bus2=BBT205622.1.2.3.0,Phases=3,Linecode=BT511_BT511_7_3_1,Length=0.000500000,Units=km
new line.181871 bus1=BBT3277278.1.2.3.0,bus2=BBT3277285.1.2.3.0,Phases=3,Linecode=BT810_BT810_4_3_4,Length=0.040045000,Units=km
new line.181878 bus1=BBT3277040.1.2.3.0,bus2=BBT3277047.1.2.3.0,Phases=3,Linecode=BT803_BT803_4_3_4,Length=0.036670000,Units=km
new line.181885 bus1=BBT3681241.1.2.3.0,bus2=BBT3681248.1.2.3.0,Phases=3,Linecode=BT518_BT518_7_3_1,Length=0.000500000,Units=km
new line.181892 bus1=BBT3277096.1.2.3.0,bus2=BBT3277103.1.2.3.0,Phases=3,Linecode=BT810_BT810_4_3_4,Length=0.038466000,Units=km
new line.181899 bus1=BBT3277075.1.2.3.0,bus2=BBT3277096.1.2.3.0,Phases=3,Linecode=BT810_BT810_4_3_4,Length=0.035224000,Units=km
new line.181906 bus1=BBT3277061.1.2.3.0,bus2=BBT3277068.1.2.3.0,Phases=3,Linecode=BT810_BT810_4_3_4,Length=0.031397000,Units=km
new line.181913 bus1=BBT3277054.1.2.3.0,bus2=BBT3277061.1.2.3.0,Phases=3,Linecode=BT810_BT810_4_3_4,Length=0.033373000,Units=km
new line.181920 bus1=BBT205636.1.2.0,bus2=BBT205643.1.2.0,Phases=2,Linecode=BT107_BT107_7_2_1,Length=0.027997000,Units=km
new line.181927 bus1=BBT205650.1.2.0,bus2=BBT205636.1.2.0,Phases=2,Linecode=BT108_BT108_7_2_1,Length=0.032890000,Units=km
new line.181934 bus1=BBT205657.1.2.0,bus2=BBT205650.1.2.0,Phases=2,Linecode=BT108_BT108_7_2_1,Length=0.035110000,Units=km
new line.181941 bus1=BBT205629.1.2.0,bus2=BBT205657.1.2.0,Phases=2,Linecode=BT307_BT307_7_2_1,Length=0.000500000,Units=km
new line.181948 bus1=BBT205657.1.2.0,bus2=BBT205664.1.2.0,Phases=2,Linecode=BT108_BT108_7_2_1,Length=0.042055000,Units=km
new line.181955 bus1=BBT205664.1.2.0,bus2=BBT205671.1.2.0,Phases=2,Linecode=BT107_BT107_7_2_1,Length=0.025315000,Units=km
new line.182739 bus1=BBT206448.1.2.0,bus2=BBT206441.1.2.0,Phases=2,Linecode=BT108_BT107_7_2_1,Length=0.029830000,Units=km
new line.182746 bus1=BBT206420.1.2.0,bus2=BBT206448.1.2.0,Phases=2,Linecode=BT307_BT307_7_2_1,Length=0.000500000,Units=km
new line.182753 bus1=BBT206448.1.2.0,bus2=BBT206455.1.2.0,Phases=2,Linecode=BT108_BT107_7_2_1,Length=0.026303000,Units=km
new line.182760 bus1=BBT206455.1.2.0,bus2=BBT206462.1.2.0,Phases=2,Linecode=BT108_BT107_7_2_1,Length=0.035351000,Units=km
new line.182767 bus1=BBT206455.1.2.0,bus2=BBT3233780.1.2.0,Phases=2,Linecode=BT808_BT808_4_2_3,Length=0.026170000,Units=km
new line.182774 bus1=BBT206462.1.2.0,bus2=BBT206469.1.2.0,Phases=2,Linecode=BT108_BT107_7_2_1,Length=0.032245000,Units=km
new line.182781 bus1=BBT206469.1.2.0,bus2=BBT206476.1.2.0,Phases=2,Linecode=BT108_BT107_7_2_1,Length=0.033132000,Units=km
new line.182788 bus1=BBT206476.1.2.0,bus2=BBT206483.1.2.0,Phases=2,Linecode=BT108_BT107_7_2_1,Length=0.032246000,Units=km
new line.182795 bus1=BBT206483.1.2.0,bus2=BBT206490.1.2.0,Phases=2,Linecode=BT307_BT307_5_2_1,Length=0.028440000,Units=km
new line.182802 bus1=BBT206511.1.2.0,bus2=BBT206504.1.2.0,Phases=2,Linecode=BT107_BT107_7_2_1,Length=0.032307000,Units=km
new line.182809 bus1=BBT206518.1.2.0,bus2=BBT206511.1.2.0,Phases=2,Linecode=BT107_BT107_7_2_1,Length=0.032890000,Units=km
new line.182816 bus1=BBT206532.1.2.0,bus2=BBT206525.1.2.0,Phases=2,Linecode=BT107_BT107_7_2_1,Length=0.007615000,Units=km
new line.182823 bus1=BBT206532.1.2.0,bus2=BBT206518.1.2.0,Phases=2,Linecode=BT108_BT108_7_2_1,Length=0.034536000,Units=km
new line.182830 bus1=BBT206539.1.2.0,bus2=BBT206532.1.2.0,Phases=2,Linecode=BT108_BT108_7_2_1,Length=0.025629000,Units=km
new line.182837 bus1=BBT206539.1.2.0,bus2=BBT206560.1.2.0,Phases=2,Linecode=BT107_BT107_7_2_1,Length=0.032307000,Units=km
new line.182844 bus1=BBT206546.1.2.0,bus2=BBT206539.1.2.0,Phases=2,Linecode=BT108_BT108_7_2_1,Length=0.033834000,Units=km
new line.182851 bus1=BBT206497.1.2.0,bus2=BBT206546.1.2.0,Phases=2,Linecode=BT513_BT513_7_2_1,Length=0.000500000,Units=km
new line.182858 bus1=BBT206546.1.2.0,bus2=BBT206553.1.2.0,Phases=2,Linecode=BT108_BT108_7_2_1,Length=0.036765000,Units=km
new line.182865 bus1=BBT206553.1.2.0,bus2=BBT206567.1.2.0,Phases=2,Linecode=BT108_BT108_7_2_1,Length=0.034536000,Units=km
new line.182872 bus1=BBT206567.1.2.0,bus2=BBT206574.1.2.0,Phases=2,Linecode=BT108_BT108_7_2_1,Length=0.035110000,Units=km
new line.182879 bus1=BBT206574.1.2.0,bus2=BBT206581.1.2.0,Phases=2,Linecode=BT107_BT107_7_2_1,Length=0.035843000,Units=km
new line.182886 bus1=BBT206595.1.2.0,bus2=BBT206602.1.2.0,Phases=2,Linecode=BT107_BT107_7_2_1,Length=0.022489000,Units=km
new line.182893 bus1=BBT206609.1.2.0,bus2=BBT206595.1.2.0,Phases=2,Linecode=BT108_BT108_7_2_1,Length=0.035364000,Units=km
new line.182900 bus1=BBT206616.1.2.0,bus2=BBT206609.1.2.0,Phases=2,Linecode=BT108_BT108_7_2_1,Length=0.034395000,Units=km
new line.182907 bus1=BBT206588.1.2.0,bus2=BBT206616.1.2.0,Phases=2,Linecode=BT307_BT307_7_2_1,Length=0.000504000,Units=km