new line.TR100188 bus1=BMT215828B.1.2.3,bus2=BMT168945405.1.2.3,Phases=3,Linecode=CAB103_3_3,Length=0.018680000,Units=km
new line.TR100195 bus1=BMT168945405.1.2.3,bus2=BMT168945403.1.2.3,Phases=3,Linecode=CAB102_3_3,Length=0.024737000,Units=km
new line.TR100202 bus1=BMT215856B.2,bus2=BMT214022B.2,Phases=1,Linecode=CAB103_3_1,Length=0.034479000,Units=km
new line.TR100209 bus1=BMT119972374.2,bus2=BMT215856B.2,Phases=1,Linecode=CAB103_3_1,Length=0.034479000,Units=km
new line.TR100216 bus1=BMT215870B.2,bus2=BMT215877B.2,Phases=1,Linecode=CAB103_3_1,Length=0.032982000,Units=km
new line.TR100223 bus1=BMT215877B.2,bus2=BMT119972374.2,Phases=1,Linecode=CAB103_3_1,Length=0.031318000,Units=km
new line.TR100230 bus1=BMT215947B.1.2.3,bus2=BMT168945406.1.2.3,Phases=3,Linecode=CAB103_3_3,Length=0.035168000,Units=km
new line.TR100237 bus1=BMT215954B.1.2.3,bus2=BMT215947B.1.2.3,Phases=3,Linecode=CAB103_3_3,Length=0.035168000,Units=km
new line.TR100244 bus1=BMT168945403.1.2.3,bus2=BMT215954B.1.2.3,Phases=3,Linecode=CAB103_3_3,Length=0.032754000,Units=km
new line.TR100251 bus1=BMT168945403.1.2.3,bus2=BMT215968B.1.2.3,Phases=3,Linecode=CAB103_3_3,Length=0.023768000,Units=km
new line.TR100258 bus1=BMT215968B.1.2.3,bus2=BMT216423B.1.2.3,Phases=3,Linecode=CAB103_3_3,Length=0.017719000,Units=km
new line.TR100265 bus1=BMT149813847.2,bus2=BMT324839B.2,Phases=1,Linecode=CAB102_3_1,Length=0.032277000,Units=km
new line.TR100272 bus1=BMT215996B.1.2.3,bus2=BMT149804889.1.2.3,Phases=3,Linecode=CABA06_3_3,Length=0.038324000,Units=km
new line.TR100279 bus1=BMT167469524.1.2.3,bus2=BMT215996B.1.2.3,Phases=3,Linecode=CABA06_3_3,Length=0.038324000,Units=km
new line.TR100286 bus1=BMT216017B.1.2.3,bus2=BMT167469523.1.2.3,Phases=3,Linecode=CAB103_3_3,Length=0.036671000,Units=km
new line.TR100293 bus1=BMT167469523.1.2.3,bus2=BMT216031B.1.2.3,Phases=3,Linecode=CABA06_3_3,Length=0.033239000,Units=km
new line.TR100300 bus1=BMT216031B.1.2.3,bus2=BMT167469522.1.2.3,Phases=3,Linecode=CABA06_3_3,Length=0.028633000,Units=km
new line.TR100307 bus1=BMT167469522.1.2.3,bus2=BMT167469524.1.2.3,Phases=3,Linecode=CABA06_3_3,Length=0.030081000,Units=km
new line.TR100314 bus1=BMT167469522.1.2.3,bus2=BMT216045B.1.2.3,Phases=3,Linecode=CABA06_3_3,Length=0.004472000,Units=km
new line.TR100321 bus1=BMT167469522.1.2.3,bus2=BMT119957520.1.2.3,Phases=3,Linecode=CABA06_3_3,Length=0.004000000,Units=km
new line.TR100328 bus1=BMT216045B.1.2.3,bus2=BMT119957296.1.2.3,Phases=3,Linecode=CABA06_3_3,Length=0.032982000,Units=km
new line.TR100335 bus1=BMT150605009.1.2.3,bus2=BMT150605010.1.2.3,Phases=3,Linecode=CABA06_3_3,Length=0.036875000,Units=km
new line.TR100342 bus1=BMT150604997.1.2.3,bus2=BMT150604996.1.2.3,Phases=3,Linecode=CABA06_3_3,Length=0.033953000,Units=km
new line.TR100349 bus1=BMT150604996.1.2.3,bus2=BMT216101B.1.2.3,Phases=3,Linecode=CAB103_3_3,Length=0.032982000,Units=km
new line.TR100356 bus1=BMT216101B.1.2.3,bus2=BMT217067B.1.2.3,Phases=3,Linecode=CAB103_3_3,Length=0.027890000,Units=km
new line.TR100363 bus1=BMT150605010.1.2.3,bus2=BMT150605011.1.2.3,Phases=3,Linecode=CABA06_3_3,Length=0.041142000,Units=km
new line.TR100370 bus1=BMT172429993.1.2.3,bus2=BMT216150B.1.2.3,Phases=3,Linecode=CAB103_3_3,Length=0.005657000,Units=km
new line.TR100377 bus1=BMT172429993.1.2.3,bus2=BMT172429994.1.2.3,Phases=3,Linecode=CAB104_3_3,Length=0.014865000,Units=km
new line.TR100384 bus1=BMT172429993.1.2.3,bus2=BMT216185B.1.2.3,Phases=3,Linecode=CAB103_3_3,Length=0.037799000,Units=km
new line.TR100391 bus1=BMT172429994.1.2.3,bus2=BMT215499B.1.2.3,Phases=3,Linecode=CAB104_3_3,Length=0.007810000,Units=km
new line.TR100398 bus1=BMT172429994.2,bus2=BMT216157B.2,Phases=1,Linecode=CAB102_3_1,Length=0.015555000,Units=km
new line.TR100405 bus1=BMT172429994.2,bus2=BMT216178B.2,Phases=1,Linecode=CAB102_3_1,Length=0.017690000,Units=km
new line.TR100412 bus1=BMT216178B.2,bus2=BMT172430000.2,Phases=1,Linecode=CAB102_3_1,Length=0.041106000,Units=km
new line.TR100419 bus1=BMT216185B.1.2.3,bus2=BMT172429995.1.2.3,Phases=3,Linecode=CAB103_3_3,Length=0.033968000,Units=km
new line.TR100426 bus1=BMT172429995.1.2.3,bus2=BMT216206B.1.2.3,Phases=3,Linecode=CAB103_3_3,Length=0.033299000,Units=km
new line.TR100433 bus1=BMT119958822.2,bus2=BMT216213B.2,Phases=1,Linecode=CAB102_3_1,Length=0.033968000,Units=km
new line.TR100440 bus1=BMT216206B.1.2.3,bus2=BMT216220B.1.2.3,Phases=3,Linecode=CAB103_3_3,Length=0.033239000,Units=km
new line.TR100447 bus1=BMT216213B.2,bus2=BMT216227B.2,Phases=1,Linecode=CAB102_3_1,Length=0.034710000,Units=km
new line.TR100454 bus1=BMT216220B.1.2.3,bus2=BMT172429996.1.2.3,Phases=3,Linecode=CAB103_3_3,Length=0.029066000,Units=km
new line.TR100461 bus1=BMT216227B.2,bus2=BMT216241B.2,Phases=1,Linecode=CAB102_3_1,Length=0.034710000,Units=km
new line.TR100468 bus1=BMT172429996.1.2.3,bus2=BMT216255B.1.2.3,Phases=3,Linecode=CAB103_3_3,Length=0.010049000,Units=km
new line.TR100475 bus1=BMT172429996.1.2.3,bus2=BMT217753B.1.2.3,Phases=3,Linecode=CAB103_3_3,Length=0.038206000,Units=km
new line.TR100482 bus1=BMT216241B.2,bus2=BMT216248B.2,Phases=1,Linecode=CAB102_3_1,Length=0.029730000,Units=km
new line.TR100489 bus1=BMT216248B.2,bus2=BMT119964163.2,Phases=1,Linecode=CAB102_3_1,Length=0.033299000,Units=km
new line.TR100496 bus1=BMT216255B.1.2.3,bus2=BMT172429997.1.2.3,Phases=3,Linecode=CAB103_3_3,Length=0.025805000,Units=km
new line.TR101000 bus1=BMT217228B.1.2.3,bus2=BMT169706094.1.2.3,Phases=3,Linecode=CABA06_3_3,Length=0.037944000,Units=km
new line.TR101007 bus1=BMT217235B.1.2.3,bus2=BMT217228B.1.2.3,Phases=3,Linecode=CABA06_3_3,Length=0.010049000,Units=km
new line.TR101014 bus1=BMT150605011.1.2.3,bus2=BMT217249B.1.2.3,Phases=3,Linecode=CAB102_3_3,Length=0.038075000,Units=km
new line.TR101021 bus1=BMT217249B.1.2.3,bus2=BMT217263B.1.2.3,Phases=3,Linecode=CAB102_3_3,Length=0.042056000,Units=km
new line.TR101028 bus1=BMT217263B.1.2.3,bus2=BMT150605013.1.2.3,Phases=3,Linecode=CAB102_3_3,Length=0.036671000,Units=km
new line.TR101035 bus1=BMT150605013.1.2.3,bus2=BMT119957660.1.2.3,Phases=3,Linecode=CAB102_3_3,Length=0.042056000,Units=km
new line.TR101042 bus1=BMT119957667.3,bus2=BMT217284B.3,Phases=1,Linecode=CAB102_3_1,Length=0.030411000,Units=km
new line.TR101049 bus1=BMT217284B.3,bus2=BMT119957674.3,Phases=1,Linecode=CAB102_3_1,Length=0.023705000,Units=km
new line.TR101056 bus1=BMT119957674.3,bus2=BMT217298B.3,Phases=1,Linecode=CAB102_3_1,Length=0.031903000,Units=km
new line.TR101063 bus1=BMT119957674.3,bus2=BMT217305B.3,Phases=1,Linecode=CAB102_3_1,Length=0.043043000,Units=km
new line.TR101070 bus1=BMT217298B.3,bus2=BMT275545B.3,Phases=1,Linecode=CAB102_3_1,Length=0.028440000,Units=km
new line.TR101077 bus1=BMT217305B.3,bus2=BMT219391B.3,Phases=1,Linecode=CAB102_3_1,Length=0.030460000,Units=km
new line.TR101084 bus1=BMT217375B.1.2.3,bus2=BMT119959690.1.2.3,Phases=3,Linecode=CAB102_3_3,Length=0.032693000,Units=km
new line.TR101091 bus1=BMT217382B.1.2.3,bus2=BMT217368B.1.2.3,Phases=3,Linecode=CAB102_3_3,Length=0.011313000,Units=km
new line.TR101098 bus1=BMT217382B.1.2.3,bus2=BMT217375B.1.2.3,Phases=3,Linecode=CAB102_3_3,Length=0.007615000,Units=km
new line.TR101105 bus1=BMT217382B.1.2.3,bus2=BMT217389B.1.2.3,Phases=3,Linecode=CAB102_3_3,Length=0.016154000,Units=km
new line.TR101112 bus1=BMT217396B.1.2.3,bus2=BMT217382B.1.2.3,Phases=3,Linecode=CAB102_3_3,Length=0.027800000,Units=km
new line.TR101119 bus1=BMT217410B.1.2.3,bus2=BMT217396B.1.2.3,Phases=3,Linecode=CAB102_3_3,Length=0.023429000,Units=km
new line.TR101126 bus1=BMT217487B.1.2.3,bus2=BMT318364B.1.2.3,Phases=3,Linecode=CAB103_3_3,Length=0.032982000,Units=km
new line.TR101133 bus1=BMT119957254.1.2.3,bus2=BMT217487B.1.2.3,Phases=3,Linecode=CAB103_3_3,Length=0.024513000,Units=km
new line.TR101140 bus1=BMT119957261.1.2.3,bus2=BMT119957268.1.2.3,Phases=3,Linecode=CAB103_3_3,Length=0.028859000,Units=km
new line.TR101147 bus1=BMT154005216.1.2.3,bus2=BMT217613B.1.2.3,Phases=3,Linecode=CAB103_3_3,Length=0.028158000,Units=km
new line.TR101154 bus1=BMT217515B.1.2.3,bus2=BMT217522B.1.2.3,Phases=3,Linecode=CAB103_3_3,Length=0.032013000,Units=km
new line.TR101161 bus1=BMT217522B.1.2.3,bus2=BMT150604994.1.2.3,Phases=3,Linecode=CAB103_3_3,Length=0.038075000,Units=km
new line.TR101168 bus1=BMT150604994.1.2.3,bus2=BMT217536B.1.2.3,Phases=3,Linecode=CAB103_3_3,Length=0.034202000,Units=km
new line.TR101175 bus1=BMT217536B.1.2.3,bus2=BMT217543B.1.2.3,Phases=3,Linecode=CAB103_3_3,Length=0.033953000,Units=km
new line.TR101182 bus1=BMT217543B.1.2.3,bus2=BMT217550B.1.2.3,Phases=3,Linecode=CAB103_3_3,Length=0.032982000,Units=km
new line.TR101189 bus1=BMT217550B.1.2.3,bus2=BMT217557B.1.2.3,Phases=3,Linecode=CAB103_3_3,Length=0.031046000,Units=km
new line.TR101196 bus1=BMT217557B.1.2.3,bus2=BMT119957261.1.2.3,Phases=3,Linecode=CAB103_3_3,Length=0.033239000,Units=km
new line.TR101203 bus1=BMT217606B.3,bus2=BMT154005218.3,Phases=1,Linecode=CAB103_3_1,Length=0.023768000,Units=km
new line.TR101210 bus1=BMT217613B.1.2.3,bus2=BMT154005217.1.2.3,Phases=3,Linecode=CAB103_3_3,Length=0.026681000,Units=km
new line.TR101217 bus1=BMT154005217.3,bus2=BMT217606B.3,Phases=1,Linecode=CAB103_3_1,Length=0.029118000,Units=km
new line.TR101224 bus1=BMT154005217.1.2.3,bus2=BMT217627B.1.2.3,Phases=3,Linecode=CAB103_3_3,Length=0.021585000,Units=km
new line.TR101231 bus1=BMT217627B.1.2.3,bus2=BMT217634B.1.2.3,Phases=3,Linecode=CAB103_3_3,Length=0.018680000,Units=km
new line.TR101238 bus1=BMT217634B.1.2.3,bus2=BMT154005219.1.2.3,Phases=3,Linecode=CAB103_3_3,Length=0.008544000,Units=km
new line.TR101245 bus1=BMT217690B.1.2.3,bus2=BMT119959697.1.2.3,Phases=3,Linecode=CAB102_3_3,Length=0.030460000,Units=km
new line.TR101252 bus1=BMT217697B.1.2.3,bus2=BMT217690B.1.2.3,Phases=3,Linecode=CAB102_3_3,Length=0.031382000,Units=km
new line.TR101259 bus1=BMT217711B.1.2.3,bus2=BMT217697B.1.2.3,Phases=3,Linecode=CAB102_3_3,Length=0.034537000,Units=km
new line.TR101266 bus1=BMT217753B.1.2.3,bus2=BMT172429998.1.2.3,Phases=3,Linecode=CAB103_3_3,Length=0.032555000,Units=km
new line.TR101273 bus1=BMT172429998.1,bus2=BMT172429999.1,Phases=1,Linecode=CAB103_3_1,Length=0.038180000,Units=km
new line.TR101280 bus1=BMT217809B.1.2.3,bus2=BMT170220290.1.2.3,Phases=3,Linecode=CAB103_3_3,Length=0.041781000,Units=km
new line.TR101287 bus1=BMT170220290.1.2.3,bus2=BMT170220291.1.2.3,Phases=3,Linecode=CAB103_3_3,Length=0.033239000,Units=km
new line.TR101294 bus1=BMT170220291.1.2.3,bus2=BMT217830B.1.2.3,Phases=3,Linecode=CAB103_3_3,Length=0.036397000,Units=km
new line.TR101301 bus1=BMT217830B.1.2.3,bus2=BMT170220292.1.2.3,Phases=3,Linecode=CAB103_3_3,Length=0.025630000,Units=km
new line.TR101308 bus1=BMT170220292.1.2.3,bus2=BMT170220294.1.2.3,Phases=3,Linecode=CAB103_3_3,Length=0.042044000,Units=km
new line.TR101805 bus1=BMT218740B.1.2.3,bus2=BMT218733B.1.2.3,Phases=3,Linecode=CAB102_3_3,Length=0.031318000,Units=km
new line.TR101812 bus1=BMT218747B.1.2.3,bus2=BMT218740B.1.2.3,Phases=3,Linecode=CAB102_3_3,Length=0.030362000,Units=km
new line.TR101819 bus1=BMT218754B.1.2.3,bus2=BMT119959669.1.2.3,Phases=3,Linecode=CAB102_3_3,Length=0.030673000,Units=km
new line.TR101826 bus1=BMT218761B.1.2.3,bus2=BMT218747B.1.2.3,Phases=3,Linecode=CAB102_3_3,Length=0.029408000,Units=km
new line.TR101833 bus1=BMT218768B.1.2.3,bus2=BMT218761B.1.2.3,Phases=3,Linecode=CAB102_3_3,Length=0.030362000,Units=km
new line.TR101840 bus1=BMT218859B.1.2.3,bus2=BMT218866B.1.2.3,Phases=3,Linecode=CAB104_3_3,Length=0.034652000,Units=km
new line.TR101847 bus1=BMT218866B.1.2.3,bus2=BMT119958892.1.2.3,Phases=3,Linecode=CAB104_3_3,Length=0.033968000,Units=km
new line.TR101854 bus1=BMT119958892.1.2.3,bus2=BMT119958899.1.2.3,Phases=3,Linecode=CAB104_3_3,Length=0.032555000,Units=km
new line.TR101861 bus1=BMT119958892.1.2.3,bus2=BMT119958906.1.2.3,Phases=3,Linecode=CAB104_3_3,Length=0.048006000,Units=km
new line.TR101868 bus1=BMT119958913.1.2.3,bus2=BMT153064099.1.2.3,Phases=3,Linecode=CAB104_3_3,Length=0.041045000,Units=km
new line.TR101875 bus1=BMT153064099.1.2.3,bus2=BMT153064100.1.2.3,Phases=3,Linecode=CAB104_3_3,Length=0.029408000,Units=km
new line.TR101882 bus1=BMT153064101.1.2.3,bus2=BMT171265348.1.2.3,Phases=3,Linecode=CAB104_3_3,Length=0.031398000,Units=km
new line.TR101889 bus1=BMT171265348.1.2.3,bus2=BMT218922B.1.2.3,Phases=3,Linecode=CABA06_3_3,Length=0.030803000,Units=km
new line.TR101903 bus1=BMT171265349.1.2.3,bus2=BMT171265350.1.2.3,Phases=3,Linecode=CABA06_3_3,Length=0.040159000,Units=km
new line.TR101910 bus1=BMT171265349.1.2.3,bus2=BMT119959977.1.2.3,Phases=3,Linecode=CABA06_3_3,Length=0.036052000,Units=km
new line.TR101917 bus1=BMT171309439.1.2.3,bus2=BMT171309440.1.2.3,Phases=3,Linecode=CABA06_3_3,Length=0.025316000,Units=km
new line.TR101924 bus1=BMT171309440.1.2.3,bus2=BMT171309441.1.2.3,Phases=3,Linecode=CAB104_3_3,Length=0.048100000,Units=km
new line.TR101931 bus1=BMT171309441.1.2.3,bus2=BMT171309442.1.2.3,Phases=3,Linecode=CAB104_3_3,Length=0.118259000,Units=km
new line.TR101938 bus1=BMT218992B.3,bus2=BMT219027B.3,Phases=1,Linecode=CAB102_3_1,Length=0.019923000,Units=km
new line.TR101945 bus1=BMT219027B.3,bus2=BMT119957723.3,Phases=1,Linecode=CAB102_3_1,Length=0.049995000,Units=km
new line.TR101952 bus1=BMT119957723.3,bus2=BMT219062B.3,Phases=1,Linecode=CAB102_3_1,Length=0.034129000,Units=km
new line.TR101959 bus1=BMT219062B.3,bus2=BMT219069B.3,Phases=1,Linecode=CAB102_3_1,Length=0.034056000,Units=km
new line.TR101966 bus1=BMT219069B.3,bus2=BMT119957730.3,Phases=1,Linecode=CAB102_3_1,Length=0.035125000,Units=km
new line.TR101973 bus1=BMT219083B.1.2.3,bus2=BMT119959648.1.2.3,Phases=3,Linecode=CAB102_3_3,Length=0.023768000,Units=km
new line.TR101980 bus1=BMT219090B.1.2.3,bus2=BMT219083B.1.2.3,Phases=3,Linecode=CAB102_3_3,Length=0.029408000,Units=km
new line.TR101987 bus1=BMT219097B.1.2.3,bus2=BMT219090B.1.2.3,Phases=3,Linecode=CAB102_3_3,Length=0.017203000,Units=km
new line.TR101994 bus1=BMT119959634.1.2.3,bus2=BMT219097B.1.2.3,Phases=3,Linecode=CAB102_3_3,Length=0.016123000,Units=km
new line.TR102001 bus1=BMT219111B.1.2.3,bus2=BMT119959634.1.2.3,Phases=3,Linecode=CAB102_3_3,Length=0.022202000,Units=km
new line.TR102008 bus1=BMT219118B.1.2.3,bus2=BMT219111B.1.2.3,Phases=3,Linecode=CAB102_3_3,Length=0.020879000,Units=km
new line.TR102015 bus1=BMT219125B.1.2.3,bus2=BMT219118B.1.2.3,Phases=3,Linecode=CAB102_3_3,Length=0.032570000,Units=km
new line.TR102022 bus1=BMT219132B.1.2.3,bus2=BMT219125B.1.2.3,Phases=3,Linecode=CAB102_3_3,Length=0.031950000,Units=km
new line.TR102029 bus1=BMT219139B.1.2.3,bus2=BMT219132B.1.2.3,Phases=3,Linecode=CAB102_3_3,Length=0.030460000,Units=km
new line.TR102036 bus1=BMT219146B.1.2.3,bus2=BMT219139B.1.2.3,Phases=3,Linecode=CAB102_3_3,Length=0.034012000,Units=km
new line.TR102043 bus1=BMT219153B.1.2.3,bus2=BMT119959942.1.2.3,Phases=3,Linecode=CAB102_3_3,Length=0.035380000,Units=km
new line.TR102050 bus1=BMT219251B.1.2.3,bus2=BMT219300B.1.2.3,Phases=3,Linecode=CAB104_3_3,Length=0.029679000,Units=km
new line.TR102057 bus1=BMT219300B.1.2.3,bus2=BMT119958962.1.2.3,Phases=3,Linecode=CAB104_3_3,Length=0.029679000,Units=km
new line.TR102064 bus1=BMT219335B.1.2.3,bus2=BMT219545B.1.2.3,Phases=3,Linecode=CAB102_3_3,Length=0.032200000,Units=km
new line.TR102071 bus1=BMT170456438.1.2.3,bus2=BMT219384B.1.2.3,Phases=3,Linecode=CAB104_3_3,Length=0.038945000,Units=km
new line.TR102078 bus1=BMT219384B.1.2.3,bus2=BMT170456439.1.2.3,Phases=3,Linecode=CAB104_3_3,Length=0.034667000,Units=km
new line.TR102085 bus1=BMT219391B.3,bus2=BMT219398B.3,Phases=1,Linecode=CAB102_3_1,Length=0.031950000,Units=km
new line.TR102092 bus1=BMT219398B.3,bus2=BMT219405B.3,Phases=1,Linecode=CAB102_3_1,Length=0.031950000,Units=km
new line.TR102099 bus1=BMT219405B.3,bus2=BMT219412B.3,Phases=1,Linecode=CAB102_3_1,Length=0.031950000,Units=km
new line.TR102106 bus1=BMT219412B.3,bus2=BMT119957688.3,Phases=1,Linecode=CAB102_3_1,Length=0.031318000,Units=km
new line.TR102113 bus1=BMT219545B.1.2.3,bus2=BMT170456447.1.2.3,Phases=3,Linecode=CAB102_3_3,Length=0.044200000,Units=km
new line.TR102120 bus1=BMT219552B.1.2.3,bus2=BMT219335B.1.2.3,Phases=3,Linecode=CAB102_3_3,Length=0.032200000,Units=km
new line.TR100503 bus1=BMT216269B.2,bus2=BMT149813856.2,Phases=1,Linecode=CAB102_3_1,Length=0.038324000,Units=km
new line.TR100510 bus1=BMT216409B.1.2.3,bus2=BMT168945404.1.2.3,Phases=3,Linecode=CAB103_3_3,Length=0.034202000,Units=km
new line.TR100517 bus1=BMT216416B.1.2.3,bus2=BMT216409B.1.2.3,Phases=3,Linecode=CAB103_3_3,Length=0.033239000,Units=km
new line.TR100524 bus1=BMT216423B.1.2.3,bus2=BMT168945401.1.2.3,Phases=3,Linecode=CAB103_3_3,Length=0.021839000,Units=km
new line.TR100531 bus1=BMT168945401.1.2.3,bus2=BMT216416B.1.2.3,Phases=3,Linecode=CAB103_3_3,Length=0.034479000,Units=km
new line.TR100538 bus1=BMT168945401.1.2.3,bus2=BMT216444B.1.2.3,Phases=3,Linecode=CAB103_3_3,Length=0.033953000,Units=km
new line.TR100545 bus1=BMT216444B.1.2.3,bus2=BMT168945400.1.2.3,Phases=3,Linecode=CAB103_3_3,Length=0.032277000,Units=km
new line.TR100552 bus1=BMT216521B.1.2.3,bus2=BMT168945402.1.2.3,Phases=3,Linecode=CAB103_3_3,Length=0.033239000,Units=km
new line.TR100559 bus1=BMT216535B.1.2.3,bus2=BMT216521B.1.2.3,Phases=3,Linecode=CAB103_3_3,Length=0.034202000,Units=km
new line.TR100566 bus1=BMT168945400.1.2.3,bus2=BMT216535B.1.2.3,Phases=3,Linecode=CAB103_3_3,Length=0.033523000,Units=km
new line.TR100573 bus1=BMT168945400.1.2.3,bus2=BMT168945399.1.2.3,Phases=3,Linecode=CABA06_3_3,Length=0.026681000,Units=km
new line.TR100580 bus1=BMT168945398.1.2.3,bus2=BMT216563B.1.2.3,Phases=3,Linecode=CABA06_3_3,Length=0.020879000,Units=km
new line.TR100587 bus1=BMT216563B.1.2.3,bus2=BMT216570B.1.2.3,Phases=3,Linecode=CABA06_3_3,Length=0.021585000,Units=km
new line.TR1033967 bus1=BMT119942512.1.2.3,bus2=BMT4179368B.1.2.3,Phases=3,Linecode=CAB203_3_3,Length=0.194160000,Units=km
new line.TR1033974 bus1=BMT119942442.1.2.3,bus2=BMT3723374B.1.2.3,Phases=3,Linecode=CAB207_3_3,Length=0.021022000,Units=km
new line.TR1033981 bus1=BMT119942442.1,bus2=BMT3723423B.1,Phases=1,Linecode=CAB202_3_1,Length=0.103010000,Units=km
new line.TR1033988 bus1=BMT119942449.1.2.3,bus2=BMT3123467B.1.2.3,Phases=3,Linecode=CAB207_3_3,Length=0.098607000,Units=km
new line.TR1033995 bus1=BMT119942449.1,bus2=BMT3719636B.1,Phases=1,Linecode=CAB202_3_1,Length=0.043677000,Units=km
new line.TR1034002 bus1=BMT2240585B.1.2.3,bus2=BMT3123271B.1.2.3,Phases=3,Linecode=CAB207_3_3,Length=0.071583000,Units=km
new line.TR1034009 bus1=BMT169951840.1.2.3,bus2=BMT119942540.1.2.3,Phases=3,Linecode=CAB203_3_3,Length=0.111403000,Units=km
new line.TR1034016 bus1=BMT119942540.1.2.3,bus2=BMT2240606B.1.2.3,Phases=3,Linecode=CAB202_3_3,Length=0.124768000,Units=km
new line.TR1034023 bus1=BMT153871553.1,bus2=BMT119944339.1,Phases=1,Linecode=CAB202_3_1,Length=0.053847000,Units=km
new line.TR1034030 bus1=BMT2240606B.1.2.3,bus2=BMT4179599B.1.2.3,Phases=3,Linecode=CAB202_3_3,Length=0.095705000,Units=km
new line.TR1034037 bus1=BMT119944339.1,bus2=BMT153871554.1,Phases=1,Linecode=CAB202_3_1,Length=0.179103000,Units=km
new line.TR1034044 bus1=BMT119944437.1,bus2=BMT2240627B.1,Phases=1,Linecode=CAB202_3_1,Length=0.242442000,Units=km
new line.TR1034051 bus1=BMT153871554.1,bus2=BMT153871555.1,Phases=1,Linecode=CAB202_3_1,Length=0.072084000,Units=km
new line.TR1034058 bus1=BMT153871554.1,bus2=BMT153871556.1,Phases=1,Linecode=CAB202_3_1,Length=0.099132000,Units=km
new line.TR1034065 bus1=BMT153871554.1,bus2=BMT4210882B.1,Phases=1,Linecode=CAB202_3_1,Length=0.006083000,Units=km
new line.TR1034072 bus1=BMT2240627B.1,bus2=BMT4179487B.1,Phases=1,Linecode=CAB202_3_1,Length=0.104163000,Units=km
new line.TR1034079 bus1=BMT119944472.1,bus2=BMT2240641B.1,Phases=1,Linecode=CAB202_3_1,Length=0.104225000,Units=km
new line.TR1034086 bus1=BMT119944444.1,bus2=BMT4179515B.1,Phases=1,Linecode=CAB202_3_1,Length=0.050956000,Units=km
new line.TR1034093 bus1=BMT2240641B.1,bus2=BMT4179529B.1,Phases=1,Linecode=CAB202_3_1,Length=0.100170000,Units=km
new line.TR1034100 bus1=BMT119944451.1,bus2=BMT4179571B.1,Phases=1,Linecode=CAB202_3_1,Length=0.109031000,Units=km
new line.TR1034107 bus1=BMT119944451.1,bus2=BMT4179592B.1,Phases=1,Linecode=CAB202_3_1,Length=0.103990000,Units=km
new line.TR1034114 bus1=BMT153871556.1,bus2=BMT153871559.1,Phases=1,Linecode=CAB202_3_1,Length=0.044403000,Units=km
new line.TR1034121 bus1=BMT153871556.1,bus2=BMT2240669B.1,Phases=1,Linecode=CAB202_3_1,Length=0.088992000,Units=km
new line.TR1034128 bus1=BMT153871557.1,bus2=BMT153871558.1,Phases=1,Linecode=CAB102_3_1,Length=0.037944000,Units=km
new line.TR1034135 bus1=BMT2240669B.1,bus2=BMT119944388.1,Phases=1,Linecode=CAB202_3_1,Length=0.118446000,Units=km
new line.TR1034163 bus1=BMT161226734.2,bus2=BMT4179620B.2,Phases=1,Linecode=CAB202_3_1,Length=0.074940000,Units=km
new line.TR1034170 bus1=BMT161226733.2,bus2=BMT161226734.2,Phases=1,Linecode=CAB202_3_1,Length=0.114117000,Units=km
new line.TR1034177 bus1=BMT161222905.1.2.3,bus2=BMT4179634B.1.2.3,Phases=3,Linecode=CAB202_3_3,Length=0.115307000,Units=km
new line.TR1034184 bus1=BMT161222905.1.2.3,bus2=BMT4200613B.1.2.3,Phases=3,Linecode=CAB202_3_3,Length=0.303948000,Units=km
new line.TR1034191 bus1=BMT169951842.3,bus2=BMT169951843.3,Phases=1,Linecode=CAB102_3_1,Length=0.016124000,Units=km
new line.TR1034198 bus1=BMT169951842.1.2.3,bus2=BMT153860417.1.2.3,Phases=3,Linecode=CAB202_3_3,Length=0.083999000,Units=km
new line.TR102197 bus1=BMT220147B.1.2.3,bus2=BMT220133B.1.2.3,Phases=3,Linecode=CAB102_3_3,Length=0.030526000,Units=km
new line.TR102204 bus1=BMT119959627.1.2.3,bus2=BMT220140B.1.2.3,Phases=3,Linecode=CAB102_3_3,Length=0.031382000,Units=km
new line.TR102211 bus1=BMT119959627.1.2.3,bus2=BMT220147B.1.2.3,Phases=3,Linecode=CAB102_3_3,Length=0.029730000,Units=km
new line.TR102218 bus1=BMT220161B.1.2.3,bus2=BMT119959627.1.2.3,Phases=3,Linecode=CAB102_3_3,Length=0.028651000,Units=km
new line.TR102225 bus1=BMT220168B.1.2.3,bus2=BMT220161B.1.2.3,Phases=3,Linecode=CAB102_3_3,Length=0.025078000,Units=km
new line.TR102232 bus1=BMT220217B.1.2.3,bus2=BMT119959893.1.2.3,Phases=3,Linecode=CAB102_3_3,Length=0.037199000,Units=km
new line.TR102239 bus1=BMT220231B.1.2.3,bus2=BMT220217B.1.2.3,Phases=3,Linecode=CAB102_3_3,Length=0.042798000,Units=km
new line.TR102246 bus1=BMT119959879.1.2.3,bus2=BMT220224B.1.2.3,Phases=3,Linecode=CAB103_3_3,Length=0.022202000,Units=km
new line.TR102253 bus1=BMT119959879.1.2.3,bus2=BMT220231B.1.2.3,Phases=3,Linecode=CAB102_3_3,Length=0.005831000,Units=km
new line.TR102260 bus1=BMT119959879.1.2.3,bus2=BMT119959900.1.2.3,Phases=3,Linecode=CAB103_3_3,Length=0.015810000,Units=km
new line.TR102267 bus1=BMT119959900.1.2.3,bus2=BMT220259B.1.2.3,Phases=3,Linecode=CAB103_3_3,Length=0.038597000,Units=km
new line.TR102274 bus1=BMT220252B.1.2.3,bus2=BMT119959879.1.2.3,Phases=3,Linecode=CAB102_3_3,Length=0.032800000,Units=km
new line.TR102281 bus1=BMT220259B.1.2.3,bus2=BMT220266B.1.2.3,Phases=3,Linecode=CAB103_3_3,Length=0.038597000,Units=km
new line.TR102288 bus1=BMT220266B.1.2.3,bus2=BMT220273B.1.2.3,Phases=3,Linecode=CAB103_3_3,Length=0.026399000,Units=km
new line.TR102295 bus1=BMT220273B.1.2.3,bus2=BMT220294B.1.2.3,Phases=3,Linecode=CAB103_3_3,Length=0.038597000,Units=km
new line.TR102302 bus1=BMT220294B.1.2.3,bus2=BMT220868B.1.2.3,Phases=3,Linecode=CAB103_3_3,Length=0.036397000,Units=km
new line.TR102309 bus1=BMT169825710.1.2.3,bus2=BMT220343B.1.2.3,Phases=3,Linecode=CAB104_3_3,Length=0.031762000,Units=km
new line.TR102316 bus1=BMT169825710.1.2.3,bus2=BMT119959529.1.2.3,Phases=3,Linecode=CAB103_3_3,Length=0.007280000,Units=km
new line.TR102323 bus1=BMT169825709.1.2.3,bus2=BMT119959536.1.2.3,Phases=3,Linecode=CAB104_3_3,Length=0.021093000,Units=km
new line.TR102330 bus1=BMT119959620.1.2.3,bus2=BMT220168B.1.2.3,Phases=3,Linecode=CAB102_3_3,Length=0.021212000,Units=km
new line.TR102337 bus1=BMT119959536.1.2.3,bus2=BMT220329B.1.2.3,Phases=3,Linecode=CAB104_3_3,Length=0.035338000,Units=km
new line.TR102344 bus1=BMT220329B.1.2.3,bus2=BMT2984342B.1.2.3,Phases=3,Linecode=CAB104_3_3,Length=0.014317000,Units=km
new line.TR102351 bus1=BMT220336B.1.2.3,bus2=BMT220707B.1.2.3,Phases=3,Linecode=CAB104_3_3,Length=0.033103000,Units=km
new line.TR102358 bus1=BMT220343B.1.2.3,bus2=BMT169825709.1.2.3,Phases=3,Linecode=CAB104_3_3,Length=0.025058000,Units=km
new line.TR102365 bus1=BMT220350B.1.2.3,bus2=BMT220364B.1.2.3,Phases=3,Linecode=CAB104_3_3,Length=0.022470000,Units=km
new line.TR102372 bus1=BMT119959865.1.2.3,bus2=BMT220378B.1.2.3,Phases=3,Linecode=CAB102_3_3,Length=0.040801000,Units=km
new line.TR102379 bus1=BMT220364B.1.2.3,bus2=BMT220371B.1.2.3,Phases=3,Linecode=CAB104_3_3,Length=0.025552000,Units=km
new line.TR102386 bus1=BMT220371B.1.2.3,bus2=BMT170456440.1.2.3,Phases=3,Linecode=CAB104_3_3,Length=0.007211000,Units=km
new line.TR102393 bus1=BMT220378B.1.2.3,bus2=BMT220385B.1.2.3,Phases=3,Linecode=CAB102_3_3,Length=0.033598000,Units=km
new line.TR102400 bus1=BMT220385B.1.2.3,bus2=BMT220392B.1.2.3,Phases=3,Linecode=CAB102_3_3,Length=0.037010000,Units=km
new line.TR102407 bus1=BMT220392B.1.2.3,bus2=BMT119959872.1.2.3,Phases=3,Linecode=CAB102_3_3,Length=0.023429000,Units=km
new line.TR102414 bus1=BMT119959872.1.2.3,bus2=BMT220252B.1.2.3,Phases=3,Linecode=CAB102_3_3,Length=0.032800000,Units=km
new line.TR102421 bus1=BMT119959872.1.2.3,bus2=BMT220406B.1.2.3,Phases=3,Linecode=CAB102_3_3,Length=0.007211000,Units=km
new line.TR102428 bus1=BMT119959872.1.2.3,bus2=BMT119959886.1.2.3,Phases=3,Linecode=CAB102_3_3,Length=0.014764000,Units=km
new line.TR102435 bus1=BMT220455B.1.2.3,bus2=BMT220462B.1.2.3,Phases=3,Linecode=CAB103_3_3,Length=0.037199000,Units=km
new line.TR102442 bus1=BMT220462B.1.2.3,bus2=BMT220469B.1.2.3,Phases=3,Linecode=CAB103_3_3,Length=0.036052000,Units=km
new line.TR102449 bus1=BMT220469B.1.2.3,bus2=BMT119959851.1.2.3,Phases=3,Linecode=CAB103_3_3,Length=0.036397000,Units=km
new line.TR102456 bus1=BMT119959851.1.2.3,bus2=BMT220497B.1.2.3,Phases=3,Linecode=CAB103_3_3,Length=0.036397000,Units=km
new line.TR102463 bus1=BMT220497B.1.2.3,bus2=BMT220518B.1.2.3,Phases=3,Linecode=CAB103_3_3,Length=0.038010000,Units=km
new line.TR102470 bus1=BMT220518B.1.2.3,bus2=BMT220532B.1.2.3,Phases=3,Linecode=CAB103_3_3,Length=0.034997000,Units=km
new line.TR102477 bus1=BMT220532B.1.2.3,bus2=BMT221008B.1.2.3,Phases=3,Linecode=CAB103_3_3,Length=0.036397000,Units=km
new line.TR102498 bus1=BMT119959823.1.2.3,bus2=BMT220553B.1.2.3,Phases=3,Linecode=CAB103_3_3,Length=0.036888000,Units=km
new line.TR102505 bus1=BMT220553B.1.2.3,bus2=BMT220560B.1.2.3,Phases=3,Linecode=CAB103_3_3,Length=0.035225000,Units=km
new line.TR102512 bus1=BMT220560B.1.2.3,bus2=BMT119959830.1.2.3,Phases=3,Linecode=CAB103_3_3,Length=0.034202000,Units=km
new line.TR102519 bus1=BMT119959830.1.2.3,bus2=BMT220574B.1.2.3,Phases=3,Linecode=CAB103_3_3,Length=0.032200000,Units=km
new line.TR1034205 bus1=BMT2240711B.3,bus2=BMT315130B.3,Phases=1,Linecode=CAB202_3_1,Length=0.109649000,Units=km
new line.TR1034212 bus1=BMT2240711B.1.2.3,bus2=BMT4179648B.1.2.3,Phases=3,Linecode=CAB202_3_3,Length=0.110914000,Units=km
new line.TR1034219 bus1=BMT2240718B.1.2.3,bus2=BMT4179683B.1.2.3,Phases=3,Linecode=CAB202_3_3,Length=0.121797000,Units=km
new line.TR1034226 bus1=BMT119942652.1.2.3,bus2=BMT4179837B.1.2.3,Phases=3,Linecode=CAB202_3_3,Length=0.118704000,Units=km
new line.TR1034233 bus1=BMT119942652.1.2.3,bus2=BMT169951851.1.2.3,Phases=3,Linecode=CAB202_3_3,Length=0.005831000,Units=km
new line.TR1034240 bus1=BMT119944283.1,bus2=BMT4191037B.1,Phases=1,Linecode=CAB202_3_1,Length=0.390999000,Units=km
new line.TR1034247 bus1=BMT119942659.1.2.3,bus2=BMT169951853.1.2.3,Phases=3,Linecode=CAB202_3_3,Length=0.114856000,Units=km
new line.TR1034254 bus1=BMT131795507.1,bus2=BMT4191086B.1,Phases=1,Linecode=CAB202_3_1,Length=0.134347000,Units=km
new line.TR1034261 bus1=BMT119944178.1,bus2=BMT4191478B.1,Phases=1,Linecode=CAB202_3_1,Length=0.141418000,Units=km
new line.TR1034268 bus1=BMT119944220.1,bus2=BMT4191597B.1,Phases=1,Linecode=CAB202_3_1,Length=0.125242000,Units=km
new line.TR1034275 bus1=BMT169951853.3,bus2=BMT169951854.3,Phases=1,Linecode=CAB102_3_1,Length=0.047039000,Units=km
new line.TR1034282 bus1=BMT169951853.1.2.3,bus2=BMT4191051B.1.2.3,Phases=3,Linecode=CAB202_3_3,Length=0.106293000,Units=km
new line.TR1034289 bus1=BMT119944150.3,bus2=BMT119944157.3,Phases=1,Linecode=CAB202_3_1,Length=0.174678000,Units=km
new line.TR1034296 bus1=BMT119942694.1.2.3,bus2=BMT119942701.1.2.3,Phases=3,Linecode=CAB202_3_3,Length=0.108066000,Units=km
new line.TR1034303 bus1=BMT119944157.3,bus2=BMT119944164.3,Phases=1,Linecode=CAB102_3_1,Length=0.050156000,Units=km
new line.TR1034310 bus1=BMT168029701.1.2.3,bus2=BMT4191751B.1.2.3,Phases=3,Linecode=CAB202_3_3,Length=0.118995000,Units=km
new line.TR1034317 bus1=BMT168029702.3,bus2=BMT168029703.3,Phases=1,Linecode=CAB202_3_1,Length=0.093374000,Units=km
new line.TR1034324 bus1=BMT168029702.1.2.3,bus2=BMT2240781B.1.2.3,Phases=3,Linecode=CAB202_3_3,Length=0.177877000,Units=km
new line.TR1034331 bus1=BMT2240781B.1.2.3,bus2=BMT168029704.1.2.3,Phases=3,Linecode=CAB202_3_3,Length=0.163881000,Units=km
new line.TR1034338 bus1=BMT168029704.2,bus2=BMT168029705.2,Phases=1,Linecode=CAB102_3_1,Length=0.047851000,Units=km
new line.TR1034345 bus1=BMT168029704.1.2.3,bus2=BMT4191891B.1.2.3,Phases=3,Linecode=CAB202_3_3,Length=0.095261000,Units=km
new line.TR1034352 bus1=BMT119944038.3,bus2=BMT4191926B.3,Phases=1,Linecode=CAB202_3_1,Length=0.121256000,Units=km
new line.TR1034359 bus1=BMT119942743.1,bus2=BMT4192066B.1,Phases=1,Linecode=CAB202_3_1,Length=0.006708000,Units=km
new line.TR1034366 bus1=BMT119942743.1.2.3,bus2=BMT4199591B.1.2.3,Phases=3,Linecode=CAB202_3_3,Length=0.227250000,Units=km
new line.TR1034373 bus1=BMT2240802B.1,bus2=BMT168029706.1,Phases=1,Linecode=CAB202_3_1,Length=0.067597000,Units=km
new line.TR1034380 bus1=BMT119942757.1.2.3,bus2=BMT119942764.1.2.3,Phases=3,Linecode=CAB202_3_3,Length=0.076572000,Units=km
new line.TR1034387 bus1=BMT119944017.3,bus2=BMT4199640B.3,Phases=1,Linecode=CAB202_3_1,Length=0.113804000,Units=km
new line.TR1034394 bus1=BMT119944045.3,bus2=BMT4191968B.3,Phases=1,Linecode=CAB202_3_1,Length=0.114534000,Units=km