new line.CTR100608 bus1=BMT119970428.1.2.3,bus2=BMT136597976.1.2.3,Phases=3,LineCode=tieSwitch,Length=0.001,Units=km,switch=T !numEQ 287685
new line.CTR100664 bus1=BMT119965276.1.2.3,bus2=BMT133989629.1.2.3,Phases=3,LineCode=tieSwitch,Length=0.001,Units=km,switch=T !numEQ 135159
new line.CTR100706 bus1=BMT119973690.1.2.3,bus2=BMT150343853.1.2.3,Phases=3,LineCode=tieSwitch,Length=0.001,Units=km,switch=T !numEQ 135017
new line.CTR10165244 bus1=BMT2010165245.1.2.3,bus2=BMT2202810014.1.2.3,Phases=3,LineCode=tieSwitch,Length=0.001,Units=km,switch=T !numEQ 
new line.CTR10165270 bus1=BMT2202810014.1.2.3,bus2=BMT2010164311.1.2.3,Phases=3,LineCode=tieSwitch,Length=0.001,Units=km,switch=T !numEQ 
new line.CTR10165296 bus1=BMT2202810015.1.2.3,bus2=BMT2010165297.1.2.3,Phases=3,LineCode=tieSwitch,Length=0.001,Units=km,switch=T !numEQ 
new line.CTR10165322 bus1=BMT2010164311.1.2.3,bus2=BMT2202810015.1.2.3,Phases=3,LineCode=tieSwitch,Length=0.001,Units=km,switch=T !numEQ 
new line.CTR10165360 bus1=BMT2010165361.1.2.3,bus2=BMT2202810013.1.2.3,Phases=3,LineCode=tieSwitch,Length=0.001,Units=km,switch=T !numEQ 
new line.CTR10165380 bus1=BMT2202810013.1.2.3,bus2=BMT2010164381.1.2.3,Phases=3,LineCode=tieSwitch,Length=0.001,Units=km,switch=T !numEQ 
new line.CTR10165418 bus1=BMT2010165419.1.2.3,bus2=BMT2202810012.1.2.3,Phases=3,LineCode=tieSwitch,Length=0.001,Units=km,switch=T !numEQ 
new line.CTR10165432 bus1=BMT2202810012.1.2.3,bus2=BMT2010164367.1.2.3,Phases=3,LineCode=tieSwitch,Length=0.001,Units=km,switch=T !numEQ 
new line.CTR10165559 bus1=BMT2010165560.1.2.3,bus2=BMT2202810007.1.2.3,Phases=3,LineCode=tieSwitch,Length=0.001,Units=km,switch=T !numEQ 
new line.CTR10165585 bus1=BMT2202810007.1.2.3,bus2=BMT2010164549.1.2.3,Phases=3,LineCode=tieSwitch,Length=0.001,Units=km,switch=T !numEQ 
new line.CTR10165727 bus1=BMT2010165728.1.2.3,bus2=BMT2202810006.1.2.3,Phases=3,LineCode=tieSwitch,Length=0.001,Units=km,switch=T !numEQ 
new line.CTR10165753 bus1=BMT2202810006.1.2.3,bus2=BMT2010164409.1.2.3,Phases=3,LineCode=tieSwitch,Length=0.001,Units=km,switch=T !numEQ 
new line.CTR10165779 bus1=BMT2010165780.1.2.3,bus2=BMT2202809915.1.2.3,Phases=3,LineCode=tieSwitch,Length=0.001,Units=km,switch=T !numEQ 
new line.CTR10165793 bus1=BMT2202809915.1.2.3,bus2=BMT2010164416.1.2.3,Phases=3,LineCode=tieSwitch,Length=0.001,Units=km,switch=T !numEQ 
new line.CTR10165831 bus1=BMT2202809914.1.2.3,bus2=BMT2010165832.1.2.3,Phases=3,LineCode=tieSwitch,Length=0.001,Units=km,switch=T !numEQ 
new line.CTR10165869 bus1=BMT2010164311.1.2.3,bus2=BMT2202809914.1.2.3,Phases=3,LineCode=tieSwitch,Length=0.001,Units=km,switch=T !numEQ 
new line.CTR114139 bus1=BMT119971681.1.2.3,bus2=BMT159319034.1.2.3,Phases=3,LineCode=tieSwitch,Length=0.001,Units=km,switch=T !numEQ 247415
new line.CTR114167 bus1=BMT119945823.1,bus2=BMT149729710.1,Phases=1,LineCode=tieSwitch1,Length=0.001,Units=km,switch=T !numEQ 168314
new line.CTR114328 bus1=BMT119996272.2,bus2=BMT119997735.2,Phases=1,LineCode=tieSwitch1,Length=0.001,Units=km,switch=T !numEQ 113966
new line.CTR11540 bus1=BMT119947272.2,bus2=BMT119947370.2,Phases=1,LineCode=tieSwitch1,Length=0.001,Units=km,switch=T !numEQ 117663
new line.CTR128727 bus1=BMT119957520.1.2.3,bus2=BMT150605009.1.2.3,Phases=3,LineCode=tieSwitch,Length=0.001,Units=km,switch=T !numEQ 117464
new line.CTR12926 bus1=BMT119995012.1,bus2=BMT119995033.1,Phases=1,LineCode=tieSwitch1,Length=0.001,Units=km,switch=T !numEQ 26972
new line.CTR1425 bus1=BMT119960334.1,bus2=BMT119960418.1,Phases=1,LineCode=tieSwitch1,Length=0.001,Units=km,switch=T !numEQ 135187
new line.CTR142545 bus1=BMT119963757.3,bus2=BMT119963925.3,Phases=1,LineCode=tieSwitch1,Length=0.001,Units=km,switch=T !numEQ 62318
new line.CTR14270 bus1=BMT119958297.1.2.3,bus2=BMT158826872.1.2.3,Phases=3,LineCode=tieSwitch,Length=0.001,Units=km,switch=T !numEQ 135012
new line.CTR142993 bus1=BMT120017881.1,bus2=BMT120017937.1,Phases=1,LineCode=tieSwitch1,Length=0.001,Units=km,switch=T !numEQ 101680
new line.CTR14312 bus1=BMT120003363.1,bus2=BMT152800290.1,Phases=1,LineCode=tieSwitch1,Length=0.001,Units=km,switch=T !numEQ 167673
new line.CTR14326 bus1=BMT119947699.2,bus2=BMT119947804.2,Phases=1,LineCode=tieSwitch1,Length=0.001,Units=km,switch=T !numEQ 136024
new line.CTR143434 bus1=BMT119977617.1.2.3,bus2=BMT157729673.1.2.3,Phases=3,LineCode=tieSwitch,Length=0.001,Units=km,switch=T !numEQ 309345
new line.CTR143518 bus1=BMT119972563.3,bus2=BMT119972724.3,Phases=1,LineCode=tieSwitch1,Length=0.001,Units=km,switch=T !numEQ 138329
new line.CTR157644 bus1=BMT119988691.1,bus2=BMT128693233.1,Phases=1,LineCode=tieSwitch1,Length=0.001,Units=km,switch=T !numEQ 169397
new line.CTR157665 bus1=BMT119996370.2,bus2=BMT119997658.2,Phases=1,LineCode=tieSwitch1,Length=0.001,Units=km,switch=T !numEQ 298482
new line.CTR15775 bus1=BMT119991897.3,bus2=BMT160208675.3,Phases=1,LineCode=tieSwitch1,Length=0.001,Units=km,switch=T !numEQ 113973
new line.CTR15789 bus1=BMT120015144.1.2.3,bus2=BMT152495855.1.2.3,Phases=3,LineCode=tieSwitch,Length=0.001,Units=km,switch=T !numEQ 110113
new line.CTR172967 bus1=BMT119945039.1.2.3,bus2=BMT164718334.1.2.3,Phases=3,LineCode=tieSwitch,Length=0.001,Units=km,switch=T !numEQ 127555
new line.CTR173261 bus1=BMT150604997.1.2.3,bus2=BMT119957296.1.2.3,Phases=3,LineCode=tieSwitch,Length=0.001,Units=km,switch=T !numEQ 117099
new line.CTR173947 bus1=BMT119994872.1.2.3,bus2=BMT119994879.1.2.3,Phases=3,LineCode=tieSwitch,Length=0.001,Units=km,switch=T !numEQ 61512
new line.CTR188955 bus1=BMT159594517.2,bus2=BMT159596158.2,Phases=1,LineCode=tieSwitch1,Length=0.001,Units=km,switch=T !numEQ 112157
new line.CTR201744 bus1=BMT171542893.1.2.3,bus2=BMT3625878.1.2.3,Phases=3,LineCode=tieSwitch,Length=0.001,Units=km,switch=T !numEQ 140133
open line.CTR201744 term=1
new line.CTR201765 bus1=BMT119942204.1.2.3,bus2=BMT154508925.1.2.3,Phases=3,LineCode=tieSwitch,Length=0.001,Units=km,switch=T !numEQ 168588
new line.CTR201779 bus1=BMT119942701.1.2.3,bus2=BMT168029701.1.2.3,Phases=3,LineCode=tieSwitch,Length=0.001,Units=km,switch=T !numEQ 61602
new line.CTR201786 bus1=BMT119942743.3,bus2=BMT119944038.3,Phases=1,LineCode=tieSwitch1,Length=0.001,Units=km,switch=T !numEQ 61604
new line.CTR201793 bus1=BMT119942764.1,bus2=BMT150732796.1,Phases=1,LineCode=tieSwitch1,Length=0.001,Units=km,switch=T !numEQ 61606
new line.CTR201828 bus1=BMT119944339.1,bus2=BMT119944437.1,Phases=1,LineCode=tieSwitch1,Length=0.001,Units=km,switch=T !numEQ 62360
new line.CTR201835 bus1=BMT120012575.1,bus2=BMT138173403.1,Phases=1,LineCode=tieSwitch1,Length=0.001,Units=km,switch=T !numEQ 26978
new line.CTR201849 bus1=BMT119944178.1,bus2=BMT119944220.1,Phases=1,LineCode=tieSwitch1,Length=0.001,Units=km,switch=T !numEQ 57926
new line.CTR201856 bus1=BMT119942400.3,bus2=BMT119956820.3,Phases=1,LineCode=tieSwitch1,Length=0.001,Units=km,switch=T !numEQ 168585
new line.CTR201877 bus1=BMT119956029.1,bus2=BMT157453139.1,Phases=1,LineCode=tieSwitch1,Length=0.001,Units=km,switch=T !numEQ 61013
new line.CTR201898 bus1=BMT120010762.1.2.3,bus2=BMT120010769.1.2.3,Phases=3,LineCode=tieSwitch,Length=0.001,Units=km,switch=T !numEQ 221476
new line.CTR201905 bus1=BMT120001067.1,bus2=BMT120007500.1,Phases=1,LineCode=tieSwitch1,Length=0.001,Units=km,switch=T !numEQ 62013
new line.CTR201912 bus1=BMT119944850.1.2.3,bus2=BMT159848566.1.2.3,Phases=3,LineCode=tieSwitch,Length=0.001,Units=km,switch=T !numEQ 61055
new line.CTR104577 bus1=BMT119953782.2,bus2=BMT119955658.2,Phases=1,LineCode=tieSwitch1,Length=0.001,Units=km,switch=T !numEQ 188569
new line.CTR105298 bus1=BMT119983189.2,bus2=BMT119983833.2,Phases=1,LineCode=tieSwitch1,Length=0.001,Units=km,switch=T !numEQ 231663
new line.CTR117394 bus1=BMT172980307.1.2.3,bus2=BMT172980309.1.2.3,Phases=3,LineCode=tieSwitch,Length=0.001,Units=km,switch=T !numEQ 71077
open line.CTR117394 term=1
new line.CTR11757 bus1=BMT119951822.1,bus2=BMT158941281.1,Phases=1,LineCode=tieSwitch1,Length=0.001,Units=km,switch=T !numEQ 117163
new line.CTR11771 bus1=BMT119951850.1,bus2=BMT148977744.1,Phases=1,LineCode=tieSwitch1,Length=0.001,Units=km,switch=T !numEQ 117164
new line.CTR118514 bus1=BMT119962588.1,bus2=BMT119962623.1,Phases=1,LineCode=tieSwitch1,Length=0.001,Units=km,switch=T !numEQ 117268
new line.CTR129721 bus1=BMT119957947.1.2.3,bus2=BMT164481525.1.2.3,Phases=3,LineCode=tieSwitch,Length=0.001,Units=km,switch=T !numEQ 61722
new line.CTR130022 bus1=BMT120006107.1,bus2=BMT171444067.1,Phases=1,LineCode=tieSwitch1,Length=0.001,Units=km,switch=T !numEQ 205705
new line.CTR130225 bus1=BMT119977848.1.2.3,bus2=BMT119992884.1.2.3,Phases=3,LineCode=tieSwitch,Length=0.001,Units=km,switch=T !numEQ 60026
new line.CTR130456 bus1=BMT171327156.1.2.3,bus2=BMT169841341.1.2.3,Phases=3,LineCode=tieSwitch,Length=0.001,Units=km,switch=T !numEQ 126112
new line.CTR131044 bus1=BMT153062491.1.2.3,bus2=BMT119975419.1.2.3,Phases=3,LineCode=tieSwitch,Length=0.001,Units=km,switch=T !numEQ 60065
new line.CTR131184 bus1=BMT119993213.1.2.3,bus2=BMT159823706.1.2.3,Phases=3,LineCode=tieSwitch,Length=0.001,Units=km,switch=T !numEQ 60066
new line.CTR145345 bus1=BMT119958962.1.2.3,bus2=BMT170456438.1.2.3,Phases=3,LineCode=tieSwitch,Length=0.001,Units=km,switch=T !numEQ 57864
new line.CTR145359 bus1=BMT133368603.2,bus2=BMT133873849.2,Phases=1,LineCode=tieSwitch1,Length=0.001,Units=km,switch=T !numEQ 118835
new line.CTR14592 bus1=BMT120018686.2,bus2=BMT120019232.2,Phases=1,LineCode=tieSwitch1,Length=0.001,Units=km,switch=T !numEQ 227847
new line.CTR146213 bus1=BMT172070397.1.2.3,bus2=BMT172070399.1.2.3,Phases=3,LineCode=tieSwitch,Length=0.001,Units=km,switch=T !numEQ 139206
new line.CTR159289 bus1=BMT119988138.3,bus2=BMT164279359.3,Phases=1,LineCode=tieSwitch1,Length=0.001,Units=km,switch=T !numEQ 134887
new line.CTR159373 bus1=BMT119951591.1,bus2=BMT170511339.1,Phases=1,LineCode=tieSwitch1,Length=0.001,Units=km,switch=T !numEQ 122696
new line.CTR16006 bus1=BMT119979542.1.2.3,bus2=BMT156062395.1.2.3,Phases=3,LineCode=tieSwitch,Length=0.001,Units=km,switch=T !numEQ 118043
new line.CTR16055 bus1=BMT172070407.3,bus2=BMT172070469.3,Phases=1,LineCode=tieSwitch1,Length=0.001,Units=km,switch=T !numEQ 106843
new line.CTR175193 bus1=BMT169843939.1.2.3,bus2=BMT169843976.1.2.3,Phases=3,LineCode=tieSwitch,Length=0.001,Units=km,switch=T !numEQ 125617
new line.CTR175270 bus1=BMT120018581.1,bus2=BMT120019547.1,Phases=1,LineCode=tieSwitch1,Length=0.001,Units=km,switch=T !numEQ 227992
new line.CTR17532 bus1=BMT120008823.3,bus2=BMT148231615.3,Phases=1,LineCode=tieSwitch1,Length=0.001,Units=km,switch=T !numEQ 121805
new line.CTR17539 bus1=BMT119984435.2,bus2=BMT156053806.2,Phases=1,LineCode=tieSwitch1,Length=0.001,Units=km,switch=T !numEQ 62516
new line.CTR17553 bus1=BMT119984428.2,bus2=BMT119984470.2,Phases=1,LineCode=tieSwitch1,Length=0.001,Units=km,switch=T !numEQ 122444
new line.CTR175634 bus1=BMT119968685.1.2.3,bus2=BMT119968692.1.2.3,Phases=3,LineCode=tieSwitch,Length=0.001,Units=km,switch=T !numEQ 168581
new line.CTR175655 bus1=BMT172994232.1.2.3,bus2=BMT172982031.1.2.3,Phases=3,LineCode=tieSwitch,Length=0.001,Units=km,switch=T !numEQ 46637
open line.CTR175655 term=1
new line.CTR189424 bus1=BMT119986640.1.2.3,bus2=BMT162222087.1.2.3,Phases=3,LineCode=tieSwitch,Length=0.001,Units=km,switch=T !numEQ 176115
new line.CTR190201 bus1=BMT119989867.3,bus2=BMT159741921.3,Phases=1,LineCode=tieSwitch1,Length=0.001,Units=km,switch=T !numEQ 235950
new line.CTR204257 bus1=BMT119963267.1,bus2=BMT160914320.1,Phases=1,LineCode=tieSwitch1,Length=0.001,Units=km,switch=T !numEQ 61676
new line.CTR204264 bus1=BMT119963351.1,bus2=BMT119963379.1,Phases=1,LineCode=tieSwitch1,Length=0.001,Units=km,switch=T !numEQ 61681
new line.CTR204271 bus1=BMT119963568.2,bus2=BMT119963582.2,Phases=1,LineCode=tieSwitch1,Length=0.001,Units=km,switch=T !numEQ 62313
new line.CTR204278 bus1=BMT119942757.3,bus2=BMT119944017.3,Phases=1,LineCode=tieSwitch1,Length=0.001,Units=km,switch=T !numEQ 61605
new line.CTR204320 bus1=BMT172070393.1.2.3,bus2=BMT172070501.1.2.3,Phases=3,LineCode=tieSwitch,Length=0.001,Units=km,switch=T !numEQ 168250
new line.CTR204334 bus1=BMT172070332.2,bus2=BMT172070333.2,Phases=1,LineCode=tieSwitch1,Length=0.001,Units=km,switch=T !numEQ 315308
new line.CTR204341 bus1=BMT172070354.2,bus2=BMT172070357.2,Phases=1,LineCode=tieSwitch1,Length=0.001,Units=km,switch=T !numEQ 315310
new line.CTR204348 bus1=BMT156043092.1.2.3,bus2=BMT166660931.1.2.3,Phases=3,LineCode=tieSwitch,Length=0.001,Units=km,switch=T !numEQ 270663
new line.CTR204355 bus1=BMT119959109.1.2.3,bus2=BMT166660363.1.2.3,Phases=3,LineCode=tieSwitch,Length=0.001,Units=km,switch=T !numEQ 60129
new line.CTR204376 bus1=BMT172070192.1.2.3,bus2=BMT172070193.1.2.3,Phases=3,LineCode=tieSwitch,Length=0.001,Units=km,switch=T !numEQ 140134
new line.CTR204411 bus1=BMT119972493.1.2.3,bus2=BMT162405722.1.2.3,Phases=3,LineCode=tieSwitch,Length=0.001,Units=km,switch=T !numEQ 62291
new line.CTR204425 bus1=BMT119972521.2,bus2=BMT119972794.2,Phases=1,LineCode=tieSwitch1,Length=0.001,Units=km,switch=T !numEQ 62293
new line.CTR204446 bus1=BMT119960285.1.2.3,bus2=BMT162202417.1.2.3,Phases=3,LineCode=tieSwitch,Length=0.001,Units=km,switch=T !numEQ 61004
new line.CTR204453 bus1=BMT5986271.1.2.3,bus2=BMT172982021.1.2.3,Phases=3,LineCode=tieSwitch,Length=0.001,Units=km,switch=T !numEQ 60784
new line.CTR204488 bus1=BMT119953789.3,bus2=BMT166331335.3,Phases=1,LineCode=tieSwitch1,Length=0.001,Units=km,switch=T !numEQ 116630
new line.CTR204495 bus1=BMT119994445.3,bus2=BMT168561778.3,Phases=1,LineCode=tieSwitch1,Length=0.001,Units=km,switch=T !numEQ 62185
new line.CTR204502 bus1=BMT119994550.2,bus2=BMT119994557.2,Phases=1,LineCode=tieSwitch1,Length=0.001,Units=km,switch=T !numEQ 62298
new line.CTR204537 bus1=BMT119994627.3,bus2=BMT165405488.3,Phases=1,LineCode=tieSwitch1,Length=0.001,Units=km,switch=T !numEQ 62273
new line.CTR204551 bus1=BMT119994746.1.2.3,bus2=BMT119995096.1.2.3,Phases=3,LineCode=tieSwitch,Length=0.001,Units=km,switch=T !numEQ 62656
new line.CTR204558 bus1=BMT119994781.1.2.3,bus2=BMT119994788.1.2.3,Phases=3,LineCode=tieSwitch,Length=0.001,Units=km,switch=T !numEQ 61511
new line.CTR204565 bus1=BMT119995145.2,bus2=BMT119999835.2,Phases=1,LineCode=tieSwitch1,Length=0.001,Units=km,switch=T !numEQ 62274
new line.CTR204572 bus1=BMT119995187.1,bus2=BMT119999674.1,Phases=1,LineCode=tieSwitch1,Length=0.001,Units=km,switch=T !numEQ 62277
new line.CTR204579 bus1=BMT119951038.1.2.3,bus2=BMT169197153.1.2.3,Phases=3,LineCode=tieSwitch,Length=0.001,Units=km,switch=T !numEQ 227569
new line.CTR204593 bus1=BMT119995810.3,bus2=BMT165466651.3,Phases=1,LineCode=tieSwitch1,Length=0.001,Units=km,switch=T !numEQ 57161
new line.CTR204607 bus1=BMT119994648.1,bus2=BMT119994676.1,Phases=1,LineCode=tieSwitch1,Length=0.001,Units=km,switch=T !numEQ 61544
new line.CTR204656 bus1=BMT119946432.3,bus2=BMT161004709.3,Phases=1,LineCode=tieSwitch1,Length=0.001,Units=km,switch=T !numEQ 188661
new line.CTR204670 bus1=BMT119995334.1.2.3,bus2=BMT119995341.1.2.3,Phases=3,LineCode=tieSwitch,Length=0.001,Units=km,switch=T !numEQ 60318
new line.CTR204684 bus1=BMT119995453.3,bus2=BMT119996174.3,Phases=1,LineCode=tieSwitch1,Length=0.001,Units=km,switch=T !numEQ 57880
new line.CTR204705 bus1=BMT119995523.3,bus2=BMT161380287.3,Phases=1,LineCode=tieSwitch1,Length=0.001,Units=km,switch=T !numEQ 57024
new line.CTR204726 bus1=BMT119999520.2,bus2=BMT119999660.2,Phases=1,LineCode=tieSwitch1,Length=0.001,Units=km,switch=T !numEQ 57910
new line.CTR204740 bus1=BMT172402458.1.2.3,bus2=BMT172406111.1.2.3,Phases=3,LineCode=tieSwitch,Length=0.001,Units=km,switch=T !numEQ 244533
new line.CTR204747 bus1=BMT149988080.2,bus2=BMT149988117.2,Phases=1,LineCode=tieSwitch1,Length=0.001,Units=km,switch=T !numEQ 62190
new line.CTR204768 bus1=BMT119997938.2,bus2=BMT159851633.2,Phases=1,LineCode=tieSwitch1,Length=0.001,Units=km,switch=T !numEQ 62283
new line.CTR204775 bus1=BMT119994473.1.2.3,bus2=BMT119994529.1.2.3,Phases=3,LineCode=tieSwitch,Length=0.001,Units=km,switch=T !numEQ 62408
new line.CTR204782 bus1=BMT120000297.3,bus2=BMT169693648.3,Phases=1,LineCode=tieSwitch1,Length=0.001,Units=km,switch=T !numEQ 58470
new line.CTR204789 bus1=BMT120007542.2,bus2=BMT120007549.2,Phases=1,LineCode=tieSwitch1,Length=0.001,Units=km,switch=T !numEQ 62456
new line.CTR204796 bus1=BMT120001011.3,bus2=BMT120001109.3,Phases=1,LineCode=tieSwitch1,Length=0.001,Units=km,switch=T !numEQ 62011
new line.CTR204810 bus1=BMT148216274.1.2.3,bus2=BMT163115845.1.2.3,Phases=3,LineCode=tieSwitch,Length=0.001,Units=km,switch=T !numEQ 302492
new line.CTR204845 bus1=BMT120002341.1.2.3,bus2=BMT170606021.1.2.3,Phases=3,LineCode=tieSwitch,Length=0.001,Units=km,switch=T !numEQ 57012
new line.CTR204859 bus1=BMT120005470.1.2.3,bus2=BMT120005491.1.2.3,Phases=3,LineCode=tieSwitch,Length=0.001,Units=km,switch=T !numEQ 57954
new line.CTR204866 bus1=BMT120012526.1,bus2=BMT120013240.1,Phases=1,LineCode=tieSwitch1,Length=0.001,Units=km,switch=T !numEQ 60851
new line.CTR204880 bus1=BMT149745718.1.2.3,bus2=BMT149745719.1.2.3,Phases=3,LineCode=tieSwitch,Length=0.001,Units=km,switch=T !numEQ 188340
new line.CTR204943 bus1=BMT120002642.2,bus2=BMT141332027.2,Phases=1,LineCode=tieSwitch1,Length=0.001,Units=km,switch=T !numEQ 285599
new line.CTR204950 bus1=BMT120003300.2,bus2=BMT120003328.2,Phases=1,LineCode=tieSwitch1,Length=0.001,Units=km,switch=T !numEQ 58475
new line.CTR204964 bus1=BMT120003706.1,bus2=BMT120003713.1,Phases=1,LineCode=tieSwitch1,Length=0.001,Units=km,switch=T !numEQ 62503
new line.CTR204971 bus1=BMT120003741.1,bus2=BMT120003762.1,Phases=1,LineCode=tieSwitch1,Length=0.001,Units=km,switch=T !numEQ 61713
new line.CTR204978 bus1=BMT120004798.2,bus2=BMT159891988.2,Phases=1,LineCode=tieSwitch1,Length=0.001,Units=km,switch=T !numEQ 372443
new line.CTR204992 bus1=BMT120005302.1.2.3,bus2=BMT133991253.1.2.3,Phases=3,LineCode=tieSwitch,Length=0.001,Units=km,switch=T !numEQ 57796
new line.CTR204999 bus1=BMT120005239.1.2.3,bus2=BMT120005813.1.2.3,Phases=3,LineCode=tieSwitch,Length=0.001,Units=km,switch=T !numEQ 26603
new line.CTR205027 bus1=BMT119994760.1.2.3,bus2=BMT119994858.1.2.3,Phases=3,LineCode=tieSwitch,Length=0.001,Units=km,switch=T !numEQ 61510
new line.CTR205034 bus1=BMT119983266.2,bus2=BMT119983574.2,Phases=1,LineCode=tieSwitch1,Length=0.001,Units=km,switch=T !numEQ 125621
new line.CTR205041 bus1=BMT119953537.1,bus2=BMT119953565.1,Phases=1,LineCode=tieSwitch1,Length=0.001,Units=km,switch=T !numEQ 120634
new line.CTR205083 bus1=BMT120001830.1,bus2=BMT120002103.1,Phases=1,LineCode=tieSwitch1,Length=0.001,Units=km,switch=T !numEQ 62750
new line.CTR205097 bus1=BMT120002110.1,bus2=BMT120002124.1,Phases=1,LineCode=tieSwitch1,Length=0.001,Units=km,switch=T !numEQ 62751
new line.CTR205111 bus1=BMT120001172.2,bus2=BMT171443866.2,Phases=1,LineCode=tieSwitch1,Length=0.001,Units=km,switch=T !numEQ 62018
new line.CTR205125 bus1=BMT120010776.3,bus2=BMT120011686.3,Phases=1,LineCode=tieSwitch1,Length=0.001,Units=km,switch=T !numEQ 221477
new line.CTR205132 bus1=BMT120009082.1,bus2=BMT120014171.1,Phases=1,LineCode=tieSwitch1,Length=0.001,Units=km,switch=T !numEQ 60503
new line.CTR205139 bus1=BMT120010783.1,bus2=BMT120011616.1,Phases=1,LineCode=tieSwitch1,Length=0.001,Units=km,switch=T !numEQ 221478
new line.CTR205174 bus1=BMT120008571.1.2.3,bus2=BMT150343871.1.2.3,Phases=3,LineCode=tieSwitch,Length=0.001,Units=km,switch=T !numEQ 169933
new line.CTR205216 bus1=BMT173046179.1.2.3,bus2=BMT120014241.1.2.3,Phases=3,LineCode=tieSwitch,Length=0.001,Units=km,switch=T !numEQ 188281
new line.CTR205223 bus1=BMT120014647.1.2.3,bus2=BMT120020296.1.2.3,Phases=3,LineCode=tieSwitch,Length=0.001,Units=km,switch=T !numEQ 171080
new line.CTR205244 bus1=BMT120018875.3,bus2=BMT120019106.3,Phases=1,LineCode=tieSwitch1,Length=0.001,Units=km,switch=T !numEQ 58464
new line.CTR205251 bus1=BMT120016670.3,bus2=BMT172122268.3,Phases=1,LineCode=tieSwitch1,Length=0.001,Units=km,switch=T !numEQ 62489
new line.CTR205265 bus1=BMT120018938.3,bus2=BMT120018987.3,Phases=1,LineCode=tieSwitch1,Length=0.001,Units=km,switch=T !numEQ 58489
new line.CTR205272 bus1=BMT120019365.1,bus2=BMT157234566.1,Phases=1,LineCode=tieSwitch1,Length=0.001,Units=km,switch=T !numEQ 57938
new line.CTR205279 bus1=BMT120018931.3,bus2=BMT120019001.3,Phases=1,LineCode=tieSwitch1,Length=0.001,Units=km,switch=T !numEQ 61302
new line.CTR205286 bus1=BMT120019239.2,bus2=BMT120019260.2,Phases=1,LineCode=tieSwitch1,Length=0.001,Units=km,switch=T !numEQ 61304
new line.CTR205293 bus1=BMT119950884.1.2.3,bus2=BMT119950891.1.2.3,Phases=3,LineCode=tieSwitch,Length=0.001,Units=km,switch=T !numEQ 168523
new line.CTR205335 bus1=BMT119965003.1.2.3,bus2=BMT150343844.1.2.3,Phases=3,LineCode=tieSwitch,Length=0.001,Units=km,switch=T !numEQ 60157
new line.CTR201933 bus1=BMT119991099.1,bus2=BMT119991127.1,Phases=1,LineCode=tieSwitch1,Length=0.001,Units=km,switch=T !numEQ 103532
new line.CTR201947 bus1=BMT119945088.3,bus2=BMT157854959.3,Phases=1,LineCode=tieSwitch1,Length=0.001,Units=km,switch=T !numEQ 58407
new line.CTR201954 bus1=BMT119945095.1,bus2=BMT119949939.1,Phases=1,LineCode=tieSwitch1,Length=0.001,Units=km,switch=T !numEQ 62354
new line.CTR201961 bus1=BMT119942113.1.2.3,bus2=BMT119957856.1.2.3,Phases=3,LineCode=tieSwitch,Length=0.001,Units=km,switch=T !numEQ 119898
new line.CTR201968 bus1=BMT119945193.1.2.3,bus2=BMT171807563.1.2.3,Phases=3,LineCode=tieSwitch,Length=0.001,Units=km,switch=T !numEQ 26570
new line.CTR201975 bus1=BMT119945207.1,bus2=BMT119949694.1,Phases=1,LineCode=tieSwitch1,Length=0.001,Units=km,switch=T !numEQ 26990
new line.CTR201996 bus1=BMT119945242.1.2.3,bus2=BMT119949603.1.2.3,Phases=3,LineCode=tieSwitch,Length=0.001,Units=km,switch=T !numEQ 57112
new line.CTR202003 bus1=BMT119945319.3,bus2=BMT119945963.3,Phases=1,LineCode=tieSwitch1,Length=0.001,Units=km,switch=T !numEQ 57700
new line.CTR202010 bus1=BMT119946999.2,bus2=BMT145832936.2,Phases=1,LineCode=tieSwitch1,Length=0.001,Units=km,switch=T !numEQ 63014
new line.CTR202024 bus1=BMT119946019.3,bus2=BMT119946047.3,Phases=1,LineCode=tieSwitch1,Length=0.001,Units=km,switch=T !numEQ 61711
new line.CTR202031 bus1=BMT119946131.3,bus2=BMT119946635.3,Phases=1,LineCode=tieSwitch1,Length=0.001,Units=km,switch=T !numEQ 57125
new line.CTR202059 bus1=BMT119970218.1.2.3,bus2=BMT151800259.1.2.3,Phases=3,LineCode=tieSwitch,Length=0.001,Units=km,switch=T !numEQ 183538
new line.CTR202073 bus1=BMT159666416.1,bus2=BMT172399564.1,Phases=1,LineCode=tieSwitch1,Length=0.001,Units=km,switch=T !numEQ 110122
new line.CTR202080 bus1=BMT119986948.1.2.3,bus2=BMT119986955.1.2.3,Phases=3,LineCode=tieSwitch,Length=0.001,Units=km,switch=T !numEQ 110098
open line.CTR202080 term=1
new line.CTR202108 bus1=BMT128365808.1.2.3,bus2=BMT128366403.1.2.3,Phases=3,LineCode=tieSwitch,Length=0.001,Units=km,switch=T !numEQ 189495
new line.CTR202115 bus1=BMT119987410.3,bus2=BMT128698819.3,Phases=1,LineCode=tieSwitch1,Length=0.001,Units=km,switch=T !numEQ 170823
new line.CTR202122 bus1=BMT161565620.3,bus2=BMT164398320.3,Phases=1,LineCode=tieSwitch1,Length=0.001,Units=km,switch=T !numEQ 258571
new line.CTR202129 bus1=BMT119987494.3,bus2=BMT161670545.3,Phases=1,LineCode=tieSwitch1,Length=0.001,Units=km,switch=T !numEQ 63027
new line.CTR202136 bus1=BMT119946985.2,bus2=BMT119949260.2,Phases=1,LineCode=tieSwitch1,Length=0.001,Units=km,switch=T !numEQ 170751
new line.CTR202157 bus1=BMT120007563.2,bus2=BMT120007570.2,Phases=1,LineCode=tieSwitch1,Length=0.001,Units=km,switch=T !numEQ 169618
new line.CTR202171 bus1=BMT119954377.1,bus2=BMT119955350.1,Phases=1,LineCode=tieSwitch1,Length=0.001,Units=km,switch=T !numEQ 58182
new line.CTR202199 bus1=BMT119955245.1,bus2=BMT119955308.1,Phases=1,LineCode=tieSwitch1,Length=0.001,Units=km,switch=T !numEQ 62732
new line.CTR202248 bus1=BMT119955889.2,bus2=BMT155672097.2,Phases=1,LineCode=tieSwitch1,Length=0.001,Units=km,switch=T !numEQ 62315
new line.CTR202255 bus1=BMT119970148.1.2.3,bus2=BMT169242341.1.2.3,Phases=3,LineCode=tieSwitch,Length=0.001,Units=km,switch=T !numEQ 140135
new line.CTR202311 bus1=BMT119968888.1.2.3,bus2=BMT148627254.1.2.3,Phases=3,LineCode=tieSwitch,Length=0.001,Units=km,switch=T !numEQ 62604
new line.CTR202318 bus1=BMT120005351.3,bus2=BMT120005407.3,Phases=1,LineCode=tieSwitch1,Length=0.001,Units=km,switch=T !numEQ 62102
new line.CTR202325 bus1=BMT119969070.1.2.3,bus2=BMT158166626.1.2.3,Phases=3,LineCode=tieSwitch,Length=0.001,Units=km,switch=T !numEQ 168453
new line.CTR203046 bus1=BMT153243351.3,bus2=BMT153243364.3,Phases=1,LineCode=tieSwitch1,Length=0.001,Units=km,switch=T !numEQ 62317
new line.CTR203179 bus1=BMT119942190.2,bus2=BMT119957002.2,Phases=1,LineCode=tieSwitch1,Length=0.001,Units=km,switch=T !numEQ 134492
new line.CTR203445 bus1=BMT119994928.1,bus2=BMT152386654.1,Phases=1,LineCode=tieSwitch1,Length=0.001,Units=km,switch=T !numEQ 217047
new line.CTR203452 bus1=BMT119981383.1,bus2=BMT119981978.1,Phases=1,LineCode=tieSwitch1,Length=0.001,Units=km,switch=T !numEQ 193333
new line.CTR203494 bus1=BMT120005659.3,bus2=BMT120005701.3,Phases=1,LineCode=tieSwitch1,Length=0.001,Units=km,switch=T !numEQ 61855
new line.CTR204124 bus1=BMT119963743.3,bus2=BMT119963946.3,Phases=1,LineCode=tieSwitch1,Length=0.001,Units=km,switch=T !numEQ 61496
new line.CTR204131 bus1=BMT119960271.1,bus2=BMT119963631.1,Phases=1,LineCode=tieSwitch1,Length=0.001,Units=km,switch=T !numEQ 61689
new line.CTR204152 bus1=BMT119960369.1,bus2=BMT119960404.1,Phases=1,LineCode=tieSwitch1,Length=0.001,Units=km,switch=T !numEQ 61686
new line.CTR204159 bus1=BMT119960509.3,bus2=BMT119960558.3,Phases=1,LineCode=tieSwitch1,Length=0.001,Units=km,switch=T !numEQ 61687
new line.CTR204166 bus1=BMT119960523.3,bus2=BMT119960544.3,Phases=1,LineCode=tieSwitch1,Length=0.001,Units=km,switch=T !numEQ 61688
new line.CTR204180 bus1=BMT120001389.1.2.3,bus2=BMT120007374.1.2.3,Phases=3,LineCode=tieSwitch,Length=0.001,Units=km,switch=T !numEQ 137261
new line.CTR204194 bus1=BMT119960817.1.2.3,bus2=BMT119963526.1.2.3,Phases=3,LineCode=tieSwitch,Length=0.001,Units=km,switch=T !numEQ 116707
new line.CTR223395 bus1=BMT120004616.2,bus2=BMT120004630.2,Phases=1,LineCode=tieSwitch1,Length=0.001,Units=km,switch=T !numEQ 169361
new line.CTR223542 bus1=BMT119944955.1.2.3,bus2=BMT142618410.1.2.3,Phases=3,LineCode=tieSwitch,Length=0.001,Units=km,switch=T !numEQ 107842
new line.CTR22376 bus1=BMT119950611.1,bus2=BMT119950653.1,Phases=1,LineCode=tieSwitch1,Length=0.001,Units=km,switch=T !numEQ 168143
new line.CTR224207 bus1=BMT120011140.3,bus2=BMT120011147.3,Phases=1,LineCode=tieSwitch1,Length=0.001,Units=km,switch=T !numEQ 189621
new line.CTR224494 bus1=BMT119972514.2,bus2=BMT173228970.2,Phases=1,LineCode=tieSwitch1,Length=0.001,Units=km,switch=T !numEQ 62295
new line.CTR22453 bus1=BMT152443387.3,bus2=BMT161037940.3,Phases=1,LineCode=tieSwitch1,Length=0.001,Units=km,switch=T !numEQ 141267
new line.CTR224557 bus1=BMT119970246.1.2.3,bus2=BMT151802721.1.2.3,Phases=3,LineCode=tieSwitch,Length=0.001,Units=km,switch=T !numEQ 167896
new line.CTR224627 bus1=BMT120010097.3,bus2=BMT120013464.3,Phases=1,LineCode=tieSwitch1,Length=0.001,Units=km,switch=T !numEQ 62464
new line.CTR22488 bus1=BMT119955266.1,bus2=BMT119955280.1,Phases=1,LineCode=tieSwitch1,Length=0.001,Units=km,switch=T !numEQ 168121
new line.CTR225117 bus1=BMT119963785.3,bus2=BMT119963834.3,Phases=1,LineCode=tieSwitch1,Length=0.001,Units=km,switch=T !numEQ 61684
new line.CTR108844 bus1=BMT172979953.1.2.3,bus2=BMT172979954.1.2.3,Phases=3,LineCode=tieSwitch,Length=0.001,Units=km,switch=T !numEQ 74349
new line.CTR109085 bus1=BMT119947706.2,bus2=BMT119947713.2,Phases=1,LineCode=tieSwitch1,Length=0.001,Units=km,switch=T !numEQ 110109
new line.CTR10945 bus1=BMT153065296.1.2.3,bus2=BMT119975615.1.2.3,Phases=3,LineCode=tieSwitch,Length=0.001,Units=km,switch=T !numEQ 115664
new line.CTR109477 bus1=BMT119991883.3,bus2=BMT119991988.3,Phases=1,LineCode=tieSwitch1,Length=0.001,Units=km,switch=T !numEQ 113972
new line.CTR109792 bus1=BMT119968188.1.2.3,bus2=BMT138705004.1.2.3,Phases=3,LineCode=tieSwitch,Length=0.001,Units=km,switch=T !numEQ 168484
new line.CTR109953 bus1=BMT119952571.1,bus2=BMT148977844.1,Phases=1,LineCode=tieSwitch1,Length=0.001,Units=km,switch=T !numEQ 168091
new line.CTR110471 bus1=BMT119993045.1.2.3,bus2=BMT170901805.1.2.3,Phases=3,LineCode=tieSwitch,Length=0.001,Units=km,switch=T !numEQ 103533
new line.CTR13710 bus1=BMT119973788.1.2.3,bus2=BMT119973809.1.2.3,Phases=3,LineCode=tieSwitch,Length=0.001,Units=km,switch=T !numEQ 57847
new line.CTR13724 bus1=BMT120015060.2,bus2=BMT163437271.2,Phases=1,LineCode=tieSwitch1,Length=0.001,Units=km,switch=T !numEQ 61646
new line.CTR13731 bus1=BMT135027631.1.2.3,bus2=BMT3528018.1.2.3,Phases=3,LineCode=tieSwitch,Length=0.001,Units=km,switch=T !numEQ 147376
open line.CTR13731 term=1
new line.CTR137477 bus1=BMT120014444.1.2.3,bus2=BMT151003663.1.2.3,Phases=3,LineCode=tieSwitch,Length=0.001,Units=km,switch=T !numEQ 134659
new line.CTR137953 bus1=BMT119990889.1.2.3,bus2=BMT173216001.1.2.3,Phases=3,LineCode=tieSwitch,Length=0.001,Units=km,switch=T !numEQ 183385
new line.CTR13857 bus1=BMT119981019.1,bus2=BMT119982265.1,Phases=1,LineCode=tieSwitch1,Length=0.001,Units=km,switch=T !numEQ 137090
new line.CTR152093 bus1=BMT119977869.1.2.3,bus2=BMT119992828.1.2.3,Phases=3,LineCode=tieSwitch,Length=0.001,Units=km,switch=T !numEQ 118628
new line.CTR152576 bus1=BMT119972003.1.2.3,bus2=BMT149992187.1.2.3,Phases=3,LineCode=tieSwitch,Length=0.001,Units=km,switch=T !numEQ 115874
new line.CTR152996 bus1=BMT119962035.2,bus2=BMT161308560.2,Phases=1,LineCode=tieSwitch1,Length=0.001,Units=km,switch=T !numEQ 139477
new line.CTR15313 bus1=BMT136627901.1.2.3,bus2=BMT119973683.1.2.3,Phases=3,LineCode=tieSwitch,Length=0.001,Units=km,switch=T !numEQ 292241
open line.CTR15313 term=1
new line.CTR16706 bus1=BMT119950156.1.2.3,bus2=BMT119950198.1.2.3,Phases=3,LineCode=tieSwitch,Length=0.001,Units=km,switch=T !numEQ 116256
new line.CTR167185 bus1=BMT120011203.3,bus2=BMT120011217.3,Phases=1,LineCode=tieSwitch1,Length=0.001,Units=km,switch=T !numEQ 207209