new load.3000442545M1 bus1=RML1050506445.2.0,Phases=1,kv=0.12,kW=0.75948,pf=0.92,Vminpu=0.92,Vmaxpu=1.5,model=1,daily=RES1_6,status=variable
new load.3000442546M1 bus1=RML1050506452.1.0,Phases=1,kv=0.12,kW=0.22518,pf=0.92,Vminpu=0.92,Vmaxpu=1.5,model=1,daily=RES2_6,status=variable
new load.3000442547M1 bus1=RML1050506592.1.2.0,Phases=2,kv=0.24,kW=1.12594,pf=0.92,Vminpu=0.92,Vmaxpu=1.5,model=1,daily=RES2_6,status=variable
new load.3000442550M1 bus1=RML1050506557.2.0,Phases=1,kv=0.12,kW=0.06024,pf=0.92,Vminpu=0.92,Vmaxpu=1.5,model=1,daily=COM1_12,status=variable
new load.3000442551M1 bus1=RML1050506543.1.0,Phases=1,kv=0.12,kW=0.68808,pf=0.92,Vminpu=0.92,Vmaxpu=1.5,model=1,daily=RES2_6,status=variable
new load.3000442556M1 bus1=RML1050506753.1.0,Phases=1,kv=0.12,kW=0.4316,pf=0.92,Vminpu=0.92,Vmaxpu=1.5,model=1,daily=RES2_6,status=variable
new load.3000442557M1 bus1=RML1050506739.2.0,Phases=1,kv=0.12,kW=0.37974,pf=0.92,Vminpu=0.92,Vmaxpu=1.5,model=1,daily=RES1_6,status=variable
new load.3000442559M1 bus1=RML1050506725.1.0,Phases=1,kv=0.12,kW=1.0324,pf=0.92,Vminpu=0.92,Vmaxpu=1.5,model=1,daily=RES1_6,status=variable
new load.3000442563M1 bus1=RML1060957369.1.0,Phases=1,kv=0.12,kW=0.77564,pf=0.92,Vminpu=0.92,Vmaxpu=1.5,model=1,daily=RES2_6,status=variable
new load.3000442566M1 bus1=RML1050506991.2.0,Phases=1,kv=0.12,kW=0.178,pf=0.92,Vminpu=0.92,Vmaxpu=1.5,model=1,daily=RES1_6,status=variable
new load.3000442573M1 bus1=RML1050506865.2.0,Phases=1,kv=0.12,kW=0.88824,pf=0.92,Vminpu=0.92,Vmaxpu=1.5,model=1,daily=RES2_6,status=variable
new load.3000442575M1 bus1=RML1050506900.1.2.0,Phases=2,kv=0.24,kW=0.80692,pf=0.92,Vminpu=0.92,Vmaxpu=1.5,model=1,daily=RES2_6,status=variable
new load.3000442577M1 bus1=RML1050506956.1.0,Phases=1,kv=0.12,kW=0.08306,pf=0.92,Vminpu=0.92,Vmaxpu=1.5,model=1,daily=RES1_6,status=variable
new load.3000442578M1 bus1=RML1050506949.1.0,Phases=1,kv=0.12,kW=0.35654,pf=0.92,Vminpu=0.92,Vmaxpu=1.5,model=1,daily=RES2_6,status=variable
new load.3000442581M1 bus1=RML1050506942.1.0,Phases=1,kv=0.12,kW=1.2138,pf=0.92,Vminpu=0.92,Vmaxpu=1.5,model=1,daily=RES3_7,status=variable
new load.3000442583M1 bus1=RML1050506648.1.2.0,Phases=2,kv=0.24,kW=0.58742,pf=0.92,Vminpu=0.92,Vmaxpu=1.5,model=1,daily=COM1_12,status=variable
new load.3000442586M1 bus1=RML1050506662.2.0,Phases=1,kv=0.12,kW=0.63178,pf=0.92,Vminpu=0.92,Vmaxpu=1.5,model=1,daily=RES2_6,status=variable
new load.3000442587M1 bus1=RML1050506669.1.2.0,Phases=2,kv=0.24,kW=0.04378,pf=0.92,Vminpu=0.92,Vmaxpu=1.5,model=1,daily=RES2_6,status=variable
new load.3000442588M1 bus1=RML1050506683.1.2.0,Phases=2,kv=0.24,kW=0.97492,pf=0.92,Vminpu=0.92,Vmaxpu=1.5,model=1,daily=RUR2_11,status=variable
new load.3000442589M1 bus1=RML1050506277.1.2.0,Phases=2,kv=0.24,kW=0.93828,pf=0.92,Vminpu=0.92,Vmaxpu=1.5,model=1,daily=RES2_6,status=variable
new load.3000442591M1 bus1=RML1050506326.1.0,Phases=1,kv=0.12,kW=0.01186,pf=0.92,Vminpu=0.92,Vmaxpu=1.5,model=1,daily=RES1_6,status=variable
new load.3000442593M1 bus1=RML1060961250.1.2.0,Phases=2,kv=0.24,kW=0.6052,pf=0.92,Vminpu=0.92,Vmaxpu=1.5,model=1,daily=RES1_6,status=variable
new load.3000442595M1 bus1=RML1050506473.1.2.0,Phases=2,kv=0.24,kW=0.8092,pf=0.92,Vminpu=0.92,Vmaxpu=1.5,model=1,daily=RES3_7,status=variable
new load.3000442597M1 bus1=RML1050506466.2.0,Phases=1,kv=0.12,kW=1.02546,pf=0.92,Vminpu=0.92,Vmaxpu=1.5,model=1,daily=RES3_7,status=variable
new load.3000442600M1 bus1=RML1050506459.2.0,Phases=1,kv=0.12,kW=0.87362,pf=0.92,Vminpu=0.92,Vmaxpu=1.5,model=1,daily=COM1_12,status=variable
new load.3000442601M1 bus1=RML1050506312.1.2.0,Phases=2,kv=0.24,kW=0.6764,pf=0.92,Vminpu=0.92,Vmaxpu=1.5,model=1,daily=RES1_6,status=variable
new load.3000442602M1 bus1=RML1050506326.1.0,Phases=1,kv=0.12,kW=0.4272,pf=0.92,Vminpu=0.92,Vmaxpu=1.5,model=1,daily=RES1_6,status=variable
new load.3000442605M1 bus1=RML1050506382.1.2.0,Phases=2,kv=0.24,kW=0.56296,pf=0.92,Vminpu=0.92,Vmaxpu=1.5,model=1,daily=RES2_6,status=variable
new load.3000442607M1 bus1=RML1050542719.2.0,Phases=1,kv=0.12,kW=0.70058,pf=0.92,Vminpu=0.92,Vmaxpu=1.5,model=1,daily=RES2_6,status=variable
new load.3000442608M1 bus1=RML1050542635.1.2.0,Phases=2,kv=0.24,kW=0.65054,pf=0.92,Vminpu=0.92,Vmaxpu=1.5,model=1,daily=RES2_6,status=variable
new load.3000442609M1 bus1=RML1050542509.1.0,Phases=1,kv=0.12,kW=0.57548,pf=0.92,Vminpu=0.92,Vmaxpu=1.5,model=1,daily=RES2_6,status=variable
new load.3000442610M1 bus1=RML1050542516.1.2.0,Phases=2,kv=0.24,kW=0.6764,pf=0.92,Vminpu=0.92,Vmaxpu=1.5,model=1,daily=RES1_6,status=variable
new load.3000442611M1 bus1=RML1050542684.1.0,Phases=1,kv=0.12,kW=0.73812,pf=0.92,Vminpu=0.92,Vmaxpu=1.5,model=1,daily=RES2_6,status=variable
new load.3000442612M1 bus1=RML1050542677.2.0,Phases=1,kv=0.12,kW=0.6052,pf=0.92,Vminpu=0.92,Vmaxpu=1.5,model=1,daily=RES1_6,status=variable
new load.3000442613M1 bus1=RML1050542670.1.2.0,Phases=2,kv=0.24,kW=0.68808,pf=0.92,Vminpu=0.92,Vmaxpu=1.5,model=1,daily=RES2_6,status=variable
new load.3000442614M1 bus1=RML1050542873.2.0,Phases=1,kv=0.12,kW=0.23598,pf=0.92,Vminpu=0.92,Vmaxpu=1.5,model=1,daily=COM1_12,status=variable
new load.3000442615M1 bus1=RML1050542866.2.0,Phases=1,kv=0.12,kW=0.59334,pf=0.92,Vminpu=0.92,Vmaxpu=1.5,model=1,daily=RES1_6,status=variable
new load.3000442616M1 bus1=RML1050542845.2.0,Phases=1,kv=0.12,kW=1.04428,pf=0.92,Vminpu=0.92,Vmaxpu=1.5,model=1,daily=RES1_6,status=variable
new load.3000442617M1 bus1=RML1050542838.2.0,Phases=1,kv=0.12,kW=0.40346,pf=0.92,Vminpu=0.92,Vmaxpu=1.5,model=1,daily=RES1_6,status=variable
new load.3000442619M1 bus1=RML1050542824.1.0,Phases=1,kv=0.12,kW=1.37118,pf=0.92,Vminpu=0.92,Vmaxpu=1.5,model=1,daily=RES5_9,status=variable
new load.3000442622M1 bus1=RML1050542810.1.0,Phases=1,kv=0.12,kW=0.63178,pf=0.92,Vminpu=0.92,Vmaxpu=1.5,model=1,daily=RES2_6,status=variable
new load.3000442623M1 bus1=RML1050542803.2.0,Phases=1,kv=0.12,kW=1.05614,pf=0.92,Vminpu=0.92,Vmaxpu=1.5,model=1,daily=RES1_6,status=variable
new load.3000442625M1 bus1=RML1050542775.2.0,Phases=1,kv=0.12,kW=0.36786,pf=0.92,Vminpu=0.92,Vmaxpu=1.5,model=1,daily=RES1_6,status=variable
new load.3000442626M1 bus1=RML1050542768.1.0,Phases=1,kv=0.12,kW=0.3628,pf=0.92,Vminpu=0.92,Vmaxpu=1.5,model=1,daily=RES2_6,status=variable
new load.3000442628M1 bus1=RML1050542754.2.0,Phases=1,kv=0.12,kW=0.78816,pf=0.92,Vminpu=0.92,Vmaxpu=1.5,model=1,daily=RES2_6,status=variable
new load.3000442629M1 bus1=RML1050542523.1.2.0,Phases=2,kv=0.24,kW=0.52214,pf=0.92,Vminpu=0.92,Vmaxpu=1.5,model=1,daily=RES1_6,status=variable
new load.3000442630M1 bus1=RML1050542537.1.2.0,Phases=2,kv=0.24,kW=0.31128,pf=0.92,Vminpu=0.92,Vmaxpu=1.5,model=1,daily=COM1_12,status=variable
new load.3000442632M1 bus1=RML1050542530.1.0,Phases=1,kv=0.12,kW=0.63804,pf=0.92,Vminpu=0.92,Vmaxpu=1.5,model=1,daily=RES2_6,status=variable
new load.3000442633M1 bus1=RML1050542551.1.0,Phases=1,kv=0.12,kW=0.81318,pf=0.92,Vminpu=0.92,Vmaxpu=1.5,model=1,daily=RES2_6,status=variable
new load.3000442636M1 bus1=RML1050542572.2.0,Phases=1,kv=0.12,kW=0.712,pf=0.92,Vminpu=0.92,Vmaxpu=1.5,model=1,daily=RES1_6,status=variable
new load.3000442637M1 bus1=RML1050580302.1.0,Phases=1,kv=0.12,kW=0.94454,pf=0.92,Vminpu=0.92,Vmaxpu=1.5,model=1,daily=RES2_6,status=variable
new load.3000442639M1 bus1=RML1050580365.2.0,Phases=1,kv=0.12,kW=0.96964,pf=0.92,Vminpu=0.92,Vmaxpu=1.5,model=1,daily=RES3_7,status=variable
new load.3000442641M1 bus1=RML1050580442.2.0,Phases=1,kv=0.12,kW=0.04746,pf=0.92,Vminpu=0.92,Vmaxpu=1.5,model=1,daily=RES1_6,status=variable
new load.3000442642M1 bus1=RML1050583221.2.0,Phases=1,kv=0.12,kW=0.70456,pf=0.92,Vminpu=0.92,Vmaxpu=1.5,model=1,daily=RES3_7,status=variable
new load.3000442643M1 bus1=RML1050583179.1.2.0,Phases=2,kv=0.24,kW=0.50042,pf=0.92,Vminpu=0.92,Vmaxpu=1.5,model=1,daily=RES2_6,status=variable
new load.3000442644M1 bus1=RML1050583186.1.0,Phases=1,kv=0.12,kW=0.59334,pf=0.92,Vminpu=0.92,Vmaxpu=1.5,model=1,daily=RES1_6,status=variable
new load.3000442646M1 bus1=RML1050581303.1.2.0,Phases=2,kv=0.24,kW=0.94934,pf=0.92,Vminpu=0.92,Vmaxpu=1.5,model=1,daily=RES1_6,status=variable
new load.3000442648M1 bus1=RML1050583277.2.0,Phases=1,kv=0.12,kW=0.87814,pf=0.92,Vminpu=0.92,Vmaxpu=1.5,model=1,daily=RES1_6,status=variable
new load.3000442650M1 bus1=RML1050583263.2.0,Phases=1,kv=0.12,kW=0.6348,pf=0.92,Vminpu=0.92,Vmaxpu=1.5,model=1,daily=RES3_7,status=variable
new load.3000442652M1 bus1=RML1050583256.1.0,Phases=1,kv=0.12,kW=0.54588,pf=0.92,Vminpu=0.92,Vmaxpu=1.5,model=1,daily=RES1_6,status=variable
new load.3000442653M1 bus1=RML1050583249.2.0,Phases=1,kv=0.12,kW=0.83068,pf=0.92,Vminpu=0.92,Vmaxpu=1.5,model=1,daily=RES1_6,status=variable
new load.3000442656M1 bus1=RML1050583144.2.0,Phases=1,kv=0.12,kW=0.87814,pf=0.92,Vminpu=0.92,Vmaxpu=1.5,model=1,daily=RES1_6,status=variable
new load.3000442657M1 bus1=RML1050583130.1.2.0,Phases=2,kv=0.24,kW=0.7832,pf=0.92,Vminpu=0.92,Vmaxpu=1.5,model=1,daily=RES1_6,status=variable
new load.3000442659M1 bus1=RML1050583172.1.0,Phases=1,kv=0.12,kW=2.20438,pf=0.92,Vminpu=0.92,Vmaxpu=1.5,model=1,daily=RES3_7,status=variable
new load.3000442660M1 bus1=RML1050583193.2.0,Phases=1,kv=0.12,kW=0.50208,pf=0.92,Vminpu=0.92,Vmaxpu=1.5,model=1,daily=COM1_12,status=variable
new load.3000442661M1 bus1=RML1050583214.1.0,Phases=1,kv=0.12,kW=1.2138,pf=0.92,Vminpu=0.92,Vmaxpu=1.5,model=1,daily=RES3_7,status=variable
new load.3000442662M1 bus1=RML1050580449.2.0,Phases=1,kv=0.12,kW=0.26106,pf=0.92,Vminpu=0.92,Vmaxpu=1.5,model=1,daily=RES1_6,status=variable
new load.3000442663M1 bus1=RML1050580484.1.2.0,Phases=2,kv=0.24,kW=0.75948,pf=0.92,Vminpu=0.92,Vmaxpu=1.5,model=1,daily=RES1_6,status=variable
new load.3000442664M1 bus1=RML1050580491.1.0,Phases=1,kv=0.12,kW=1.6463,pf=0.92,Vminpu=0.92,Vmaxpu=1.5,model=1,daily=RES3_7,status=variable
new load.3000442667M1 bus1=RML1050581324.1.2.0,Phases=2,kv=0.24,kW=0.42536,pf=0.92,Vminpu=0.92,Vmaxpu=1.5,model=1,daily=RES2_6,status=variable
new load.3000442668M1 bus1=RML1050582598.2.0,Phases=1,kv=0.12,kW=0.2912,pf=0.92,Vminpu=0.92,Vmaxpu=1.5,model=1,daily=COM1_12,status=variable
new load.3000442669M1 bus1=RML1050581289.2.0,Phases=1,kv=0.12,kW=0.7476,pf=0.92,Vminpu=0.92,Vmaxpu=1.5,model=1,daily=RES1_6,status=variable
new load.3000442671M1 bus1=RML1050581373.2.0,Phases=1,kv=0.12,kW=0.90188,pf=0.92,Vminpu=0.92,Vmaxpu=1.5,model=1,daily=RES1_6,status=variable
new load.3000442672M1 bus1=RML1050581380.1.0,Phases=1,kv=0.12,kW=0.4754,pf=0.92,Vminpu=0.92,Vmaxpu=1.5,model=1,daily=RES2_6,status=variable
new load.3000442673M1 bus1=RML1050581366.1.2.0,Phases=2,kv=0.24,kW=0.20174,pf=0.92,Vminpu=0.92,Vmaxpu=1.5,model=1,daily=RES1_6,status=variable
new load.3000442674M1 bus1=RML1050581394.2.0,Phases=1,kv=0.12,kW=0.65268,pf=0.92,Vminpu=0.92,Vmaxpu=1.5,model=1,daily=RES1_6,status=variable
new load.3000442675M1 bus1=RML1050581401.2.0,Phases=1,kv=0.12,kW=1.01334,pf=0.92,Vminpu=0.92,Vmaxpu=1.5,model=1,daily=RES2_6,status=variable
new load.3000442676M1 bus1=RML1050581436.1.2.0,Phases=2,kv=0.24,kW=2.01184,pf=0.92,Vminpu=0.92,Vmaxpu=1.5,model=1,daily=RES4_9,status=variable
new load.3000442677M1 bus1=RML1050581443.1.0,Phases=1,kv=0.12,kW=0.29666,pf=0.92,Vminpu=0.92,Vmaxpu=1.5,model=1,daily=RES1_6,status=variable
new load.3000442679M1 bus1=RML1050581450.2.0,Phases=1,kv=0.12,kW=0.86628,pf=0.92,Vminpu=0.92,Vmaxpu=1.5,model=1,daily=RES1_6,status=variable
new load.3000442682M1 bus1=RML1050581275.1.2.0,Phases=2,kv=0.24,kW=0.69432,pf=0.92,Vminpu=0.92,Vmaxpu=1.5,model=1,daily=RES2_6,status=variable
new load.3000442683M1 bus1=RML1050581352.1.2.0,Phases=2,kv=0.24,kW=0.33226,pf=0.92,Vminpu=0.92,Vmaxpu=1.5,model=1,daily=RES1_6,status=variable
new load.3000442684M1 bus1=RML1050582605.2.0,Phases=1,kv=0.12,kW=0.66306,pf=0.92,Vminpu=0.92,Vmaxpu=1.5,model=1,daily=RES2_6,status=variable
new load.3000442685M1 bus1=RML1050582612.1.0,Phases=1,kv=0.12,kW=0.7256,pf=0.92,Vminpu=0.92,Vmaxpu=1.5,model=1,daily=RES2_6,status=variable
new load.3000442687M1 bus1=RML1050582591.2.0,Phases=1,kv=0.12,kW=0.59334,pf=0.92,Vminpu=0.92,Vmaxpu=1.5,model=1,daily=RES1_6,status=variable
new load.3000442688M1 bus1=RML1050582745.2.0,Phases=1,kv=0.12,kW=0.86628,pf=0.92,Vminpu=0.92,Vmaxpu=1.5,model=1,daily=RES1_6,status=variable
new load.3000442689M1 bus1=RML1050582703.2.0,Phases=1,kv=0.12,kW=0.76938,pf=0.92,Vminpu=0.92,Vmaxpu=1.5,model=1,daily=RES2_6,status=variable
new load.3000442690M1 bus1=RML1050582689.1.0,Phases=1,kv=0.12,kW=0.69432,pf=0.92,Vminpu=0.92,Vmaxpu=1.5,model=1,daily=RES2_6,status=variable
new load.3000442691M1 bus1=RML1050582696.2.0,Phases=1,kv=0.12,kW=0.69432,pf=0.92,Vminpu=0.92,Vmaxpu=1.5,model=1,daily=RES2_6,status=variable
new load.3000442692M1 bus1=RML1050582948.2.0,Phases=1,kv=0.12,kW=1.10718,pf=0.92,Vminpu=0.92,Vmaxpu=1.5,model=1,daily=RES2_6,status=variable
new load.3000442695M1 bus1=RML1050582759.2.0,Phases=1,kv=0.12,kW=0.5442,pf=0.92,Vminpu=0.92,Vmaxpu=1.5,model=1,daily=RES2_6,status=variable
new load.3000442696M1 bus1=RML1050582766.1.0,Phases=1,kv=0.12,kW=0.54588,pf=0.92,Vminpu=0.92,Vmaxpu=1.5,model=1,daily=RES1_6,status=variable
new load.3000442698M1 bus1=RML1050582794.1.0,Phases=1,kv=0.12,kW=1.11968,pf=0.92,Vminpu=0.92,Vmaxpu=1.5,model=1,daily=RES2_6,status=variable
new load.3000442700M1 bus1=RML1050582920.1.0,Phases=1,kv=0.12,kW=0.92082,pf=0.92,Vminpu=0.92,Vmaxpu=1.5,model=1,daily=RES3_7,status=variable
new load.3000442701M1 bus1=RML1050582927.1.0,Phases=1,kv=0.12,kW=0.8382,pf=0.92,Vminpu=0.92,Vmaxpu=1.5,model=1,daily=RES2_6,status=variable
new load.3000442702M1 bus1=RML1050583109.1.0,Phases=1,kv=0.12,kW=0.20642,pf=0.92,Vminpu=0.92,Vmaxpu=1.5,model=1,daily=RES2_6,status=variable
new load.3000442704M1 bus1=RML1050582990.1.0,Phases=1,kv=0.12,kW=0.0712,pf=0.92,Vminpu=0.92,Vmaxpu=1.5,model=1,daily=RES1_6,status=variable
new load.3000442705M1 bus1=RML1050582997.2.0,Phases=1,kv=0.12,kW=0.71934,pf=0.92,Vminpu=0.92,Vmaxpu=1.5,model=1,daily=RES2_6,status=variable
new load.3000442707M1 bus1=RML1050583039.2.0,Phases=1,kv=0.12,kW=0.02374,pf=0.92,Vminpu=0.92,Vmaxpu=1.5,model=1,daily=RES1_6,status=variable
new load.3000442708M1 bus1=RML1050583102.2.0,Phases=1,kv=0.12,kW=0.01186,pf=0.92,Vminpu=0.92,Vmaxpu=1.5,model=1,daily=RES1_6,status=variable
new load.3000442709M1 bus1=RML1050583095.1.0,Phases=1,kv=0.12,kW=0.5442,pf=0.92,Vminpu=0.92,Vmaxpu=1.5,model=1,daily=RES2_6,status=variable
new load.3000442713M1 bus1=RML1050582836.1.2.0,Phases=2,kv=0.24,kW=0.65268,pf=0.92,Vminpu=0.92,Vmaxpu=1.5,model=1,daily=RES1_6,status=variable
new load.3000442715M1 bus1=RML1050582801.1.0,Phases=1,kv=0.12,kW=0.95704,pf=0.92,Vminpu=0.92,Vmaxpu=1.5,model=1,daily=RES2_6,status=variable
new load.3000442716M1 bus1=RML1050582654.1.0,Phases=1,kv=0.12,kW=0.83068,pf=0.92,Vminpu=0.92,Vmaxpu=1.5,model=1,daily=RES1_6,status=variable
new load.3000442718M1 bus1=RML1050582626.1.2.0,Phases=2,kv=0.24,kW=0.80246,pf=0.92,Vminpu=0.92,Vmaxpu=1.5,model=1,daily=COM2_10,status=variable
new load.3000442720M1 bus1=RML1050582633.1.2.0,Phases=2,kv=0.24,kW=1.66416,pf=0.92,Vminpu=0.92,Vmaxpu=1.5,model=1,daily=RUR3_9,status=variable
new load.3000442721M1 bus1=RML1050582640.1.0,Phases=1,kv=0.12,kW=1.0759,pf=0.92,Vminpu=0.92,Vmaxpu=1.5,model=1,daily=RES2_6,status=variable
new load.3000442722M1 bus1=RML1050582584.2.0,Phases=1,kv=0.12,kW=1.52772,pf=0.92,Vminpu=0.92,Vmaxpu=1.5,model=1,daily=RES3_7,status=variable
new load.3000442723M1 bus1=RML1050581709.1.0,Phases=1,kv=0.12,kW=0.92082,pf=0.92,Vminpu=0.92,Vmaxpu=1.5,model=1,daily=RES3_7,status=variable
new load.3000442725M1 bus1=RML1050581758.1.0,Phases=1,kv=0.12,kW=1.15722,pf=0.92,Vminpu=0.92,Vmaxpu=1.5,model=1,daily=RES2_6,status=variable
new load.3000442727M1 bus1=RML1050581338.1.2.0,Phases=2,kv=0.24,kW=0.8945,pf=0.92,Vminpu=0.92,Vmaxpu=1.5,model=1,daily=RES2_6,status=variable
new load.3000442730M1 bus1=RML1050581821.2.0,Phases=1,kv=0.12,kW=1.12594,pf=0.92,Vminpu=0.92,Vmaxpu=1.5,model=1,daily=RES2_6,status=variable
new load.3000442731M1 bus1=RML1050581835.2.0,Phases=1,kv=0.12,kW=1.31844,pf=0.92,Vminpu=0.92,Vmaxpu=1.5,model=1,daily=RES3_7,status=variable
new load.3000442732M1 bus1=RML1050581632.1.0,Phases=1,kv=0.12,kW=0.0356,pf=0.92,Vminpu=0.92,Vmaxpu=1.5,model=1,daily=RES1_6,status=variable
new load.3000442733M1 bus1=RML1050581730.2.0,Phases=1,kv=0.12,kW=0.70684,pf=0.92,Vminpu=0.92,Vmaxpu=1.5,model=1,daily=RES2_6,status=variable
new load.3000442734M1 bus1=RML1050581723.1.0,Phases=1,kv=0.12,kW=1.0321,pf=0.92,Vminpu=0.92,Vmaxpu=1.5,model=1,daily=RES2_6,status=variable
new load.3000442735M1 bus1=RML1050581751.2.0,Phases=1,kv=0.12,kW=0.84446,pf=0.92,Vminpu=0.92,Vmaxpu=1.5,model=1,daily=RES2_6,status=variable
new load.3000442736M1 bus1=RML1050581744.1.0,Phases=1,kv=0.12,kW=0.92082,pf=0.92,Vminpu=0.92,Vmaxpu=1.5,model=1,daily=RES3_7,status=variable
new load.3000442737M1 bus1=RML1060843409.1.2.0,Phases=2,kv=0.24,kW=0.8945,pf=0.92,Vminpu=0.92,Vmaxpu=1.5,model=1,daily=RES2_6,status=variable
new load.3000442739M1 bus1=RML1050581464.1.2.0,Phases=2,kv=0.24,kW=0.66454,pf=0.92,Vminpu=0.92,Vmaxpu=1.5,model=1,daily=RES1_6,status=variable
new load.3000442740M1 bus1=RML1050581457.1.0,Phases=1,kv=0.12,kW=0.3916,pf=0.92,Vminpu=0.92,Vmaxpu=1.5,model=1,daily=RES1_6,status=variable
new load.3000442741M1 bus1=RML1050581429.2.0,Phases=1,kv=0.12,kW=1.06338,pf=0.92,Vminpu=0.92,Vmaxpu=1.5,model=1,daily=RES2_6,status=variable
new load.3000442744M1 bus1=RML1050581408.2.0,Phases=1,kv=0.12,kW=0.84254,pf=0.92,Vminpu=0.92,Vmaxpu=1.5,model=1,daily=RES1_6,status=variable
new load.3000442745M1 bus1=RML1050581387.1.0,Phases=1,kv=0.12,kW=0.93828,pf=0.92,Vminpu=0.92,Vmaxpu=1.5,model=1,daily=RES2_6,status=variable
new load.3000442746M1 bus1=RML1050581352.1.2.0,Phases=2,kv=0.24,kW=0.88824,pf=0.92,Vminpu=0.92,Vmaxpu=1.5,model=1,daily=RES2_6,status=variable
new load.3000442747M1 bus1=RML1050581331.1.2.0,Phases=2,kv=0.24,kW=0.62258,pf=0.92,Vminpu=0.92,Vmaxpu=1.5,model=1,daily=COM1_12,status=variable
new load.3000442748M1 bus1=RML1050581282.1.2.0,Phases=2,kv=0.24,kW=0.01186,pf=0.92,Vminpu=0.92,Vmaxpu=1.5,model=1,daily=RES1_6,status=variable
new load.3000442750M1 bus1=RML1050580414.1.2.0,Phases=2,kv=0.24,kW=1.71008,pf=0.92,Vminpu=0.92,Vmaxpu=1.5,model=1,daily=RES5_9,status=variable
new load.3000442753M1 bus1=RML1050580456.2.0,Phases=1,kv=0.12,kW=0.294,pf=0.92,Vminpu=0.92,Vmaxpu=1.5,model=1,daily=RES2_6,status=variable
new load.3000442754M1 bus1=RML1050580470.1.0,Phases=1,kv=0.12,kW=0.6005,pf=0.92,Vminpu=0.92,Vmaxpu=1.5,model=1,daily=RES2_6,status=variable
new load.3000442755M1 bus1=RML1050580477.1.2.0,Phases=2,kv=0.24,kW=0.8759,pf=0.92,Vminpu=0.92,Vmaxpu=1.5,model=1,daily=RES5_9,status=variable
new load.3000442756M1 bus1=RML1050584026.2.0,Phases=1,kv=0.12,kW=0.80694,pf=0.92,Vminpu=0.92,Vmaxpu=1.5,model=1,daily=RES1_6,status=variable
new load.3000442759M1 bus1=RML1050583949.2.0,Phases=1,kv=0.12,kW=1.35034,pf=0.92,Vminpu=0.92,Vmaxpu=1.5,model=1,daily=RES5_9,status=variable
new load.3000442761M1 bus1=RML1050583963.1.2.0,Phases=2,kv=0.24,kW=1.82254,pf=0.92,Vminpu=0.92,Vmaxpu=1.5,model=1,daily=COM2_10,status=variable
new load.3000442762M1 bus1=RML1050583984.2.0,Phases=1,kv=0.12,kW=0.86322,pf=0.92,Vminpu=0.92,Vmaxpu=1.5,model=1,daily=RES2_6,status=variable
new load.3000442764M1 bus1=RML1050583473.1.2.0,Phases=2,kv=0.24,kW=0.15426,pf=0.92,Vminpu=0.92,Vmaxpu=1.5,model=1,daily=RES1_6,status=variable
new load.3000442767M1 bus1=RML1050583459.1.0,Phases=1,kv=0.127,kW=1.5347,pf=0.92,Vminpu=0.92,Vmaxpu=1.5,model=1,daily=RES3_7,status=variable
new load.3000442768M1 bus1=RML1050583410.1.0,Phases=1,kv=0.127,kW=0.68828,pf=0.92,Vminpu=0.92,Vmaxpu=1.5,model=1,daily=RES1_6,status=variable
new load.3000442769M1 bus1=RML1050583417.2.0,Phases=1,kv=0.127,kW=1.1859,pf=0.92,Vminpu=0.92,Vmaxpu=1.5,model=1,daily=RES3_7,status=variable
new load.3000442770M1 bus1=RML1050583424.1.0,Phases=1,kv=0.127,kW=1.0331,pf=0.92,Vminpu=0.92,Vmaxpu=1.5,model=1,daily=RES4_9,status=variable
new load.3000442771M1 bus1=RML1050583431.2.0,Phases=1,kv=0.127,kW=0.82568,pf=0.92,Vminpu=0.92,Vmaxpu=1.5,model=1,daily=RES2_6,status=variable
new load.3000442772M1 bus1=RML1050583375.2.0,Phases=1,kv=0.127,kW=0.6693,pf=0.92,Vminpu=0.92,Vmaxpu=1.5,model=1,daily=RES2_6,status=variable
new load.3000442781M1 bus1=RML1050587680.1.2.0,Phases=2,kv=0.24,kW=1.1301,pf=0.92,Vminpu=0.92,Vmaxpu=1.5,model=1,daily=RES3_7,status=variable
new load.3000442782M1 bus1=RML1050587526.2.0,Phases=1,kv=0.12,kW=0.76938,pf=0.92,Vminpu=0.92,Vmaxpu=1.5,model=1,daily=RES2_6,status=variable
new load.3000442784M1 bus1=RML1050587498.1.0,Phases=1,kv=0.12,kW=0.76314,pf=0.92,Vminpu=0.92,Vmaxpu=1.5,model=1,daily=RES2_6,status=variable
new load.3000442786M1 bus1=RML1050587589.2.0,Phases=1,kv=0.12,kW=0.4191,pf=0.92,Vminpu=0.92,Vmaxpu=1.5,model=1,daily=RES2_6,status=variable
new load.3000442787M1 bus1=RML1050587596.2.0,Phases=1,kv=0.12,kW=0.712,pf=0.92,Vminpu=0.92,Vmaxpu=1.5,model=1,daily=RES1_6,status=variable
new load.3000442788M1 bus1=RML1050587645.2.0,Phases=1,kv=0.12,kW=0.29666,pf=0.92,Vminpu=0.92,Vmaxpu=1.5,model=1,daily=RES1_6,status=variable
new load.3000442791M1 bus1=RML1050587673.2.0,Phases=1,kv=0.12,kW=0.4879,pf=0.92,Vminpu=0.92,Vmaxpu=1.5,model=1,daily=RES2_6,status=variable
new load.3000442792M1 bus1=RML1050588023.1.0,Phases=1,kv=0.12,kW=0.81944,pf=0.92,Vminpu=0.92,Vmaxpu=1.5,model=1,daily=RES2_6,status=variable
new load.3000442793M1 bus1=RML1050587981.2.0,Phases=1,kv=0.12,kW=0.35654,pf=0.92,Vminpu=0.92,Vmaxpu=1.5,model=1,daily=RES2_6,status=variable
new load.3000442794M1 bus1=RML1050587988.1.0,Phases=1,kv=0.12,kW=0.45662,pf=0.92,Vminpu=0.92,Vmaxpu=1.5,model=1,daily=RES2_6,status=variable
new load.3000442795M1 bus1=RML1050587995.2.0,Phases=1,kv=0.12,kW=0.51918,pf=0.92,Vminpu=0.92,Vmaxpu=1.5,model=1,daily=RES2_6,status=variable
new load.3000442796M1 bus1=RML1050588002.2.0,Phases=1,kv=0.12,kW=0.62552,pf=0.92,Vminpu=0.92,Vmaxpu=1.5,model=1,daily=RES2_6,status=variable
new load.3000442797M1 bus1=RML1050587869.1.0,Phases=1,kv=0.12,kW=0.7131,pf=0.92,Vminpu=0.92,Vmaxpu=1.5,model=1,daily=RES2_6,status=variable
new load.3000442798M1 bus1=RML1050587883.2.0,Phases=1,kv=0.12,kW=0.37974,pf=0.92,Vminpu=0.92,Vmaxpu=1.5,model=1,daily=RES1_6,status=variable
new load.3000442801M1 bus1=RML1050587911.2.0,Phases=1,kv=0.12,kW=0.87814,pf=0.92,Vminpu=0.92,Vmaxpu=1.5,model=1,daily=RES1_6,status=variable
new load.3000442802M1 bus1=RML1050587953.1.2.0,Phases=2,kv=0.24,kW=0.8507,pf=0.92,Vminpu=0.92,Vmaxpu=1.5,model=1,daily=RES2_6,status=variable
new load.3000442804M1 bus1=RML1050587939.1.2.0,Phases=2,kv=0.24,kW=0.69432,pf=0.92,Vminpu=0.92,Vmaxpu=1.5,model=1,daily=RES2_6,status=variable
new load.3000442805M1 bus1=RML1050587925.1.0,Phases=1,kv=0.12,kW=0.48654,pf=0.92,Vminpu=0.92,Vmaxpu=1.5,model=1,daily=RES1_6,status=variable
new load.3000442806M1 bus1=RML1050588009.1.0,Phases=1,kv=0.12,kW=0.67556,pf=0.92,Vminpu=0.92,Vmaxpu=1.5,model=1,daily=RES2_6,status=variable
new load.3000442807M1 bus1=RML1059238440.1.2.0,Phases=2,kv=0.24,kW=0.6005,pf=0.92,Vminpu=0.92,Vmaxpu=1.5,model=1,daily=RES2_6,status=variable
new load.3000442808M1 bus1=RML1050587785.2.0,Phases=1,kv=0.12,kW=1.068,pf=0.92,Vminpu=0.92,Vmaxpu=1.5,model=1,daily=RES1_6,status=variable
new load.3000442809M1 bus1=RML1050587729.2.0,Phases=1,kv=0.12,kW=1.67422,pf=0.92,Vminpu=0.92,Vmaxpu=1.5,model=1,daily=RES3_7,status=variable
new load.3000442810M1 bus1=RML1050587736.2.0,Phases=1,kv=0.12,kW=0.70014,pf=0.92,Vminpu=0.92,Vmaxpu=1.5,model=1,daily=RES1_6,status=variable
new load.3000442812M1 bus1=RML1050587302.2.0,Phases=1,kv=0.12,kW=0.4984,pf=0.92,Vminpu=0.92,Vmaxpu=1.5,model=1,daily=RES1_6,status=variable
new load.3000442814M1 bus1=RML1050587323.1.0,Phases=1,kv=0.12,kW=0.83068,pf=0.92,Vminpu=0.92,Vmaxpu=1.5,model=1,daily=RES1_6,status=variable
new load.3000442815M1 bus1=RML1050587337.2.0,Phases=1,kv=0.12,kW=0.88198,pf=0.92,Vminpu=0.92,Vmaxpu=1.5,model=1,daily=RES2_6,status=variable
new load.3000442816M1 bus1=RML1050587435.2.0,Phases=1,kv=0.12,kW=0.63178,pf=0.92,Vminpu=0.92,Vmaxpu=1.5,model=1,daily=RES2_6,status=variable
new load.3000442817M1 bus1=RML1050587428.2.0,Phases=1,kv=0.12,kW=0.80692,pf=0.92,Vminpu=0.92,Vmaxpu=1.5,model=1,daily=RES2_6,status=variable
new load.3000442818M1 bus1=RML1050587421.2.0,Phases=1,kv=0.12,kW=0.7832,pf=0.92,Vminpu=0.92,Vmaxpu=1.5,model=1,daily=RES1_6,status=variable
new load.3000442819M1 bus1=RML1050587848.1.2.0,Phases=2,kv=0.24,kW=0.50668,pf=0.92,Vminpu=0.92,Vmaxpu=1.5,model=1,daily=RES2_6,status=variable
new load.3000442820M1 bus1=RML1050587820.1.2.0,Phases=2,kv=0.24,kW=0.9633,pf=0.92,Vminpu=0.92,Vmaxpu=1.5,model=1,daily=RES2_6,status=variable
new load.3000442821M1 bus1=RML1050587701.1.2.0,Phases=2,kv=0.24,kW=0.8382,pf=0.92,Vminpu=0.92,Vmaxpu=1.5,model=1,daily=RES2_6,status=variable
new load.3000442822M1 bus1=RML1050587778.1.0,Phases=1,kv=0.12,kW=0.86322,pf=0.92,Vminpu=0.92,Vmaxpu=1.5,model=1,daily=RES2_6,status=variable
new load.3000442826M1 bus1=RML1050587624.1.0,Phases=1,kv=0.12,kW=0.8188,pf=0.92,Vminpu=0.92,Vmaxpu=1.5,model=1,daily=RES1_6,status=variable
new load.3000442829M1 bus1=RML1050587617.1.0,Phases=1,kv=0.12,kW=0.34414,pf=0.92,Vminpu=0.92,Vmaxpu=1.5,model=1,daily=RES1_6,status=variable
new load.3000442830M1 bus1=RML1050587610.1.2.0,Phases=2,kv=0.24,kW=1.20682,pf=0.92,Vminpu=0.92,Vmaxpu=1.5,model=1,daily=RES3_7,status=variable
new load.3000442831M1 bus1=RML1050587603.1.0,Phases=1,kv=0.12,kW=0.50042,pf=0.92,Vminpu=0.92,Vmaxpu=1.5,model=1,daily=RES2_6,status=variable
new load.3000442832M1 bus1=RML1050587288.2.0,Phases=1,kv=0.12,kW=0.77134,pf=0.92,Vminpu=0.92,Vmaxpu=1.5,model=1,daily=RES1_6,status=variable
new load.3000442833M1 bus1=RML1050587274.1.0,Phases=1,kv=0.12,kW=0.8382,pf=0.92,Vminpu=0.92,Vmaxpu=1.5,model=1,daily=RES2_6,status=variable
new load.3000442834M1 bus1=RML1050587281.2.0,Phases=1,kv=0.12,kW=0.92576,pf=0.92,Vminpu=0.92,Vmaxpu=1.5,model=1,daily=RES2_6,status=variable
new load.3000442835M1 bus1=RML1050587267.1.2.0,Phases=2,kv=0.24,kW=2.70442,pf=0.92,Vminpu=0.92,Vmaxpu=1.5,model=1,daily=RES6_10,status=variable
new load.3000442836M1 bus1=RML1050587260.1.0,Phases=1,kv=0.12,kW=0.6568,pf=0.92,Vminpu=0.92,Vmaxpu=1.5,model=1,daily=RES2_6,status=variable
new load.3000442838M1 bus1=RML1050587141.1.0,Phases=1,kv=0.12,kW=0.93202,pf=0.92,Vminpu=0.92,Vmaxpu=1.5,model=1,daily=RES2_6,status=variable
new load.3000442839M1 bus1=RML1050587148.1.0,Phases=1,kv=0.12,kW=0.94934,pf=0.92,Vminpu=0.92,Vmaxpu=1.5,model=1,daily=RES1_6,status=variable
new load.3000442840M1 bus1=RML1050587176.1.0,Phases=1,kv=0.12,kW=0.90188,pf=0.92,Vminpu=0.92,Vmaxpu=1.5,model=1,daily=RES1_6,status=variable
new load.3000442842M1 bus1=RML1050587197.2.0,Phases=1,kv=0.12,kW=1.201,pf=0.92,Vminpu=0.92,Vmaxpu=1.5,model=1,daily=RES2_6,status=variable
new load.3000442843M1 bus1=RML1050587204.1.0,Phases=1,kv=0.12,kW=0.80692,pf=0.92,Vminpu=0.92,Vmaxpu=1.5,model=1,daily=RES2_6,status=variable
new load.3000442844M1 bus1=RML1050587239.2.0,Phases=1,kv=0.12,kW=0.59424,pf=0.92,Vminpu=0.92,Vmaxpu=1.5,model=1,daily=RES2_6,status=variable
new load.3000442845M1 bus1=RML1050587085.1.2.0,Phases=2,kv=0.24,kW=0.5696,pf=0.92,Vminpu=0.92,Vmaxpu=1.5,model=1,daily=RES1_6,status=variable
new load.3000442849M1 bus1=RML1050587393.1.2.0,Phases=2,kv=0.24,kW=0.85696,pf=0.92,Vminpu=0.92,Vmaxpu=1.5,model=1,daily=RES2_6,status=variable
new load.3000442852M1 bus1=RML1050587169.1.2.0,Phases=2,kv=0.24,kW=0.75948,pf=0.92,Vminpu=0.92,Vmaxpu=1.5,model=1,daily=RES1_6,status=variable
new load.3000442853M1 bus1=RML1050587029.1.0,Phases=1,kv=0.12,kW=0.55046,pf=0.92,Vminpu=0.92,Vmaxpu=1.5,model=1,daily=RES2_6,status=variable
new load.3000442854M1 bus1=RML1050587022.1.0,Phases=1,kv=0.12,kW=0.9508,pf=0.92,Vminpu=0.92,Vmaxpu=1.5,model=1,daily=RES2_6,status=variable
new load.3000442855M1 bus1=RML1050587015.1.0,Phases=1,kv=0.12,kW=0.6052,pf=0.92,Vminpu=0.92,Vmaxpu=1.5,model=1,daily=RES1_6,status=variable
new load.3000442856M1 bus1=RML1050587008.1.0,Phases=1,kv=0.12,kW=0.68808,pf=0.92,Vminpu=0.92,Vmaxpu=1.5,model=1,daily=RES2_6,status=variable
new load.3000442860M1 bus1=RML1050586945.2.0,Phases=1,kv=0.12,kW=0.34414,pf=0.92,Vminpu=0.92,Vmaxpu=1.5,model=1,daily=RES1_6,status=variable
new load.3000442861M1 bus1=RML1050586980.1.2.0,Phases=2,kv=0.24,kW=0.50668,pf=0.92,Vminpu=0.92,Vmaxpu=1.5,model=1,daily=RES2_6,status=variable
new load.3000442863M1 bus1=RML1050586966.2.0,Phases=1,kv=0.12,kW=0.77564,pf=0.92,Vminpu=0.92,Vmaxpu=1.5,model=1,daily=RES2_6,status=variable
new load.3000442865M1 bus1=RML1050583550.1.2.0,Phases=2,kv=0.22,kW=0.18138,pf=0.92,Vminpu=0.92,Vmaxpu=1.5,model=1,daily=RES3_7,status=variable
new load.3000442866M1 bus1=RML1050586987.1.0,Phases=1,kv=0.12,kW=0.7256,pf=0.92,Vminpu=0.92,Vmaxpu=1.5,model=1,daily=RES2_6,status=variable
new load.3000442867M1 bus1=RML1050586924.2.0,Phases=1,kv=0.12,kW=0.91952,pf=0.92,Vminpu=0.92,Vmaxpu=1.5,model=1,daily=RES2_6,status=variable
new load.3000442868M1 bus1=RML1050586931.1.0,Phases=1,kv=0.12,kW=0.80222,pf=0.92,Vminpu=0.92,Vmaxpu=1.5,model=1,daily=RES3_7,status=variable
new load.3000442869M1 bus1=RML1050586938.2.0,Phases=1,kv=0.12,kW=1.83466,pf=0.92,Vminpu=0.92,Vmaxpu=1.5,model=1,daily=RES3_7,status=variable
new load.3000442870M1 bus1=RML1050587064.2.0,Phases=1,kv=0.12,kW=0.56922,pf=0.92,Vminpu=0.92,Vmaxpu=1.5,model=1,daily=RES2_6,status=variable
new load.3000442871M1 bus1=RML1050587057.2.0,Phases=1,kv=0.12,kW=0.70058,pf=0.92,Vminpu=0.92,Vmaxpu=1.5,model=1,daily=RES2_6,status=variable
new load.3000442872M1 bus1=RML1050587050.2.0,Phases=1,kv=0.12,kW=0.4272,pf=0.92,Vminpu=0.92,Vmaxpu=1.5,model=1,daily=RES1_6,status=variable
new load.3000442874M1 bus1=RML1050587162.1.2.0,Phases=2,kv=0.24,kW=0.11866,pf=0.92,Vminpu=0.92,Vmaxpu=1.5,model=1,daily=RES1_6,status=variable
new load.3000442875M1 bus1=RML1050587505.1.2.0,Phases=2,kv=0.24,kW=1.07946,pf=0.92,Vminpu=0.92,Vmaxpu=1.5,model=1,daily=COM1_12,status=variable
new load.3000442876M1 bus1=RML1060337736.1.2.0,Phases=2,kv=0.24,kW=1.57652,pf=0.92,Vminpu=0.92,Vmaxpu=1.5,model=1,daily=COM1_12,status=variable
new load.3000442877M1 bus1=RML1050587540.1.2.0,Phases=2,kv=0.24,kW=0.7732,pf=0.92,Vminpu=0.92,Vmaxpu=1.5,model=1,daily=COM1_12,status=variable