new line.10639777 bus1=BBT2809060.1.2.0,bus2=BBT2809067.1.2.0,Phases=2,Linecode=BT518_BT518_7_2_1,Length=0.000500000,Units=km
new line.10639966 bus1=BBT2809018.1.2.0,bus2=BBT2809025.1.2.0,Phases=2,Linecode=BT508_BT508_7_2_1,Length=0.000500000,Units=km
new line.10640057 bus1=BBT2808990.1.2.0,bus2=BBT2808997.1.2.0,Phases=2,Linecode=BT518_BT518_7_2_1,Length=0.000500000,Units=km
new line.10640400 bus1=BBT2808920.1.0,bus2=BBT2808927.1.0,Phases=1,Linecode=BT816_BT816_4_1_2,Length=0.095263000,Units=km
new line.10640568 bus1=BBT2808962.2.0,bus2=BBT2808969.2.0,Phases=1,Linecode=BT816_BT816_4_1_2,Length=0.036208000,Units=km
new line.11281656 bus1=BBT2966273.1.2.3.0,bus2=BBT2966280.1.2.3.0,Phases=3,Linecode=BT513_BT513_7_3_1,Length=0.000500000,Units=km
new line.11302334 bus1=BBT2970312.1.2.0,bus2=BBT2970326.1.2.0,Phases=2,Linecode=BT807_BT807_4_2_3,Length=0.032550000,Units=km
new line.11302369 bus1=BBT2970326.1.2.0,bus2=BBT2970333.1.2.0,Phases=2,Linecode=BT807_BT807_4_2_3,Length=0.038869000,Units=km
new line.11536540 bus1=BBT3032927.1.2.3.0,bus2=BBT3784048.1.2.3.0,Phases=3,Linecode=BT803_BT803_4_3_4,Length=0.039332000,Units=km
new line.11536547 bus1=BBT3032934.1.2.3.0,bus2=BBT3032927.1.2.3.0,Phases=3,Linecode=BT518_BT518_7_3_1,Length=0.000500000,Units=km
new line.11536554 bus1=BBT3032927.1.2.3.0,bus2=BBT3033039.1.2.3.0,Phases=3,Linecode=BT803_BT803_4_3_4,Length=0.035824000,Units=km
new line.11536596 bus1=BBT3033039.1.2.3.0,bus2=BBT3033060.1.2.3.0,Phases=3,Linecode=BT803_BT803_4_3_4,Length=0.035824000,Units=km
new line.11536610 bus1=BBT3033060.1.2.3.0,bus2=BBT3033067.1.2.3.0,Phases=3,Linecode=BT803_BT803_4_3_4,Length=0.035488000,Units=km
new line.11536631 bus1=BBT3033067.1.2.3.0,bus2=BBT3033088.1.2.3.0,Phases=3,Linecode=BT803_BT803_4_3_4,Length=0.034460000,Units=km
new line.11539095 bus1=BBT3033809.1.2.3.0,bus2=BBT170660123.1.2.3.0,Phases=3,Linecode=BT803_BT803_4_3_4,Length=0.016989000,Units=km
new line.11539123 bus1=BBT3033802.1.2.3.0,bus2=BBT3033809.1.2.3.0,Phases=3,Linecode=BT803_BT803_4_3_4,Length=0.020236000,Units=km
new line.11539130 bus1=BBT3033802.1.2.3.0,bus2=BBT3033823.1.2.3.0,Phases=3,Linecode=BT803_BT803_4_3_4,Length=0.042423000,Units=km
new line.11539172 bus1=BBT3033823.1.2.3.0,bus2=BBT3033830.1.2.3.0,Phases=3,Linecode=BT803_BT803_4_3_4,Length=0.042269000,Units=km
new line.11539221 bus1=BBT3033767.1.2.3.0,bus2=BBT3033802.1.2.3.0,Phases=3,Linecode=BT803_BT803_4_3_4,Length=0.044255000,Units=km
new line.11539228 bus1=BBT3033760.1.2.3.0,bus2=BBT3033767.1.2.3.0,Phases=3,Linecode=BT518_BT518_7_3_1,Length=0.000500000,Units=km
new line.11539235 bus1=BBT3033767.1.2.3.0,bus2=BBT3033872.1.2.3.0,Phases=3,Linecode=BT803_BT803_4_3_4,Length=0.045981000,Units=km
new line.11539291 bus1=BBT3033970.1.2.3.0,bus2=BBT3033991.1.2.3.0,Phases=3,Linecode=BT803_BT803_4_3_4,Length=0.043019000,Units=km
new line.11539312 bus1=BBT3033949.1.2.3.0,bus2=BBT3033970.1.2.3.0,Phases=3,Linecode=BT803_BT803_4_3_4,Length=0.043903000,Units=km
new line.11539333 bus1=BBT3033872.1.2.3.0,bus2=BBT3033879.1.2.3.0,Phases=3,Linecode=BT803_BT803_4_3_4,Length=0.048342000,Units=km
new line.11539375 bus1=BBT3033830.1.2.3.0,bus2=BBT3033837.1.2.3.0,Phases=3,Linecode=BT803_BT803_4_3_4,Length=0.042163000,Units=km
new line.11539410 bus1=BBT3033879.1.2.3.0,bus2=BBT3033886.1.2.3.0,Phases=3,Linecode=BT803_BT803_4_3_4,Length=0.043903000,Units=km
new line.11539431 bus1=BBT3033886.1.2.3.0,bus2=BBT3033893.1.2.3.0,Phases=3,Linecode=BT803_BT803_4_3_4,Length=0.042020000,Units=km
new line.11539466 bus1=BBT3033928.1.2.3.0,bus2=BBT3033949.1.2.3.0,Phases=3,Linecode=BT803_BT803_4_3_4,Length=0.041746000,Units=km
new line.11539487 bus1=BBT3033921.1.2.3.0,bus2=BBT3033928.1.2.3.0,Phases=3,Linecode=BT803_BT803_4_3_4,Length=0.045676000,Units=km
new line.11539494 bus1=BBT3033914.1.2.3.0,bus2=BBT3033921.1.2.3.0,Phases=3,Linecode=BT518_BT518_7_3_1,Length=0.000500000,Units=km
new line.11539501 bus1=BBT3033921.1.2.3.0,bus2=BBT3034012.1.2.3.0,Phases=3,Linecode=BT803_BT803_4_3_4,Length=0.034183000,Units=km
new line.11539522 bus1=BBT3034012.1.2.3.0,bus2=BBT3034019.1.2.3.0,Phases=3,Linecode=BT803_BT803_4_3_4,Length=0.025440000,Units=km
new line.11539550 bus1=BBT3034019.1.2.3.0,bus2=BBT3034026.1.2.3.0,Phases=3,Linecode=BT803_BT803_4_3_4,Length=0.037178000,Units=km
new line.11539571 bus1=BBT3034026.1.2.3.0,bus2=BBT3034040.1.2.3.0,Phases=3,Linecode=BT803_BT803_4_3_4,Length=0.042774000,Units=km
new line.11958444 bus1=BBT3151843.1.2.0,bus2=BBT3151850.1.2.0,Phases=2,Linecode=BT106_BT106_7_2_1,Length=0.035754000,Units=km
new line.11958472 bus1=BBT3151829.1.2.0,bus2=BBT3151836.1.2.0,Phases=2,Linecode=BT106_BT106_7_2_1,Length=0.020211000,Units=km
new line.11958500 bus1=BBT3151815.1.2.0,bus2=BBT3151829.1.2.0,Phases=2,Linecode=BT106_BT106_7_2_1,Length=0.029997000,Units=km
new line.11958521 bus1=BBT3151808.1.2.0,bus2=BBT3151815.1.2.0,Phases=2,Linecode=BT108_BT107_7_2_1,Length=0.025044000,Units=km
new line.11958549 bus1=BBT3151801.1.2.0,bus2=BBT3151808.1.2.0,Phases=2,Linecode=BT108_BT107_7_2_1,Length=0.036226000,Units=km
new line.11958577 bus1=BBT3151787.1.2.0,bus2=BBT3151794.1.2.0,Phases=2,Linecode=BT108_BT107_7_2_1,Length=0.029527000,Units=km
new line.11958598 bus1=BBT3151794.1.2.0,bus2=BBT3151780.1.2.0,Phases=2,Linecode=BT108_BT107_7_2_1,Length=0.028000000,Units=km
new line.11958605 bus1=BBT3151780.1.2.0,bus2=BBT3230537.1.2.0,Phases=2,Linecode=BT108_BT107_7_2_1,Length=0.041734000,Units=km
new line.11958661 bus1=BBT3151752.1.2.0,bus2=BBT3151759.1.2.0,Phases=2,Linecode=BT108_BT107_7_2_1,Length=0.066807000,Units=km
new line.11958682 bus1=BBT3151724.1.2.0,bus2=BBT119672408.1.2.0,Phases=2,Linecode=BT108_BT107_7_2_1,Length=0.033280000,Units=km
new line.11958731 bus1=BBT3231069.1.2.0,bus2=BBT3231076.1.2.0,Phases=2,Linecode=BT108_BT107_7_2_1,Length=0.063989000,Units=km
new line.11958773 bus1=BBT3152802.1.2.0,bus2=BBT3152809.1.2.0,Phases=2,Linecode=BT808_BT808_4_2_3,Length=0.038923000,Units=km
new line.11958794 bus1=BBT3152781.1.2.0,bus2=BBT3152802.1.2.0,Phases=2,Linecode=BT808_BT808_4_2_3,Length=0.038394000,Units=km
new line.11958801 bus1=BBT3152774.1.2.0,bus2=BBT3152781.1.2.0,Phases=2,Linecode=BT518_BT518_7_2_1,Length=0.000500000,Units=km
new line.11958808 bus1=BBT3152781.1.2.0,bus2=BBT3152788.1.2.0,Phases=2,Linecode=BT808_BT808_4_2_3,Length=0.040285000,Units=km
new line.11958829 bus1=BBT3152788.1.2.0,bus2=BBT3152795.1.2.0,Phases=2,Linecode=BT808_BT808_4_2_3,Length=0.028266000,Units=km
new line.11958871 bus1=BBT3151682.1.2.0,bus2=BBT3231055.1.2.0,Phases=2,Linecode=BT108_BT107_7_2_1,Length=0.053116000,Units=km
new line.11958997 bus1=BBT3151668.1.2.0,bus2=BBT94221815.1.2.0,Phases=2,Linecode=BT107_BT106_7_2_1,Length=0.016391000,Units=km
new line.11959746 bus1=BBT3152186.1.2.0,bus2=BBT71044703.1.2.0,Phases=2,Linecode=BT807_BT807_4_2_3,Length=0.024171000,Units=km
new line.11959774 bus1=BBT3152200.1.2.0,bus2=BBT3152207.1.2.0,Phases=2,Linecode=BT807_BT807_4_2_3,Length=0.036101000,Units=km
new line.11959781 bus1=BBT3152200.1.2.0,bus2=BBT3152228.1.2.0,Phases=2,Linecode=BT807_BT807_4_2_3,Length=0.038885000,Units=km
new line.11959879 bus1=BBT3152228.1.2.0,bus2=BBT3152235.1.2.0,Phases=2,Linecode=BT807_BT807_4_2_3,Length=0.036746000,Units=km
new line.11959935 bus1=BBT3151927.1.2.0,bus2=BBT3151934.1.2.0,Phases=2,Linecode=BT518_BT518_7_2_1,Length=0.000500000,Units=km
new line.11960068 bus1=BBT3152235.1.2.0,bus2=BBT3152242.1.2.0,Phases=2,Linecode=BT807_BT807_4_2_3,Length=0.023586000,Units=km
new line.1010339 bus1=BBT428164.1.2.0,bus2=BBT428171.1.2.0,Phases=2,Linecode=BT518_BT518_7_2_1,Length=0.000500000,Units=km
new line.1010374 bus1=BBT428178.1.2.0,bus2=BBT428185.1.2.0,Phases=2,Linecode=BT518_BT518_7_2_1,Length=0.000500000,Units=km
new line.1018466 bus1=BBT431468.1.2.0,bus2=BBT431475.1.2.0,Phases=2,Linecode=BT518_BT518_7_2_1,Length=0.000500000,Units=km
new line.1018529 bus1=BBT431496.1.2.0,bus2=BBT431503.1.2.0,Phases=2,Linecode=BT518_BT518_7_2_1,Length=0.000500000,Units=km
new line.1018536 bus1=BBT431503.2.0,bus2=BBT4453199.2.0,Phases=1,Linecode=BT811_BT811_4_1_3,Length=0.055866000,Units=km
new line.1018543 bus1=BBT431503.1.0,bus2=BBT4453185.1.0,Phases=1,Linecode=BT811_BT811_4_1_3,Length=0.090369000,Units=km
new line.1018550 bus1=BBT431510.1.2.0,bus2=BBT431517.1.2.0,Phases=2,Linecode=BT518_BT518_7_2_1,Length=0.000500000,Units=km
new line.1018557 bus1=BBT431517.1.0,bus2=BBT4450581.1.0,Phases=1,Linecode=BT811_BT811_4_1_3,Length=0.091865000,Units=km
new line.1018564 bus1=BBT431517.2.0,bus2=BBT4450588.2.0,Phases=1,Linecode=BT811_BT811_4_1_3,Length=0.105052000,Units=km
new line.1018585 bus1=BBT431524.1.2.0,bus2=BBT431531.1.2.0,Phases=2,Linecode=BT518_BT518_7_2_1,Length=0.000500000,Units=km
new line.1018606 bus1=BBT431538.1.2.0,bus2=BBT431545.1.2.0,Phases=2,Linecode=BT518_BT518_7_2_1,Length=0.000500000,Units=km
new line.1018620 bus1=BBT431552.1.2.0,bus2=BBT431559.1.2.0,Phases=2,Linecode=BT518_BT518_7_2_1,Length=0.000500000,Units=km
new line.1018662 bus1=BBT431566.1.2.0,bus2=BBT431573.1.2.0,Phases=2,Linecode=BT518_BT518_7_2_1,Length=0.000500000,Units=km
new line.1018683 bus1=BBT431580.1.2.0,bus2=BBT431587.1.2.0,Phases=2,Linecode=BT518_BT518_7_2_1,Length=0.000500000,Units=km
new line.1018690 bus1=BBT431587.1.2.0,bus2=BBT4450511.1.2.0,Phases=2,Linecode=BT816_BT816_4_2_2,Length=0.068666000,Units=km
new line.1018697 bus1=BBT431587.1.2.0,bus2=BBT4450497.1.2.0,Phases=2,Linecode=BT816_BT816_4_2_2,Length=0.042081000,Units=km
new line.1018718 bus1=BBT431594.1.2.0,bus2=BBT431601.1.2.0,Phases=2,Linecode=BT518_BT518_7_2_1,Length=0.000500000,Units=km
new line.1018725 bus1=BBT431601.1.0,bus2=BBT4449419.1.0,Phases=1,Linecode=BT811_BT811_4_1_3,Length=0.131602000,Units=km
new line.1018746 bus1=BBT431608.1.2.0,bus2=BBT431615.1.2.0,Phases=2,Linecode=BT518_BT518_7_2_1,Length=0.000500000,Units=km
new line.1018753 bus1=BBT431615.1.0,bus2=BBT4449384.1.0,Phases=1,Linecode=BT816_BT816_4_1_2,Length=0.070891000,Units=km
new line.1018760 bus1=BBT431615.2.0,bus2=BBT4449398.2.0,Phases=1,Linecode=BT816_BT816_4_1_2,Length=0.083301000,Units=km
new line.1018781 bus1=BBT431622.1.2.0,bus2=BBT431629.1.2.0,Phases=2,Linecode=BT518_BT518_7_2_1,Length=0.000500000,Units=km
new line.1018788 bus1=BBT431629.1.2.0,bus2=BBT4450259.1.2.0,Phases=2,Linecode=BT816_BT816_4_2_2,Length=0.041314000,Units=km
new line.1018795 bus1=BBT431629.1.2.0,bus2=BBT4450245.1.2.0,Phases=2,Linecode=BT801_BT801_4_2_3,Length=0.069540000,Units=km
new line.1018830 bus1=BBT431636.1.2.0,bus2=BBT431643.1.2.0,Phases=2,Linecode=BT518_BT518_7_2_1,Length=0.000500000,Units=km
new line.1019194 bus1=BBT6623927.1.2.0,bus2=BBT165289699.1.2.0,Phases=2,Linecode=BT808_BT808_4_2_3,Length=0.039029000,Units=km
new line.1019236 bus1=BBT431846.1.2.0,bus2=BBT431853.1.2.0,Phases=2,Linecode=BT508_BT508_7_2_1,Length=0.000500000,Units=km
new line.1019292 bus1=BBT431860.1.2.0,bus2=BBT431867.1.2.0,Phases=2,Linecode=BT508_BT508_7_2_1,Length=0.000500000,Units=km
new line.1019873 bus1=BBT432182.1.2.0,bus2=BBT432189.1.2.0,Phases=2,Linecode=BT518_BT518_7_2_1,Length=0.000500000,Units=km
new line.1019880 bus1=BBT432189.2.0,bus2=BBT3905834.2.0,Phases=1,Linecode=BT811_BT811_4_1_3,Length=0.098432000,Units=km
new line.1019887 bus1=BBT432189.1.0,bus2=BBT3905827.1.0,Phases=1,Linecode=BT811_BT811_4_1_3,Length=0.070670000,Units=km
new line.10811753 bus1=BBT3257872.1.2.0,bus2=BBT3257879.1.2.0,Phases=2,Linecode=BT206_BT206_7_2_1,Length=0.059961000,Units=km
new line.10829232 bus1=BBT3413321.1.2.0,bus2=BBT4779063.1.2.0,Phases=2,Linecode=BT814_BT814_4_2_3,Length=0.034111000,Units=km
new line.10834132 bus1=BBT2846811.1.2.3.0,bus2=BBT2846818.1.2.3.0,Phases=3,Linecode=BT513_BT513_7_3_1,Length=0.000500000,Units=km
new line.10933357 bus1=BBT2871234.1.2.0,bus2=BBT2871241.1.2.0,Phases=2,Linecode=BT518_BT518_7_2_1,Length=0.000500000,Units=km
new line.10934218 bus1=BBT2871388.1.2.0,bus2=BBT2871395.1.2.0,Phases=2,Linecode=BT518_BT518_7_2_1,Length=0.000500000,Units=km
new line.11130925 bus1=BBT2920213.1.2.0,bus2=BBT2920220.1.2.0,Phases=2,Linecode=BT518_BT518_7_2_1,Length=0.000500000,Units=km
new line.11130932 bus1=BBT2920220.1.2.0,bus2=BBT2997843.1.2.0,Phases=2,Linecode=BT814_BT814_4_2_3,Length=0.063963000,Units=km
new line.11130939 bus1=BBT2920220.1.2.0,bus2=BBT2997857.1.2.0,Phases=2,Linecode=BT814_BT814_4_2_3,Length=0.050601000,Units=km
new line.11308914 bus1=BBT2998585.1.2.0,bus2=BBT2998592.1.2.0,Phases=2,Linecode=BT808_BT808_4_2_3,Length=0.055437000,Units=km
new line.11309061 bus1=BBT2972902.1.2.0,bus2=BBT2998585.1.2.0,Phases=2,Linecode=BT808_BT808_4_2_3,Length=0.060047000,Units=km
new line.11309068 bus1=BBT2972895.1.2.0,bus2=BBT2972902.1.2.0,Phases=2,Linecode=BT518_BT518_7_2_1,Length=0.000500000,Units=km
new line.11309859 bus1=BBT2973210.1.2.0,bus2=BBT2973217.1.2.0,Phases=2,Linecode=BT518_BT518_7_2_1,Length=0.000500000,Units=km
new line.11309964 bus1=BBT2973308.1.2.0,bus2=BBT2973315.1.2.0,Phases=2,Linecode=BT518_BT518_7_2_1,Length=0.000500000,Units=km
new line.11310027 bus1=BBT2973322.1.2.0,bus2=BBT2973329.1.2.0,Phases=2,Linecode=BT518_BT518_7_2_1,Length=0.000500000,Units=km
new line.11310118 bus1=BBT2973336.1.2.0,bus2=BBT2973343.1.2.0,Phases=2,Linecode=BT518_BT518_7_2_1,Length=0.000500000,Units=km
new line.11310139 bus1=BBT2973350.1.2.0,bus2=BBT2973357.1.2.0,Phases=2,Linecode=BT518_BT518_7_2_1,Length=0.000500000,Units=km
new line.11314290 bus1=BBT2974344.1.2.0,bus2=BBT2974351.1.2.0,Phases=2,Linecode=BT518_BT518_7_2_1,Length=0.000500000,Units=km
new line.11314696 bus1=BBT2974379.1.2.0,bus2=BBT2974400.1.2.0,Phases=2,Linecode=BT808_BT808_4_2_3,Length=0.036035000,Units=km
new line.11314703 bus1=BBT2974372.1.2.0,bus2=BBT2974379.1.2.0,Phases=2,Linecode=BT518_BT518_7_2_1,Length=0.000500000,Units=km
new line.11314745 bus1=BBT2974435.1.2.0,bus2=BBT2974442.1.2.0,Phases=2,Linecode=BT518_BT518_7_2_1,Length=0.000500000,Units=km
new line.11314808 bus1=BBT2974463.1.2.0,bus2=BBT2974470.1.2.0,Phases=2,Linecode=BT518_BT518_7_2_1,Length=0.000500000,Units=km
new line.11315207 bus1=BBT2974491.1.2.0,bus2=BBT2974498.1.2.0,Phases=2,Linecode=BT518_BT518_7_2_1,Length=0.000500000,Units=km
new line.11967677 bus1=BBT3154181.1.2.0,bus2=BBT3154188.1.2.0,Phases=2,Linecode=BT518_BT518_7_2_1,Length=0.000500000,Units=km
new line.11972766 bus1=BBT3156463.1.2.0,bus2=BBT3156470.1.2.0,Phases=2,Linecode=BT518_BT518_7_2_1,Length=0.000500000,Units=km
new line.11972843 bus1=BBT3156547.1.2.0,bus2=BBT3156554.1.2.0,Phases=2,Linecode=BT518_BT518_7_2_1,Length=0.000500000,Units=km
new line.11972850 bus1=BBT3156554.2.0,bus2=BBT3156596.2.0,Phases=1,Linecode=BT811_BT811_4_1_3,Length=0.044173000,Units=km
new line.11972857 bus1=BBT3156554.2.0,bus2=BBT3156624.2.0,Phases=1,Linecode=BT811_BT811_4_1_3,Length=0.046065000,Units=km
new line.12161794 bus1=BBT3215088.1.2.0,bus2=BBT3215095.1.2.0,Phases=2,Linecode=BT518_BT518_7_2_1,Length=0.000500000,Units=km
new line.11960103 bus1=BBT3152249.1.2.0,bus2=BBT71063939.1.2.0,Phases=2,Linecode=BT808_BT808_4_2_3,Length=0.034906000,Units=km
new line.11960131 bus1=BBT3152256.1.2.0,bus2=BBT3152249.1.2.0,Phases=2,Linecode=BT808_BT808_4_2_3,Length=0.034762000,Units=km
new line.11960152 bus1=BBT3152263.1.2.0,bus2=BBT3152256.1.2.0,Phases=2,Linecode=BT808_BT808_4_2_3,Length=0.028142000,Units=km
new line.11960166 bus1=BBT3152263.1.2.0,bus2=BBT6720828.1.2.0,Phases=2,Linecode=BT808_BT808_4_2_3,Length=0.033978000,Units=km
new line.11960201 bus1=BBT3152333.1.2.0,bus2=BBT3152459.1.2.0,Phases=2,Linecode=BT108_BT107_7_2_1,Length=0.039293000,Units=km
new line.11960208 bus1=BBT3152333.1.2.0,bus2=BBT3152494.1.2.0,Phases=2,Linecode=BT107_BT106_7_2_1,Length=0.022833000,Units=km
new line.11960292 bus1=BBT3152494.1.2.0,bus2=BBT3152501.1.2.0,Phases=2,Linecode=BT107_BT106_7_2_1,Length=0.032872000,Units=km
new line.11960411 bus1=BBT3152508.1.2.0,bus2=BBT124023482.1.2.0,Phases=2,Linecode=BT803_BT803_4_2_4,Length=0.033816000,Units=km
new line.11960558 bus1=BBT3152515.1.2.0,bus2=BBT3152508.1.2.0,Phases=2,Linecode=BT803_BT803_4_2_4,Length=0.025693000,Units=km
new line.11960579 bus1=BBT3152522.1.2.0,bus2=BBT3152515.1.2.0,Phases=2,Linecode=BT807_BT807_4_2_3,Length=0.022009000,Units=km
new line.11960628 bus1=BBT3152522.1.2.0,bus2=BBT3152536.1.2.0,Phases=2,Linecode=BT807_BT807_4_2_3,Length=0.033712000,Units=km
new line.11960649 bus1=BBT3152536.1.2.0,bus2=BBT3152543.1.2.0,Phases=2,Linecode=BT807_BT807_4_2_3,Length=0.041083000,Units=km
new line.11960677 bus1=BBT3152543.1.2.0,bus2=BBT3152550.1.2.0,Phases=2,Linecode=BT807_BT807_4_2_3,Length=0.039597000,Units=km
new line.11960719 bus1=BBT3152557.1.2.0,bus2=BBT3152564.1.2.0,Phases=2,Linecode=BT803_BT803_4_2_4,Length=0.037777000,Units=km
new line.11960845 bus1=BBT3152466.1.2.0,bus2=BBT3152473.1.2.0,Phases=2,Linecode=BT108_BT107_7_2_1,Length=0.037178000,Units=km
new line.11960894 bus1=BBT3152473.1.2.0,bus2=BBT3152557.1.2.0,Phases=2,Linecode=BT107_BT106_7_2_1,Length=0.033978000,Units=km
new line.11960901 bus1=BBT3152473.1.2.0,bus2=BBT3152480.1.2.0,Phases=2,Linecode=BT108_BT107_7_2_1,Length=0.034805000,Units=km
new line.11960922 bus1=BBT3152480.1.2.0,bus2=BBT3152487.1.2.0,Phases=2,Linecode=BT108_BT107_7_2_1,Length=0.028407000,Units=km
new line.12208519 bus1=BBT3231062.1.2.0,bus2=BBT3231069.1.2.0,Phases=2,Linecode=BT108_BT107_7_2_1,Length=0.023330000,Units=km
new line.12208540 bus1=BBT3231055.1.2.0,bus2=BBT3231062.1.2.0,Phases=2,Linecode=BT108_BT107_7_2_1,Length=0.034691000,Units=km
new line.12633601 bus1=BBT3388905.1.2.0,bus2=BBT3388912.1.2.0,Phases=2,Linecode=BT518_BT518_7_2_1,Length=0.000500000,Units=km
new line.12633608 bus1=BBT3388912.1.2.0,bus2=BBT4851681.1.2.0,Phases=2,Linecode=BT814_BT814_4_2_3,Length=0.031761000,Units=km
new line.12640664 bus1=BBT3392853.1.2.0,bus2=BBT3392860.1.2.0,Phases=2,Linecode=BT808_BT808_4_2_3,Length=0.080162000,Units=km
new line.12641882 bus1=BBT3393161.2.0,bus2=BBT3393168.2.0,Phases=1,Linecode=BT811_BT811_4_1_3,Length=0.054095000,Units=km
new line.12641889 bus1=BBT3393147.1.0,bus2=BBT3393154.1.0,Phases=1,Linecode=BT811_BT811_4_1_3,Length=0.058971000,Units=km
new line.12641903 bus1=BBT3393154.1.0,bus2=BBT6496653.1.0,Phases=1,Linecode=BT811_BT811_4_1_3,Length=0.061255000,Units=km
new line.12641924 bus1=BBT3393168.2.0,bus2=BBT3393175.2.0,Phases=1,Linecode=BT811_BT811_4_1_3,Length=0.058212000,Units=km
new line.12641945 bus1=BBT3393175.2.0,bus2=BBT3393182.2.0,Phases=1,Linecode=BT811_BT811_4_1_3,Length=0.059191000,Units=km
new line.12642120 bus1=BBT3393266.1.2.0,bus2=BBT3393273.1.2.0,Phases=2,Linecode=BT808_BT808_4_2_3,Length=0.057043000,Units=km
new line.12642211 bus1=BBT3393273.1.2.0,bus2=BBT3393280.1.2.0,Phases=2,Linecode=BT808_BT808_4_2_3,Length=0.053118000,Units=km
new line.12642337 bus1=BBT3393385.1.2.0,bus2=BBT3393406.1.2.0,Phases=2,Linecode=BT808_BT808_4_2_3,Length=0.053220000,Units=km
new line.12642414 bus1=BBT3397970.1.2.0,bus2=BBT3397977.1.2.0,Phases=2,Linecode=BT518_BT518_7_2_1,Length=0.000500000,Units=km
new line.12642680 bus1=BBT3393378.1.2.0,bus2=BBT3393385.1.2.0,Phases=2,Linecode=BT808_BT808_4_2_3,Length=0.031995000,Units=km
new line.12642687 bus1=BBT3393371.1.2.0,bus2=BBT3393378.1.2.0,Phases=2,Linecode=BT518_BT518_7_2_1,Length=0.000500000,Units=km
new line.12642694 bus1=BBT3393378.1.2.0,bus2=BBT3393392.1.2.0,Phases=2,Linecode=BT808_BT808_4_2_3,Length=0.068840000,Units=km
new line.12642715 bus1=BBT3393392.1.2.0,bus2=BBT3393399.1.2.0,Phases=2,Linecode=BT808_BT808_4_2_3,Length=0.068723000,Units=km
new line.12642855 bus1=BBT3393434.1.2.0,bus2=BBT3393441.1.2.0,Phases=2,Linecode=BT518_BT518_7_2_1,Length=0.000500000,Units=km
new line.12643079 bus1=BBT3393532.1.2.0,bus2=BBT3393539.1.2.0,Phases=2,Linecode=BT518_BT518_7_2_1,Length=0.000500000,Units=km
new line.12643086 bus1=BBT3393539.1.2.0,bus2=BBT3393546.1.2.0,Phases=2,Linecode=BT808_BT808_4_2_3,Length=0.070169000,Units=km
new line.12643093 bus1=BBT3393539.1.2.0,bus2=BBT3393553.1.2.0,Phases=2,Linecode=BT808_BT808_4_2_3,Length=0.036377000,Units=km
new line.12643149 bus1=BBT3393553.1.2.0,bus2=BBT3393560.1.2.0,Phases=2,Linecode=BT808_BT808_4_2_3,Length=0.059577000,Units=km
new line.12643170 bus1=BBT3393560.1.2.0,bus2=BBT3393567.1.2.0,Phases=2,Linecode=BT808_BT808_4_2_3,Length=0.066327000,Units=km
new line.12643275 bus1=BBT3393574.1.2.0,bus2=BBT3393581.1.2.0,Phases=2,Linecode=BT518_BT518_7_2_1,Length=0.000500000,Units=km
new line.12643429 bus1=BBT3393686.1.2.0,bus2=BBT3393693.1.2.0,Phases=2,Linecode=BT518_BT518_7_2_1,Length=0.000500000,Units=km
new line.12643856 bus1=BBT3393714.1.2.0,bus2=BBT3393721.1.2.0,Phases=2,Linecode=BT518_BT518_7_2_1,Length=0.000500000,Units=km
new line.12643961 bus1=BBT3393791.1.2.0,bus2=BBT3393798.1.2.0,Phases=2,Linecode=BT518_BT518_7_2_1,Length=0.000500000,Units=km
new line.12644318 bus1=BBT3393987.1.2.0,bus2=BBT3393994.1.2.0,Phases=2,Linecode=BT518_BT518_7_2_1,Length=0.000500000,Units=km
new line.12644325 bus1=BBT3393994.1.2.0,bus2=BBT3394008.1.2.0,Phases=2,Linecode=BT808_BT808_4_2_3,Length=0.067077000,Units=km
new line.12644731 bus1=BBT3394085.1.2.0,bus2=BBT3394092.1.2.0,Phases=2,Linecode=BT808_BT808_4_2_3,Length=0.056010000,Units=km
new line.12644871 bus1=BBT3394134.1.2.0,bus2=BBT3394141.1.2.0,Phases=2,Linecode=BT808_BT808_4_2_3,Length=0.054638000,Units=km
new line.12644892 bus1=BBT3394141.1.2.0,bus2=BBT3394148.1.2.0,Phases=2,Linecode=BT808_BT808_4_2_3,Length=0.044571000,Units=km
new line.12645011 bus1=BBT3394176.1.2.0,bus2=BBT3394183.1.2.0,Phases=2,Linecode=BT808_BT808_4_2_3,Length=0.058564000,Units=km
new line.12645032 bus1=BBT3394169.1.2.0,bus2=BBT3394176.1.2.0,Phases=2,Linecode=BT808_BT808_4_2_3,Length=0.062388000,Units=km
new line.12645438 bus1=BBT3394316.1.2.0,bus2=BBT3394323.1.2.0,Phases=2,Linecode=BT808_BT808_4_2_3,Length=0.046069000,Units=km
new line.12645557 bus1=BBT3394393.1.2.0,bus2=BBT3394400.1.2.0,Phases=2,Linecode=BT518_BT518_7_2_1,Length=0.000500000,Units=km
new line.12645564 bus1=BBT3394400.1.2.0,bus2=BBT3394407.1.2.0,Phases=2,Linecode=BT808_BT808_4_2_3,Length=0.058862000,Units=km
new line.12645928 bus1=BBT3394533.1.2.0,bus2=BBT3394540.1.2.0,Phases=2,Linecode=BT518_BT518_7_2_1,Length=0.000500000,Units=km
new line.12646229 bus1=BBT3394589.1.2.0,bus2=BBT3394596.1.2.0,Phases=2,Linecode=BT808_BT808_4_2_3,Length=0.056365000,Units=km
new line.1008071 bus1=BBT426946.1.2.0,bus2=BBT426953.1.2.0,Phases=2,Linecode=BT518_BT518_7_2_1,Length=0.000500000,Units=km
new line.1008680 bus1=BBT427240.1.2.0,bus2=BBT427247.1.2.0,Phases=2,Linecode=BT518_BT518_7_2_1,Length=0.000500000,Units=km
new line.1008687 bus1=BBT427247.2.0,bus2=BBT5331965.2.0,Phases=1,Linecode=BT816_BT816_4_1_2,Length=0.039799000,Units=km
new line.10570421 bus1=BBT2794822.1.2.0,bus2=BBT2794829.1.2.0,Phases=2,Linecode=BT518_BT518_7_2_1,Length=0.000500000,Units=km
new line.10570428 bus1=BBT2794829.1.0,bus2=BBT3908032.1.0,Phases=1,Linecode=BT811_BT811_4_1_3,Length=0.052438000,Units=km
new line.10570435 bus1=BBT2794829.1.2.0,bus2=BBT3908039.1.2.0,Phases=2,Linecode=BT814_BT814_4_2_3,Length=0.083245000,Units=km
new line.10570449 bus1=BBT2794850.1.2.0,bus2=BBT2794857.1.2.0,Phases=2,Linecode=BT518_BT518_7_2_1,Length=0.000500000,Units=km
new line.10570456 bus1=BBT2794857.1.2.0,bus2=BBT2998291.1.2.0,Phases=2,Linecode=BT808_BT808_4_2_3,Length=0.059973000,Units=km
new line.10570463 bus1=BBT2794857.1.2.0,bus2=BBT2998305.1.2.0,Phases=2,Linecode=BT808_BT808_4_2_3,Length=0.058660000,Units=km
new line.10570470 bus1=BBT2794857.1.2.0,bus2=BBT2998312.1.2.0,Phases=2,Linecode=BT808_BT808_4_2_3,Length=0.061038000,Units=km
new line.10570533 bus1=BBT2794836.1.2.0,bus2=BBT2794843.1.2.0,Phases=2,Linecode=BT518_BT518_7_2_1,Length=0.000500000,Units=km
new line.10570666 bus1=BBT2794864.1.2.0,bus2=BBT2794871.1.2.0,Phases=2,Linecode=BT518_BT518_7_2_1,Length=0.000500000,Units=km
new line.10570673 bus1=BBT2794871.2.0,bus2=BBT3908585.2.0,Phases=1,Linecode=BT816_BT816_4_1_2,Length=0.036104000,Units=km
new line.10570680 bus1=BBT2794871.1.2.0,bus2=BBT3908578.1.2.0,Phases=2,Linecode=BT811_BT811_4_2_3,Length=0.063603000,Units=km
new line.10582307 bus1=BBT2934171.1.2.0,bus2=BBT2934178.1.2.0,Phases=2,Linecode=BT518_BT518_7_2_1,Length=0.000500000,Units=km
new line.10582314 bus1=BBT2934178.2.0,bus2=BBT4543716.2.0,Phases=1,Linecode=BT816_BT816_4_1_2,Length=0.091379000,Units=km
new line.10582321 bus1=BBT2934178.2.0,bus2=BBT4543702.2.0,Phases=1,Linecode=BT816_BT816_4_1_2,Length=0.094800000,Units=km
new line.10582328 bus1=BBT2934178.2.0,bus2=BBT4543730.2.0,Phases=1,Linecode=BT816_BT816_4_1_2,Length=0.132276000,Units=km
new line.10584008 bus1=BBT14543055.1.2.0,bus2=BBT14543062.1.2.0,Phases=2,Linecode=BT518_BT518_7_2_1,Length=0.000500000,Units=km
new line.10584015 bus1=BBT14543062.1.2.0,bus2=BBT14543216.1.2.0,Phases=2,Linecode=BT811_BT811_4_2_3,Length=0.030994000,Units=km
new line.10584022 bus1=BBT14543062.1.2.0,bus2=BBT14543132.1.2.0,Phases=2,Linecode=BT816_BT816_4_2_2,Length=0.021080000,Units=km
new line.10784411 bus1=BBT2832412.1.2.0,bus2=BBT2832419.1.2.0,Phases=2,Linecode=BT518_BT518_7_2_1,Length=0.000500000,Units=km
new line.10786833 bus1=BBT2833014.1.2.0,bus2=BBT2833021.1.2.0,Phases=2,Linecode=BT518_BT518_7_2_1,Length=0.000500000,Units=km
new line.10787155 bus1=BBT2833077.1.2.0,bus2=BBT2833084.1.2.0,Phases=2,Linecode=BT518_BT518_7_2_1,Length=0.000500000,Units=km
new line.10787162 bus1=BBT2833084.2.0,bus2=BBT4014397.2.0,Phases=1,Linecode=BT811_BT811_4_1_3,Length=0.068951000,Units=km
new line.10787169 bus1=BBT156146729.2.0,bus2=BBT4014404.2.0,Phases=1,Linecode=BT811_BT811_4_1_3,Length=0.074224000,Units=km
new line.10791390 bus1=BBT2870044.1.2.0,bus2=BBT2870051.1.2.0,Phases=2,Linecode=BT518_BT518_7_2_1,Length=0.000500000,Units=km
new line.10806944 bus1=BBT2837270.1.2.3.0,bus2=BBT2837277.1.2.3.0,Phases=3,Linecode=BT108_BT107_7_3_1,Length=0.027439000,Units=km
new line.10808155 bus1=BBT2838040.1.2.0,bus2=BBT2838047.1.2.0,Phases=2,Linecode=BT518_BT518_7_2_1,Length=0.000500000,Units=km
new line.10808162 bus1=BBT2838047.1.0,bus2=BBT4543555.1.0,Phases=1,Linecode=BT811_BT811_4_1_3,Length=0.050953000,Units=km
new line.10808169 bus1=BBT2838047.2.0,bus2=BBT4543548.2.0,Phases=1,Linecode=BT811_BT811_4_1_3,Length=0.082165000,Units=km
new line.11036698 bus1=BBT2895286.1.2.0,bus2=BBT2895293.1.2.0,Phases=2,Linecode=BT518_BT518_7_2_1,Length=0.000500000,Units=km
new line.11036705 bus1=BBT2895293.2.0,bus2=BBT3418515.2.0,Phases=1,Linecode=BT811_BT811_4_1_3,Length=0.080011000,Units=km
new line.11039953 bus1=BBT2895797.1.2.0,bus2=BBT2895804.1.2.0,Phases=2,Linecode=BT518_BT518_7_2_1,Length=0.000500000,Units=km
new line.11041192 bus1=BBT2896406.1.2.0,bus2=BBT2896413.1.2.0,Phases=2,Linecode=BT518_BT518_7_2_1,Length=0.000500000,Units=km
new line.11041199 bus1=BBT2896413.1.2.0,bus2=BBT2926758.1.2.0,Phases=2,Linecode=BT808_BT808_4_2_3,Length=0.050218000,Units=km
new line.11041206 bus1=BBT2896413.1.2.0,bus2=BBT3394589.1.2.0,Phases=2,Linecode=BT808_BT808_4_2_3,Length=0.033281000,Units=km
new line.11041241 bus1=BBT2896420.1.2.3.0,bus2=BBT2896427.1.2.3.0,Phases=3,Linecode=BT803_BT803_4_3_4,Length=0.029392000,Units=km
new line.11041430 bus1=BBT2896497.1.2.0,bus2=BBT2896504.1.2.0,Phases=2,Linecode=BT518_BT518_7_2_1,Length=0.000500000,Units=km
new line.11041437 bus1=BBT2896504.1.2.0,bus2=BBT6602759.1.2.0,Phases=2,Linecode=BT814_BT814_4_2_3,Length=0.065075000,Units=km
new line.11041556 bus1=BBT2896511.1.2.0,bus2=BBT2896518.1.2.0,Phases=2,Linecode=BT518_BT518_7_2_1,Length=0.000500000,Units=km
new line.11041612 bus1=BBT2896525.1.2.0,bus2=BBT2896532.1.2.0,Phases=2,Linecode=BT518_BT518_7_2_1,Length=0.000500000,Units=km
new line.11041619 bus1=BBT2896532.1.2.0,bus2=BBT3392853.1.2.0,Phases=2,Linecode=BT808_BT808_4_2_3,Length=0.040779000,Units=km
new line.11041626 bus1=BBT2896532.1.2.0,bus2=BBT6599308.1.2.0,Phases=2,Linecode=BT808_BT808_4_2_3,Length=0.044018000,Units=km
new line.11250457 bus1=BBT2957775.1.2.0,bus2=BBT2957782.1.2.0,Phases=2,Linecode=BT518_BT518_7_2_1,Length=0.000500000,Units=km
new line.11680964 bus1=BBT3074094.1.2.0,bus2=BBT3074101.1.2.0,Phases=2,Linecode=BT518_BT518_7_2_1,Length=0.000500000,Units=km
new line.11891559 bus1=BBT3130283.1.2.0,bus2=BBT3130290.1.2.0,Phases=2,Linecode=BT518_BT518_7_2_1,Length=0.000500000,Units=km
new line.12132478 bus1=BBT3204784.1.2.0,bus2=BBT3204791.1.2.0,Phases=2,Linecode=BT508_BT508_7_2_1,Length=0.000500000,Units=km
new line.12769884 bus1=BBT3650859.1.2.0,bus2=BBT3650894.1.2.0,Phases=2,Linecode=BT808_BT808_4_2_3,Length=0.037189000,Units=km
new line.12769919 bus1=BBT3665433.1.2.0,bus2=BBT3665440.1.2.0,Phases=2,Linecode=BT808_BT808_4_2_3,Length=0.046238000,Units=km
new line.12769933 bus1=BBT3650649.1.2.0,bus2=BBT3650726.1.2.0,Phases=2,Linecode=BT808_BT808_4_2_3,Length=0.031993000,Units=km
new line.12769940 bus1=BBT3650642.1.2.0,bus2=BBT3650649.1.2.0,Phases=2,Linecode=BT513_BT513_7_2_1,Length=0.000500000,Units=km
new line.12769947 bus1=BBT3650649.1.2.0,bus2=BBT3650698.1.2.0,Phases=2,Linecode=BT807_BT807_4_2_3,Length=0.037028000,Units=km
new line.12769954 bus1=BBT3650649.1.2.0,bus2=BBT3650684.1.2.0,Phases=2,Linecode=BT807_BT807_4_2_3,Length=0.033218000,Units=km
new line.12769975 bus1=BBT3650950.1.2.0,bus2=BBT3650978.1.2.0,Phases=2,Linecode=BT808_BT808_4_2_3,Length=0.043969000,Units=km
new line.12769982 bus1=BBT3650950.1.2.0,bus2=BBT5998771.1.2.0,Phases=2,Linecode=BT808_BT808_4_2_3,Length=0.046614000,Units=km
new line.12777899 bus1=BBT3434944.1.2.0,bus2=BBT3434951.1.2.0,Phases=2,Linecode=BT808_BT808_4_2_3,Length=0.044075000,Units=km
new line.13034946 bus1=BBT3541470.1.2.0,bus2=BBT3541477.1.2.0,Phases=2,Linecode=BT518_BT518_7_2_1,Length=0.000500000,Units=km
new line.1013601 bus1=BBT429529.1.2.0,bus2=BBT429536.1.2.0,Phases=2,Linecode=BT508_BT508_7_2_1,Length=0.000500000,Units=km
new line.1013608 bus1=BBT429536.1.0,bus2=BBT4002868.1.0,Phases=1,Linecode=BT811_BT811_4_1_3,Length=0.081735000,Units=km
new line.1013615 bus1=BBT429536.1.2.0,bus2=BBT4002896.1.2.0,Phases=2,Linecode=BT808_BT808_4_2_3,Length=0.061993000,Units=km
new line.1013650 bus1=BBT429543.1.2.0,bus2=BBT429550.1.2.0,Phases=2,Linecode=BT518_BT518_7_2_1,Length=0.000500000,Units=km
new line.1013657 bus1=BBT429550.1.2.0,bus2=BBT2998361.1.2.0,Phases=2,Linecode=BT808_BT808_4_2_3,Length=0.036597000,Units=km