! manter este comentario para compatibilidade do C#
new circuit.alimINPD215 bus1=BMT127241025.1.2.3,basekv=13.800000000,pu=1.040000000