new line.RML10005507 bus1=BBT153526.1.2.0,bus2=RML1060005507.1.2.0,Phases=2,Linecode=CABBTG05_4_2,Length=0.017000000,Units=km
new line.RML10006816 bus1=BBT4536527.2.0,bus2=RML1060006816.2.0,Phases=1,Linecode=CABBTG02_4_1,Length=0.017000000,Units=km
new line.RML10006914 bus1=BBT2974379.2.0,bus2=RML1060006914.2.0,Phases=1,Linecode=CABBTG02_4_1,Length=0.017000000,Units=km
new line.RML10007047 bus1=BBT138384507.1.2.0,bus2=RML1060007047.1.2.0,Phases=2,Linecode=CABBTG04_4_2,Length=0.017000000,Units=km
new line.RML10012815 bus1=BBT391148.1.2.0,bus2=RML1060012815.1.2.0,Phases=2,Linecode=CABBTG05_4_2,Length=0.017000000,Units=km
new line.RML10013067 bus1=BBT111547.2.0,bus2=RML1060013067.2.0,Phases=1,Linecode=CABBTG02_4_1,Length=0.017000000,Units=km
new line.RML10020648 bus1=BBT124023482.1.0,bus2=RML1060020648.1.0,Phases=1,Linecode=CABBTG02_4_1,Length=0.017000000,Units=km
new line.RML10020676 bus1=BBT4577372.2.0,bus2=RML1060020676.2.0,Phases=1,Linecode=CABBTG02_4_1,Length=0.017000000,Units=km
new line.RML10023294 bus1=BBT3783481.1.2.0,bus2=RML1060023294.1.2.0,Phases=2,Linecode=CABBTG13_4_2,Length=0.017000000,Units=km
new line.RML10025779 bus1=BBT124023706.1.0,bus2=RML1060025779.1.0,Phases=1,Linecode=CABBTG02_4_1,Length=0.017000000,Units=km
new line.RML10036244 bus1=BBT4536527.2.0,bus2=RML1060036244.2.0,Phases=1,Linecode=CABBTG02_4_1,Length=0.017000000,Units=km
new line.RML10036268 bus1=BBT336849.1.2.0,bus2=RML1060036268.1.2.0,Phases=2,Linecode=CABBTG05_4_2,Length=0.017000000,Units=km
new line.RML10037101 bus1=BBT4577358.1.0,bus2=RML1060037101.1.0,Phases=1,Linecode=CABBTG02_4_1,Length=0.017000000,Units=km
new line.RML10037106 bus1=BBT5215226.1.0,bus2=RML1060037106.1.0,Phases=1,Linecode=CABBTG02_4_1,Length=0.017000000,Units=km
new line.RML10037361 bus1=BBT110588.1.0,bus2=RML1060037361.1.0,Phases=1,Linecode=CABBTG03_4_1,Length=0.017000000,Units=km
new line.RML10038369 bus1=BBT90393.1.2.0,bus2=RML1060038369.1.2.0,Phases=2,Linecode=CABBTG05_4_2,Length=0.017000000,Units=km
new line.RML10039726 bus1=BBT3760794.1.0,bus2=RML1060039726.1.0,Phases=1,Linecode=CABBTG01_4_1,Length=0.017000000,Units=km
new line.RML10047234 bus1=BBT108810.1.2.0,bus2=RML1060047234.1.2.0,Phases=2,Linecode=CABBTG05_4_2,Length=0.017000000,Units=km
new line.RML10047236 bus1=BBT393465.3.0,bus2=RML1060047236.3.0,Phases=1,Linecode=CABBTG02_4_1,Length=0.017000000,Units=km
new line.RML10047283 bus1=BBT3599472.3.0,bus2=RML1060047283.3.0,Phases=1,Linecode=CABBTG01_4_1,Length=0.017000000,Units=km
new line.RML10047538 bus1=BBT109671.1.2.0,bus2=RML1060047538.1.2.0,Phases=2,Linecode=CABBTG05_4_2,Length=0.017000000,Units=km
new line.RML10050401 bus1=BBT154464.1.2.0,bus2=RML1060050401.1.2.0,Phases=2,Linecode=CABBTG05_4_2,Length=0.017000000,Units=km
new line.RML10051801 bus1=BBT88811.1.0,bus2=RML1060051801.1.0,Phases=1,Linecode=CABBTG02_4_1,Length=0.017000000,Units=km
new line.RML10051829 bus1=BBT148496788.1.2.0,bus2=RML1060051829.1.2.0,Phases=2,Linecode=CABBTG05_4_2,Length=0.017000000,Units=km
new line.RML10054367 bus1=BBT399198.1.2.0,bus2=RML1060054367.1.2.0,Phases=2,Linecode=CABBTG05_4_2,Length=0.017000000,Units=km
new line.RML10054461 bus1=BBT88482.1.2.0,bus2=RML1060054461.1.2.0,Phases=2,Linecode=CABBTG05_4_2,Length=0.017000000,Units=km
new line.RML10062520 bus1=BBT91219.1.0,bus2=RML1060062520.1.0,Phases=1,Linecode=CABBTG02_4_1,Length=0.017000000,Units=km
new line.RML10062571 bus1=BBT91114.1.2.3.0,bus2=RML1060062571.1.2.3.0,Phases=3,Linecode=CABBTG06_4_3,Length=0.017000000,Units=km
new line.RML10064141 bus1=BBT87978.2.0,bus2=RML1060064141.2.0,Phases=1,Linecode=CABBTG02_4_1,Length=0.017000000,Units=km
new line.RML10064411 bus1=BBT111792.1.0,bus2=RML1060064411.1.0,Phases=1,Linecode=CABBTG01_4_1,Length=0.017000000,Units=km
new line.RML10064751 bus1=BBT2883974.1.0,bus2=RML1060064751.1.0,Phases=1,Linecode=CABBTG02_4_1,Length=0.017000000,Units=km
new line.RML10064760 bus1=BBT2926793.1.2.0,bus2=RML1060064760.1.2.0,Phases=2,Linecode=CABBTG05_4_2,Length=0.017000000,Units=km
new line.RML10065496 bus1=BBT401830.2.0,bus2=RML1060065496.2.0,Phases=1,Linecode=CABBTG02_4_1,Length=0.017000000,Units=km
new line.RML10066826 bus1=BBT5456103.1.0,bus2=RML1060066826.1.0,Phases=1,Linecode=CABBTG02_4_1,Length=0.017000000,Units=km
new line.RML10066829 bus1=BBT27172938.2.0,bus2=RML1060066829.2.0,Phases=1,Linecode=CABBTG02_4_1,Length=0.017000000,Units=km
new line.RML10066831 bus1=BBT393374.1.0,bus2=RML1060066831.1.0,Phases=1,Linecode=CABBTG03_4_1,Length=0.017000000,Units=km
new line.RML10066846 bus1=BBT4893156.1.0,bus2=RML1060066846.1.0,Phases=1,Linecode=CABBTG01_4_1,Length=0.017000000,Units=km
new line.RML10066867 bus1=BBT389160.2.0,bus2=RML1060066867.2.0,Phases=1,Linecode=CABBTG02_4_1,Length=0.017000000,Units=km
new line.RML10068393 bus1=BBT6008865.2.0,bus2=RML1060068393.2.0,Phases=1,Linecode=CABBTG02_4_1,Length=0.017000000,Units=km
new line.RML10068520 bus1=BBT30545657.2.0,bus2=RML1060068520.2.0,Phases=1,Linecode=CABBTG02_4_1,Length=0.017000000,Units=km
new line.RML10068903 bus1=BBT97919782.1.2.0,bus2=RML1060068903.1.2.0,Phases=2,Linecode=CABBTG05_4_2,Length=0.017000000,Units=km
new line.RML10068906 bus1=BBT149206004.1.0,bus2=RML1060068906.1.0,Phases=1,Linecode=CABBTG02_4_1,Length=0.017000000,Units=km
new line.RML10069888 bus1=BBT412092.1.2.0,bus2=RML1060069888.1.2.0,Phases=2,Linecode=CABBTG05_4_2,Length=0.017000000,Units=km
new line.RML10069902 bus1=BBT97931073.2.0,bus2=RML1060069902.2.0,Phases=1,Linecode=CABBTG02_4_1,Length=0.017000000,Units=km
new line.RML10069907 bus1=BBT97916730.2.0,bus2=RML1060069907.2.0,Phases=1,Linecode=CABBTG02_4_1,Length=0.017000000,Units=km
new line.RML10069922 bus1=BBT109474269.2.0,bus2=RML1060069922.2.0,Phases=1,Linecode=CABBTG02_4_1,Length=0.017000000,Units=km
new line.RML10070794 bus1=BBT6008865.1.2.0,bus2=RML1060070794.1.2.0,Phases=2,Linecode=CABBTG05_4_2,Length=0.017000000,Units=km
new line.RML10071563 bus1=BBT375251.1.0,bus2=RML1060071563.1.0,Phases=1,Linecode=CABBTG01_4_1,Length=0.017000000,Units=km
new line.RML10071788 bus1=BBT124023706.2.0,bus2=RML1060071788.2.0,Phases=1,Linecode=CABBTG02_4_1,Length=0.017000000,Units=km
new line.RML10071790 bus1=BBT3151808.1.2.0,bus2=RML1060071790.1.2.0,Phases=2,Linecode=CABBTG05_4_2,Length=0.017000000,Units=km
new line.RML10071861 bus1=BBT157236.1.2.0,bus2=RML1060071861.1.2.0,Phases=2,Linecode=CABBTG04_4_2,Length=0.017000000,Units=km
new line.RML10071869 bus1=BBT393206.2.0,bus2=RML1060071869.2.0,Phases=1,Linecode=CABBTG01_4_1,Length=0.017000000,Units=km
new line.RML10071901 bus1=BBT337206.2.0,bus2=RML1060071901.2.0,Phases=1,Linecode=CABBTG02_4_1,Length=0.017000000,Units=km
new line.RML10071966 bus1=BBT3941177.1.0,bus2=RML1060071966.1.0,Phases=1,Linecode=CABBTG02_4_1,Length=0.017000000,Units=km
new line.RML10072020 bus1=BBT3763034.2.0,bus2=RML1060072020.2.0,Phases=1,Linecode=CABBTG02_4_1,Length=0.017000000,Units=km
new line.RML10072064 bus1=BBT92844376.1.0,bus2=RML1060072064.1.0,Phases=1,Linecode=CABBTG02_4_1,Length=0.017000000,Units=km
new line.RML10072467 bus1=BBT87957.2.3.0,bus2=RML1060072467.2.3.0,Phases=2,Linecode=CABBTG05_4_2,Length=0.017000000,Units=km
new line.RML10072474 bus1=BBT336401.1.0,bus2=RML1060072474.1.0,Phases=1,Linecode=CABBTG02_4_1,Length=0.017000000,Units=km
new line.RML10072511 bus1=BBT96202535.1.0,bus2=RML1060072511.1.0,Phases=1,Linecode=CABBTG02_4_1,Length=0.017000000,Units=km
new line.RML10072891 bus1=BBT88237.1.0,bus2=RML1060072891.1.0,Phases=1,Linecode=CABBTG03_4_1,Length=0.017000000,Units=km
new line.RML10073870 bus1=BBT337213.1.2.0,bus2=RML1060073870.1.2.0,Phases=2,Linecode=CABBTG05_4_2,Length=0.017000000,Units=km
new line.RML10074243 bus1=BBT364107.1.0,bus2=RML1060074243.1.0,Phases=1,Linecode=CABBTG01_4_1,Length=0.017000000,Units=km
new line.RML10074967 bus1=BBT152168.1.0,bus2=RML1060074967.1.0,Phases=1,Linecode=CABBTG01_4_1,Length=0.017000000,Units=km
new line.RML10075846 bus1=BBT337073.1.0,bus2=RML1060075846.1.0,Phases=1,Linecode=CABBTG02_4_1,Length=0.017000000,Units=km
new line.RML10075849 bus1=BBT337073.1.0,bus2=RML1060075849.1.0,Phases=1,Linecode=CABBTG02_4_1,Length=0.017000000,Units=km
new line.RML10075850 bus1=BBT337073.1.0,bus2=RML1060075850.1.0,Phases=1,Linecode=CABBTG02_4_1,Length=0.017000000,Units=km
new line.RML10075905 bus1=BBT90211.1.2.3.0,bus2=RML1060075905.1.2.3.0,Phases=3,Linecode=CABBTG07_4_3,Length=0.017000000,Units=km
new line.RML10075981 bus1=BBT96279437.1.0,bus2=RML1060075981.1.0,Phases=1,Linecode=CABBTG02_4_1,Length=0.017000000,Units=km
new line.RML10082418 bus1=BBT148754628.1.2.0,bus2=RML1060082418.1.2.0,Phases=2,Linecode=CABBTG05_4_2,Length=0.017000000,Units=km
new line.RML10106885 bus1=BBT109944.1.2.0,bus2=RML1060106885.1.2.0,Phases=2,Linecode=CABBTG05_4_2,Length=0.017000000,Units=km
new line.RML10106923 bus1=BBT109877644.1.0,bus2=RML1060106923.1.0,Phases=1,Linecode=CABBTG02_4_1,Length=0.017000000,Units=km
new line.RML10107393 bus1=BBT96203116.1.2.0,bus2=RML1060107393.1.2.0,Phases=2,Linecode=CABBTG05_4_2,Length=0.017000000,Units=km
new line.RML10107611 bus1=BBT149066657.1.2.0,bus2=RML1060107611.1.2.0,Phases=2,Linecode=CABBTG05_4_2,Length=0.017000000,Units=km
new line.RML10107618 bus1=BBT109877301.1.0,bus2=RML1060107618.1.0,Phases=1,Linecode=CABBTG02_4_1,Length=0.017000000,Units=km
new line.RML10107620 bus1=BBT109877301.2.0,bus2=RML1060107620.2.0,Phases=1,Linecode=CABBTG02_4_1,Length=0.017000000,Units=km
new line.RML10107633 bus1=BBT108810.1.2.0,bus2=RML1060107633.1.2.0,Phases=2,Linecode=CABBTG05_4_2,Length=0.017000000,Units=km
new line.RML10107804 bus1=BBT336065.1.0,bus2=RML1060107804.1.0,Phases=1,Linecode=CABBTG01_4_1,Length=0.017000000,Units=km
new line.RML10107879 bus1=BBT393395.1.0,bus2=RML1060107879.1.0,Phases=1,Linecode=CABBTG01_4_1,Length=0.017000000,Units=km
new line.RML10108284 bus1=BBT148419809.1.2.0,bus2=RML1060108284.1.2.0,Phases=2,Linecode=CABBTG05_4_2,Length=0.017000000,Units=km
new line.RML10115128 bus1=BBT165289757.2.0,bus2=RML1060115128.2.0,Phases=1,Linecode=CABBTG02_4_1,Length=0.017000000,Units=km
new line.RML10115158 bus1=BBT3760780.1.2.0,bus2=RML1060115158.1.2.0,Phases=2,Linecode=CABBTG05_4_2,Length=0.017000000,Units=km
new line.RML10115222 bus1=BBT147730.1.2.0,bus2=RML1060115222.1.2.0,Phases=2,Linecode=CABBTG05_4_2,Length=0.017000000,Units=km
new line.RML10115400 bus1=BBT109370.2.0,bus2=RML1060115400.2.0,Phases=1,Linecode=CABBTG02_4_1,Length=0.017000000,Units=km
new line.RML10115585 bus1=BBT2973217.1.2.0,bus2=RML1060115585.1.2.0,Phases=2,Linecode=CABBTG05_4_2,Length=0.017000000,Units=km
new line.RML10115729 bus1=BBT337213.1.2.0,bus2=RML1060115729.1.2.0,Phases=2,Linecode=CABBTG05_4_2,Length=0.017000000,Units=km
new line.RML10115948 bus1=BBT100732.1.2.0,bus2=RML1060115948.1.2.0,Phases=2,Linecode=CABBTG05_4_2,Length=0.017000000,Units=km
new line.RML10116103 bus1=BBT3033886.1.2.0,bus2=RML1060116103.1.2.0,Phases=2,Linecode=CABBTG04_4_2,Length=0.017000000,Units=km
new line.RML10116134 bus1=BBT112686254.1.2.3.0,bus2=RML1060116134.1.2.3.0,Phases=3,Linecode=CABBTG06_4_3,Length=0.017000000,Units=km
new line.RML10116195 bus1=BBT89560.1.2.0,bus2=RML1060116195.1.2.0,Phases=2,Linecode=CABBTG04_4_2,Length=0.017000000,Units=km
new line.RML10116267 bus1=BBT393367.1.2.0,bus2=RML1060116267.1.2.0,Phases=2,Linecode=CABBTG05_4_2,Length=0.017000000,Units=km
new line.RML10117009 bus1=BBT336016.1.2.0,bus2=RML1060117009.1.2.0,Phases=2,Linecode=CABBTG05_4_2,Length=0.017000000,Units=km
new line.RML10117570 bus1=BBT3650887.1.0,bus2=RML1060117570.1.0,Phases=1,Linecode=CABBTG02_4_1,Length=0.017000000,Units=km
new line.RML10117889 bus1=BBT89490.1.2.3.0,bus2=RML1060117889.1.2.3.0,Phases=3,Linecode=CABBTG06_4_3,Length=0.017000000,Units=km
new line.RML10117921 bus1=BBT2863681.2.3.0,bus2=RML1060117921.2.3.0,Phases=2,Linecode=CABBTG05_4_2,Length=0.017000000,Units=km
new line.RML10117926 bus1=BBT109877042.1.0,bus2=RML1060117926.1.0,Phases=1,Linecode=CABBTG02_4_1,Length=0.017000000,Units=km
new line.RML10117931 bus1=BBT6008879.1.2.0,bus2=RML1060117931.1.2.0,Phases=2,Linecode=CABBTG05_4_2,Length=0.017000000,Units=km
new line.RML10118155 bus1=BBT5998771.1.2.0,bus2=RML1060118155.1.2.0,Phases=2,Linecode=CABBTG05_4_2,Length=0.017000000,Units=km
new line.RML10119597 bus1=BBT389216.1.2.3.0,bus2=RML1060119597.1.2.3.0,Phases=3,Linecode=CABBTG07_4_3,Length=0.017000000,Units=km
new line.RML10119719 bus1=BBT152756.1.2.0,bus2=RML1060119719.1.2.0,Phases=2,Linecode=CABBTG05_4_2,Length=0.017000000,Units=km
new line.RML10119951 bus1=BBT3033060.1.2.0,bus2=RML1060119951.1.2.0,Phases=2,Linecode=CABBTG05_4_2,Length=0.017000000,Units=km
new line.RML10132105 bus1=BBT89875.1.3.0,bus2=RML1060132105.1.3.0,Phases=2,Linecode=CABBTG05_4_2,Length=0.017000000,Units=km
new line.RML10133074 bus1=BBT149562036.1.2.0,bus2=RML1060133074.1.2.0,Phases=2,Linecode=CABBTG04_4_2,Length=0.017000000,Units=km
new line.RML10133164 bus1=BBT149572359.1.2.0,bus2=RML1060133164.1.2.0,Phases=2,Linecode=CABBTG04_4_2,Length=0.017000000,Units=km
new line.RML10134146 bus1=BBT3650768.1.2.0,bus2=RML1060134146.1.2.0,Phases=2,Linecode=CABBTG05_4_2,Length=0.017000000,Units=km
new line.RML10136388 bus1=BBT393745.1.2.0,bus2=RML1060136388.1.2.0,Phases=2,Linecode=CABBTG04_4_2,Length=0.017000000,Units=km
new line.RML10136422 bus1=BBT90715.1.2.3.0,bus2=RML1060136422.1.2.3.0,Phases=3,Linecode=CABBTG07_4_3,Length=0.017000000,Units=km
new line.RML10139188 bus1=BBT89252.1.2.0,bus2=RML1060139188.1.2.0,Phases=2,Linecode=CABBTG05_4_2,Length=0.017000000,Units=km
new line.RML10141850 bus1=BBT148940077.1.2.0,bus2=RML1060141850.1.2.0,Phases=2,Linecode=CABBTG05_4_2,Length=0.017000000,Units=km
new line.RML10141993 bus1=BBT151791385.1.2.0,bus2=RML1060141993.1.2.0,Phases=2,Linecode=CABBTG05_4_2,Length=0.017000000,Units=km
new line.RML10142381 bus1=BBT100753.1.2.0,bus2=RML1060142381.1.2.0,Phases=2,Linecode=CABBTG05_4_2,Length=0.017000000,Units=km
new line.RML10142413 bus1=BBT3033060.1.2.0,bus2=RML1060142413.1.2.0,Phases=2,Linecode=CABBTG05_4_2,Length=0.017000000,Units=km
new line.RML10142532 bus1=BBT111722.1.2.0,bus2=RML1060142532.1.2.0,Phases=2,Linecode=CABBTG05_4_2,Length=0.017000000,Units=km
new line.RML10143347 bus1=BBT44605934.1.2.0,bus2=RML1060143347.1.2.0,Phases=2,Linecode=CABBT811_4_2,Length=0.017000000,Units=km
new line.RML10143440 bus1=BBT401704.1.2.0,bus2=RML1060143440.1.2.0,Phases=2,Linecode=CABBT811_4_2,Length=0.017000000,Units=km
new line.RML10143760 bus1=BBT150597882.1.0,bus2=RML1060143760.1.0,Phases=1,Linecode=CABBTG02_4_1,Length=0.017000000,Units=km
new line.RML10143959 bus1=BBT3791384.1.2.3.0,bus2=RML1060143959.1.2.3.0,Phases=3,Linecode=CABBT809_4_3,Length=0.017000000,Units=km
new line.RML10144011 bus1=BBT150110.1.0,bus2=RML1060144011.1.0,Phases=1,Linecode=CABBTG02_4_1,Length=0.017000000,Units=km
new line.RML10144315 bus1=BBT393227.1.2.0,bus2=RML1060144315.1.2.0,Phases=2,Linecode=CABBTG05_4_2,Length=0.017000000,Units=km
new line.RML10144386 bus1=BBT3151843.1.2.0,bus2=RML1060144386.1.2.0,Phases=2,Linecode=CABBTG05_4_2,Length=0.017000000,Units=km
new line.RML10144412 bus1=BBT3151843.1.0,bus2=RML1060144412.1.0,Phases=1,Linecode=CABBTG02_4_1,Length=0.017000000,Units=km
new line.RML10145013 bus1=BBT2974442.1.2.0,bus2=RML1060145013.1.2.0,Phases=2,Linecode=CABBTG05_4_2,Length=0.017000000,Units=km
new line.RML10145221 bus1=BBT149280227.1.0,bus2=RML1060145221.1.0,Phases=1,Linecode=CABBTG02_4_1,Length=0.017000000,Units=km
new line.RML10145367 bus1=BBT109657.1.2.3.0,bus2=RML1060145367.1.2.3.0,Phases=3,Linecode=CABBTG12_4_3,Length=0.017000000,Units=km
new line.RML10145435 bus1=BBT124023706.1.2.0,bus2=RML1060145435.1.2.0,Phases=2,Linecode=CABBTG05_4_2,Length=0.017000000,Units=km
new line.RML10145439 bus1=BBT124023706.1.2.0,bus2=RML1060145439.1.2.0,Phases=2,Linecode=CABBTG05_4_2,Length=0.017000000,Units=km
new line.RML10145606 bus1=BBT3151836.2.0,bus2=RML1060145606.2.0,Phases=1,Linecode=CABBTG02_4_1,Length=0.017000000,Units=km
new line.RML10145641 bus1=BBT4582272.1.2.0,bus2=RML1060145641.1.2.0,Phases=2,Linecode=CABBTG05_4_2,Length=0.017000000,Units=km
new line.RML10145663 bus1=BBT289081.1.2.0,bus2=RML1060145663.1.2.0,Phases=2,Linecode=CABBTG05_4_2,Length=0.017000000,Units=km
new line.RML10145718 bus1=BBT3650684.1.2.0,bus2=RML1060145718.1.2.0,Phases=2,Linecode=CABBTG05_4_2,Length=0.017000000,Units=km
new line.RML10145724 bus1=BBT336016.2.0,bus2=RML1060145724.2.0,Phases=1,Linecode=CABBTG02_4_1,Length=0.017000000,Units=km
new line.RML10145734 bus1=BBT336016.1.0,bus2=RML1060145734.1.0,Phases=1,Linecode=CABBTG02_4_1,Length=0.017000000,Units=km
new line.RML10145814 bus1=BBT27209079.1.2.0,bus2=RML1060145814.1.2.0,Phases=2,Linecode=CABBTG04_4_2,Length=0.017000000,Units=km
new line.RML10145870 bus1=BBT335820.1.2.0,bus2=RML1060145870.1.2.0,Phases=2,Linecode=CABBTG05_4_2,Length=0.017000000,Units=km
new line.RML10158542 bus1=BBT3763055.1.0,bus2=RML1060158542.1.0,Phases=1,Linecode=CABBTG02_4_1,Length=0.017000000,Units=km
new line.RML10160158 bus1=BBT148940077.1.2.0,bus2=RML1060160158.1.2.0,Phases=2,Linecode=CABBTG05_4_2,Length=0.017000000,Units=km
new line.RML10160772 bus1=BBT5062276.2.0,bus2=RML1060160772.2.0,Phases=1,Linecode=CABBTG02_4_1,Length=0.017000000,Units=km
new line.RML10161044 bus1=BBT150179429.1.2.0,bus2=RML1060161044.1.2.0,Phases=2,Linecode=CABBTG05_4_2,Length=0.017000000,Units=km
new line.RML10161752 bus1=BBT97931073.2.0,bus2=RML1060161752.2.0,Phases=1,Linecode=CABBTG02_4_1,Length=0.017000000,Units=km
new line.RML10163660 bus1=BBT5465784.2.0,bus2=RML1060163660.2.0,Phases=1,Linecode=CABBTG02_4_1,Length=0.017000000,Units=km
new line.RML10165591 bus1=BBT3419117.1.0,bus2=RML1060165591.1.0,Phases=1,Linecode=CABBTG02_4_1,Length=0.017000000,Units=km
new line.RML10165917 bus1=BBT4014894.1.0,bus2=RML1060165917.1.0,Phases=1,Linecode=CABBTG02_4_1,Length=0.017000000,Units=km
new line.RML10166126 bus1=BBT401340.1.0,bus2=RML1060166126.1.0,Phases=1,Linecode=CABBTG02_4_1,Length=0.017000000,Units=km
new line.RML10166644 bus1=BBT5462368.1.2.0,bus2=RML1060166644.1.2.0,Phases=2,Linecode=CABBTG05_4_2,Length=0.017000000,Units=km
new line.RML10184461 bus1=BBT149410391.1.2.0,bus2=RML1060184461.1.2.0,Phases=2,Linecode=CABBTG05_4_2,Length=0.017000000,Units=km
new line.RML10187177 bus1=BBT150038148.1.2.0,bus2=RML1060187177.1.2.0,Phases=2,Linecode=CABBTG05_4_2,Length=0.017000000,Units=km
new line.RML10187487 bus1=BBT150038644.1.2.0,bus2=RML1060187487.1.2.0,Phases=2,Linecode=CABBTG04_4_2,Length=0.017000000,Units=km
new line.RML10187531 bus1=BBT151635007.1.2.0,bus2=RML1060187531.1.2.0,Phases=2,Linecode=CABBTG04_4_2,Length=0.017000000,Units=km
new line.RML10187547 bus1=BBT2961114.1.2.0,bus2=RML1060187547.1.2.0,Phases=2,Linecode=CABBTG05_4_2,Length=0.017000000,Units=km
new line.RML10187806 bus1=BBT149933909.1.2.0,bus2=RML1060187806.1.2.0,Phases=2,Linecode=CABBTG05_4_2,Length=0.017000000,Units=km
new line.RML10187919 bus1=BBT108573327.1.2.0,bus2=RML1060187919.1.2.0,Phases=2,Linecode=CABBTG05_4_2,Length=0.017000000,Units=km
new line.RML10188544 bus1=BBT6032280.2.0,bus2=RML1060188544.2.0,Phases=1,Linecode=CABBTG02_4_1,Length=0.017000000,Units=km
new line.RML10188668 bus1=BBT96270386.1.2.0,bus2=RML1060188668.1.2.0,Phases=2,Linecode=CABBTG05_4_2,Length=0.017000000,Units=km
new line.RML10188754 bus1=BBT149737953.1.2.0,bus2=RML1060188754.1.2.0,Phases=2,Linecode=CABBTG05_4_2,Length=0.017000000,Units=km
new line.RML10188960 bus1=BBT89931.1.2.0,bus2=RML1060188960.1.2.0,Phases=2,Linecode=CABBTG05_4_2,Length=0.017000000,Units=km
new line.RML10189012 bus1=BBT108553419.1.0,bus2=RML1060189012.1.0,Phases=1,Linecode=CABBTG02_4_1,Length=0.017000000,Units=km
new line.RML10190094 bus1=BBT148794181.1.0,bus2=RML1060190094.1.0,Phases=1,Linecode=CABBTG01_4_1,Length=0.017000000,Units=km
new line.RML10190158 bus1=BBT89035.1.2.3.0,bus2=RML1060190158.1.2.3.0,Phases=3,Linecode=CABBTG06_4_3,Length=0.017000000,Units=km
new line.RML10190249 bus1=BBT96203039.3.0,bus2=RML1060190249.3.0,Phases=1,Linecode=CABBTG01_4_1,Length=0.017000000,Units=km
new line.RML10191794 bus1=BBT109181.1.2.0,bus2=RML1060191794.1.2.0,Phases=2,Linecode=CABBTG04_4_2,Length=0.017000000,Units=km
new line.RML10202724 bus1=BBT2896427.1.2.3.0,bus2=RML1060202724.1.2.3.0,Phases=3,Linecode=CABBTG07_4_3,Length=0.017000000,Units=km
new line.RML10202881 bus1=BBT88174.2.0,bus2=RML1060202881.2.0,Phases=1,Linecode=CABBTG02_4_1,Length=0.017000000,Units=km
new line.RML10202890 bus1=BBT3151759.1.0,bus2=RML1060202890.1.0,Phases=1,Linecode=CABBTG02_4_1,Length=0.017000000,Units=km
new line.RML10202949 bus1=BBT109370.1.2.0,bus2=RML1060202949.1.2.0,Phases=2,Linecode=CABBTG05_4_2,Length=0.017000000,Units=km
new line.RML10202967 bus1=BBT3033060.2.0,bus2=RML1060202967.2.0,Phases=1,Linecode=CABBTG02_4_1,Length=0.017000000,Units=km
new line.RML10202970 bus1=BBT108957.1.2.0,bus2=RML1060202970.1.2.0,Phases=2,Linecode=CABBTG05_4_2,Length=0.017000000,Units=km
new line.RML10202975 bus1=BBT4443763.1.0,bus2=RML1060202975.1.0,Phases=1,Linecode=CABBTG02_4_1,Length=0.017000000,Units=km
new line.RML10203073 bus1=BBT393535.2.0,bus2=RML1060203073.2.0,Phases=1,Linecode=CABBTG02_4_1,Length=0.017000000,Units=km
new line.RML10203079 bus1=BBT91205.2.3.0,bus2=RML1060203079.2.3.0,Phases=2,Linecode=CABBTG05_4_2,Length=0.017000000,Units=km
new line.RML10203091 bus1=BBT150110970.1.2.0,bus2=RML1060203091.1.2.0,Phases=2,Linecode=CABBTG05_4_2,Length=0.017000000,Units=km
new line.RML10208318 bus1=BBT110567.1.0,bus2=RML1060208318.1.0,Phases=1,Linecode=CABBTG02_4_1,Length=0.017000000,Units=km
new line.RML10209433 bus1=BBT362945.1.0,bus2=RML1060209433.1.0,Phases=1,Linecode=CABBTG02_4_1,Length=0.017000000,Units=km
new line.RML10212015 bus1=BBT150396233.1.2.0,bus2=RML1060212015.1.2.0,Phases=2,Linecode=CABBTG05_4_2,Length=0.017000000,Units=km
new line.RML10212153 bus1=BBT150476354.1.2.0,bus2=RML1060212153.1.2.0,Phases=2,Linecode=CABBTG05_4_2,Length=0.017000000,Units=km
new line.RML10212475 bus1=BBT89623.1.2.0,bus2=RML1060212475.1.2.0,Phases=2,Linecode=CABBTG05_4_2,Length=0.017000000,Units=km
new line.RML10212503 bus1=BBT111057.1.0,bus2=RML1060212503.1.0,Phases=1,Linecode=CABBTG02_4_1,Length=0.017000000,Units=km
new line.RML10212580 bus1=BBT90393.1.2.3.0,bus2=RML1060212580.1.2.3.0,Phases=3,Linecode=CABBTG06_4_3,Length=0.017000000,Units=km
new line.RML10212877 bus1=BBT108553419.2.0,bus2=RML1060212877.2.0,Phases=1,Linecode=CABBTG02_4_1,Length=0.017000000,Units=km
new line.RML10213014 bus1=BBT108943.1.2.0,bus2=RML1060213014.1.2.0,Phases=2,Linecode=CABBTG05_4_2,Length=0.017000000,Units=km
new line.RML10213056 bus1=BBT2846818.1.2.0,bus2=RML1060213056.1.2.0,Phases=2,Linecode=CABBTG05_4_2,Length=0.017000000,Units=km
new line.RML10213059 bus1=BBT2846818.1.2.0,bus2=RML1060213059.1.2.0,Phases=2,Linecode=CABBTG05_4_2,Length=0.017000000,Units=km
new line.RML10213179 bus1=BBT393493.1.0,bus2=RML1060213179.1.0,Phases=1,Linecode=CABBTG02_4_1,Length=0.017000000,Units=km
new line.RML10213271 bus1=BBT107627.1.2.0,bus2=RML1060213271.1.2.0,Phases=2,Linecode=CABBTG05_4_2,Length=0.017000000,Units=km
new line.RML10213838 bus1=BBT336814.1.2.0,bus2=RML1060213838.1.2.0,Phases=2,Linecode=CABBTG05_4_2,Length=0.017000000,Units=km
new line.RML10213986 bus1=BBT3151829.1.2.0,bus2=RML1060213986.1.2.0,Phases=2,Linecode=CABBTG13_4_2,Length=0.017000000,Units=km
new line.RML10214021 bus1=BBT27172931.1.0,bus2=RML1060214021.1.0,Phases=1,Linecode=CABBTG02_4_1,Length=0.017000000,Units=km
new line.RML10214026 bus1=BBT27172931.1.2.0,bus2=RML1060214026.1.2.0,Phases=2,Linecode=CABBTG05_4_2,Length=0.017000000,Units=km
new line.RML10220728 bus1=BBT150474410.1.2.0,bus2=RML1060220728.1.2.0,Phases=2,Linecode=CABBTG05_4_2,Length=0.017000000,Units=km
new line.RML10220828 bus1=BBT4940357.1.0,bus2=RML1060220828.1.0,Phases=1,Linecode=CABBTG02_4_1,Length=0.017000000,Units=km
new line.RML10221374 bus1=BBT149277635.2.0,bus2=RML1060221374.2.0,Phases=1,Linecode=CABBTG02_4_1,Length=0.017000000,Units=km
new line.RML10234220 bus1=BBT150905264.1.0,bus2=RML1060234220.1.0,Phases=1,Linecode=CABBTG02_4_1,Length=0.017000000,Units=km
new line.RML10235065 bus1=BBT89553.1.2.3.0,bus2=RML1060235065.1.2.3.0,Phases=3,Linecode=CABBTG06_4_3,Length=0.017000000,Units=km
new line.RML10235228 bus1=BBT96279402.1.0,bus2=RML1060235228.1.0,Phases=1,Linecode=CABBTG02_4_1,Length=0.017000000,Units=km
new line.RML10236901 bus1=BBT90981.1.2.3.0,bus2=RML1060236901.1.2.3.0,Phases=3,Linecode=CABBTG07_4_3,Length=0.017000000,Units=km
new line.RML10236993 bus1=BBT150597882.1.0,bus2=RML1060236993.1.0,Phases=1,Linecode=CABBTG02_4_1,Length=0.017000000,Units=km
new line.RML10239068 bus1=BBT27172938.1.0,bus2=RML1060239068.1.0,Phases=1,Linecode=CABBTG02_4_1,Length=0.017000000,Units=km
new line.RML10239085 bus1=BBT337052.1.0,bus2=RML1060239085.1.0,Phases=1,Linecode=CABBTG02_4_1,Length=0.017000000,Units=km
new line.RML10247889 bus1=BBT151018041.1.0,bus2=RML1060247889.1.0,Phases=1,Linecode=CABBTG02_4_1,Length=0.017000000,Units=km
new line.RML10248630 bus1=BBT150476771.1.2.0,bus2=RML1060248630.1.2.0,Phases=2,Linecode=CABBTG05_4_2,Length=0.017000000,Units=km
new line.RML10252264 bus1=BBT3033809.1.2.0,bus2=RML1060252264.1.2.0,Phases=2,Linecode=CABBTG05_4_2,Length=0.017000000,Units=km
new line.RML10252342 bus1=BBT27209079.2.0,bus2=RML1060252342.2.0,Phases=1,Linecode=CABBTG02_4_1,Length=0.017000000,Units=km
new line.RML10252489 bus1=BBT96254307.2.0,bus2=RML1060252489.2.0,Phases=1,Linecode=CABBTG02_4_1,Length=0.017000000,Units=km
new line.RML10252493 bus1=BBT335771.1.2.0,bus2=RML1060252493.1.2.0,Phases=2,Linecode=CABBTG05_4_2,Length=0.017000000,Units=km
new line.RML10252541 bus1=BBT3034012.2.0,bus2=RML1060252541.2.0,Phases=1,Linecode=CABBTG02_4_1,Length=0.017000000,Units=km
new line.RML10252559 bus1=BBT3033886.1.2.3.0,bus2=RML1060252559.1.2.3.0,Phases=3,Linecode=CABBTG06_4_3,Length=0.017000000,Units=km
new line.RML10258552 bus1=BBT109433.2.0,bus2=RML1060258552.2.0,Phases=1,Linecode=CABBTG02_4_1,Length=0.017000000,Units=km
new line.RML10258556 bus1=BBT156130.1.0,bus2=RML1060258556.1.0,Phases=1,Linecode=CABBTG01_4_1,Length=0.017000000,Units=km
new line.RML10259543 bus1=BBT264350.1.0,bus2=RML1060259543.1.0,Phases=1,Linecode=CABBTG02_4_1,Length=0.017000000,Units=km
new line.RML10259842 bus1=BBT157096.2.0,bus2=RML1060259842.2.0,Phases=1,Linecode=CABBTG02_4_1,Length=0.017000000,Units=km
new line.RML10259875 bus1=BBT7678722.1.2.3.0,bus2=RML1060259875.1.2.3.0,Phases=3,Linecode=CABBTG07_4_3,Length=0.017000000,Units=km
new line.RML10260974 bus1=BBT97768491.1.2.0,bus2=RML1060260974.1.2.0,Phases=2,Linecode=CABBTG05_4_2,Length=0.017000000,Units=km
new line.RML10260976 bus1=BBT97768491.1.2.0,bus2=RML1060260976.1.2.0,Phases=2,Linecode=CABBTG05_4_2,Length=0.017000000,Units=km
new line.RML10268123 bus1=BBT151464507.1.2.0,bus2=RML1060268123.1.2.0,Phases=2,Linecode=CABBTG05_4_2,Length=0.017000000,Units=km
new line.RML10268362 bus1=BBT362749.1.2.0,bus2=RML1060268362.1.2.0,Phases=2,Linecode=CABBTG05_4_2,Length=0.017000000,Units=km
new line.RML10268387 bus1=BBT393514.3.0,bus2=RML1060268387.3.0,Phases=1,Linecode=CABBTG01_4_1,Length=0.017000000,Units=km
new line.RML10268528 bus1=BBT111463.1.0,bus2=RML1060268528.1.0,Phases=1,Linecode=CABBTG02_4_1,Length=0.017000000,Units=km
new line.RML10274785 bus1=BBT109902.1.2.0,bus2=RML1060274785.1.2.0,Phases=2,Linecode=CABBTG05_4_2,Length=0.017000000,Units=km
new line.RML10277935 bus1=BBT412148.1.2.0,bus2=RML1060277935.1.2.0,Phases=2,Linecode=CABBT811_4_2,Length=0.017000000,Units=km
new line.RML10278135 bus1=BBT156116.1.0,bus2=RML1060278135.1.0,Phases=1,Linecode=CABBTG02_4_1,Length=0.017000000,Units=km
new line.RML10278233 bus1=BBT4422147.1.2.0,bus2=RML1060278233.1.2.0,Phases=2,Linecode=CABBTG05_4_2,Length=0.017000000,Units=km
new line.RML10278249 bus1=BBT146232.1.2.0,bus2=RML1060278249.1.2.0,Phases=2,Linecode=CABBTG05_4_2,Length=0.017000000,Units=km
new line.RML10278778 bus1=BBT91387.2.0,bus2=RML1060278778.2.0,Phases=1,Linecode=CABBTG02_4_1,Length=0.017000000,Units=km
new line.RML10280681 bus1=BBT3650691.1.2.0,bus2=RML1060280681.1.2.0,Phases=2,Linecode=CABBTG05_4_2,Length=0.017000000,Units=km
new line.RML10283375 bus1=BBT3760395.1.2.0,bus2=RML1060283375.1.2.0,Phases=2,Linecode=CABBTG05_4_2,Length=0.017000000,Units=km
new line.RML10287089 bus1=BBT4014894.1.2.0,bus2=RML1060287089.1.2.0,Phases=2,Linecode=CABBTG05_4_2,Length=0.017000000,Units=km
new line.RML10287276 bus1=BBT337052.1.2.0,bus2=RML1060287276.1.2.0,Phases=2,Linecode=CABBTG05_4_2,Length=0.017000000,Units=km
new line.RML10287297 bus1=BBT97776821.1.2.0,bus2=RML1060287297.1.2.0,Phases=2,Linecode=CABBTG05_4_2,Length=0.017000000,Units=km
new line.RML10287302 bus1=BBT27172826.1.2.0,bus2=RML1060287302.1.2.0,Phases=2,Linecode=CABBTG05_4_2,Length=0.017000000,Units=km
new line.RML10287312 bus1=BBT27172938.1.2.0,bus2=RML1060287312.1.2.0,Phases=2,Linecode=CABBTG05_4_2,Length=0.017000000,Units=km
new line.RML10288428 bus1=BBT7195036.1.2.0,bus2=RML1060288428.1.2.0,Phases=2,Linecode=CABBTG05_4_2,Length=0.017000000,Units=km
new line.RML10289749 bus1=BBT111323.1.2.0,bus2=RML1060289749.1.2.0,Phases=2,Linecode=CABBTG04_4_2,Length=0.017000000,Units=km
new line.RML10289787 bus1=BBT109531.1.2.0,bus2=RML1060289787.1.2.0,Phases=2,Linecode=CABBTG04_4_2,Length=0.017000000,Units=km
new line.RML10290440 bus1=BBT111106.1.0,bus2=RML1060290440.1.0,Phases=1,Linecode=CABBTG02_4_1,Length=0.017000000,Units=km
new line.RML10290471 bus1=BBT110693.1.0,bus2=RML1060290471.1.0,Phases=1,Linecode=CABBTG02_4_1,Length=0.017000000,Units=km
new line.RML10290474 bus1=BBT109300.2.0,bus2=RML1060290474.2.0,Phases=1,Linecode=CABBTG02_4_1,Length=0.017000000,Units=km
new line.RML10295064 bus1=BBT90673.1.2.0,bus2=RML1060295064.1.2.0,Phases=2,Linecode=CABBTG05_4_2,Length=0.017000000,Units=km
new line.RML10295185 bus1=BBT124023706.2.0,bus2=RML1060295185.2.0,Phases=1,Linecode=CABBTG02_4_1,Length=0.017000000,Units=km
new line.RML10296261 bus1=BBT2917378.1.2.0,bus2=RML1060296261.1.2.0,Phases=2,Linecode=CABBTG05_4_2,Length=0.017000000,Units=km
new line.RML10296336 bus1=BBT27172938.1.2.0,bus2=RML1060296336.1.2.0,Phases=2,Linecode=CABBTG05_4_2,Length=0.017000000,Units=km
new line.RML10296390 bus1=BBT4439738.1.0,bus2=RML1060296390.1.0,Phases=1,Linecode=CABBT816_4_1,Length=0.017000000,Units=km