new load.3009015299M1 bus1=BMT127259253.1.2.3.0,Phases=3,kv=13.8,kW=19.68566,pf=0.92,Vminpu=0.93,Vmaxpu=1.5,model=8,zipv=[0.5,0,0.5,1,0,0,0],daily=A4-2,status=variable
new load.3009017003M1 bus1=BMT166643075.1.2.3.0,Phases=3,kv=13.8,kW=40.11596,pf=0.92,Vminpu=0.93,Vmaxpu=1.5,model=8,zipv=[0.5,0,0.5,1,0,0,0],daily=A4-1,status=variable
new load.3011316263M1 bus1=BMT127271489.1.2.3.0,Phases=3,kv=13.8,kW=61.07596,pf=0.92,Vminpu=0.93,Vmaxpu=1.5,model=8,zipv=[0.5,0,0.5,1,0,0,0],daily=A4-3,status=variable
