new transformer.TRF_1379135 Phases=3,Windings=2,Buses=[BMT179987636.1.2.3 136758890.1.2.3.0],Conns=[delta,wye],kvs=[13.800000000,0.220000000],kvas=[45.000000000 45.000000000],Taps=[1,1.000000000],XHL=3.700000000,%loadloss=1.520000000,%noloadloss=0.377777000 !378173
new transformer.TRF_1379142 Phases=3,Windings=2,Buses=[BMT179987637.1.2.3 136759457.1.2.3.0],Conns=[delta,wye],kvs=[13.800000000,0.220000000],kvas=[45.000000000 45.000000000],Taps=[1,1.000000000],XHL=3.700000000,%loadloss=1.520000000,%noloadloss=0.377777000 !378174
new transformer.TRF_1379149 Phases=3,Windings=2,Buses=[BMT179987646.1.2.3 136766156.1.2.3.0],Conns=[delta,wye],kvs=[13.800000000,0.220000000],kvas=[45.000000000 45.000000000],Taps=[1,1.000000000],XHL=3.700000000,%loadloss=1.520000000,%noloadloss=0.377777000 !378178
new transformer.TRF_1379156 Phases=3,Windings=2,Buses=[BMT179987647.1.2.3 136770958.1.2.3.0],Conns=[delta,wye],kvs=[13.800000000,0.220000000],kvas=[45.000000000 45.000000000],Taps=[1,1.000000000],XHL=3.700000000,%loadloss=1.520000000,%noloadloss=0.377777000 !378170
new transformer.TRF_1379254 Phases=3,Windings=2,Buses=[BMT179987648.1.2.3 136791132.1.2.3.0],Conns=[delta,wye],kvs=[13.800000000,0.220000000],kvas=[45.000000000 45.000000000],Taps=[1,1.000000000],XHL=3.700000000,%loadloss=1.520000000,%noloadloss=0.377777000 !378172
new transformer.TRF_1379317 Phases=3,Windings=2,Buses=[BMT179987649.1.2.3 136801268.1.2.3.0],Conns=[delta,wye],kvs=[13.800000000,0.220000000],kvas=[45.000000000 45.000000000],Taps=[1,1.000000000],XHL=3.700000000,%loadloss=1.520000000,%noloadloss=0.377777000 !378171
new transformer.TRF_1379366 Phases=3,Windings=2,Buses=[BMT179987650.1.2.3 136806084.1.2.3.0],Conns=[delta,wye],kvs=[13.800000000,0.220000000],kvas=[45.000000000 45.000000000],Taps=[1,1.000000000],XHL=3.700000000,%loadloss=1.520000000,%noloadloss=0.377777000 !378176
new transformer.TRF_1379394 Phases=3,Windings=2,Buses=[BMT179987724.1.2.3 136810795.1.2.3.0],Conns=[delta,wye],kvs=[13.800000000,0.220000000],kvas=[45.000000000 45.000000000],Taps=[1,1.000000000],XHL=3.700000000,%loadloss=1.520000000,%noloadloss=0.377777000 !378168
new transformer.TRF_1379590 Phases=3,Windings=2,Buses=[BMT182101769.1.2.3 136850408.1.2.3.0],Conns=[delta,wye],kvs=[13.800000000,0.220000000],kvas=[45.000000000 45.000000000],Taps=[1,1.000000000],XHL=3.700000000,%loadloss=1.520000000,%noloadloss=0.377777000 !378169
new transformer.TRF_1379674 Phases=3,Windings=2,Buses=[BMT182101771.1.2.3 136875216.1.2.3.0],Conns=[delta,wye],kvs=[13.800000000,0.220000000],kvas=[45.000000000 45.000000000],Taps=[1,1.000000000],XHL=3.700000000,%loadloss=1.520000000,%noloadloss=0.377777000 !378177
new transformer.TRF_1379688 Phases=3,Windings=2,Buses=[BMT179987726.1.2.3 136877358.1.2.3.0],Conns=[delta,wye],kvs=[13.800000000,0.220000000],kvas=[45.000000000 45.000000000],Taps=[1,1.000000000],XHL=3.700000000,%loadloss=1.520000000,%noloadloss=0.377777000 !378175
new transformer.TRF_1427856A Phases=1,Windings=3,Buses=[BMT179987578.3 156752207.1.0 156752207.0.2],Conns=[wye wye wye],kvs=[7.967 0.12 0.12],kvas=[15.000000000 15.000000000 15.000000000],Taps=[1,1.000000000,1.000000000],XHL=1.921000000,XHT=1.921000000,XLT=1.537000000,%loadloss=1.600000000,%noloadloss=0.400000000 !395038
new transformer.TRF_1518761 Phases=3,Windings=2,Buses=[BMT179220131.1.2.3 176315041.1.2.3.0],Conns=[delta,wye],kvs=[13.800000000,0.220000000],kvas=[75.000000000 75.000000000],Taps=[1,1.000000000],XHL=3.770000000,%loadloss=1.340000000,%noloadloss=0.340000000 !160676
new transformer.TRF_1519167 Phases=3,Windings=2,Buses=[BMT182068945.1.2.3 176406848.1.2.3.0],Conns=[delta,wye],kvs=[13.800000000,0.220000000],kvas=[45.000000000 45.000000000],Taps=[1,1.000000000],XHL=3.700000000,%loadloss=1.520000000,%noloadloss=0.377777000 !413114
new transformer.TRF_1519321A Phases=1,Windings=3,Buses=[BMT179987840.1 176434138.1.0 176434138.0.2],Conns=[wye wye wye],kvs=[7.967 0.12 0.12],kvas=[10.000000000 10.000000000 10.000000000],Taps=[1,1.000000000,1.000000000],XHL=1.735000000,XHT=1.735000000,XLT=1.388000000,%loadloss=1.800000000,%noloadloss=0.450000000 !486419
new transformer.TRF_1532695A Phases=1,Windings=3,Buses=[BMT179987748.1 178967652.1.0 178967652.0.2],Conns=[wye wye wye],kvs=[7.967 0.12 0.12],kvas=[10.000000000 10.000000000 10.000000000],Taps=[1,1.000000000,1.000000000],XHL=1.735000000,XHT=1.735000000,XLT=1.388000000,%loadloss=1.800000000,%noloadloss=0.450000000 !500297
new transformer.TRF_1532815A Phases=1,Windings=3,Buses=[BMT179987550.1 178992911.1.0 178992911.0.2],Conns=[wye wye wye],kvs=[7.967 0.12 0.12],kvas=[25.000000000 25.000000000 25.000000000],Taps=[1,1.000000000,1.000000000],XHL=2.058000000,XHT=2.058000000,XLT=1.646000000,%loadloss=1.420000000,%noloadloss=0.320000000 !338949
new transformer.TRF_1532819A Phases=1,Windings=3,Buses=[BMT179987551.1 178993214.1.0 178993214.0.2],Conns=[wye wye wye],kvs=[7.967 0.12 0.12],kvas=[35.000000000 35.000000000 35.000000000],Taps=[1,1.000000000,1.000000000],XHL=2.139000000,XHT=2.139000000,XLT=1.712000000,%loadloss=1.293000000,%noloadloss=0.342857000 !318546
new transformer.TRF_1539736 Phases=3,Windings=2,Buses=[BMT180412971.1.2.3 180412904.1.2.3.0],Conns=[delta,wye],kvs=[13.800000000,0.220000000],kvas=[300.000000000 300.000000000],Taps=[1,1.000000000],XHL=4.900000000,%loadloss=0.990000000,%noloadloss=0.233333000 !1466
new transformer.TRF_1552305 Phases=3,Windings=2,Buses=[BMT182021546.1.2.3 182021494.1.2.3.0],Conns=[delta,wye],kvs=[13.800000000,0.220000000],kvas=[45.000000000 45.000000000],Taps=[1,1.000000000],XHL=3.700000000,%loadloss=1.520000000,%noloadloss=0.377777000 !420377
new transformer.TRF_259001 Phases=3,Windings=2,Buses=[BMT179219913.1.2.3 2033172.1.2.3.0],Conns=[delta,wye],kvs=[13.800000000,0.220000000],kvas=[75.000000000 75.000000000],Taps=[1,1.000000000],XHL=3.770000000,%loadloss=1.340000000,%noloadloss=0.340000000 !11163
new transformer.TRF_259022 Phases=3,Windings=2,Buses=[BMT179219918.1.2.3 2033424.1.2.3.0],Conns=[delta,wye],kvs=[13.800000000,0.220000000],kvas=[75.000000000 75.000000000],Taps=[1,1.000000000],XHL=3.770000000,%loadloss=1.340000000,%noloadloss=0.340000000 !9932
new transformer.TRF_259029 Phases=3,Windings=2,Buses=[BMT179219955.1.2.3 2033550.1.2.3.0],Conns=[delta,wye],kvs=[13.800000000,0.220000000],kvas=[30.000000000 30.000000000],Taps=[1,1.000000000],XHL=3.640000000,%loadloss=1.670000000,%noloadloss=0.433333000 !4385
new transformer.TRF_259057 Phases=3,Windings=2,Buses=[BMT179219956.1.2.3 2033753.1.2.3.0],Conns=[delta,wye],kvs=[13.800000000,0.220000000],kvas=[75.000000000 75.000000000],Taps=[1,1.000000000],XHL=3.770000000,%loadloss=1.340000000,%noloadloss=0.340000000 !11513
new transformer.TRF_259078 Phases=3,Windings=2,Buses=[BMT179219972.1.2.3 2033935.1.2.3.0],Conns=[delta,wye],kvs=[13.800000000,0.220000000],kvas=[45.000000000 45.000000000],Taps=[1,1.000000000],XHL=3.700000000,%loadloss=1.520000000,%noloadloss=0.377777000 !60517
new transformer.TRF_259106 Phases=3,Windings=2,Buses=[BMT179219893.1.2.3 2034215.1.2.3.0],Conns=[delta,wye],kvs=[13.800000000,0.220000000],kvas=[45.000000000 45.000000000],Taps=[1,1.000000000],XHL=3.700000000,%loadloss=1.520000000,%noloadloss=0.377777000 !61727
new transformer.TRF_259127 Phases=3,Windings=2,Buses=[BMT179219950.1.2.3 2034404.1.2.3.0],Conns=[delta,wye],kvs=[13.800000000,0.220000000],kvas=[150.000000000 150.000000000],Taps=[1,1.000000000],XHL=3.840000000,%loadloss=1.130000000,%noloadloss=0.280000000 !25676
new transformer.TRF_259155 Phases=3,Windings=2,Buses=[BMT179219889.1.2.3 2034733.1.2.3.0],Conns=[delta,wye],kvs=[13.800000000,0.220000000],kvas=[75.000000000 75.000000000],Taps=[1,1.000000000],XHL=3.770000000,%loadloss=1.340000000,%noloadloss=0.340000000 !170422
new transformer.TRF_259183 Phases=3,Windings=2,Buses=[BMT179219945.1.2.3 2035048.1.2.3.0],Conns=[delta,wye],kvs=[13.800000000,0.220000000],kvas=[150.000000000 150.000000000],Taps=[1,1.000000000],XHL=3.840000000,%loadloss=1.130000000,%noloadloss=0.280000000 !25719
new transformer.TRF_1268122 Phases=3,Windings=2,Buses=[BMT179220552.1.2.3 81621605.1.2.3.0],Conns=[delta,wye],kvs=[13.800000000,0.220000000],kvas=[150.000000000 150.000000000],Taps=[1,1.000000000],XHL=3.840000000,%loadloss=1.130000000,%noloadloss=0.280000000 !252560
new transformer.TRF_1303388 Phases=3,Windings=2,Buses=[BMT179220530.1.2.3 81333254.1.2.3.0],Conns=[delta,wye],kvs=[13.800000000,0.220000000],kvas=[30.000000000 30.000000000],Taps=[1,1.000000000],XHL=3.640000000,%loadloss=1.670000000,%noloadloss=0.433333000 !30298
new transformer.TRF_1303416 Phases=3,Windings=2,Buses=[BMT179220531.1.2.3 81342123.1.2.3.0],Conns=[delta,wye],kvs=[13.800000000,0.220000000],kvas=[30.000000000 30.000000000],Taps=[1,1.000000000],XHL=3.640000000,%loadloss=1.670000000,%noloadloss=0.433333000 !17798
new transformer.TRF_1369279 Phases=3,Windings=2,Buses=[BMT181195716.1.2.3 130624944.1.2.3.0],Conns=[delta,wye],kvs=[13.800000000,0.220000000],kvas=[45.000000000 45.000000000],Taps=[1,1.000000000],XHL=3.700000000,%loadloss=1.520000000,%noloadloss=0.377777000 !379062
new transformer.TRF_1370007 Phases=3,Windings=2,Buses=[BMT179219947.1.2.3 131071145.1.2.3.0],Conns=[delta,wye],kvs=[13.800000000,0.220000000],kvas=[150.000000000 150.000000000],Taps=[1,1.000000000],XHL=3.840000000,%loadloss=1.130000000,%noloadloss=0.280000000 !253231
new transformer.TRF_1392554A Phases=1,Windings=3,Buses=[BMT179987811.1 148635553.1.0 148635553.0.2],Conns=[wye wye wye],kvs=[7.967 0.12 0.12],kvas=[10.000000000 10.000000000 10.000000000],Taps=[1,1.000000000,1.000000000],XHL=1.735000000,XHT=1.735000000,XLT=1.388000000,%loadloss=1.800000000,%noloadloss=0.450000000 !391421
new transformer.TRF_1410816 Phases=3,Windings=2,Buses=[BMT179220468.1.2.3 153025212.1.2.3.0],Conns=[delta,wye],kvs=[13.800000000,0.220000000],kvas=[300.000000000 300.000000000],Taps=[1,1.000000000],XHL=4.900000000,%loadloss=0.990000000,%noloadloss=0.233333000 !614
new transformer.TRF_1468661 Phases=3,Windings=2,Buses=[BMT179220440.1.2.3 166227792.1.2.3.0],Conns=[delta,wye],kvs=[13.800000000,0.220000000],kvas=[75.000000000 75.000000000],Taps=[1,1.000000000],XHL=3.770000000,%loadloss=1.340000000,%noloadloss=0.340000000 !180206
new transformer.TRF_1485759 Phases=3,Windings=2,Buses=[BMT179987449.1.2.3 169161859.1.2.3.0],Conns=[delta,wye],kvs=[13.800000000,0.220000000],kvas=[45.000000000 45.000000000],Taps=[1,1.000000000],XHL=3.700000000,%loadloss=1.520000000,%noloadloss=0.377777000 !403868
new transformer.TRF_1522000 Phases=3,Windings=2,Buses=[BMT180443817.1.2.3 176989865.1.2.3.0],Conns=[delta,wye],kvs=[13.800000000,0.220000000],kvas=[225.000000000 225.000000000],Taps=[1,1.000000000],XHL=4.890000000,%loadloss=1.060000000,%noloadloss=0.000000000 !336022
new transformer.TRF_258679 Phases=3,Windings=2,Buses=[BMT179219970.1.2.3 2029469.1.2.3.0],Conns=[delta,wye],kvs=[13.800000000,0.220000000],kvas=[100.000000000 100.000000000],Taps=[1,1.000000000],XHL=3.810000000,%loadloss=1.220000000,%noloadloss=0.335000000 !3620
new transformer.TRF_258791 Phases=3,Windings=2,Buses=[BMT179219899.1.2.3 2030904.1.2.3.0],Conns=[delta,wye],kvs=[13.800000000,0.220000000],kvas=[75.000000000 75.000000000],Taps=[1,1.000000000],XHL=3.770000000,%loadloss=1.340000000,%noloadloss=0.340000000 !3474
new transformer.TRF_258819 Phases=3,Windings=2,Buses=[BMT179219910.1.2.3 2031219.1.2.3.0],Conns=[delta,wye],kvs=[13.800000000,0.220000000],kvas=[75.000000000 75.000000000],Taps=[1,1.000000000],XHL=3.770000000,%loadloss=1.340000000,%noloadloss=0.340000000 !156398
new transformer.TRF_258861 Phases=3,Windings=2,Buses=[BMT179219930.1.2.3 2031632.1.2.3.0],Conns=[delta,wye],kvs=[13.800000000,0.220000000],kvas=[30.000000000 30.000000000],Taps=[1,1.000000000],XHL=3.640000000,%loadloss=1.670000000,%noloadloss=0.433333000 !32052
new transformer.TRF_258889 Phases=3,Windings=2,Buses=[BMT179219926.1.2.3 2031961.1.2.3.0],Conns=[delta,wye],kvs=[13.800000000,0.220000000],kvas=[100.000000000 100.000000000],Taps=[1,1.000000000],XHL=3.810000000,%loadloss=1.220000000,%noloadloss=0.335000000 !3370
new transformer.TRF_258945 Phases=3,Windings=2,Buses=[BMT179219922.1.2.3 2032507.1.2.3.0],Conns=[delta,wye],kvs=[13.800000000,0.220000000],kvas=[75.000000000 75.000000000],Taps=[1,1.000000000],XHL=3.770000000,%loadloss=1.340000000,%noloadloss=0.340000000 !53317
new transformer.TRF_258973 Phases=3,Windings=2,Buses=[BMT179219912.1.2.3 2032836.1.2.3.0],Conns=[delta,wye],kvs=[13.800000000,0.220000000],kvas=[75.000000000 75.000000000],Taps=[1,1.000000000],XHL=3.770000000,%loadloss=1.340000000,%noloadloss=0.340000000 !1293
new transformer.TRF_360347A Phases=1,Windings=3,Buses=[BMT179987609.2 2831263.1.0 2831263.0.2],Conns=[wye wye wye],kvs=[7.967 0.12 0.12],kvas=[15.000000000 15.000000000 15.000000000],Taps=[1,1.000000000,1.000000000],XHL=1.921000000,XHT=1.921000000,XLT=1.537000000,%loadloss=1.600000000,%noloadloss=0.400000000 !144952
new transformer.TRF_362692 Phases=3,Windings=2,Buses=[BMT179220027.1.2.3 2870659.1.2.3.0],Conns=[delta,wye],kvs=[13.800000000,0.220000000],kvas=[45.000000000 45.000000000],Taps=[1,1.000000000],XHL=3.700000000,%loadloss=1.520000000,%noloadloss=0.377777000 !66201
new transformer.TRF_362741 Phases=3,Windings=2,Buses=[BMT179220497.1.2.3 2871653.1.2.3.0],Conns=[delta,wye],kvs=[13.800000000,0.220000000],kvas=[75.000000000 75.000000000],Taps=[1,1.000000000],XHL=3.770000000,%loadloss=1.340000000,%noloadloss=0.340000000 !161535
new transformer.TRF_362762 Phases=3,Windings=2,Buses=[BMT179220491.1.2.3 2872017.1.2.3.0],Conns=[delta,wye],kvs=[13.800000000,0.220000000],kvas=[75.000000000 75.000000000],Taps=[1,1.000000000],XHL=3.770000000,%loadloss=1.340000000,%noloadloss=0.340000000 !184517
new transformer.TRF_362783 Phases=3,Windings=2,Buses=[BMT179220032.1.2.3 2872360.1.2.3.0],Conns=[delta,wye],kvs=[13.800000000,0.220000000],kvas=[45.000000000 45.000000000],Taps=[1,1.000000000],XHL=3.700000000,%loadloss=1.520000000,%noloadloss=0.377777000 !19423
new transformer.TRF_362811 Phases=3,Windings=2,Buses=[BMT179220525.1.2.3 2872780.1.2.3.0],Conns=[delta,wye],kvs=[13.800000000,0.220000000],kvas=[75.000000000 75.000000000],Taps=[1,1.000000000],XHL=3.770000000,%loadloss=1.340000000,%noloadloss=0.340000000 !27380
new transformer.TRF_362818 Phases=3,Windings=2,Buses=[BMT179220693.1.2.3 2872962.1.2.3.0],Conns=[delta,wye],kvs=[13.800000000,0.220000000],kvas=[75.000000000 75.000000000],Taps=[1,1.000000000],XHL=3.770000000,%loadloss=1.340000000,%noloadloss=0.340000000 !163840
new transformer.TRF_362832 Phases=3,Windings=2,Buses=[BMT181195708.1.2.3 2873305.1.2.3.0],Conns=[delta,wye],kvs=[13.800000000,0.220000000],kvas=[150.000000000 150.000000000],Taps=[1,1.000000000],XHL=3.840000000,%loadloss=1.130000000,%noloadloss=0.280000000 !261167
new transformer.TRF_464976 Phases=3,Windings=2,Buses=[BMT179220139.1.2.3 5235210.1.2.3.0],Conns=[delta,wye],kvs=[13.800000000,0.220000000],kvas=[75.000000000 75.000000000],Taps=[1,1.000000000],XHL=3.770000000,%loadloss=1.340000000,%noloadloss=0.000000000 !150731
new transformer.TRF_465060 Phases=3,Windings=2,Buses=[BMT179219303.1.2.3 5242035.1.2.3.0],Conns=[delta,wye],kvs=[13.800000000,0.220000000],kvas=[45.000000000 45.000000000],Taps=[1,1.000000000],XHL=3.700000000,%loadloss=1.520000000,%noloadloss=0.377777000 !408565
new transformer.TRF_465144 Phases=3,Windings=2,Buses=[BMT179987472.1.2.3 5250225.1.2.3.0],Conns=[delta,wye],kvs=[13.800000000,0.220000000],kvas=[45.000000000 45.000000000],Taps=[1,1.000000000],XHL=3.700000000,%loadloss=1.520000000,%noloadloss=0.377777000 !54688
new transformer.TRF_73473A Phases=1,Windings=3,Buses=[BMT179987791.1 745620.1.0 745620.0.2],Conns=[wye wye wye],kvs=[7.967 0.12 0.12],kvas=[10.000000000 10.000000000 10.000000000],Taps=[1,1.000000000,1.000000000],XHL=1.735000000,XHT=1.735000000,XLT=1.388000000,%loadloss=1.800000000,%noloadloss=0.450000000 !65310
new transformer.TRF_1272434 Phases=3,Windings=2,Buses=[BMT179220714.1.2.3 71178466.1.2.3.0],Conns=[delta,wye],kvs=[13.800000000,0.220000000],kvas=[75.000000000 75.000000000],Taps=[1,1.000000000],XHL=3.770000000,%loadloss=1.340000000,%noloadloss=0.340000000 !29771
new transformer.TRF_1272490 Phases=3,Windings=2,Buses=[BMT179220717.1.2.3 71186292.1.2.3.0],Conns=[delta,wye],kvs=[13.800000000,0.220000000],kvas=[75.000000000 75.000000000],Taps=[1,1.000000000],XHL=3.770000000,%loadloss=1.340000000,%noloadloss=0.340000000 !61047
new transformer.TRF_1273666A Phases=1,Windings=3,Buses=[BMT181772212.1 71698020.1.0 71698020.0.2],Conns=[wye wye wye],kvs=[7.967 0.12 0.12],kvas=[15.000000000 15.000000000 15.000000000],Taps=[1,1.000000000,1.000000000],XHL=1.921000000,XHT=1.921000000,XLT=1.537000000,%loadloss=1.600000000,%noloadloss=0.400000000 !375873
new transformer.TRF_1378204 Phases=3,Windings=2,Buses=[BMT183771981.1.2.3 136451226.1.2.3.0],Conns=[delta,wye],kvs=[13.800000000,0.220000000],kvas=[100.000000000 100.000000000],Taps=[1,1.000000000],XHL=3.810000000,%loadloss=1.220000000,%noloadloss=0.335000000 !27029
new transformer.TRF_1406692A Phases=1,Windings=3,Buses=[BMT179987594.3 152047878.1.0 152047878.0.2],Conns=[wye wye wye],kvs=[7.967 0.12 0.12],kvas=[15.000000000 15.000000000 15.000000000],Taps=[1,1.000000000,1.000000000],XHL=1.921000000,XHT=1.921000000,XLT=1.537000000,%loadloss=1.600000000,%noloadloss=0.400000000 !391474
new transformer.TRF_1440365A Phases=1,Windings=3,Buses=[BMT179997729.1 159267312.1.0 159267312.0.2],Conns=[wye wye wye],kvs=[7.967 0.12 0.12],kvas=[10.000000000 10.000000000 10.000000000],Taps=[1,1.000000000,1.000000000],XHL=1.735000000,XHT=1.735000000,XLT=1.388000000,%loadloss=1.800000000,%noloadloss=0.450000000 !424009
new transformer.TRF_1449401 Phases=3,Windings=2,Buses=[BMT180137788.1.2.3 161501427.1.2.3.0],Conns=[delta,wye],kvs=[13.800000000,0.220000000],kvas=[75.000000000 75.000000000],Taps=[1,1.000000000],XHL=3.770000000,%loadloss=1.340000000,%noloadloss=0.340000000 !178500
new transformer.TRF_1490413 Phases=3,Windings=2,Buses=[BMT179987457.1.2.3 170029373.1.2.3.0],Conns=[delta,wye],kvs=[13.800000000,0.220000000],kvas=[150.000000000 150.000000000],Taps=[1,1.000000000],XHL=3.840000000,%loadloss=1.130000000,%noloadloss=0.280000000 !258369
new transformer.TRF_1490561 Phases=3,Windings=2,Buses=[BMT179220574.1.2.3 170054124.1.2.3.0],Conns=[delta,wye],kvs=[13.800000000,0.220000000],kvas=[150.000000000 150.000000000],Taps=[1,1.000000000],XHL=3.840000000,%loadloss=1.130000000,%noloadloss=0.280000000 !261223
new transformer.TRF_1541865 Phases=3,Windings=2,Buses=[BMT180821231.1.2.3 180821232.1.2.3.0],Conns=[delta,wye],kvs=[13.800000000,0.220000000],kvas=[45.000000000 45.000000000],Taps=[1,1.000000000],XHL=3.700000000,%loadloss=1.520000000,%noloadloss=0.377777000 !397718
new transformer.TRF_1541922A Phases=1,Windings=3,Buses=[BMT181772206.1 180831089.1.0 180831089.0.2],Conns=[wye wye wye],kvs=[7.967 0.12 0.12],kvas=[35.000000000 35.000000000 35.000000000],Taps=[1,1.000000000,1.000000000],XHL=2.139000000,XHT=2.139000000,XLT=1.712000000,%loadloss=1.293000000,%noloadloss=0.342857000 !319847
new transformer.TRF_372429 Phases=3,Windings=2,Buses=[BMT179987471.1.2.3 3195088.1.2.3.0],Conns=[delta,wye],kvs=[13.800000000,0.220000000],kvas=[150.000000000 150.000000000],Taps=[1,1.000000000],XHL=3.840000000,%loadloss=1.130000000,%noloadloss=0.280000000 !27582
new transformer.TRF_380206A Phases=1,Windings=3,Buses=[BMT181772198.1 3377683.1.0 3377683.0.2],Conns=[wye wye wye],kvs=[7.967 0.12 0.12],kvas=[35.000000000 35.000000000 35.000000000],Taps=[1,1.000000000,1.000000000],XHL=2.139000000,XHT=2.139000000,XLT=1.712000000,%loadloss=1.293000000,%noloadloss=0.342857000 !293481
new transformer.TRF_401129 Phases=3,Windings=2,Buses=[BMT180821229.1.2.3 3618343.1.2.3.0],Conns=[delta,wye],kvs=[13.800000000,0.220000000],kvas=[75.000000000 75.000000000],Taps=[1,1.000000000],XHL=3.770000000,%loadloss=1.340000000,%noloadloss=0.340000000 !62536
new transformer.TRF_73410A Phases=1,Windings=3,Buses=[BMT179987788.1 744962.1.0 744962.0.2],Conns=[wye wye wye],kvs=[7.967 0.12 0.12],kvas=[5.000000000 5.000000000 5.000000000],Taps=[1,1.000000000,1.000000000],XHL=1.625000000,XHT=1.625000000,XLT=1.300000000,%loadloss=1.900000000,%noloadloss=0.600000000 !6211
new transformer.TRF_89013 Phases=3,Windings=2,Buses=[BMT179220045.1.2.3 867672.1.2.3.0],Conns=[delta,wye],kvs=[13.800000000,0.220000000],kvas=[30.000000000 30.000000000],Taps=[1,1.000000000],XHL=3.640000000,%loadloss=1.670000000,%noloadloss=0.433333000 !158263
new transformer.TRF_89020 Phases=3,Windings=2,Buses=[BMT179987915.1.2.3 867777.1.2.3.0],Conns=[delta,wye],kvs=[13.800000000,0.220000000],kvas=[45.000000000 45.000000000],Taps=[1,1.000000000],XHL=3.700000000,%loadloss=1.520000000,%noloadloss=0.377777000 !55039
new transformer.TRF_89027A Phases=1,Windings=3,Buses=[BMT179987690.3 867826.1.0 867826.0.2],Conns=[wye wye wye],kvs=[7.967 0.12 0.12],kvas=[35.000000000 35.000000000 35.000000000],Taps=[1,1.000000000,1.000000000],XHL=2.139000000,XHT=2.139000000,XLT=1.712000000,%loadloss=1.293000000,%noloadloss=0.342857000 !70235
new transformer.TRF_89034 Phases=3,Windings=2,Buses=[BMT183226152.1.2.3 867938.1.2.3.0],Conns=[delta,wye],kvs=[13.800000000,0.220000000],kvas=[75.000000000 75.000000000],Taps=[1,1.000000000],XHL=3.770000000,%loadloss=1.340000000,%noloadloss=0.340000000 !193289
new transformer.TRF_89041 Phases=3,Windings=2,Buses=[BMT179220047.1.2.3 868043.1.2.3.0],Conns=[delta,wye],kvs=[13.800000000,0.220000000],kvas=[45.000000000 45.000000000],Taps=[1,1.000000000],XHL=3.700000000,%loadloss=1.520000000,%noloadloss=0.377777000 !56485
new transformer.TRF_89048 Phases=3,Windings=2,Buses=[BMT179220055.1.2.3 868099.1.2.3.0],Conns=[delta,wye],kvs=[13.800000000,0.220000000],kvas=[45.000000000 45.000000000],Taps=[1,1.000000000],XHL=3.700000000,%loadloss=1.520000000,%noloadloss=0.377777000 !56492
new transformer.TRF_89055A Phases=1,Windings=3,Buses=[BMT180412975.1 868155.1.0 868155.0.2],Conns=[wye wye wye],kvs=[7.967 0.12 0.12],kvas=[35.000000000 35.000000000 35.000000000],Taps=[1,1.000000000,1.000000000],XHL=2.139000000,XHT=2.139000000,XLT=1.712000000,%loadloss=1.293000000,%noloadloss=0.342857000 !71620
new transformer.TRF_89062 Phases=3,Windings=2,Buses=[BMT182367225.1.2.3 868232.1.2.3.0],Conns=[delta,wye],kvs=[13.800000000,0.220000000],kvas=[75.000000000 75.000000000],Taps=[1,1.000000000],XHL=3.770000000,%loadloss=1.340000000,%noloadloss=0.340000000 !60131
new transformer.TRF_89069 Phases=3,Windings=2,Buses=[BMT179220507.1.2.3 868281.1.2.3.0],Conns=[delta,wye],kvs=[13.800000000,0.220000000],kvas=[75.000000000 75.000000000],Taps=[1,1.000000000],XHL=3.770000000,%loadloss=1.340000000,%noloadloss=0.340000000 !163422
new transformer.TRF_89076 Phases=3,Windings=2,Buses=[BMT179220522.1.2.3 868400.1.2.3.0],Conns=[delta,wye],kvs=[13.800000000,0.220000000],kvas=[75.000000000 75.000000000],Taps=[1,1.000000000],XHL=3.770000000,%loadloss=1.340000000,%noloadloss=0.340000000 !18183
new transformer.TRF_89083 Phases=3,Windings=2,Buses=[BMT179220687.1.2.3 868463.1.2.3.0],Conns=[delta,wye],kvs=[13.800000000,0.220000000],kvas=[225.000000000 225.000000000],Taps=[1,1.000000000],XHL=4.890000000,%loadloss=1.060000000,%noloadloss=0.000000000 !91057
new transformer.TRF_89090 Phases=3,Windings=2,Buses=[BMT179220518.1.2.3 868477.1.2.3.0],Conns=[delta,wye],kvs=[13.800000000,0.220000000],kvas=[30.000000000 30.000000000],Taps=[1,1.000000000],XHL=3.640000000,%loadloss=1.670000000,%noloadloss=0.433333000 !2705
new transformer.TRF_1103426 Phases=3,Windings=2,Buses=[BMT179220537.1.2.3 24017611.1.2.3.0],Conns=[delta,wye],kvs=[13.800000000,0.220000000],kvas=[45.000000000 45.000000000],Taps=[1,1.000000000],XHL=3.700000000,%loadloss=1.520000000,%noloadloss=0.377777000 !49025
new transformer.TRF_1154064 Phases=3,Windings=2,Buses=[BMT179220439.1.2.3 33551079.1.2.3.0],Conns=[delta,wye],kvs=[13.800000000,0.220000000],kvas=[75.000000000 75.000000000],Taps=[1,1.000000000],XHL=3.770000000,%loadloss=1.340000000,%noloadloss=0.340000000 !160790
new transformer.TRF_1154099 Phases=3,Windings=2,Buses=[BMT179220419.1.2.3 33554551.1.2.3.0],Conns=[delta,wye],kvs=[13.800000000,0.220000000],kvas=[75.000000000 75.000000000],Taps=[1,1.000000000],XHL=3.770000000,%loadloss=1.340000000,%noloadloss=0.000000000 !212490
new transformer.TRF_1236909 Phases=3,Windings=2,Buses=[BMT179220651.1.2.3 55128425.1.2.3.0],Conns=[delta,wye],kvs=[13.800000000,0.220000000],kvas=[75.000000000 75.000000000],Taps=[1,1.000000000],XHL=3.770000000,%loadloss=1.340000000,%noloadloss=0.340000000 !160966
new transformer.TRF_1237469 Phases=3,Windings=2,Buses=[BMT182367233.1.2.3 55480217.1.2.3.0],Conns=[delta,wye],kvs=[13.800000000,0.220000000],kvas=[45.000000000 45.000000000],Taps=[1,1.000000000],XHL=3.700000000,%loadloss=1.520000000,%noloadloss=0.377777000 !22974
new transformer.TRF_1265511 Phases=3,Windings=2,Buses=[BMT179220577.1.2.3 68092180.1.2.3.0],Conns=[delta,wye],kvs=[13.800000000,0.220000000],kvas=[30.000000000 30.000000000],Taps=[1,1.000000000],XHL=3.640000000,%loadloss=1.670000000,%noloadloss=0.433333000 !154336
new transformer.TRF_1265532 Phases=3,Windings=2,Buses=[BMT179220578.1.2.3 68106453.1.2.3.0],Conns=[delta,wye],kvs=[13.800000000,0.220000000],kvas=[45.000000000 45.000000000],Taps=[1,1.000000000],XHL=3.700000000,%loadloss=1.520000000,%noloadloss=0.377777000 !381240
new transformer.TRF_1391278 Phases=3,Windings=2,Buses=[BMT179220540.1.2.3 148353576.1.2.3.0],Conns=[delta,wye],kvs=[13.800000000,0.220000000],kvas=[300.000000000 300.000000000],Taps=[1,1.000000000],XHL=4.900000000,%loadloss=0.990000000,%noloadloss=0.000000000 !311496
new transformer.TRF_1391313 Phases=3,Windings=2,Buses=[BMT179220135.1.2.3 148362100.1.2.3.0],Conns=[delta,wye],kvs=[13.800000000,0.220000000],kvas=[45.000000000 45.000000000],Taps=[1,1.000000000],XHL=3.700000000,%loadloss=1.520000000,%noloadloss=0.377777000 !381867
new transformer.TRF_1391315 Phases=3,Windings=2,Buses=[BMT181195713.1.2.3 148362310.1.2.3.0],Conns=[delta,wye],kvs=[13.800000000,0.220000000],kvas=[45.000000000 45.000000000],Taps=[1,1.000000000],XHL=3.700000000,%loadloss=1.520000000,%noloadloss=0.377777000 !381856
new transformer.TRF_1416336 Phases=3,Windings=2,Buses=[BMT179987506.1.2.3 154245792.1.2.3.0],Conns=[delta,wye],kvs=[13.800000000,0.220000000],kvas=[45.000000000 45.000000000],Taps=[1,1.000000000],XHL=3.700000000,%loadloss=1.520000000,%noloadloss=0.377777000 !390779
new transformer.TRF_1509792 Phases=3,Windings=2,Buses=[BMT179219289.1.2.3 174141323.1.2.3.0],Conns=[delta,wye],kvs=[13.800000000,0.220000000],kvas=[45.000000000 45.000000000],Taps=[1,1.000000000],XHL=3.700000000,%loadloss=1.520000000,%noloadloss=0.377777000 !407907
new transformer.TRF_258063 Phases=3,Windings=2,Buses=[BMT179219969.1.2.3 2023351.1.2.3.0],Conns=[delta,wye],kvs=[13.800000000,0.220000000],kvas=[45.000000000 45.000000000],Taps=[1,1.000000000],XHL=3.700000000,%loadloss=1.520000000,%noloadloss=0.377777000 !10580
new transformer.TRF_458354 Phases=3,Windings=2,Buses=[BMT179987495.1.2.3 4782212.1.2.3.0],Conns=[delta,wye],kvs=[13.800000000,0.220000000],kvas=[100.000000000 100.000000000],Taps=[1,1.000000000],XHL=3.810000000,%loadloss=1.220000000,%noloadloss=0.000000000 !149582
new transformer.TRF_66242A Phases=1,Windings=3,Buses=[BMT179987591.3 680681.1.0 680681.0.2],Conns=[wye wye wye],kvs=[7.967 0.12 0.12],kvas=[15.000000000 15.000000000 15.000000000],Taps=[1,1.000000000,1.000000000],XHL=1.921000000,XHT=1.921000000,XLT=1.537000000,%loadloss=1.600000000,%noloadloss=0.400000000 !109810
new transformer.TRF_89307 Phases=3,Windings=2,Buses=[BMT179987634.1.2.3 870801.1.2.3.0],Conns=[delta,wye],kvs=[13.800000000,0.220000000],kvas=[300.000000000 300.000000000],Taps=[1,1.000000000],XHL=4.900000000,%loadloss=0.990000000,%noloadloss=0.000000000 !138977
new transformer.TRF_89384 Phases=3,Windings=2,Buses=[BMT179219302.1.2.3 871809.1.2.3.0],Conns=[delta,wye],kvs=[13.800000000,0.220000000],kvas=[30.000000000 30.000000000],Taps=[1,1.000000000],XHL=3.640000000,%loadloss=1.670000000,%noloadloss=0.433333000 !152681
new transformer.TRF_1361712A Phases=1,Windings=3,Buses=[BMT179987548.1 124839934.1.0 124839934.0.2],Conns=[wye wye wye],kvs=[7.967 0.12 0.12],kvas=[25.000000000 25.000000000 25.000000000],Taps=[1,1.000000000,1.000000000],XHL=2.058000000,XHT=2.058000000,XLT=1.646000000,%loadloss=1.420000000,%noloadloss=0.320000000 !344982
new transformer.TRF_1362097 Phases=3,Windings=2,Buses=[BMT179220685.1.2.3 125296516.1.2.3.0],Conns=[delta,wye],kvs=[13.800000000,0.220000000],kvas=[45.000000000 45.000000000],Taps=[1,1.000000000],XHL=3.700000000,%loadloss=1.520000000,%noloadloss=0.377777000 !377342
new transformer.TRF_1422663 Phases=3,Windings=2,Buses=[BMT179987442.1.2.3 155640175.1.2.3.0],Conns=[delta,wye],kvs=[13.800000000,0.220000000],kvas=[75.000000000 75.000000000],Taps=[1,1.000000000],XHL=3.770000000,%loadloss=1.340000000,%noloadloss=0.340000000 !173513
new transformer.TRF_1436265 Phases=3,Windings=2,Buses=[BMT179220570.1.2.3 158414706.1.2.3.0],Conns=[delta,wye],kvs=[13.800000000,0.220000000],kvas=[45.000000000 45.000000000],Taps=[1,1.000000000],XHL=3.700000000,%loadloss=1.520000000,%noloadloss=0.377777000 !394443
new transformer.TRF_1504829 Phases=3,Windings=2,Buses=[BMT179219253.1.2.3 173099099.1.2.3.0],Conns=[delta,wye],kvs=[13.800000000,0.220000000],kvas=[75.000000000 75.000000000],Taps=[1,1.000000000],XHL=3.770000000,%loadloss=1.340000000,%noloadloss=0.340000000 !185726
new transformer.TRF_378869A Phases=1,Windings=3,Buses=[BMT181772200.1 3356480.1.0 3356480.0.2],Conns=[wye wye wye],kvs=[7.967 0.12 0.12],kvas=[35.000000000 35.000000000 35.000000000],Taps=[1,1.000000000,1.000000000],XHL=2.139000000,XHT=2.139000000,XLT=1.712000000,%loadloss=1.293000000,%noloadloss=0.342857000 !304310
new transformer.TRF_465620A Phases=1,Windings=3,Buses=[BMT179987629.1 5310124.1.0 5310124.0.2],Conns=[wye wye wye],kvs=[7.967 0.12 0.12],kvas=[15.000000000 15.000000000 15.000000000],Taps=[1,1.000000000,1.000000000],XHL=1.921000000,XHT=1.921000000,XLT=1.537000000,%loadloss=1.600000000,%noloadloss=0.400000000 !376124