new load.BT_3000195935_M1 bus1=1001737772.1.2.3.0,Phases=3,kv=0.22,kW=10.83504,pf=0.92,Vminpu=0.92,Vmaxpu=1.5,model=8,zipv=[0.5,0,0.5,1,0,0,0],daily=COM1_10,status=variable
new load.BT_3000195936_M1 bus1=1001737772.1.2.3.0,Phases=3,kv=0.22,kW=0.46228,pf=0.92,Vminpu=0.92,Vmaxpu=1.5,model=8,zipv=[0.5,0,0.5,1,0,0,0],daily=COM1_10,status=variable
new load.BT_3000195937_M1 bus1=1007022198.1.2.3.0,Phases=3,kv=0.22,kW=61.69446,pf=0.92,Vminpu=0.92,Vmaxpu=1.5,model=8,zipv=[0.5,0,0.5,1,0,0,0],daily=comUGBT,status=variable
new load.BT_3000195938_M1 bus1=1001737352.1.2.3.0,Phases=3,kv=0.22,kW=38.326,pf=0.92,Vminpu=0.92,Vmaxpu=1.5,model=8,zipv=[0.5,0,0.5,1,0,0,0],daily=comUGBT,status=variable
new load.BT_3000195944_M1 bus1=1006650876.1.2.3.0,Phases=3,kv=0.22,kW=13.92414,pf=0.92,Vminpu=0.92,Vmaxpu=1.5,model=8,zipv=[0.5,0,0.5,1,0,0,0],daily=comUGBT,status=variable
new load.BT_3000195945_M1 bus1=1001737800.2.3.0,Phases=2,kv=0.22,kW=3.06026,pf=0.92,Vminpu=0.92,Vmaxpu=1.5,model=8,zipv=[0.5,0,0.5,1,0,0,0],daily=RES1_3,status=variable
new load.BT_3000195947_M1 bus1=1001736960.1.2.3.0,Phases=3,kv=0.22,kW=4.83496,pf=0.92,Vminpu=0.92,Vmaxpu=1.5,model=8,zipv=[0.5,0,0.5,1,0,0,0],daily=IND1_10,status=variable
new load.BT_3000195948_M1 bus1=1001737436.1.2.3.0,Phases=3,kv=0.22,kW=0.73212,pf=0.92,Vminpu=0.92,Vmaxpu=1.5,model=8,zipv=[0.5,0,0.5,1,0,0,0],daily=COM1_10,status=variable
new load.BT_3000195949_M1 bus1=1001737555.1.2.3.0,Phases=3,kv=0.22,kW=4.7155,pf=0.92,Vminpu=0.92,Vmaxpu=1.5,model=8,zipv=[0.5,0,0.5,1,0,0,0],daily=RES1_3,status=variable
new load.BT_3000195950_M1 bus1=1001737506.1.2.0,Phases=2,kv=0.22,kW=7.69446,pf=0.92,Vminpu=0.92,Vmaxpu=1.5,model=8,zipv=[0.5,0,0.5,1,0,0,0],daily=RES1_3,status=variable
new load.BT_3000195952_M1 bus1=1001737492.1.2.3.0,Phases=3,kv=0.22,kW=6.43542,pf=0.92,Vminpu=0.92,Vmaxpu=1.5,model=8,zipv=[0.5,0,0.5,1,0,0,0],daily=RES1_3,status=variable
new load.BT_3000195953_M1 bus1=1001738367.1.2.3.0,Phases=3,kv=0.22,kW=3.12992,pf=0.92,Vminpu=0.92,Vmaxpu=1.5,model=8,zipv=[0.5,0,0.5,1,0,0,0],daily=RES1_3,status=variable
new load.BT_3000195955_M1 bus1=1006589899.1.2.3.0,Phases=3,kv=0.22,kW=3.07514,pf=0.92,Vminpu=0.92,Vmaxpu=1.5,model=8,zipv=[0.5,0,0.5,1,0,0,0],daily=RES1_3,status=variable
new load.BT_3000195956_M1 bus1=1001738220.3.1.0,Phases=2,kv=0.22,kW=9.2449,pf=0.92,Vminpu=0.92,Vmaxpu=1.5,model=8,zipv=[0.5,0,0.5,1,0,0,0],daily=RES1_3,status=variable
new load.BT_3000195960_M1 bus1=1001738066.1.2.3.0,Phases=3,kv=0.22,kW=14.16516,pf=0.92,Vminpu=0.92,Vmaxpu=1.5,model=8,zipv=[0.5,0,0.5,1,0,0,0],daily=RES1_3,status=variable
new load.BT_3000195962_M1 bus1=1001738073.1.2.0,Phases=2,kv=0.22,kW=6.19656,pf=0.92,Vminpu=0.92,Vmaxpu=1.5,model=8,zipv=[0.5,0,0.5,1,0,0,0],daily=RES1_3,status=variable
new load.BT_3000195963_M1 bus1=1001738682.1.2.3.0,Phases=3,kv=0.22,kW=21.95916,pf=0.92,Vminpu=0.92,Vmaxpu=1.5,model=8,zipv=[0.5,0,0.5,1,0,0,0],daily=IND1_10,status=variable
new load.BT_3000195964_M1 bus1=1001740649.1.2.3.0,Phases=3,kv=0.22,kW=4.35724,pf=0.92,Vminpu=0.92,Vmaxpu=1.5,model=8,zipv=[0.5,0,0.5,1,0,0,0],daily=RES1_3,status=variable
new load.BT_3000195967_M1 bus1=1001737674.1.2.3.0,Phases=3,kv=0.22,kW=13.11354,pf=0.92,Vminpu=0.92,Vmaxpu=1.5,model=8,zipv=[0.5,0,0.5,1,0,0,0],daily=COM1_10,status=variable
new load.BT_3000195969_M1 bus1=1001742945.1.2.3.0,Phases=3,kv=0.22,kW=2.56392,pf=0.92,Vminpu=0.92,Vmaxpu=1.5,model=8,zipv=[0.5,0,0.5,1,0,0,0],daily=RES1_3,status=variable
new load.BT_3000195971_M1 bus1=1001737681.1.2.3.0,Phases=3,kv=0.22,kW=10.1168,pf=0.92,Vminpu=0.92,Vmaxpu=1.5,model=8,zipv=[0.5,0,0.5,1,0,0,0],daily=COM1_10,status=variable
new load.BT_3000195975_M1 bus1=1001737737.1.2.3.0,Phases=3,kv=0.22,kW=2.90312,pf=0.92,Vminpu=0.92,Vmaxpu=1.5,model=8,zipv=[0.5,0,0.5,1,0,0,0],daily=COM1_10,status=variable
new load.BT_3000195976_M1 bus1=1001737688.1.2.0,Phases=2,kv=0.22,kW=0.52248,pf=0.92,Vminpu=0.92,Vmaxpu=1.5,model=8,zipv=[0.5,0,0.5,1,0,0,0],daily=COM1_10,status=variable
new load.BT_3000195979_M1 bus1=1001738738.1.2.0,Phases=2,kv=0.22,kW=7.35968,pf=0.92,Vminpu=0.92,Vmaxpu=1.5,model=8,zipv=[0.5,0,0.5,1,0,0,0],daily=COM1_10,status=variable
new load.BT_3000195981_M1 bus1=1001739739.3.1.0,Phases=2,kv=0.22,kW=3.31182,pf=0.92,Vminpu=0.92,Vmaxpu=1.5,model=8,zipv=[0.5,0,0.5,1,0,0,0],daily=RES1_3,status=variable
new load.BT_3000195982_M1 bus1=1001737219.2.0,Phases=1,kv=0.127,kW=3.8875,pf=0.92,Vminpu=0.92,Vmaxpu=1.5,model=8,zipv=[0.5,0,0.5,1,0,0,0],daily=RES1_3,status=variable
new load.BT_3000195984_M1 bus1=1001737135.3.1.0,Phases=2,kv=0.22,kW=1.6371,pf=0.92,Vminpu=0.92,Vmaxpu=1.5,model=8,zipv=[0.5,0,0.5,1,0,0,0],daily=RES1_3,status=variable
new load.BT_3000195986_M1 bus1=1001737100.3.1.0,Phases=2,kv=0.22,kW=3.99624,pf=0.92,Vminpu=0.92,Vmaxpu=1.5,model=8,zipv=[0.5,0,0.5,1,0,0,0],daily=RES1_3,status=variable
new load.BT_3000195989_M1 bus1=1001737324.1.2.3.0,Phases=3,kv=0.22,kW=2.31922,pf=0.92,Vminpu=0.92,Vmaxpu=1.5,model=8,zipv=[0.5,0,0.5,1,0,0,0],daily=COM1_10,status=variable
new load.BT_3000195992_M1 bus1=1001737324.1.2.3.0,Phases=3,kv=0.22,kW=3.98518,pf=0.92,Vminpu=0.92,Vmaxpu=1.5,model=8,zipv=[0.5,0,0.5,1,0,0,0],daily=RES1_3,status=variable
new load.BT_3000195993_M1 bus1=1001522298.1.2.3.0,Phases=3,kv=0.22,kW=0.71084,pf=0.92,Vminpu=0.92,Vmaxpu=1.5,model=8,zipv=[0.5,0,0.5,1,0,0,0],daily=RES1_3,status=variable
new load.BT_3000195999_M1 bus1=1006346159.1.2.3.0,Phases=3,kv=0.22,kW=2.76742,pf=0.92,Vminpu=0.92,Vmaxpu=1.5,model=8,zipv=[0.5,0,0.5,1,0,0,0],daily=RES1_3,status=variable
new load.BT_3000196001_M1 bus1=1006475169.1.2.3.0,Phases=3,kv=0.22,kW=11.94904,pf=0.92,Vminpu=0.92,Vmaxpu=1.5,model=8,zipv=[0.5,0,0.5,1,0,0,0],daily=RES1_3,status=variable
new load.BT_3000196009_M1 bus1=1001742959.1.0,Phases=1,kv=0.127,kW=2.71362,pf=0.92,Vminpu=0.92,Vmaxpu=1.5,model=8,zipv=[0.5,0,0.5,1,0,0,0],daily=RES1_3,status=variable
new load.BT_3000196010_M1 bus1=1006074699.1.0,Phases=1,kv=0.127,kW=3.4643,pf=0.92,Vminpu=0.92,Vmaxpu=1.5,model=8,zipv=[0.5,0,0.5,1,0,0,0],daily=RES1_3,status=variable
new load.BT_3000196018_M1 bus1=1001739718.1.2.0,Phases=2,kv=0.22,kW=11.1816,pf=0.92,Vminpu=0.92,Vmaxpu=1.5,model=8,zipv=[0.5,0,0.5,1,0,0,0],daily=RES1_3,status=variable
new load.BT_3000196023_M1 bus1=1001737702.1.2.3.0,Phases=3,kv=0.22,kW=12.4344,pf=0.92,Vminpu=0.92,Vmaxpu=1.5,model=8,zipv=[0.5,0,0.5,1,0,0,0],daily=COM1_10,status=variable
new load.BT_3000196024_M1 bus1=1001740404.1.0,Phases=1,kv=0.127,kW=2.42834,pf=0.92,Vminpu=0.92,Vmaxpu=1.5,model=8,zipv=[0.5,0,0.5,1,0,0,0],daily=comUGBT,status=variable
new load.BT_3000196025_M1 bus1=1001743162.3.1.0,Phases=2,kv=0.22,kW=1.60704,pf=0.92,Vminpu=0.92,Vmaxpu=1.5,model=8,zipv=[0.5,0,0.5,1,0,0,0],daily=COM1_10,status=variable
new load.BT_3000196026_M1 bus1=1001740341.2.3.0,Phases=2,kv=0.22,kW=1.28782,pf=0.92,Vminpu=0.92,Vmaxpu=1.5,model=8,zipv=[0.5,0,0.5,1,0,0,0],daily=RES1_3,status=variable
new load.BT_3000196027_M1 bus1=1001742721.2.3.0,Phases=2,kv=0.22,kW=3.4861,pf=0.92,Vminpu=0.92,Vmaxpu=1.5,model=8,zipv=[0.5,0,0.5,1,0,0,0],daily=RES1_3,status=variable
new load.BT_3000196031_M1 bus1=1001740383.1.2.0,Phases=2,kv=0.22,kW=5.52702,pf=0.92,Vminpu=0.92,Vmaxpu=1.5,model=8,zipv=[0.5,0,0.5,1,0,0,0],daily=RES1_3,status=variable
new load.BT_3000196032_M1 bus1=1001742399.1.0,Phases=1,kv=0.127,kW=0.24874,pf=0.92,Vminpu=0.92,Vmaxpu=1.5,model=8,zipv=[0.5,0,0.5,1,0,0,0],daily=COM1_10,status=variable
new load.BT_3000196035_M1 bus1=1001739760.1.2.3.0,Phases=3,kv=0.22,kW=5.10416,pf=0.92,Vminpu=0.92,Vmaxpu=1.5,model=8,zipv=[0.5,0,0.5,1,0,0,0],daily=COM1_10,status=variable
new load.BT_3000196037_M1 bus1=1001742840.3.1.0,Phases=2,kv=0.22,kW=6.57244,pf=0.92,Vminpu=0.92,Vmaxpu=1.5,model=8,zipv=[0.5,0,0.5,1,0,0,0],daily=RES1_3,status=variable
new load.BT_3000196039_M1 bus1=1001740061.3.1.0,Phases=2,kv=0.22,kW=3.65328,pf=0.92,Vminpu=0.92,Vmaxpu=1.5,model=8,zipv=[0.5,0,0.5,1,0,0,0],daily=RES1_3,status=variable
new load.BT_3000196044_M1 bus1=1001738815.1.2.3.0,Phases=3,kv=0.22,kW=2.73952,pf=0.92,Vminpu=0.92,Vmaxpu=1.5,model=8,zipv=[0.5,0,0.5,1,0,0,0],daily=COM1_10,status=variable
new load.BT_3000196052_M1 bus1=1001742931.1.2.3.0,Phases=3,kv=0.22,kW=3.03684,pf=0.92,Vminpu=0.92,Vmaxpu=1.5,model=8,zipv=[0.5,0,0.5,1,0,0,0],daily=RES1_3,status=variable
new load.BT_3000196053_M1 bus1=1001742826.1.2.0,Phases=2,kv=0.22,kW=2.77468,pf=0.92,Vminpu=0.92,Vmaxpu=1.5,model=8,zipv=[0.5,0,0.5,1,0,0,0],daily=RES1_3,status=variable
new load.BT_3000196054_M1 bus1=1001737646.1.0,Phases=1,kv=0.127,kW=0.92496,pf=0.92,Vminpu=0.92,Vmaxpu=1.5,model=8,zipv=[0.5,0,0.5,1,0,0,0],daily=RES1_3,status=variable
new load.BT_3000196056_M1 bus1=1001739711.3.1.0,Phases=2,kv=0.22,kW=5.23286,pf=0.92,Vminpu=0.92,Vmaxpu=1.5,model=8,zipv=[0.5,0,0.5,1,0,0,0],daily=RES1_3,status=variable
new load.BT_3000366493_M1 bus1=1001745696.1.2.0,Phases=2,kv=0.24,kW=1.9156,pf=0.92,Vminpu=0.92,Vmaxpu=1.5,model=8,zipv=[0.5,0,0.5,1,0,0,0],daily=RES1_11,status=variable
new load.BT_3000366494_M1 bus1=1006590011.1.2.0,Phases=2,kv=0.24,kW=2.34698,pf=0.92,Vminpu=0.92,Vmaxpu=1.5,model=8,zipv=[0.5,0,0.5,1,0,0,0],daily=RES1_11,status=variable
new load.BT_3000366495_M1 bus1=1001746522.1.2.3.0,Phases=3,kv=0.22,kW=7.36126,pf=0.92,Vminpu=0.92,Vmaxpu=1.5,model=8,zipv=[0.5,0,0.5,1,0,0,0],daily=RES1_11,status=variable
new load.BT_3000366496_M1 bus1=1006590018.1.2.0,Phases=2,kv=0.24,kW=1.6539,pf=0.92,Vminpu=0.92,Vmaxpu=1.5,model=8,zipv=[0.5,0,0.5,1,0,0,0],daily=RES1_11,status=variable
new load.BT_3000366497_M1 bus1=1001746536.1.2.0,Phases=2,kv=0.22,kW=10.83114,pf=0.92,Vminpu=0.92,Vmaxpu=1.5,model=8,zipv=[0.5,0,0.5,1,0,0,0],daily=RES1_11,status=variable
new load.BT_3000366769_M1 bus1=1001744968.1.2.0,Phases=2,kv=0.24,kW=4.12836,pf=0.92,Vminpu=0.92,Vmaxpu=1.5,model=8,zipv=[0.5,0,0.5,1,0,0,0],daily=RES1_11,status=variable
new load.BT_3000366770_M1 bus1=1001744975.1.2.3.0,Phases=3,kv=0.22,kW=11.31492,pf=0.92,Vminpu=0.92,Vmaxpu=1.5,model=8,zipv=[0.5,0,0.5,1,0,0,0],daily=RES1_11,status=variable
new load.BT_3000366771_M1 bus1=1001744989.1.2.0,Phases=2,kv=0.24,kW=14.70924,pf=0.92,Vminpu=0.92,Vmaxpu=1.5,model=8,zipv=[0.5,0,0.5,1,0,0,0],daily=RES1_11,status=variable
new load.BT_3000366772_M1 bus1=1001744996.1.2.0,Phases=2,kv=0.24,kW=7.40576,pf=0.92,Vminpu=0.92,Vmaxpu=1.5,model=8,zipv=[0.5,0,0.5,1,0,0,0],daily=RES1_11,status=variable
new load.BT_3000366773_M1 bus1=1001745003.1.2.0,Phases=2,kv=0.24,kW=2.1271,pf=0.92,Vminpu=0.92,Vmaxpu=1.5,model=8,zipv=[0.5,0,0.5,1,0,0,0],daily=RES1_11,status=variable
new load.BT_3000366775_M1 bus1=1001745542.1.2.0,Phases=2,kv=0.22,kW=3.3943,pf=0.92,Vminpu=0.92,Vmaxpu=1.5,model=8,zipv=[0.5,0,0.5,1,0,0,0],daily=RES1_11,status=variable
new load.BT_3000366776_M1 bus1=1006518450.1.2.3.0,Phases=3,kv=0.22,kW=5.71794,pf=0.92,Vminpu=0.92,Vmaxpu=1.5,model=8,zipv=[0.5,0,0.5,1,0,0,0],daily=RES1_11,status=variable
new load.BT_3000366777_M1 bus1=1006518450.1.2.3.0,Phases=3,kv=0.22,kW=12.3626,pf=0.92,Vminpu=0.92,Vmaxpu=1.5,model=8,zipv=[0.5,0,0.5,1,0,0,0],daily=RES1_11,status=variable
new load.BT_3000366778_M1 bus1=1001745024.1.2.3.0,Phases=3,kv=0.22,kW=7.40442,pf=0.92,Vminpu=0.92,Vmaxpu=1.5,model=8,zipv=[0.5,0,0.5,1,0,0,0],daily=RES1_11,status=variable
new load.BT_3000366780_M1 bus1=1001744800.1.2.0,Phases=2,kv=0.22,kW=5.70904,pf=0.92,Vminpu=0.92,Vmaxpu=1.5,model=8,zipv=[0.5,0,0.5,1,0,0,0],daily=RES1_11,status=variable
new load.BT_3000366781_M1 bus1=1001744793.1.2.0,Phases=2,kv=0.22,kW=4.84226,pf=0.92,Vminpu=0.92,Vmaxpu=1.5,model=8,zipv=[0.5,0,0.5,1,0,0,0],daily=RES1_11,status=variable
new load.BT_3000366783_M1 bus1=1001745080.1.2.0,Phases=2,kv=0.24,kW=0.82696,pf=0.92,Vminpu=0.92,Vmaxpu=1.5,model=8,zipv=[0.5,0,0.5,1,0,0,0],daily=RES1_11,status=variable
new load.BT_3000366784_M1 bus1=1001745087.1.2.0,Phases=2,kv=0.24,kW=12.30112,pf=0.92,Vminpu=0.92,Vmaxpu=1.5,model=8,zipv=[0.5,0,0.5,1,0,0,0],daily=RES1_11,status=variable
new load.BT_3000366785_M1 bus1=1001745094.1.2.0,Phases=2,kv=0.24,kW=15.17134,pf=0.92,Vminpu=0.92,Vmaxpu=1.5,model=8,zipv=[0.5,0,0.5,1,0,0,0],daily=RES1_11,status=variable
new load.BT_3000366787_M1 bus1=1001745066.2.3.0,Phases=2,kv=0.22,kW=1.53312,pf=0.92,Vminpu=0.92,Vmaxpu=1.5,model=8,zipv=[0.5,0,0.5,1,0,0,0],daily=RES1_11,status=variable
new load.BT_3000366788_M1 bus1=1010316242.1.2.0,Phases=2,kv=0.22,kW=9.21186,pf=0.92,Vminpu=0.92,Vmaxpu=1.5,model=8,zipv=[0.5,0,0.5,1,0,0,0],daily=RES1_11,status=variable
new load.BT_3000366789_M1 bus1=1001747334.1.2.0,Phases=2,kv=0.22,kW=70.01058,pf=0.92,Vminpu=0.92,Vmaxpu=1.5,model=8,zipv=[0.5,0,0.5,1,0,0,0],daily=RES1_11,status=variable
new load.BT_3000366790_M1 bus1=1006476905.1.2.0,Phases=2,kv=0.24,kW=3.6928,pf=0.92,Vminpu=0.92,Vmaxpu=1.5,model=8,zipv=[0.5,0,0.5,1,0,0,0],daily=RES1_11,status=variable
new load.BT_3000366791_M1 bus1=1001747313.1.2.0,Phases=2,kv=0.24,kW=10.86744,pf=0.92,Vminpu=0.92,Vmaxpu=1.5,model=8,zipv=[0.5,0,0.5,1,0,0,0],daily=RES1_11,status=variable
new load.BT_3000366792_M1 bus1=1001747320.1.2.0,Phases=2,kv=0.24,kW=29.36236,pf=0.92,Vminpu=0.92,Vmaxpu=1.5,model=8,zipv=[0.5,0,0.5,1,0,0,0],daily=RES1_11,status=variable
new load.BT_3000366793_M1 bus1=1001747341.1.2.3.0,Phases=3,kv=0.22,kW=14.89602,pf=0.92,Vminpu=0.92,Vmaxpu=1.5,model=8,zipv=[0.5,0,0.5,1,0,0,0],daily=RES1_11,status=variable
new load.BT_3000366794_M1 bus1=1001747327.1.2.0,Phases=2,kv=0.24,kW=1.3628,pf=0.92,Vminpu=0.92,Vmaxpu=1.5,model=8,zipv=[0.5,0,0.5,1,0,0,0],daily=RES1_11,status=variable
new load.BT_3000366795_M1 bus1=1001744779.1.2.0,Phases=2,kv=0.22,kW=19.60626,pf=0.92,Vminpu=0.92,Vmaxpu=1.5,model=8,zipv=[0.5,0,0.5,1,0,0,0],daily=RES1_11,status=variable
new load.BT_3000366796_M1 bus1=1001744786.1.2.0,Phases=2,kv=0.22,kW=27.11398,pf=0.92,Vminpu=0.92,Vmaxpu=1.5,model=8,zipv=[0.5,0,0.5,1,0,0,0],daily=RES1_11,status=variable
new load.BT_3000366797_M1 bus1=1006476905.1.2.0,Phases=2,kv=0.24,kW=1.58906,pf=0.92,Vminpu=0.92,Vmaxpu=1.5,model=8,zipv=[0.5,0,0.5,1,0,0,0],daily=RES1_11,status=variable
new load.BT_3000366799_M1 bus1=1001747166.1.2.3.0,Phases=3,kv=0.22,kW=30.84206,pf=0.92,Vminpu=0.92,Vmaxpu=1.5,model=8,zipv=[0.5,0,0.5,1,0,0,0],daily=RES1_11,status=variable
new load.BT_3000366801_M1 bus1=1001747215.1.2.3.0,Phases=3,kv=0.22,kW=5.3988,pf=0.92,Vminpu=0.92,Vmaxpu=1.5,model=8,zipv=[0.5,0,0.5,1,0,0,0],daily=comUGBT,status=variable
new load.BT_3000366802_M1 bus1=1001747201.1.2.0,Phases=2,kv=0.22,kW=5.90304,pf=0.92,Vminpu=0.92,Vmaxpu=1.5,model=8,zipv=[0.5,0,0.5,1,0,0,0],daily=RES1_11,status=variable
new load.BT_3000366803_M1 bus1=1001746970.1.2.0,Phases=2,kv=0.22,kW=14.29214,pf=0.92,Vminpu=0.92,Vmaxpu=1.5,model=8,zipv=[0.5,0,0.5,1,0,0,0],daily=RES1_11,status=variable
new load.BT_3000366804_M1 bus1=1001746977.1.2.0,Phases=2,kv=0.22,kW=2.29524,pf=0.92,Vminpu=0.92,Vmaxpu=1.5,model=8,zipv=[0.5,0,0.5,1,0,0,0],daily=RES1_11,status=variable
new load.BT_3000366805_M1 bus1=1001746949.1.2.0,Phases=2,kv=0.22,kW=6.38816,pf=0.92,Vminpu=0.92,Vmaxpu=1.5,model=8,zipv=[0.5,0,0.5,1,0,0,0],daily=RES1_11,status=variable
new load.BT_3000366806_M1 bus1=1006476912.1.2.3.0,Phases=3,kv=0.22,kW=2.2051,pf=0.92,Vminpu=0.92,Vmaxpu=1.5,model=8,zipv=[0.5,0,0.5,1,0,0,0],daily=comUGBT,status=variable
new load.BT_3000366807_M1 bus1=1006539485.1.2.3.0,Phases=3,kv=0.22,kW=0.16512,pf=0.92,Vminpu=0.92,Vmaxpu=1.5,model=8,zipv=[0.5,0,0.5,1,0,0,0],daily=RES1_11,status=variable
new load.BT_3000366808_M1 bus1=1001747180.1.2.3.0,Phases=3,kv=0.22,kW=3.4185,pf=0.92,Vminpu=0.92,Vmaxpu=1.5,model=8,zipv=[0.5,0,0.5,1,0,0,0],daily=RES1_11,status=variable
new load.BT_3000366810_M1 bus1=1006476912.1.2.3.0,Phases=3,kv=0.22,kW=2.82538,pf=0.92,Vminpu=0.92,Vmaxpu=1.5,model=8,zipv=[0.5,0,0.5,1,0,0,0],daily=RES1_11,status=variable
new load.BT_3000366811_M1 bus1=1001746949.1.2.0,Phases=2,kv=0.22,kW=3.84062,pf=0.92,Vminpu=0.92,Vmaxpu=1.5,model=8,zipv=[0.5,0,0.5,1,0,0,0],daily=RES1_11,status=variable
new load.BT_3000366812_M1 bus1=1001746249.1.2.3.0,Phases=3,kv=0.22,kW=6.59478,pf=0.92,Vminpu=0.92,Vmaxpu=1.5,model=8,zipv=[0.5,0,0.5,1,0,0,0],daily=RES1_11,status=variable
new load.BT_3000366813_M1 bus1=1001746256.1.2.3.0,Phases=3,kv=0.22,kW=1.2306,pf=0.92,Vminpu=0.92,Vmaxpu=1.5,model=8,zipv=[0.5,0,0.5,1,0,0,0],daily=RES1_11,status=variable
new load.BT_3000366815_M1 bus1=1001746739.1.2.0,Phases=2,kv=0.24,kW=4.83048,pf=0.92,Vminpu=0.92,Vmaxpu=1.5,model=8,zipv=[0.5,0,0.5,1,0,0,0],daily=COM1_18,status=variable
new load.BT_3000366817_M1 bus1=1001746249.1.2.3.0,Phases=3,kv=0.22,kW=7.70158,pf=0.92,Vminpu=0.92,Vmaxpu=1.5,model=8,zipv=[0.5,0,0.5,1,0,0,0],daily=RES1_11,status=variable
new load.BT_3000366818_M1 bus1=1001746249.1.2.3.0,Phases=3,kv=0.22,kW=4.445,pf=0.92,Vminpu=0.92,Vmaxpu=1.5,model=8,zipv=[0.5,0,0.5,1,0,0,0],daily=RES1_11,status=variable
new load.BT_3000366819_M1 bus1=1001746242.1.2.3.0,Phases=3,kv=0.22,kW=5.30136,pf=0.92,Vminpu=0.92,Vmaxpu=1.5,model=8,zipv=[0.5,0,0.5,1,0,0,0],daily=RES1_11,status=variable
new load.BT_3000366820_M1 bus1=1007158243.1.2.3.0,Phases=3,kv=0.22,kW=1.95882,pf=0.92,Vminpu=0.92,Vmaxpu=1.5,model=8,zipv=[0.5,0,0.5,1,0,0,0],daily=comUGBT,status=variable
new load.BT_3000366822_M1 bus1=1001747222.1.2.0,Phases=2,kv=0.24,kW=7.61422,pf=0.92,Vminpu=0.92,Vmaxpu=1.5,model=8,zipv=[0.5,0,0.5,1,0,0,0],daily=RES1_11,status=variable
new load.BT_3000366823_M1 bus1=1001746928.1.2.0,Phases=2,kv=0.22,kW=1.11756,pf=0.92,Vminpu=0.92,Vmaxpu=1.5,model=8,zipv=[0.5,0,0.5,1,0,0,0],daily=RES1_11,status=variable
new load.BT_3000366824_M1 bus1=1001746039.1.2.3.0,Phases=3,kv=0.22,kW=4.4603,pf=0.92,Vminpu=0.92,Vmaxpu=1.5,model=8,zipv=[0.5,0,0.5,1,0,0,0],daily=RES1_11,status=variable
new load.BT_3000366827_M1 bus1=1001746025.3.0,Phases=1,kv=0.127,kW=15.4186,pf=0.92,Vminpu=0.92,Vmaxpu=1.5,model=8,zipv=[0.5,0,0.5,1,0,0,0],daily=RES1_11,status=variable
new load.BT_3000366828_M1 bus1=1001746053.1.2.3.0,Phases=3,kv=0.22,kW=2.22804,pf=0.92,Vminpu=0.92,Vmaxpu=1.5,model=8,zipv=[0.5,0,0.5,1,0,0,0],daily=RES1_11,status=variable
new load.BT_3000366829_M1 bus1=1001747306.1.2.0,Phases=2,kv=0.22,kW=5.261,pf=0.92,Vminpu=0.92,Vmaxpu=1.5,model=8,zipv=[0.5,0,0.5,1,0,0,0],daily=COM1_18,status=variable
new load.BT_3000366831_M1 bus1=1001746046.1.2.0,Phases=2,kv=0.22,kW=2.71636,pf=0.92,Vminpu=0.92,Vmaxpu=1.5,model=8,zipv=[0.5,0,0.5,1,0,0,0],daily=RES1_11,status=variable
new load.BT_3000366833_M1 bus1=1001747292.1.2.3.0,Phases=3,kv=0.22,kW=4.77088,pf=0.92,Vminpu=0.92,Vmaxpu=1.5,model=8,zipv=[0.5,0,0.5,1,0,0,0],daily=RES1_11,status=variable
new load.BT_3000366838_M1 bus1=1001746564.1.2.3.0,Phases=3,kv=0.22,kW=2.29958,pf=0.92,Vminpu=0.92,Vmaxpu=1.5,model=8,zipv=[0.5,0,0.5,1,0,0,0],daily=comUGBT,status=variable
new load.BT_3000366839_M1 bus1=1006477059.1.2.3.0,Phases=3,kv=0.22,kW=4.0801,pf=0.92,Vminpu=0.92,Vmaxpu=1.5,model=8,zipv=[0.5,0,0.5,1,0,0,0],daily=comUGBT,status=variable
new load.BT_3000366840_M1 bus1=1001747432.1.2.3.0,Phases=3,kv=0.22,kW=4.21554,pf=0.92,Vminpu=0.92,Vmaxpu=1.5,model=8,zipv=[0.5,0,0.5,1,0,0,0],daily=RES1_11,status=variable
new load.BT_3000366842_M1 bus1=1001747446.1.2.3.0,Phases=3,kv=0.22,kW=0.0074,pf=0.92,Vminpu=0.92,Vmaxpu=1.5,model=8,zipv=[0.5,0,0.5,1,0,0,0],daily=RES1_11,status=variable
new load.BT_3000366843_M1 bus1=1001747446.1.2.3.0,Phases=3,kv=0.22,kW=265.80746,pf=0.92,Vminpu=0.92,Vmaxpu=1.5,model=8,zipv=[0.5,0,0.5,1,0,0,0],daily=RES1_11,status=variable
new load.BT_3000366844_M1 bus1=1001747439.1.2.3.0,Phases=3,kv=0.22,kW=12.12306,pf=0.92,Vminpu=0.92,Vmaxpu=1.5,model=8,zipv=[0.5,0,0.5,1,0,0,0],daily=RES1_11,status=variable
new load.BT_3000366845_M1 bus1=1001747432.1.2.3.0,Phases=3,kv=0.22,kW=9.1043,pf=0.92,Vminpu=0.92,Vmaxpu=1.5,model=8,zipv=[0.5,0,0.5,1,0,0,0],daily=comUGBT,status=variable
new load.BT_3000366846_M1 bus1=1001747425.1.2.0,Phases=2,kv=0.22,kW=12.65236,pf=0.92,Vminpu=0.92,Vmaxpu=1.5,model=8,zipv=[0.5,0,0.5,1,0,0,0],daily=RES1_11,status=variable
new load.BT_3000366847_M1 bus1=1010483991.1.2.0,Phases=2,kv=0.22,kW=9.07932,pf=0.92,Vminpu=0.92,Vmaxpu=1.5,model=8,zipv=[0.5,0,0.5,1,0,0,0],daily=RES1_11,status=variable
new load.BT_3000366854_M1 bus1=1001746585.1.2.0,Phases=2,kv=0.22,kW=0.10212,pf=0.92,Vminpu=0.92,Vmaxpu=1.5,model=8,zipv=[0.5,0,0.5,1,0,0,0],daily=RES1_11,status=variable
new load.BT_3000366855_M1 bus1=1006477059.1.2.3.0,Phases=3,kv=0.22,kW=6.21158,pf=0.92,Vminpu=0.92,Vmaxpu=1.5,model=8,zipv=[0.5,0,0.5,1,0,0,0],daily=comUGBT,status=variable
new load.BT_3000366856_M1 bus1=1001746578.1.2.0,Phases=2,kv=0.22,kW=2.41802,pf=0.92,Vminpu=0.92,Vmaxpu=1.5,model=8,zipv=[0.5,0,0.5,1,0,0,0],daily=RES1_11,status=variable
new load.BT_3000366861_M1 bus1=1001746270.1.2.3.0,Phases=3,kv=0.22,kW=21.31888,pf=0.92,Vminpu=0.92,Vmaxpu=1.5,model=8,zipv=[0.5,0,0.5,1,0,0,0],daily=COM1_18,status=variable
new load.BT_3000366863_M1 bus1=1006477066.1.2.3.0,Phases=3,kv=0.22,kW=2.10358,pf=0.92,Vminpu=0.92,Vmaxpu=1.5,model=8,zipv=[0.5,0,0.5,1,0,0,0],daily=RES1_11,status=variable
new load.BT_3000366864_M1 bus1=1001740166.1.2.0,Phases=2,kv=0.24,kW=4.3217,pf=0.92,Vminpu=0.92,Vmaxpu=1.5,model=8,zipv=[0.5,0,0.5,1,0,0,0],daily=RES1_11,status=variable
new load.BT_3000366866_M1 bus1=1001740733.1.2.3.0,Phases=3,kv=0.22,kW=17.51578,pf=0.92,Vminpu=0.92,Vmaxpu=1.5,model=8,zipv=[0.5,0,0.5,1,0,0,0],daily=RES1_11,status=variable
new load.BT_3000366868_M1 bus1=1001745577.1.2.3.0,Phases=3,kv=0.22,kW=5.74766,pf=0.92,Vminpu=0.92,Vmaxpu=1.5,model=8,zipv=[0.5,0,0.5,1,0,0,0],daily=RES1_11,status=variable
new load.BT_3000366869_M1 bus1=1001745605.1.2.3.0,Phases=3,kv=0.22,kW=6.40596,pf=0.92,Vminpu=0.92,Vmaxpu=1.5,model=8,zipv=[0.5,0,0.5,1,0,0,0],daily=RES1_11,status=variable
new load.BT_3000366871_M1 bus1=1001745836.1.2.3.0,Phases=3,kv=0.22,kW=3.28916,pf=0.92,Vminpu=0.92,Vmaxpu=1.5,model=8,zipv=[0.5,0,0.5,1,0,0,0],daily=RES1_11,status=variable
new load.BT_3000366872_M1 bus1=1001740733.1.2.3.0,Phases=3,kv=0.22,kW=1.26428,pf=0.92,Vminpu=0.92,Vmaxpu=1.5,model=8,zipv=[0.5,0,0.5,1,0,0,0],daily=IND1_16,status=variable
new load.BT_3000366875_M1 bus1=1001740173.1.2.0,Phases=2,kv=0.24,kW=4.11208,pf=0.92,Vminpu=0.92,Vmaxpu=1.5,model=8,zipv=[0.5,0,0.5,1,0,0,0],daily=RES1_11,status=variable
new load.BT_3000366877_M1 bus1=1007407212.1.2.0,Phases=2,kv=0.24,kW=1.8323,pf=0.92,Vminpu=0.92,Vmaxpu=1.5,model=8,zipv=[0.5,0,0.5,1,0,0,0],daily=RES1_11,status=variable
new load.BT_3001625904_M1 bus1=1004050327.2.3.0,Phases=2,kv=0.22,kW=3.74306,pf=0.92,Vminpu=0.92,Vmaxpu=1.5,model=8,zipv=[0.5,0,0.5,1,0,0,0],daily=RES1_10,status=variable
new load.BT_3001625905_M1 bus1=1004050341.1.2.0,Phases=2,kv=0.22,kW=2.07568,pf=0.92,Vminpu=0.92,Vmaxpu=1.5,model=8,zipv=[0.5,0,0.5,1,0,0,0],daily=RES1_10,status=variable
new load.BT_3001625907_M1 bus1=1004050376.1.2.3.0,Phases=3,kv=0.22,kW=6.25604,pf=0.92,Vminpu=0.92,Vmaxpu=1.5,model=8,zipv=[0.5,0,0.5,1,0,0,0],daily=RES1_10,status=variable
new load.BT_3001625908_M1 bus1=1004050369.1.2.3.0,Phases=3,kv=0.22,kW=1.38026,pf=0.92,Vminpu=0.92,Vmaxpu=1.5,model=8,zipv=[0.5,0,0.5,1,0,0,0],daily=comUGBT,status=variable
new load.BT_3001625909_M1 bus1=1004050362.1.2.0,Phases=2,kv=0.22,kW=3.00742,pf=0.92,Vminpu=0.92,Vmaxpu=1.5,model=8,zipv=[0.5,0,0.5,1,0,0,0],daily=RES1_10,status=variable
new load.BT_3001625910_M1 bus1=1004050390.3.1.0,Phases=2,kv=0.22,kW=5.63962,pf=0.92,Vminpu=0.92,Vmaxpu=1.5,model=8,zipv=[0.5,0,0.5,1,0,0,0],daily=RES1_10,status=variable
new load.BT_3001625911_M1 bus1=1004050397.1.2.3.0,Phases=3,kv=0.22,kW=5.51076,pf=0.92,Vminpu=0.92,Vmaxpu=1.5,model=8,zipv=[0.5,0,0.5,1,0,0,0],daily=RES1_10,status=variable
new load.BT_3001625912_M1 bus1=1004051139.2.3.0,Phases=2,kv=0.22,kW=5.7354,pf=0.92,Vminpu=0.92,Vmaxpu=1.5,model=8,zipv=[0.5,0,0.5,1,0,0,0],daily=RES1_10,status=variable
new load.BT_3001625913_M1 bus1=1004051230.1.2.3.0,Phases=3,kv=0.22,kW=3.20514,pf=0.92,Vminpu=0.92,Vmaxpu=1.5,model=8,zipv=[0.5,0,0.5,1,0,0,0],daily=RES1_10,status=variable
new load.BT_3001625914_M1 bus1=1004053743.2.3.0,Phases=2,kv=0.22,kW=2.13184,pf=0.92,Vminpu=0.92,Vmaxpu=1.5,model=8,zipv=[0.5,0,0.5,1,0,0,0],daily=RES1_10,status=variable
new load.BT_3001625915_M1 bus1=1004053729.1.2.0,Phases=2,kv=0.22,kW=3.49694,pf=0.92,Vminpu=0.92,Vmaxpu=1.5,model=8,zipv=[0.5,0,0.5,1,0,0,0],daily=RES1_10,status=variable
new load.BT_3001625916_M1 bus1=1004053813.2.3.0,Phases=2,kv=0.22,kW=1.26136,pf=0.92,Vminpu=0.92,Vmaxpu=1.5,model=8,zipv=[0.5,0,0.5,1,0,0,0],daily=RES1_10,status=variable
new load.BT_3001625917_M1 bus1=1004053792.1.2.3.0,Phases=3,kv=0.22,kW=0.8711,pf=0.92,Vminpu=0.92,Vmaxpu=1.5,model=8,zipv=[0.5,0,0.5,1,0,0,0],daily=RES1_10,status=variable
new load.BT_3001625918_M1 bus1=1004053785.1.2.0,Phases=2,kv=0.22,kW=4.06096,pf=0.92,Vminpu=0.92,Vmaxpu=1.5,model=8,zipv=[0.5,0,0.5,1,0,0,0],daily=RES1_10,status=variable
new load.BT_3001625919_M1 bus1=1004053778.1.2.3.0,Phases=3,kv=0.22,kW=3.95464,pf=0.92,Vminpu=0.92,Vmaxpu=1.5,model=8,zipv=[0.5,0,0.5,1,0,0,0],daily=RES1_10,status=variable
new load.BT_3001625920_M1 bus1=1004053841.1.2.3.0,Phases=3,kv=0.22,kW=2.88732,pf=0.92,Vminpu=0.92,Vmaxpu=1.5,model=8,zipv=[0.5,0,0.5,1,0,0,0],daily=RES1_10,status=variable
new load.BT_3001625921_M1 bus1=1004053862.1.2.3.0,Phases=3,kv=0.22,kW=4.0242,pf=0.92,Vminpu=0.92,Vmaxpu=1.5,model=8,zipv=[0.5,0,0.5,1,0,0,0],daily=RES1_10,status=variable
new load.BT_3001625922_M1 bus1=1004053855.1.2.0,Phases=2,kv=0.22,kW=3.45026,pf=0.92,Vminpu=0.92,Vmaxpu=1.5,model=8,zipv=[0.5,0,0.5,1,0,0,0],daily=RES1_10,status=variable
new load.BT_3001625923_M1 bus1=1004053883.1.2.3.0,Phases=3,kv=0.22,kW=2.71562,pf=0.92,Vminpu=0.92,Vmaxpu=1.5,model=8,zipv=[0.5,0,0.5,1,0,0,0],daily=RES1_10,status=variable
new load.BT_3001625924_M1 bus1=1004053918.1.2.0,Phases=2,kv=0.22,kW=5.16226,pf=0.92,Vminpu=0.92,Vmaxpu=1.5,model=8,zipv=[0.5,0,0.5,1,0,0,0],daily=RES1_10,status=variable
new load.BT_3001625925_M1 bus1=1004055087.1.2.3.0,Phases=3,kv=0.22,kW=0.80538,pf=0.92,Vminpu=0.92,Vmaxpu=1.5,model=8,zipv=[0.5,0,0.5,1,0,0,0],daily=RES1_10,status=variable
new load.BT_3001625926_M1 bus1=1004055164.1.2.0,Phases=2,kv=0.22,kW=3.00846,pf=0.92,Vminpu=0.92,Vmaxpu=1.5,model=8,zipv=[0.5,0,0.5,1,0,0,0],daily=comUGBT,status=variable
new load.BT_3001625927_M1 bus1=1004055157.1.2.0,Phases=2,kv=0.22,kW=3.46734,pf=0.92,Vminpu=0.92,Vmaxpu=1.5,model=8,zipv=[0.5,0,0.5,1,0,0,0],daily=RES1_10,status=variable
new load.BT_3001625928_M1 bus1=1004055227.1.2.0,Phases=2,kv=0.22,kW=3.1819,pf=0.92,Vminpu=0.92,Vmaxpu=1.5,model=8,zipv=[0.5,0,0.5,1,0,0,0],daily=RES1_10,status=variable
new load.BT_3001625929_M1 bus1=1004055220.1.2.0,Phases=2,kv=0.22,kW=4.21764,pf=0.92,Vminpu=0.92,Vmaxpu=1.5,model=8,zipv=[0.5,0,0.5,1,0,0,0],daily=RES1_10,status=variable
new load.BT_3001625930_M1 bus1=1004055241.1.2.0,Phases=2,kv=0.22,kW=2.17566,pf=0.92,Vminpu=0.92,Vmaxpu=1.5,model=8,zipv=[0.5,0,0.5,1,0,0,0],daily=RES1_10,status=variable
new load.BT_3001625931_M1 bus1=1004055108.3.1.0,Phases=2,kv=0.22,kW=1.87198,pf=0.92,Vminpu=0.92,Vmaxpu=1.5,model=8,zipv=[0.5,0,0.5,1,0,0,0],daily=RES1_10,status=variable
new load.BT_3001625932_M1 bus1=1004055080.1.2.0,Phases=2,kv=0.22,kW=1.07518,pf=0.92,Vminpu=0.92,Vmaxpu=1.5,model=8,zipv=[0.5,0,0.5,1,0,0,0],daily=RES1_10,status=variable
new load.BT_3001625933_M1 bus1=1004054597.1.2.3.0,Phases=3,kv=0.22,kW=3.3468,pf=0.92,Vminpu=0.92,Vmaxpu=1.5,model=8,zipv=[0.5,0,0.5,1,0,0,0],daily=RES1_10,status=variable
new load.BT_3001625934_M1 bus1=1004054576.3.1.0,Phases=2,kv=0.22,kW=1.2428,pf=0.92,Vminpu=0.92,Vmaxpu=1.5,model=8,zipv=[0.5,0,0.5,1,0,0,0],daily=comUGBT,status=variable
new load.BT_3001625935_M1 bus1=1004054569.1.2.0,Phases=2,kv=0.22,kW=6.39412,pf=0.92,Vminpu=0.92,Vmaxpu=1.5,model=8,zipv=[0.5,0,0.5,1,0,0,0],daily=RES1_10,status=variable
new load.BT_3001625936_M1 bus1=1004054548.1.2.3.0,Phases=3,kv=0.22,kW=0.9176,pf=0.92,Vminpu=0.92,Vmaxpu=1.5,model=8,zipv=[0.5,0,0.5,1,0,0,0],daily=RES1_10,status=variable
new load.BT_3001625937_M1 bus1=1004054541.1.2.3.0,Phases=3,kv=0.22,kW=3.71836,pf=0.92,Vminpu=0.92,Vmaxpu=1.5,model=8,zipv=[0.5,0,0.5,1,0,0,0],daily=RES1_10,status=variable
new load.BT_3001625938_M1 bus1=1004054534.1.2.0,Phases=2,kv=0.22,kW=14.293,pf=0.92,Vminpu=0.92,Vmaxpu=1.5,model=8,zipv=[0.5,0,0.5,1,0,0,0],daily=RES1_10,status=variable
new load.BT_3001625939_M1 bus1=1004054513.1.2.0,Phases=2,kv=0.22,kW=3.51046,pf=0.92,Vminpu=0.92,Vmaxpu=1.5,model=8,zipv=[0.5,0,0.5,1,0,0,0],daily=RES1_10,status=variable
new load.BT_3001625940_M1 bus1=1004054520.1.2.3.0,Phases=3,kv=0.22,kW=4.68768,pf=0.92,Vminpu=0.92,Vmaxpu=1.5,model=8,zipv=[0.5,0,0.5,1,0,0,0],daily=comUGBT,status=variable
new load.BT_3001625941_M1 bus1=1004054499.1.2.3.0,Phases=3,kv=0.22,kW=2.76052,pf=0.92,Vminpu=0.92,Vmaxpu=1.5,model=8,zipv=[0.5,0,0.5,1,0,0,0],daily=RES1_10,status=variable
new load.BT_3001625942_M1 bus1=1004054478.2.3.0,Phases=2,kv=0.22,kW=1.55058,pf=0.92,Vminpu=0.92,Vmaxpu=1.5,model=8,zipv=[0.5,0,0.5,1,0,0,0],daily=RES1_10,status=variable
new load.BT_3001625943_M1 bus1=1004054464.1.2.3.0,Phases=3,kv=0.22,kW=2.98498,pf=0.92,Vminpu=0.92,Vmaxpu=1.5,model=8,zipv=[0.5,0,0.5,1,0,0,0],daily=RES1_10,status=variable
new load.BT_3001625944_M1 bus1=1004051223.2.3.0,Phases=2,kv=0.22,kW=6.00742,pf=0.92,Vminpu=0.92,Vmaxpu=1.5,model=8,zipv=[0.5,0,0.5,1,0,0,0],daily=RES1_10,status=variable
new load.BT_3001625945_M1 bus1=1004051216.1.0,Phases=1,kv=0.127,kW=0.15364,pf=0.92,Vminpu=0.92,Vmaxpu=1.5,model=8,zipv=[0.5,0,0.5,1,0,0,0],daily=RES1_10,status=variable
new load.BT_3001625946_M1 bus1=1004051181.1.2.3.0,Phases=3,kv=0.22,kW=1.90396,pf=0.92,Vminpu=0.92,Vmaxpu=1.5,model=8,zipv=[0.5,0,0.5,1,0,0,0],daily=comUGBT,status=variable
new load.BT_3001625947_M1 bus1=1004051132.1.2.0,Phases=2,kv=0.22,kW=2.3775,pf=0.92,Vminpu=0.92,Vmaxpu=1.5,model=8,zipv=[0.5,0,0.5,1,0,0,0],daily=RES1_10,status=variable
new load.BT_3001625948_M1 bus1=1004051118.2.3.0,Phases=2,kv=0.22,kW=2.64104,pf=0.92,Vminpu=0.92,Vmaxpu=1.5,model=8,zipv=[0.5,0,0.5,1,0,0,0],daily=RES1_10,status=variable
new load.BT_3001625949_M1 bus1=1004051125.3.1.0,Phases=2,kv=0.22,kW=2.68898,pf=0.92,Vminpu=0.92,Vmaxpu=1.5,model=8,zipv=[0.5,0,0.5,1,0,0,0],daily=RES1_10,status=variable
new load.BT_3001625950_M1 bus1=1004051104.1.2.3.0,Phases=3,kv=0.22,kW=0.04122,pf=0.92,Vminpu=0.92,Vmaxpu=1.5,model=8,zipv=[0.5,0,0.5,1,0,0,0],daily=RES1_10,status=variable