new loadshape.c3010000685 npts=24,interval=1.0,mult=[0.0001,0.0001,0.0001,0.0001,0.0001,0.0001,0.17,0.47,0.7,0.9,1,1,0.93,0.8,0.53,0.33,0.2,0.13,0.0001,0.0001,0.0001,0.0001,0.0001,0.0001]
new PVSystem.3010000685 bus1=BMT179987495.1.2.3,Phases=3,kv=13.800000000,kVA=38.49342,Pmpp=32.07785,irradiance=1,%cutin=0.1,%cutout=0.1,VarFollowInverter=True,daily=c3010000685
New InvControl.InvPVCtrl mode=VOLTVAR,voltage_curvex_ref=rated,vvc_curve1=voltvar_c,VoltageChangeTolerance=0.001,VarChangeTolerance=0.05
!,VoltageChangeTolerance=0.0001,VarChangeTolerance=0.025,EventLog=yes,VarFollowInverter=True