new line.RBT_10073877 bus1=4057684.1.0,bus2=4010073877.1.0,Phases=1,Linecode=CABBTG02_4_1_1,Length=0.017000000,Units=km
new line.RBT_10073916 bus1=4306282.1.2.0,bus2=4010073916.1.2.0,Phases=2,Linecode=CABBTG05_4_2_2,Length=0.017000000,Units=km
new line.RBT_10074275 bus1=866531.1.2.3.0,bus2=4010074275.1.2.3.0,Phases=3,Linecode=CABBTG06_4_3_3,Length=0.010000000,Units=km
new line.RBT_10074287 bus1=864522.1.2.3.0,bus2=4010074287.1.2.3.0,Phases=3,Linecode=CABBTG06_4_3_3,Length=0.022000000,Units=km
new line.RBT_10143791 bus1=121446173.1.2.3.0,bus2=4010143791.1.2.3.0,Phases=3,Linecode=CABBTG06_4_3_3,Length=0.022000000,Units=km
new line.RBT_10143857 bus1=2871695.1.2.3.0,bus2=4010143857.1.2.3.0,Phases=3,Linecode=CABBTG06_4_3_3,Length=0.013000000,Units=km
new line.RBT_10144313 bus1=2832992.1.2.0,bus2=4010144313.1.2.0,Phases=2,Linecode=CABBTG05_4_2_2,Length=0.017000000,Units=km
new line.RBT_10144334 bus1=125297846.1.2.0,bus2=4010144334.1.2.0,Phases=2,Linecode=CABBTG05_4_2_2,Length=0.017000000,Units=km
new line.RBT_10144337 bus1=869471.1.2.0,bus2=4010144337.1.2.0,Phases=2,Linecode=CABBTG05_4_2_2,Length=0.017000000,Units=km
new line.RBT_10144557 bus1=154405806.1.2.3.0,bus2=4010144557.1.2.3.0,Phases=3,Linecode=CABBTG06_4_3_3,Length=0.017000000,Units=km
new line.RBT_10144558 bus1=5073559.1.2.3.0,bus2=4010144558.1.2.3.0,Phases=3,Linecode=CABBTG12_4_3_3,Length=0.017000000,Units=km
new line.RBT_10144560 bus1=126626187.1.2.0,bus2=4010144560.1.2.0,Phases=2,Linecode=CABBTG05_4_2_2,Length=0.017000000,Units=km
new line.RBT_10145138 bus1=868498.1.2.0,bus2=4010145138.1.2.0,Phases=2,Linecode=CABBTG05_4_2_2,Length=0.017000000,Units=km
new line.RBT_10145181 bus1=868456.1.2.0,bus2=4010145181.1.2.0,Phases=2,Linecode=CABBTG05_4_2_2,Length=0.017000000,Units=km
new line.RBT_10210441 bus1=869751.1.2.0,bus2=4010210441.1.2.0,Phases=2,Linecode=CABBTG05_4_2_2,Length=0.017000000,Units=km
new line.RBT_10211783 bus1=869310.1.2.3.0,bus2=4010211783.1.2.3.0,Phases=3,Linecode=CABBTG06_4_3_3,Length=0.017000000,Units=km
new line.RBT_10213025 bus1=92829179.1.2.0,bus2=4010213025.1.2.0,Phases=2,Linecode=CABBTG05_4_2_2,Length=0.017000000,Units=km
new line.RBT_10281388 bus1=4162250.1.2.0,bus2=4010281388.1.2.0,Phases=2,Linecode=CABBTG05_4_2_2,Length=0.017000000,Units=km
new line.RBT_10281397 bus1=865334.1.2.3.0,bus2=4010281397.1.2.3.0,Phases=3,Linecode=CABBTG06_4_3_3,Length=0.017000000,Units=km
new line.RBT_10281401 bus1=869898.1.2.3.0,bus2=4010281401.1.2.3.0,Phases=3,Linecode=CABBTG06_4_3_3,Length=0.017000000,Units=km
new line.RBT_10281407 bus1=680569.1.2.0,bus2=4010281407.1.2.0,Phases=2,Linecode=CABBTG05_4_2_2,Length=0.017000000,Units=km
new line.RBT_10281408 bus1=872866.1.2.0,bus2=4010281408.1.2.0,Phases=2,Linecode=CABBTG05_4_2_2,Length=0.017000000,Units=km
new line.RBT_10281410 bus1=3944214.1.2.0,bus2=4010281410.1.2.0,Phases=2,Linecode=CABBTG05_4_2_2,Length=0.017000000,Units=km
new line.RBT_10281415 bus1=3356536.1.2.0,bus2=4010281415.1.2.0,Phases=2,Linecode=CABBTG05_4_2_2,Length=0.017000000,Units=km
new line.RBT_10281447 bus1=3377697.1.2.0,bus2=4010281447.1.2.0,Phases=2,Linecode=CABBTG05_4_2_2,Length=0.017000000,Units=km
new line.RBT_10281478 bus1=3944193.1.2.0,bus2=4010281478.1.2.0,Phases=2,Linecode=CABBT811_4_2_2,Length=0.017000000,Units=km
new line.RBT_10281481 bus1=4160171.1.2.0,bus2=4010281481.1.2.0,Phases=2,Linecode=CABBT811_4_2_2,Length=0.017000000,Units=km
new line.RBT_10281614 bus1=866769.1.2.3.0,bus2=4010281614.1.2.3.0,Phases=3,Linecode=CABBTG06_4_3_3,Length=0.017000000,Units=km
new line.RBT_10281615 bus1=867854.1.2.0,bus2=4010281615.1.2.0,Phases=2,Linecode=CABBTG05_4_2_2,Length=0.017000000,Units=km
new line.RBT_10343288 bus1=2872066.3.0,bus2=4010343288.3.0,Phases=1,Linecode=CABBTG02_4_1_1,Length=0.017000000,Units=km
new line.RBT_10343379 bus1=4178945.1.2.0,bus2=4010343379.1.2.0,Phases=2,Linecode=CABBTG05_4_2_2,Length=0.017000000,Units=km
new line.RBT_10343396 bus1=2873676.2.3.0,bus2=4010343396.2.3.0,Phases=2,Linecode=CABBTG05_4_2_2,Length=0.017000000,Units=km
new line.RBT_10343620 bus1=868162.1.2.0,bus2=4010343620.1.2.0,Phases=2,Linecode=CABBTG05_4_2_2,Length=0.017000000,Units=km
new line.RBT_10343621 bus1=130626127.1.2.3.0,bus2=4010343621.1.2.3.0,Phases=3,Linecode=CABBTG06_4_3_3,Length=0.017000000,Units=km
new line.RBT_10343642 bus1=867861.1.2.0,bus2=4010343642.1.2.0,Phases=2,Linecode=CABBTG05_4_2_2,Length=0.017000000,Units=km
new line.RBT_10460941 bus1=685224.1.2.0,bus2=4010460941.1.2.0,Phases=2,Linecode=CABBTG05_4_2_2,Length=0.017000000,Units=km
new line.RBT_10460962 bus1=872152.1.0,bus2=4010460962.1.0,Phases=1,Linecode=CABBTG02_4_1_1,Length=0.017000000,Units=km
new line.RBT_10460969 bus1=88708433.1.2.0,bus2=4010460969.1.2.0,Phases=2,Linecode=CABBTG05_4_2_2,Length=0.017000000,Units=km
new line.RBT_10461040 bus1=129405152.1.0,bus2=4010461040.1.0,Phases=1,Linecode=CABBTG02_4_1_1,Length=0.017000000,Units=km
new line.RBT_10461105 bus1=4660664.1.2.0,bus2=4010461105.1.2.0,Phases=2,Linecode=CABBTG05_4_2_2,Length=0.017000000,Units=km
new line.RBT_10462499 bus1=153541284.1.2.0,bus2=4010462499.1.2.0,Phases=2,Linecode=CABBTG05_4_2_2,Length=0.017000000,Units=km
new line.RBT_10508403 bus1=4415510.1.2.0,bus2=4010508403.1.2.0,Phases=2,Linecode=CABBT811_4_2_2,Length=0.016000000,Units=km
new line.RBT_10568381 bus1=4118003.1.2.0,bus2=4010568381.1.2.0,Phases=2,Linecode=CABBT811_4_2_2,Length=0.007000000,Units=km
new line.RBT_10613113 bus1=16475370.1.2.0,bus2=4010613113.1.2.0,Phases=2,Linecode=CABBTG05_4_2_2,Length=0.013000000,Units=km
new line.RBT_10615857 bus1=864536.1.0,bus2=4010615857.1.0,Phases=1,Linecode=CABBTG02_4_1_1,Length=0.017000000,Units=km
new line.RBT_10615859 bus1=4197943.1.2.0,bus2=4010615859.1.2.0,Phases=2,Linecode=CABBTG05_4_2_2,Length=0.019000000,Units=km
new line.RBT_10661547 bus1=158928468.2.0,bus2=4010661547.2.0,Phases=1,Linecode=CABBTG02_4_1_1,Length=0.012000000,Units=km
new line.RBT_10661585 bus1=4224207.1.2.0,bus2=4010661585.1.2.0,Phases=2,Linecode=CABBTG05_4_2_2,Length=0.020000000,Units=km
new line.RBT_10661737 bus1=98198620.1.0,bus2=4010661737.1.0,Phases=1,Linecode=CABBTG02_4_1_1,Length=0.015000000,Units=km
new line.RBT_10661764 bus1=129414259.1.2.0,bus2=4010661764.1.2.0,Phases=2,Linecode=CABBTG05_4_2_2,Length=0.025000000,Units=km
new line.RBT_10661792 bus1=75134411.1.2.3.0,bus2=4010661792.1.2.3.0,Phases=3,Linecode=CABBTG06_4_3_3,Length=0.008000000,Units=km
new line.RBT_10661796 bus1=2866669.1.2.3.0,bus2=4010661796.1.2.3.0,Phases=3,Linecode=CABBTG06_4_3_3,Length=0.012000000,Units=km
new line.RBT_10661821 bus1=866216.1.2.0,bus2=4010661821.1.2.0,Phases=2,Linecode=CABBTG05_4_2_2,Length=0.012000000,Units=km
new line.RBT_10661824 bus1=3641121.1.2.0,bus2=4010661824.1.2.0,Phases=2,Linecode=CABBTG05_4_2_2,Length=0.012000000,Units=km
new line.RBT_10661832 bus1=16475293.1.2.3.0,bus2=4010661832.1.2.3.0,Phases=3,Linecode=CABBTG06_4_3_3,Length=0.017000000,Units=km
new line.RBT_10725105 bus1=868904.1.2.0,bus2=4010725105.1.2.0,Phases=2,Linecode=CABBTG05_4_2_2,Length=0.017000000,Units=km
new line.RBT_10725896 bus1=2877988.3.1.0,bus2=4010725896.3.1.0,Phases=2,Linecode=CABBT811_4_2_2,Length=0.015000000,Units=km
new line.RBT_10160269 bus1=3377711.1.2.0,bus2=4010160269.1.2.0,Phases=2,Linecode=CABBTG05_4_2_2,Length=0.028000000,Units=km
new line.RBT_10160304 bus1=4176089.1.2.3.0,bus2=4010160304.1.2.3.0,Phases=3,Linecode=CABBTG12_4_3_3,Length=0.018000000,Units=km
new line.RBT_10160317 bus1=875435.1.2.0,bus2=4010160317.1.2.0,Phases=2,Linecode=CABBTG05_4_2_2,Length=0.017000000,Units=km
new line.RBT_10160397 bus1=4159968.1.2.3.0,bus2=4010160397.1.2.3.0,Phases=3,Linecode=CABBTG06_4_3_3,Length=0.022000000,Units=km
new line.RBT_10160400 bus1=2872129.1.2.0,bus2=4010160400.1.2.0,Phases=2,Linecode=CABBTG05_4_2_2,Length=0.013000000,Units=km
new line.RBT_10160437 bus1=873552.1.2.0,bus2=4010160437.1.2.0,Phases=2,Linecode=CABBTG05_4_2_2,Length=0.010000000,Units=km
new line.RBT_10160479 bus1=3928695.1.2.3.0,bus2=4010160479.1.2.3.0,Phases=3,Linecode=CABBTG07_4_3_3,Length=0.022000000,Units=km
new line.RBT_10225711 bus1=3944186.1.2.3.0,bus2=4010225711.1.2.3.0,Phases=3,Linecode=CABBTG10_4_3_3,Length=0.017000000,Units=km
new line.RBT_10225712 bus1=2872451.1.2.3.0,bus2=4010225712.1.2.3.0,Phases=3,Linecode=CABBTG10_4_3_3,Length=0.017000000,Units=km
new line.RBT_10225716 bus1=4199735.1.2.0,bus2=4010225716.1.2.0,Phases=2,Linecode=CABBTG13_4_2_2,Length=0.017000000,Units=km
new line.RBT_10227805 bus1=4162236.1.2.0,bus2=4010227805.1.2.0,Phases=2,Linecode=CABBTG05_4_2_2,Length=0.017000000,Units=km
new line.RBT_10227865 bus1=4197915.1.2.3.0,bus2=4010227865.1.2.3.0,Phases=3,Linecode=CABBTG06_4_3_3,Length=0.017000000,Units=km
new line.RBT_10227878 bus1=865803.1.2.3.0,bus2=4010227878.1.2.3.0,Phases=3,Linecode=CABBTG06_4_3_3,Length=0.017000000,Units=km
new line.RBT_10227880 bus1=4224214.1.0,bus2=4010227880.1.0,Phases=1,Linecode=CABBTG02_4_1_1,Length=0.017000000,Units=km
new line.RBT_10297725 bus1=4175788.1.2.0,bus2=4010297725.1.2.0,Phases=2,Linecode=CABBTG05_4_2_2,Length=0.017000000,Units=km
new line.RBT_10297726 bus1=2872059.1.0,bus2=4010297726.1.0,Phases=1,Linecode=CABBTG02_4_1_1,Length=0.017000000,Units=km
new line.RBT_10300652 bus1=4031553.1.2.3.0,bus2=4010300652.1.2.3.0,Phases=3,Linecode=CABBTG08_4_3_3,Length=0.017000000,Units=km
new line.RBT_10300654 bus1=150905616.1.2.3.0,bus2=4010300654.1.2.3.0,Phases=3,Linecode=CABBTG09_4_3_3,Length=0.017000000,Units=km
new line.RBT_10300661 bus1=150905734.1.2.3.0,bus2=4010300661.1.2.3.0,Phases=3,Linecode=CABBTG09_4_3_3,Length=0.017000000,Units=km
new line.RBT_10300952 bus1=869667.1.2.3.0,bus2=4010300952.1.2.3.0,Phases=3,Linecode=CABBTG06_4_3_3,Length=0.017000000,Units=km
new line.RBT_10368271 bus1=153025213.1.2.3.0,bus2=4010368271.1.2.3.0,Phases=3,Linecode=CABBTG09_4_3_3,Length=0.017000000,Units=km
new line.RBT_10368808 bus1=869611.1.2.0,bus2=4010368808.1.2.0,Phases=2,Linecode=CABBTG05_4_2_2,Length=0.017000000,Units=km
new line.RBT_10439346 bus1=154248334.1.2.0,bus2=4010439346.1.2.0,Phases=2,Linecode=CABBTG05_4_2_2,Length=0.017000000,Units=km
new line.RBT_10439351 bus1=2871779.1.0,bus2=4010439351.1.0,Phases=1,Linecode=CABBTG02_4_1_1,Length=0.017000000,Units=km
new line.RBT_10439369 bus1=683278.1.2.0,bus2=4010439369.1.2.0,Phases=2,Linecode=CABBTG05_4_2_2,Length=0.017000000,Units=km
new line.RBT_10439372 bus1=154248334.1.2.0,bus2=4010439372.1.2.0,Phases=2,Linecode=CABBTG05_4_2_2,Length=0.017000000,Units=km
new line.RBT_10440510 bus1=4058356.1.2.0,bus2=4010440510.1.2.0,Phases=2,Linecode=CABBTG05_4_2_2,Length=0.017000000,Units=km
new line.RBT_10440659 bus1=864480.1.2.0,bus2=4010440659.1.2.0,Phases=2,Linecode=CABBTG05_4_2_2,Length=0.017000000,Units=km
new line.RBT_10530636 bus1=869464.1.2.0,bus2=4010530636.1.2.0,Phases=2,Linecode=CABBT811_4_2_2,Length=0.012000000,Units=km
new line.RBT_10531081 bus1=155595608.1.2.0,bus2=4010531081.1.2.0,Phases=2,Linecode=CABBTG05_4_2_2,Length=0.018000000,Units=km
new line.RBT_10573221 bus1=148636108.1.2.0,bus2=4010573221.1.2.0,Phases=2,Linecode=CABBTG05_4_2_2,Length=0.020000000,Units=km
new line.RBT_10573750 bus1=868260.1.2.0,bus2=4010573750.1.2.0,Phases=2,Linecode=CABBTG05_4_2_2,Length=0.011000000,Units=km
new line.RBT_10573757 bus1=865593.1.0,bus2=4010573757.1.0,Phases=1,Linecode=CABBTG02_4_1_1,Length=0.006000000,Units=km
new line.RBT_10573759 bus1=866727.1.2.0,bus2=4010573759.1.2.0,Phases=2,Linecode=CABBTG05_4_2_2,Length=0.012000000,Units=km
new line.RBT_10573774 bus1=4769752.1.2.0,bus2=4010573774.1.2.0,Phases=2,Linecode=CABBTG05_4_2_2,Length=0.007000000,Units=km
new line.RBT_10573780 bus1=4117982.1.2.0,bus2=4010573780.1.2.0,Phases=2,Linecode=CABBTG05_4_2_2,Length=0.016000000,Units=km
new line.RBT_10573781 bus1=121443464.1.2.0,bus2=4010573781.1.2.0,Phases=2,Linecode=CABBTG05_4_2_2,Length=0.014000000,Units=km
new line.RBT_10634221 bus1=869457.1.0,bus2=4010634221.1.0,Phases=1,Linecode=CABBTG02_4_1_1,Length=0.019000000,Units=km
new line.RBT_10635124 bus1=2033522.1.2.3.0,bus2=4010635124.1.2.3.0,Phases=3,Linecode=CABBT809_4_3_3,Length=0.015000000,Units=km
new line.RBT_10635583 bus1=2030981.1.2.3.0,bus2=4010635583.1.2.3.0,Phases=3,Linecode=CABBTG06_4_3_3,Length=0.017000000,Units=km
new line.RBT_10697105 bus1=4030076.1.2.0,bus2=4010697105.1.2.0,Phases=2,Linecode=CABBTG05_4_2_2,Length=0.025000000,Units=km
new line.RBT_10697140 bus1=2872052.1.2.0,bus2=4010697140.1.2.0,Phases=2,Linecode=CABBTG05_4_2_2,Length=0.017000000,Units=km
new line.RBT_10697141 bus1=4723342.1.2.0,bus2=4010697141.1.2.0,Phases=2,Linecode=CABBTG05_4_2_2,Length=0.017000000,Units=km
new line.RBT_10697144 bus1=689704.1.2.0,bus2=4010697144.1.2.0,Phases=2,Linecode=CABBTG05_4_2_2,Length=0.017000000,Units=km
new line.RBT_10851583 bus1=4264555.1.0,bus2=4010851583.1.0,Phases=1,Linecode=CABBTG02_4_1_1,Length=0.017000000,Units=km
new line.RBT_10851585 bus1=4218040.1.2.0,bus2=4010851585.1.2.0,Phases=2,Linecode=CABBTG05_4_2_2,Length=0.017000000,Units=km
new line.RBT_10853863 bus1=124840207.1.2.0,bus2=4010853863.1.2.0,Phases=2,Linecode=CABBTG05_4_2_2,Length=0.017000000,Units=km
new line.RBT_10854418 bus1=4159968.3.1.0,bus2=4010854418.3.1.0,Phases=2,Linecode=CABBTG05_4_2_2,Length=0.017000000,Units=km
new line.RBT_10854465 bus1=3944214.1.2.0,bus2=4010854465.1.2.0,Phases=2,Linecode=CABBTG05_4_2_2,Length=0.017000000,Units=km
new line.RBT_10854884 bus1=2870708.1.2.0,bus2=4010854884.1.2.0,Phases=2,Linecode=CABBTG05_4_2_2,Length=0.017000000,Units=km
new line.RBT_10854898 bus1=4773462.1.2.0,bus2=4010854898.1.2.0,Phases=2,Linecode=CABBTG05_4_2_2,Length=0.017000000,Units=km
new line.RBT_10854920 bus1=4528014.1.2.3.0,bus2=4010854920.1.2.3.0,Phases=3,Linecode=CABBT815_4_3_3,Length=0.017000000,Units=km
new line.RBT_10855107 bus1=679421.1.2.0,bus2=4010855107.1.2.0,Phases=2,Linecode=CABBTG05_4_2_2,Length=0.017000000,Units=km
new line.RBT_10920279 bus1=130296378.1.2.0,bus2=4010920279.1.2.0,Phases=2,Linecode=CABBTG05_4_2_2,Length=0.017000000,Units=km
new line.RBT_10920309 bus1=686995.1.2.0,bus2=4010920309.1.2.0,Phases=2,Linecode=CABBTG05_4_2_2,Length=0.017000000,Units=km
new line.RBT_10920322 bus1=865957.1.2.0,bus2=4010920322.1.2.0,Phases=2,Linecode=CABBTG05_4_2_2,Length=0.017000000,Units=km
new line.RBT_10920360 bus1=869142.2.3.0,bus2=4010920360.2.3.0,Phases=2,Linecode=CABBTG05_4_2_2,Length=0.007000000,Units=km
new line.RBT_10043556 bus1=2871709.1.0,bus2=4010043556.1.0,Phases=1,Linecode=CABBTG02_4_1_1,Length=0.017000000,Units=km
new line.RBT_10043559 bus1=2871688.1.2.0,bus2=4010043559.1.2.0,Phases=2,Linecode=CABBTG05_4_2_2,Length=0.017000000,Units=km
new line.RBT_10043930 bus1=4553858.1.2.3.0,bus2=4010043930.1.2.3.0,Phases=3,Linecode=CABBTG12_4_3_3,Length=0.017000000,Units=km
new line.RBT_10043937 bus1=2873585.1.2.0,bus2=4010043937.1.2.0,Phases=2,Linecode=CABBTG05_4_2_2,Length=0.017000000,Units=km
new line.RBT_10043942 bus1=869793.1.2.0,bus2=4010043942.1.2.0,Phases=2,Linecode=CABBTG05_4_2_2,Length=0.017000000,Units=km
new line.RBT_10043959 bus1=3928695.1.2.3.0,bus2=4010043959.1.2.3.0,Phases=3,Linecode=CABBTG06_4_3_3,Length=0.017000000,Units=km
new line.RBT_10045843 bus1=2871674.1.2.0,bus2=4010045843.1.2.0,Phases=2,Linecode=CABBTG05_4_2_2,Length=0.017000000,Units=km
new line.RBT_10045989 bus1=868295.1.2.0,bus2=4010045989.1.2.0,Phases=2,Linecode=CABBTG05_4_2_2,Length=0.017000000,Units=km
new line.RBT_10110032 bus1=873160.1.2.0,bus2=4010110032.1.2.0,Phases=2,Linecode=CABBTG05_4_2_2,Length=0.017000000,Units=km
new line.RBT_10110128 bus1=4690456.1.2.0,bus2=4010110128.1.2.0,Phases=2,Linecode=CABBTG05_4_2_2,Length=0.030000000,Units=km
new line.RBT_10110136 bus1=4057733.1.2.3.0,bus2=4010110136.1.2.3.0,Phases=3,Linecode=CABBTG06_4_3_3,Length=0.010000000,Units=km
new line.RBT_10110142 bus1=55481512.1.2.3.0,bus2=4010110142.1.2.3.0,Phases=3,Linecode=CABBTG06_4_3_3,Length=0.017000000,Units=km
new line.RBT_10110154 bus1=4185133.1.2.0,bus2=4010110154.1.2.0,Phases=2,Linecode=CABBTG05_4_2_2,Length=0.015000000,Units=km
new line.RBT_10110167 bus1=689697.1.2.0,bus2=4010110167.1.2.0,Phases=2,Linecode=CABBTG05_4_2_2,Length=0.015000000,Units=km
new line.RBT_10110170 bus1=2873732.1.2.0,bus2=4010110170.1.2.0,Phases=2,Linecode=CABBTG05_4_2_2,Length=0.010000000,Units=km
new line.RBT_10110646 bus1=3944214.1.2.0,bus2=4010110646.1.2.0,Phases=2,Linecode=CABBTG05_4_2_2,Length=0.015000000,Units=km
new line.RBT_10110647 bus1=4199021.1.2.0,bus2=4010110647.1.2.0,Phases=2,Linecode=CABBTG05_4_2_2,Length=0.008000000,Units=km
new line.RBT_10110712 bus1=112288024.1.2.0,bus2=4010110712.1.2.0,Phases=2,Linecode=CABBTG05_4_2_2,Length=0.015000000,Units=km
new line.RBT_10110714 bus1=866769.1.2.3.0,bus2=4010110714.1.2.3.0,Phases=3,Linecode=CABBTG07_4_3_3,Length=0.009000000,Units=km
new line.RBT_10110739 bus1=868918.1.2.3.0,bus2=4010110739.1.2.3.0,Phases=3,Linecode=CABBTG06_4_3_3,Length=0.020000000,Units=km
new line.RBT_10110750 bus1=2871681.1.2.3.0,bus2=4010110750.1.2.3.0,Phases=3,Linecode=CABBTG06_4_3_3,Length=0.020000000,Units=km
new line.RBT_10177564 bus1=2877988.1.0,bus2=4010177564.1.0,Phases=1,Linecode=CABBTG02_4_1_1,Length=0.017000000,Units=km
new line.RBT_10178071 bus1=869009.1.2.3.0,bus2=4010178071.1.2.3.0,Phases=3,Linecode=CABBTG11_4_3_3,Length=0.017000000,Units=km
new line.RBT_10178334 bus1=866573.1.2.3.0,bus2=4010178334.1.2.3.0,Phases=3,Linecode=CABBTG06_4_3_3,Length=0.017000000,Units=km
new line.RBT_10178800 bus1=4224214.1.0,bus2=4010178800.1.0,Phases=1,Linecode=CABBTG02_4_1_1,Length=0.017000000,Units=km
new line.RBT_10178806 bus1=112009466.1.2.0,bus2=4010178806.1.2.0,Phases=2,Linecode=CABBTG05_4_2_2,Length=0.017000000,Units=km
new line.RBT_10179011 bus1=4218124.1.2.0,bus2=4010179011.1.2.0,Phases=2,Linecode=CABBTG05_4_2_2,Length=0.017000000,Units=km
new line.RBT_10179183 bus1=2863995.2.0,bus2=4010179183.2.0,Phases=1,Linecode=CABBTG02_4_1_1,Length=0.017000000,Units=km
new line.RBT_10245310 bus1=868701.2.0,bus2=4010245310.2.0,Phases=1,Linecode=CABBTG02_4_1_1,Length=0.017000000,Units=km
new line.RBT_10246507 bus1=109379769.1.2.0,bus2=4010246507.1.2.0,Phases=2,Linecode=CABBTG04_4_2_2,Length=0.017000000,Units=km
new line.RBT_10246527 bus1=3737994.1.2.0,bus2=4010246527.1.2.0,Phases=2,Linecode=CABBTG05_4_2_2,Length=0.017000000,Units=km
new line.RBT_10331612 bus1=88848370.1.2.3.0,bus2=4010331612.1.2.3.0,Phases=3,Linecode=CABBTG08_4_3_3,Length=0.017000000,Units=km
new line.RBT_10332444 bus1=4118017.1.2.3.0,bus2=4010332444.1.2.3.0,Phases=3,Linecode=CABBTG06_4_3_3,Length=0.017000000,Units=km
new line.RBT_10422384 bus1=4176089.1.2.3.0,bus2=4010422384.1.2.3.0,Phases=3,Linecode=CABBTG06_4_3_3,Length=0.017000000,Units=km
new line.RBT_10480002 bus1=4057313.1.2.3.0,bus2=4010480002.1.2.3.0,Phases=3,Linecode=CABBTG06_4_3_3,Length=0.017000000,Units=km
new line.RBT_10480006 bus1=4146913.1.2.0,bus2=4010480006.1.2.0,Phases=2,Linecode=CABBTG05_4_2_2,Length=0.017000000,Units=km
new line.RBT_10481186 bus1=865012.1.2.0,bus2=4010481186.1.2.0,Phases=2,Linecode=CABBT811_4_2_2,Length=0.008000000,Units=km
new line.RBT_10481604 bus1=2871702.1.2.3.0,bus2=4010481604.1.2.3.0,Phases=3,Linecode=CABBTG06_4_3_3,Length=0.010000000,Units=km
new line.RBT_10559818 bus1=3285731.1.2.3.0,bus2=4010559818.1.2.3.0,Phases=3,Linecode=CABBTG06_4_3_3,Length=0.017000000,Units=km
new line.RBT_10559820 bus1=4176117.1.2.3.0,bus2=4010559820.1.2.3.0,Phases=3,Linecode=CABBTG06_4_3_3,Length=0.017000000,Units=km
new line.RBT_10559833 bus1=869821.2.3.0,bus2=4010559833.2.3.0,Phases=2,Linecode=CABBTG05_4_2_2,Length=0.017000000,Units=km
new line.RBT_10559836 bus1=868701.2.3.0,bus2=4010559836.2.3.0,Phases=2,Linecode=CABBTG05_4_2_2,Length=0.017000000,Units=km
new line.RBT_10623423 bus1=4292002.1.2.0,bus2=4010623423.1.2.0,Phases=2,Linecode=CABBTG05_4_2_2,Length=0.020000000,Units=km
new line.RBT_10695512 bus1=4167479.1.2.0,bus2=4010695512.1.2.0,Phases=2,Linecode=CABBTG05_4_2_2,Length=0.017000000,Units=km
new line.RBT_10793835 bus1=4211502.1.0,bus2=4010793835.1.0,Phases=1,Linecode=CABBTG02_4_1_1,Length=0.017000000,Units=km
new line.RBT_10793838 bus1=4264555.1.0,bus2=4010793838.1.0,Phases=1,Linecode=CABBTG02_4_1_1,Length=0.017000000,Units=km
new line.RBT_10793841 bus1=3386643.1.2.0,bus2=4010793841.1.2.0,Phases=2,Linecode=CABBTG05_4_2_2,Length=0.017000000,Units=km
new line.RBT_10845285 bus1=865943.1.2.0,bus2=4010845285.1.2.0,Phases=2,Linecode=CABBTG05_4_2_2,Length=0.017000000,Units=km
new line.RBT_10845292 bus1=864858.1.2.3.0,bus2=4010845292.1.2.3.0,Phases=3,Linecode=CABBTG06_4_3_3,Length=0.017000000,Units=km
new line.RBT_10845294 bus1=868162.1.2.0,bus2=4010845294.1.2.0,Phases=2,Linecode=CABBTG05_4_2_2,Length=0.017000000,Units=km
new line.RBT_10930014 bus1=868701.1.2.0,bus2=4010930014.1.2.0,Phases=2,Linecode=CABBTG05_4_2_2,Length=0.017000000,Units=km
new line.RBT_10930027 bus1=689697.1.2.0,bus2=4010930027.1.2.0,Phases=2,Linecode=CABBTG05_4_2_2,Length=0.017000000,Units=km
new line.RBT_10930029 bus1=166385555.1.2.0,bus2=4010930029.1.2.0,Phases=2,Linecode=CABBTG05_4_2_2,Length=0.017000000,Units=km
new line.RBT_10989473 bus1=869751.2.0,bus2=4010989473.2.0,Phases=1,Linecode=CABBTG02_4_1_1,Length=0.017000000,Units=km
new line.RBT_10989982 bus1=156264478.1.0,bus2=4010989982.1.0,Phases=1,Linecode=CABBTG02_4_1_1,Length=0.017000000,Units=km
new line.RBT_10990783 bus1=2035279.1.2.0,bus2=4010990783.1.2.0,Phases=2,Linecode=CABBTG05_4_2_2,Length=0.017000000,Units=km
new line.RBT_10990928 bus1=875463.1.2.0,bus2=4010990928.1.2.0,Phases=2,Linecode=CABBTG05_4_2_2,Length=0.017000000,Units=km
new line.RBT_10090424 bus1=148138643.1.2.3.0,bus2=4010090424.1.2.3.0,Phases=3,Linecode=CABBTG06_4_3_3,Length=0.017000000,Units=km
new line.RBT_10091520 bus1=4144211.1.2.0,bus2=4010091520.1.2.0,Phases=2,Linecode=CABBTG05_4_2_2,Length=0.017000000,Units=km
new line.RBT_10091528 bus1=869821.1.2.3.0,bus2=4010091528.1.2.3.0,Phases=3,Linecode=CABBTG06_4_3_3,Length=0.017000000,Units=km
new line.RBT_10091530 bus1=130625217.1.2.0,bus2=4010091530.1.2.0,Phases=2,Linecode=CABBTG05_4_2_2,Length=0.017000000,Units=km
new line.RBT_10091536 bus1=148636105.1.0,bus2=4010091536.1.0,Phases=1,Linecode=CABBTG02_4_1_1,Length=0.017000000,Units=km
new line.RBT_10091546 bus1=148361077.1.2.0,bus2=4010091546.1.2.0,Phases=2,Linecode=CABBTG05_4_2_2,Length=0.022000000,Units=km
new line.RBT_10091558 bus1=865726.1.2.0,bus2=4010091558.1.2.0,Phases=2,Linecode=CABBTG05_4_2_2,Length=0.017000000,Units=km
new line.RBT_10091564 bus1=4040233.1.0,bus2=4010091564.1.0,Phases=1,Linecode=CABBTG02_4_1_1,Length=0.017000000,Units=km
new line.RBT_10091575 bus1=148636108.1.2.0,bus2=4010091575.1.2.0,Phases=2,Linecode=CABBTG05_4_2_2,Length=0.017000000,Units=km
new line.RBT_10161967 bus1=873762.1.2.0,bus2=4010161967.1.2.0,Phases=2,Linecode=CABBTG05_4_2_2,Length=0.017000000,Units=km
new line.RBT_10162924 bus1=121370741.1.2.3.0,bus2=4010162924.1.2.3.0,Phases=3,Linecode=CABBTG09_4_3_3,Length=0.017000000,Units=km
new line.RBT_10163614 bus1=868309.3.1.0,bus2=4010163614.3.1.0,Phases=2,Linecode=CABBTG04_4_2_2,Length=0.017000000,Units=km
new line.RBT_10229210 bus1=4144225.1.2.0,bus2=4010229210.1.2.0,Phases=2,Linecode=CABBTG13_4_2_2,Length=0.017000000,Units=km
new line.RBT_10229718 bus1=148137781.1.2.3.0,bus2=4010229718.1.2.3.0,Phases=3,Linecode=CABBTG06_4_3_3,Length=0.017000000,Units=km
new line.RBT_10229719 bus1=4031686.1.2.0,bus2=4010229719.1.2.0,Phases=2,Linecode=CABBTG05_4_2_2,Length=0.017000000,Units=km
new line.RBT_10229744 bus1=868218.1.2.0,bus2=4010229744.1.2.0,Phases=2,Linecode=CABBTG05_4_2_2,Length=0.017000000,Units=km
new line.RBT_10295693 bus1=2034439.1.2.3.0,bus2=4010295693.1.2.3.0,Phases=3,Linecode=CABBTG06_4_3_3,Length=0.017000000,Units=km
new line.RBT_10295807 bus1=121443114.1.2.0,bus2=4010295807.1.2.0,Phases=2,Linecode=CABBTG05_4_2_2,Length=0.017000000,Units=km
new line.RBT_10296695 bus1=4189942.1.2.0,bus2=4010296695.1.2.0,Phases=2,Linecode=CABBTG05_4_2_2,Length=0.017000000,Units=km
new line.RBT_10297011 bus1=2872997.1.0,bus2=4010297011.1.0,Phases=1,Linecode=CABBTG02_4_1_1,Length=0.017000000,Units=km
new line.RBT_10373341 bus1=3504894.1.2.3.0,bus2=4010373341.1.2.3.0,Phases=3,Linecode=CABBTG06_4_3_3,Length=0.017000000,Units=km
new line.RBT_10373345 bus1=5073566.1.2.0,bus2=4010373345.1.2.0,Phases=2,Linecode=CABBTG05_4_2_2,Length=0.017000000,Units=km
new line.RBT_10373384 bus1=4040282.1.2.0,bus2=4010373384.1.2.0,Phases=2,Linecode=CABBTG05_4_2_2,Length=0.017000000,Units=km
new line.RBT_10373748 bus1=866293.1.0,bus2=4010373748.1.0,Phases=1,Linecode=CABBTG02_4_1_1,Length=0.017000000,Units=km
new line.RBT_10373753 bus1=4226503.1.2.0,bus2=4010373753.1.2.0,Phases=2,Linecode=CABBTG05_4_2_2,Length=0.017000000,Units=km
new line.RBT_10373833 bus1=4176117.1.2.0,bus2=4010373833.1.2.0,Phases=2,Linecode=CABBTG05_4_2_2,Length=0.017000000,Units=km
new line.RBT_10373881 bus1=2032633.1.2.0,bus2=4010373881.1.2.0,Phases=2,Linecode=CABBTG05_4_2_2,Length=0.017000000,Units=km
new line.RBT_10373957 bus1=88627611.1.0,bus2=4010373957.1.0,Phases=1,Linecode=CABBTG02_4_1_1,Length=0.017000000,Units=km
new line.RBT_10373960 bus1=121443730.1.0,bus2=4010373960.1.0,Phases=1,Linecode=CABBTG02_4_1_1,Length=0.017000000,Units=km
new line.RBT_10374009 bus1=4031672.1.2.0,bus2=4010374009.1.2.0,Phases=2,Linecode=CABBTG05_4_2_2,Length=0.017000000,Units=km
new line.RBT_10374307 bus1=3382737.1.2.0,bus2=4010374307.1.2.0,Phases=2,Linecode=CABBTG05_4_2_2,Length=0.017000000,Units=km
new line.RBT_10470500 bus1=4040338.1.2.3.0,bus2=4010470500.1.2.3.0,Phases=3,Linecode=CABBTG06_4_3_3,Length=0.017000000,Units=km
new line.RBT_10524874 bus1=4719954.1.2.0,bus2=4010524874.1.2.0,Phases=2,Linecode=CABBTG05_4_2_2,Length=0.012000000,Units=km
new line.RBT_10525609 bus1=2872143.1.2.0,bus2=4010525609.1.2.0,Phases=2,Linecode=CABBT811_4_2_2,Length=0.010000000,Units=km
new line.RBT_10525787 bus1=4224242.1.2.0,bus2=4010525787.1.2.0,Phases=2,Linecode=CABBTG05_4_2_2,Length=0.006000000,Units=km
new line.RBT_10525789 bus1=126632277.1.2.3.0,bus2=4010525789.1.2.3.0,Phases=3,Linecode=CABBTG08_4_3_3,Length=0.017000000,Units=km
new line.RBT_10592277 bus1=4769759.1.2.0,bus2=4010592277.1.2.0,Phases=2,Linecode=CABBTG05_4_2_2,Length=0.025000000,Units=km
new line.RBT_10642271 bus1=868519.1.2.3.0,bus2=4010642271.1.2.3.0,Phases=3,Linecode=CABBTG09_4_3_3,Length=0.017000000,Units=km
new line.RBT_10872761 bus1=4188304.1.0,bus2=4010872761.1.0,Phases=1,Linecode=CABBTG02_4_1_1,Length=0.017000000,Units=km
new line.RBT_10872783 bus1=4218152.1.2.0,bus2=4010872783.1.2.0,Phases=2,Linecode=CABBTG05_4_2_2,Length=0.017000000,Units=km
new line.RBT_10872789 bus1=864599.1.2.3.0,bus2=4010872789.1.2.3.0,Phases=3,Linecode=CABBTG06_4_3_3,Length=0.017000000,Units=km
new line.RBT_10872814 bus1=866160.2.3.0,bus2=4010872814.2.3.0,Phases=2,Linecode=CABBTG05_4_2_2,Length=0.017000000,Units=km
new line.RBT_10872820 bus1=2871751.1.2.3.0,bus2=4010872820.1.2.3.0,Phases=3,Linecode=CABBTG06_4_3_3,Length=0.017000000,Units=km
new line.RBT_10872849 bus1=868127.1.2.0,bus2=4010872849.1.2.0,Phases=2,Linecode=CABBTG05_4_2_2,Length=0.017000000,Units=km
new line.RBT_10872855 bus1=4156629.1.2.0,bus2=4010872855.1.2.0,Phases=2,Linecode=CABBTG05_4_2_2,Length=0.017000000,Units=km
new line.RBT_10872860 bus1=683264.1.2.0,bus2=4010872860.1.2.0,Phases=2,Linecode=CABBTG05_4_2_2,Length=0.017000000,Units=km
new line.RBT_10872862 bus1=4156622.1.2.0,bus2=4010872862.1.2.0,Phases=2,Linecode=CABBTG05_4_2_2,Length=0.017000000,Units=km
new line.RBT_10872868 bus1=3944214.1.2.0,bus2=4010872868.1.2.0,Phases=2,Linecode=CABBTG05_4_2_2,Length=0.017000000,Units=km
new line.RBT_10872871 bus1=2872444.1.2.0,bus2=4010872871.1.2.0,Phases=2,Linecode=CABBTG05_4_2_2,Length=0.017000000,Units=km
new line.RBT_10872984 bus1=4162250.1.2.0,bus2=4010872984.1.2.0,Phases=2,Linecode=CABBTG05_4_2_2,Length=0.017000000,Units=km
new line.RBT_10873015 bus1=868330.1.2.0,bus2=4010873015.1.2.0,Phases=2,Linecode=CABBTG05_4_2_2,Length=0.017000000,Units=km
new line.RBT_10873028 bus1=4226454.1.2.0,bus2=4010873028.1.2.0,Phases=2,Linecode=CABBTG05_4_2_2,Length=0.017000000,Units=km
new line.RBT_10873093 bus1=3221877.1.2.3.0,bus2=4010873093.1.2.3.0,Phases=3,Linecode=CABBTG06_4_3_3,Length=0.017000000,Units=km
new line.RBT_10873109 bus1=2872969.1.2.0,bus2=4010873109.1.2.0,Phases=2,Linecode=CABBTG05_4_2_2,Length=0.017000000,Units=km
new line.RBT_10983721 bus1=865698.1.2.0,bus2=4010983721.1.2.0,Phases=2,Linecode=CABBTG05_4_2_2,Length=0.017000000,Units=km
new line.RBT_10983734 bus1=4178945.1.2.0,bus2=4010983734.1.2.0,Phases=2,Linecode=CABBTG05_4_2_2,Length=0.017000000,Units=km
new line.RBT_10983741 bus1=870031.2.3.0,bus2=4010983741.2.3.0,Phases=2,Linecode=CABBTG05_4_2_2,Length=0.017000000,Units=km
new line.RBT_10115430 bus1=2032857.1.2.3.0,bus2=4010115430.1.2.3.0,Phases=3,Linecode=CABBTG06_4_3_3,Length=0.017000000,Units=km
new line.RBT_10117826 bus1=3414398.1.2.0,bus2=4010117826.1.2.0,Phases=2,Linecode=CABBTG05_4_2_2,Length=0.017000000,Units=km
new line.RBT_10188074 bus1=685252.1.2.0,bus2=4010188074.1.2.0,Phases=2,Linecode=CABBTG05_4_2_2,Length=0.017000000,Units=km
new line.RBT_10188078 bus1=130626176.1.2.3.0,bus2=4010188078.1.2.3.0,Phases=3,Linecode=CABBTG06_4_3_3,Length=0.017000000,Units=km
new line.RBT_10188314 bus1=869856.1.2.3.0,bus2=4010188314.1.2.3.0,Phases=3,Linecode=CABBTG07_4_3_3,Length=0.017000000,Units=km
new line.RBT_10188316 bus1=869121.1.2.3.0,bus2=4010188316.1.2.3.0,Phases=3,Linecode=CABBTG06_4_3_3,Length=0.017000000,Units=km
new line.RBT_10188322 bus1=866097.1.2.0,bus2=4010188322.1.2.0,Phases=2,Linecode=CABBTG05_4_2_2,Length=0.017000000,Units=km
new line.RBT_10188323 bus1=866202.1.2.3.0,bus2=4010188323.1.2.3.0,Phases=3,Linecode=CABBTG06_4_3_3,Length=0.017000000,Units=km
new line.RBT_10188328 bus1=867861.1.2.0,bus2=4010188328.1.2.0,Phases=2,Linecode=CABBTG05_4_2_2,Length=0.017000000,Units=km
new line.RBT_10256076 bus1=4374028.1.2.0,bus2=4010256076.1.2.0,Phases=2,Linecode=CABBTG05_4_2_2,Length=0.017000000,Units=km
new line.RBT_10256079 bus1=867833.1.2.0,bus2=4010256079.1.2.0,Phases=2,Linecode=CABBTG05_4_2_2,Length=0.017000000,Units=km
new line.RBT_10256082 bus1=876023.1.2.3.0,bus2=4010256082.1.2.3.0,Phases=3,Linecode=CABBTG12_4_3_3,Length=0.017000000,Units=km