new loadshape.ccurvaUGBT npts=24,interval=1.0,mult=[0.0001,0.0001,0.0001,0.0001,0.0001,0.0001,0.17,0.47,0.7,0.9,1,1,0.93,0.8,0.53,0.33,0.2,0.13,0.0001,0.0001,0.0001,0.0001,0.0001,0.0001]
new generator.3001625908 bus1=1001004050369.1.2.3.0,Phases=3,kv=0.22,kW=1.20117,pf=1,model=1,daily=ccurvaUGBT,status=Variable
new generator.3001625926 bus1=1001004055164.1.2.0,Phases=2,kv=0.22,kW=1.99203,pf=1,model=1,daily=ccurvaUGBT,status=Variable
new generator.3001625934 bus1=1001004054576.3.1.0,Phases=2,kv=0.22,kW=1.71755,pf=1,model=1,daily=ccurvaUGBT,status=Variable
new generator.3001625940 bus1=1001004054520.1.2.3.0,Phases=3,kv=0.22,kW=2.27784,pf=1,model=1,daily=ccurvaUGBT,status=Variable
new generator.3001625946 bus1=1001004051181.1.2.3.0,Phases=3,kv=0.22,kW=0.8569,pf=1,model=1,daily=ccurvaUGBT,status=Variable
new generator.3001625956 bus1=1001004037979.1.2.3.0,Phases=3,kv=0.22,kW=3.50747,pf=1,model=1,daily=ccurvaUGBT,status=Variable
new generator.3001625957 bus1=1001004037972.2.3.0,Phases=2,kv=0.22,kW=0.46896,pf=1,model=1,daily=ccurvaUGBT,status=Variable
new generator.3001625989 bus1=1001004051244.3.1.0,Phases=2,kv=0.22,kW=3.21472,pf=1,model=1,daily=ccurvaUGBT,status=Variable
new generator.3001625995 bus1=1001004051174.1.2.3.0,Phases=3,kv=0.22,kW=2.03853,pf=1,model=1,daily=ccurvaUGBT,status=Variable
new generator.3001626004 bus1=1001004052112.2.3.0,Phases=2,kv=0.22,kW=0.96947,pf=1,model=1,daily=ccurvaUGBT,status=Variable
new generator.3001626005 bus1=1001004048143.1.2.0,Phases=2,kv=0.22,kW=1.73815,pf=1,model=1,daily=ccurvaUGBT,status=Variable
new generator.3001626008 bus1=1001004060260.1.2.3.0,Phases=3,kv=0.22,kW=2.30554,pf=1,model=1,daily=ccurvaUGBT,status=Variable
new generator.3001626012 bus1=1001004060204.1.2.3.0,Phases=3,kv=0.22,kW=0.49961,pf=1,model=1,daily=ccurvaUGBT,status=Variable
new generator.3001626022 bus1=1001004048220.1.2.3.0,Phases=3,kv=0.22,kW=3.09288,pf=1,model=1,daily=ccurvaUGBT,status=Variable
new generator.3001626030 bus1=1001004048360.1.2.3.0,Phases=3,kv=0.22,kW=1.39383,pf=1,model=1,daily=ccurvaUGBT,status=Variable
new generator.3001626031 bus1=1001004048269.1.2.3.0,Phases=3,kv=0.22,kW=3.35801,pf=1,model=1,daily=ccurvaUGBT,status=Variable
new generator.3001626039 bus1=1001004052140.1.2.3.0,Phases=3,kv=0.22,kW=2.35725,pf=1,model=1,daily=ccurvaUGBT,status=Variable
new generator.3001626044 bus1=1001004052231.1.2.0,Phases=2,kv=0.22,kW=2.91176,pf=1,model=1,daily=ccurvaUGBT,status=Variable
new generator.3001626061 bus1=1001004053407.1.2.3.0,Phases=3,kv=0.22,kW=2.65015,pf=1,model=1,daily=ccurvaUGBT,status=Variable
new generator.3001626071 bus1=1001004054562.1.2.3.0,Phases=3,kv=0.22,kW=2.22032,pf=1,model=1,daily=ccurvaUGBT,status=Variable
new generator.3001626101 bus1=1001004053491.1.2.0,Phases=2,kv=0.22,kW=1.5091,pf=1,model=1,daily=ccurvaUGBT,status=Variable
new generator.3001626104 bus1=1001004055129.1.2.3.0,Phases=3,kv=0.22,kW=3.00659,pf=1,model=1,daily=ccurvaUGBT,status=Variable
new generator.3001626106 bus1=1001004055178.2.3.0,Phases=2,kv=0.22,kW=1.42991,pf=1,model=1,daily=ccurvaUGBT,status=Variable
new generator.3001626107 bus1=1001004055185.1.2.3.0,Phases=3,kv=0.22,kW=2.09185,pf=1,model=1,daily=ccurvaUGBT,status=Variable
new generator.3001626108 bus1=1001004055122.1.2.0,Phases=2,kv=0.22,kW=2.8189,pf=1,model=1,daily=ccurvaUGBT,status=Variable
new generator.3001626124 bus1=1001004053827.1.2.3.0,Phases=3,kv=0.22,kW=1.57423,pf=1,model=1,daily=ccurvaUGBT,status=Variable
new generator.3001626141 bus1=1001004050285.1.2.3.0,Phases=3,kv=0.22,kW=0.66749,pf=1,model=1,daily=ccurvaUGBT,status=Variable
new generator.3001626166 bus1=1001004057432.1.2.0,Phases=2,kv=0.22,kW=2.4781,pf=1,model=1,daily=ccurvaUGBT,status=Variable
new generator.3001626172 bus1=1001004057488.1.2.0,Phases=2,kv=0.22,kW=3.21567,pf=1,model=1,daily=ccurvaUGBT,status=Variable
new generator.3001626176 bus1=1001011063176.1.2.3.0,Phases=3,kv=0.22,kW=2.48706,pf=1,model=1,daily=ccurvaUGBT,status=Variable
new generator.3001626196 bus1=1001004059560.1.2.0,Phases=2,kv=0.22,kW=0.47077,pf=1,model=1,daily=ccurvaUGBT,status=Variable
new generator.3001626197 bus1=1001004059497.1.2.3.0,Phases=3,kv=0.22,kW=2.71606,pf=1,model=1,daily=ccurvaUGBT,status=Variable
new generator.3001626215 bus1=1001004050257.3.1.0,Phases=2,kv=0.22,kW=1.28337,pf=1,model=1,daily=ccurvaUGBT,status=Variable
new generator.3001626217 bus1=1001004058678.2.3.0,Phases=2,kv=0.22,kW=0.75498,pf=1,model=1,daily=ccurvaUGBT,status=Variable
new generator.3001626231 bus1=1001004058377.1.2.3.0,Phases=3,kv=0.22,kW=6.22572,pf=1,model=1,daily=ccurvaUGBT,status=Variable
new generator.3001626255 bus1=1001004059238.1.2.0,Phases=2,kv=0.22,kW=2.88777,pf=1,model=1,daily=ccurvaUGBT,status=Variable
new generator.3001626260 bus1=1001004059140.1.2.3.0,Phases=3,kv=0.22,kW=1.51433,pf=1,model=1,daily=ccurvaUGBT,status=Variable
new generator.3001626267 bus1=1001004056641.1.2.3.0,Phases=3,kv=0.22,kW=1.59007,pf=1,model=1,daily=ccurvaUGBT,status=Variable
new generator.3001626275 bus1=1001004058629.1.2.3.0,Phases=3,kv=0.22,kW=0.8289,pf=1,model=1,daily=ccurvaUGBT,status=Variable
new generator.3001626277 bus1=1001004058594.1.2.3.0,Phases=3,kv=0.22,kW=0.51457,pf=1,model=1,daily=ccurvaUGBT,status=Variable
new generator.3001626280 bus1=1001004058559.1.2.3.0,Phases=3,kv=0.22,kW=1.72071,pf=1,model=1,daily=ccurvaUGBT,status=Variable
new generator.3001626299 bus1=1001004055689.2.3.0,Phases=2,kv=0.22,kW=2.89444,pf=1,model=1,daily=ccurvaUGBT,status=Variable
new generator.3001626301 bus1=1001004055668.1.2.3.0,Phases=3,kv=0.22,kW=0.92633,pf=1,model=1,daily=ccurvaUGBT,status=Variable
new generator.3001626302 bus1=1001004055675.1.2.3.0,Phases=3,kv=0.22,kW=3.14791,pf=1,model=1,daily=ccurvaUGBT,status=Variable
new generator.3001626306 bus1=1001004055577.1.2.3.0,Phases=3,kv=0.22,kW=7.64009,pf=1,model=1,daily=ccurvaUGBT,status=Variable
new generator.3001626313 bus1=1001004055647.1.2.3.0,Phases=3,kv=0.22,kW=1.40216,pf=1,model=1,daily=ccurvaUGBT,status=Variable
new generator.3001626327 bus1=1001004059203.1.2.0,Phases=2,kv=0.22,kW=1.33975,pf=1,model=1,daily=ccurvaUGBT,status=Variable
new generator.3004363103 bus1=1001001741517.1.2.0,Phases=2,kv=0.22,kW=1.13647,pf=1,model=1,daily=ccurvaUGBT,status=Variable
new generator.3004364187 bus1=1001001745990.1.2.0,Phases=2,kv=0.22,kW=1.06828,pf=1,model=1,daily=ccurvaUGBT,status=Variable
new generator.3005925542 bus1=1001006177949.1.2.0,Phases=2,kv=0.22,kW=2.25942,pf=1,model=1,daily=ccurvaUGBT,status=Variable
new generator.3006037014 bus1=1001006420100.1.2.3.0,Phases=3,kv=0.22,kW=1.25911,pf=1,model=1,daily=ccurvaUGBT,status=Variable
new generator.3006050761 bus1=1001006284370.1.2.0,Phases=2,kv=0.22,kW=3.33999,pf=1,model=1,daily=ccurvaUGBT,status=Variable
new generator.3006053084 bus1=1001006288549.1.2.0,Phases=2,kv=0.22,kW=2.47435,pf=1,model=1,daily=ccurvaUGBT,status=Variable
new generator.3006062611 bus1=1001001745563.1.2.3.0,Phases=3,kv=0.22,kW=5.1081,pf=1,model=1,daily=ccurvaUGBT,status=Variable
new generator.3006794233 bus1=1001007090686.1.2.3.0,Phases=3,kv=0.22,kW=5.82312,pf=1,model=1,daily=ccurvaUGBT,status=Variable
new generator.3010134141 bus1=1001007662383.1.2.0,Phases=2,kv=0.22,kW=0.7522,pf=1,model=1,daily=ccurvaUGBT,status=Variable
new generator.3000195934 bus1=1001001737772.1.2.3.0,Phases=3,kv=0.22,kW=20.6794,pf=1,model=1,daily=ccurvaUGBT,status=Variable
new generator.3000195937 bus1=1001007022198.1.2.3.0,Phases=3,kv=0.22,kW=16.21914,pf=1,model=1,daily=ccurvaUGBT,status=Variable
new generator.3000195938 bus1=1001001737352.1.2.3.0,Phases=3,kv=0.22,kW=21.17499,pf=1,model=1,daily=ccurvaUGBT,status=Variable
new generator.3000195944 bus1=1001006650876.1.2.3.0,Phases=3,kv=0.22,kW=13.42584,pf=1,model=1,daily=ccurvaUGBT,status=Variable
new generator.3000196024 bus1=1001001740404.1.0,Phases=1,kv=0.127,kW=0.68612,pf=1,model=1,daily=ccurvaUGBT,status=Variable
new generator.3005382815 bus1=1001001738808.1.2.3.0,Phases=3,kv=0.22,kW=9.99921,pf=1,model=1,daily=ccurvaUGBT,status=Variable
new generator.3006320450 bus1=1001006663294.1.2.3.0,Phases=3,kv=0.22,kW=1.66377,pf=1,model=1,daily=ccurvaUGBT,status=Variable
new generator.3006325465 bus1=1001006732846.1.2.3.0,Phases=3,kv=0.22,kW=3.85689,pf=1,model=1,daily=ccurvaUGBT,status=Variable
new generator.3006334332 bus1=1001006728597.1.2.0,Phases=2,kv=0.22,kW=1.24876,pf=1,model=1,daily=ccurvaUGBT,status=Variable
new generator.3006336414 bus1=1001006731082.1.2.3.0,Phases=3,kv=0.22,kW=0.18707,pf=1,model=1,daily=ccurvaUGBT,status=Variable
new generator.3006680664 bus1=1001006973380.1.2.0,Phases=2,kv=0.22,kW=2.08917,pf=1,model=1,daily=ccurvaUGBT,status=Variable
new generator.3006692578 bus1=1001006974045.1.2.3.0,Phases=3,kv=0.22,kW=1.89626,pf=1,model=1,daily=ccurvaUGBT,status=Variable
new generator.3006693801 bus1=1001006987219.1.2.3.0,Phases=3,kv=0.22,kW=12.51995,pf=1,model=1,daily=ccurvaUGBT,status=Variable
new generator.3006710654 bus1=1001006974780.1.0,Phases=1,kv=0.127,kW=6.25113,pf=1,model=1,daily=ccurvaUGBT,status=Variable
new generator.3007041993 bus1=1001007164298.1.2.3.0,Phases=3,kv=0.22,kW=1.38915,pf=1,model=1,daily=ccurvaUGBT,status=Variable
new generator.3010420684 bus1=1001008055027.1.2.3.0,Phases=3,kv=0.22,kW=10.00723,pf=1,model=1,daily=ccurvaUGBT,status=Variable
new generator.3010441837 bus1=1001007826407.1.2.3.0,Phases=3,kv=0.22,kW=5.81186,pf=1,model=1,daily=ccurvaUGBT,status=Variable
new generator.3013412385 bus1=1001010780414.1.2.3.0,Phases=3,kv=0.22,kW=4.99189,pf=1,model=1,daily=ccurvaUGBT,status=Variable
new generator.3013423356 bus1=1001011261409.1.2.0,Phases=2,kv=0.22,kW=0.93782,pf=1,model=1,daily=ccurvaUGBT,status=Variable
new generator.3014478966 bus1=1001011238475.1.2.0,Phases=2,kv=0.22,kW=0.39548,pf=1,model=1,daily=ccurvaUGBT,status=Variable
new generator.3004423569 bus1=1001001743911.1.2.0,Phases=2,kv=0.22,kW=1.13327,pf=1,model=1,daily=ccurvaUGBT,status=Variable
new generator.3004425067 bus1=1001004038042.1.2.3.0,Phases=3,kv=0.22,kW=2.14457,pf=1,model=1,daily=ccurvaUGBT,status=Variable
new generator.3006229039 bus1=1001006716753.2.3.0,Phases=2,kv=0.22,kW=2.78666,pf=1,model=1,daily=ccurvaUGBT,status=Variable
new generator.3006232209 bus1=1001010941384.1.2.0,Phases=2,kv=0.22,kW=0.19118,pf=1,model=1,daily=ccurvaUGBT,status=Variable
new generator.3007514509 bus1=1001007401542.1.2.0,Phases=2,kv=0.22,kW=1.23229,pf=1,model=1,daily=ccurvaUGBT,status=Variable
new generator.3007514795 bus1=1001007401591.1.2.3.0,Phases=3,kv=0.22,kW=9.01401,pf=1,model=1,daily=ccurvaUGBT,status=Variable
new generator.3010610430 bus1=1001008004179.1.2.0,Phases=2,kv=0.22,kW=1.62637,pf=1,model=1,daily=ccurvaUGBT,status=Variable
new generator.3010621707 bus1=1001008213731.1.2.0,Phases=2,kv=0.22,kW=1.18154,pf=1,model=1,daily=ccurvaUGBT,status=Variable
new generator.3010624149 bus1=1001008016107.1.2.0,Phases=2,kv=0.22,kW=1.81195,pf=1,model=1,daily=ccurvaUGBT,status=Variable
new generator.3011196072 bus1=1001008884590.1.2.0,Phases=2,kv=0.22,kW=1.59502,pf=1,model=1,daily=ccurvaUGBT,status=Variable
new generator.3011666270 bus1=1001009772141.1.2.3.0,Phases=3,kv=0.22,kW=6.39755,pf=1,model=1,daily=ccurvaUGBT,status=Variable
new generator.3011686899 bus1=1001010114040.1.2.0,Phases=2,kv=0.22,kW=3.0574,pf=1,model=1,daily=ccurvaUGBT,status=Variable
new generator.3012067942 bus1=1001010144557.1.2.3.0,Phases=3,kv=0.22,kW=29.28456,pf=1,model=1,daily=ccurvaUGBT,status=Variable
new generator.3012075834 bus1=1001010091546.1.2.0,Phases=2,kv=0.22,kW=1.53735,pf=1,model=1,daily=ccurvaUGBT,status=Variable
new generator.3012860089 bus1=1001010495456.1.2.0,Phases=2,kv=0.22,kW=1.44274,pf=1,model=1,daily=ccurvaUGBT,status=Variable
new generator.3012869163 bus1=1001010501289.1.2.0,Phases=2,kv=0.22,kW=1.61562,pf=1,model=1,daily=ccurvaUGBT,status=Variable
new generator.3012890064 bus1=1001010506095.1.2.0,Phases=2,kv=0.22,kW=1.11747,pf=1,model=1,daily=ccurvaUGBT,status=Variable
new generator.3004025985 bus1=1001004052210.1.2.3.0,Phases=3,kv=0.22,kW=1.08178,pf=1,model=1,daily=ccurvaUGBT,status=Variable
new generator.3005343822 bus1=1001001740950.1.2.3.0,Phases=3,kv=0.22,kW=4.70071,pf=1,model=1,daily=ccurvaUGBT,status=Variable
new generator.3006340848 bus1=1001006679835.1.2.3.0,Phases=3,kv=0.22,kW=2.26304,pf=1,model=1,daily=ccurvaUGBT,status=Variable
new generator.3006372353 bus1=1001006710488.1.2.3.0,Phases=3,kv=0.22,kW=0.85923,pf=1,model=1,daily=ccurvaUGBT,status=Variable
new generator.3006662740 bus1=1001006941586.1.2.3.0,Phases=3,kv=0.22,kW=22.35763,pf=1,model=1,daily=ccurvaUGBT,status=Variable
new generator.3006669251 bus1=1001006952114.3.1.0,Phases=2,kv=0.22,kW=5.59222,pf=1,model=1,daily=ccurvaUGBT,status=Variable
new generator.3006676578 bus1=1001006985924.1.2.3.0,Phases=3,kv=0.22,kW=1.6059,pf=1,model=1,daily=ccurvaUGBT,status=Variable
new generator.3007212966 bus1=1001007250419.1.2.0,Phases=2,kv=0.22,kW=2.4997,pf=1,model=1,daily=ccurvaUGBT,status=Variable
new generator.3011312219 bus1=1001009183196.1.2.3.0,Phases=3,kv=0.22,kW=1.38772,pf=1,model=1,daily=ccurvaUGBT,status=Variable
new generator.3011333884 bus1=1001009182636.2.3.0,Phases=2,kv=0.22,kW=23.69794,pf=1,model=1,daily=ccurvaUGBT,status=Variable
new generator.3011725686 bus1=1001009885884.1.2.0,Phases=2,kv=0.22,kW=3.35045,pf=1,model=1,daily=ccurvaUGBT,status=Variable
new generator.3012020669 bus1=1001010224965.1.2.0,Phases=2,kv=0.22,kW=6.45933,pf=1,model=1,daily=ccurvaUGBT,status=Variable
new generator.3012020690 bus1=1001010224965.1.2.0,Phases=2,kv=0.22,kW=2.58817,pf=1,model=1,daily=ccurvaUGBT,status=Variable
new generator.3012959731 bus1=1001010534629.1.2.0,Phases=2,kv=0.22,kW=2.53292,pf=1,model=1,daily=ccurvaUGBT,status=Variable
new generator.3014281051 bus1=1001011195401.1.2.3.0,Phases=3,kv=0.22,kW=15.13786,pf=1,model=1,daily=ccurvaUGBT,status=Variable
new generator.3003478280 bus1=1001004054422.1.2.3.0,Phases=3,kv=0.22,kW=3.33174,pf=1,model=1,daily=ccurvaUGBT,status=Variable
new generator.3003503530 bus1=1001004052315.1.2.3.0,Phases=3,kv=0.22,kW=1.43088,pf=1,model=1,daily=ccurvaUGBT,status=Variable
new generator.3004197193 bus1=1001001737093.2.0,Phases=1,kv=0.127,kW=2.008,pf=1,model=1,daily=ccurvaUGBT,status=Variable
new generator.3004217911 bus1=1001006619649.1.2.3.0,Phases=3,kv=0.22,kW=2.42511,pf=1,model=1,daily=ccurvaUGBT,status=Variable
new generator.3005024406 bus1=1001001448189.1.2.0,Phases=2,kv=0.22,kW=1.06139,pf=1,model=1,daily=ccurvaUGBT,status=Variable
new generator.3005036329 bus1=1001001742280.1.2.3.0,Phases=3,kv=0.22,kW=0.99173,pf=1,model=1,daily=ccurvaUGBT,status=Variable
new generator.3005773154 bus1=1001006075959.1.2.3.0,Phases=3,kv=0.22,kW=2.43074,pf=1,model=1,daily=ccurvaUGBT,status=Variable
new generator.3006536227 bus1=1001006947088.1.2.0,Phases=2,kv=0.22,kW=1.03468,pf=1,model=1,daily=ccurvaUGBT,status=Variable
new generator.3006536293 bus1=1001006832106.2.3.0,Phases=2,kv=0.22,kW=3.15201,pf=1,model=1,daily=ccurvaUGBT,status=Variable
new generator.3006558204 bus1=1001006846939.1.2.3.0,Phases=3,kv=0.22,kW=3.37328,pf=1,model=1,daily=ccurvaUGBT,status=Variable
new generator.3007351173 bus1=1001007294883.1.2.3.0,Phases=3,kv=0.22,kW=1.09698,pf=1,model=1,daily=ccurvaUGBT,status=Variable
new generator.3007354645 bus1=1001007344947.1.2.3.0,Phases=3,kv=0.22,kW=1.06082,pf=1,model=1,daily=ccurvaUGBT,status=Variable
new generator.3012290054 bus1=1001010327403.1.2.3.0,Phases=3,kv=0.22,kW=2.99221,pf=1,model=1,daily=ccurvaUGBT,status=Variable
new generator.3012575149 bus1=1001010373341.1.2.3.0,Phases=3,kv=0.22,kW=1.74243,pf=1,model=1,daily=ccurvaUGBT,status=Variable
new generator.3012592961 bus1=1001011053660.1.2.3.0,Phases=3,kv=0.22,kW=0.62748,pf=1,model=1,daily=ccurvaUGBT,status=Variable
new generator.3013475578 bus1=1001010833155.1.2.3.0,Phases=3,kv=0.22,kW=1.28589,pf=1,model=1,daily=ccurvaUGBT,status=Variable
new generator.3014103254 bus1=1001011041038.3.1.0,Phases=2,kv=0.22,kW=7.05913,pf=1,model=1,daily=ccurvaUGBT,status=Variable
new generator.3014269838 bus1=1001011195038.1.2.3.0,Phases=3,kv=0.22,kW=13.10806,pf=1,model=1,daily=ccurvaUGBT,status=Variable
new generator.3003436862 bus1=1001004058615.1.2.3.0,Phases=3,kv=0.22,kW=1.91442,pf=1,model=1,daily=ccurvaUGBT,status=Variable
new generator.3004259758 bus1=1001004055899.1.2.3.0,Phases=3,kv=0.22,kW=4.30696,pf=1,model=1,daily=ccurvaUGBT,status=Variable
new generator.3005866555 bus1=1001006136187.1.2.3.0,Phases=3,kv=0.22,kW=1.57394,pf=1,model=1,daily=ccurvaUGBT,status=Variable
new generator.3005887022 bus1=1001006309437.1.2.3.0,Phases=3,kv=0.22,kW=2.57117,pf=1,model=1,daily=ccurvaUGBT,status=Variable
new generator.3006078973 bus1=1001006305769.1.2.0,Phases=2,kv=0.22,kW=2.64948,pf=1,model=1,daily=ccurvaUGBT,status=Variable
new generator.3006081314 bus1=1001006312027.1.2.3.0,Phases=3,kv=0.22,kW=2.24755,pf=1,model=1,daily=ccurvaUGBT,status=Variable
new generator.3006746485 bus1=1001007043401.1.2.0,Phases=2,kv=0.22,kW=1.94384,pf=1,model=1,daily=ccurvaUGBT,status=Variable
new generator.3006752308 bus1=1001007052557.1.2.0,Phases=2,kv=0.22,kW=1.51504,pf=1,model=1,daily=ccurvaUGBT,status=Variable
new generator.3006757300 bus1=1001007043632.1.2.0,Phases=2,kv=0.22,kW=2.10464,pf=1,model=1,daily=ccurvaUGBT,status=Variable
new generator.3006758746 bus1=1001007043499.1.2.3.0,Phases=3,kv=0.22,kW=2.45019,pf=1,model=1,daily=ccurvaUGBT,status=Variable
new generator.3013103461 bus1=1001010611425.1.2.3.0,Phases=3,kv=0.22,kW=2.53054,pf=1,model=1,daily=ccurvaUGBT,status=Variable
new generator.3014165869 bus1=1001011105788.1.2.0,Phases=2,kv=0.22,kW=1.23381,pf=1,model=1,daily=ccurvaUGBT,status=Variable
new generator.3010148244 bus1=1001007699875.3.1.0,Phases=2,kv=0.22,kW=0.26581,pf=1,model=1,daily=ccurvaUGBT,status=Variable
new generator.3010785404 bus1=1001008334537.1.2.3.0,Phases=3,kv=0.22,kW=25.1117,pf=1,model=1,daily=ccurvaUGBT,status=Variable
new generator.3010790580 bus1=1001008263928.1.2.3.0,Phases=3,kv=0.22,kW=19.87679,pf=1,model=1,daily=ccurvaUGBT,status=Variable
new generator.3010800924 bus1=1001008390348.1.2.0,Phases=2,kv=0.22,kW=2.8935,pf=1,model=1,daily=ccurvaUGBT,status=Variable
new generator.3011062433 bus1=1001008689927.1.2.3.0,Phases=3,kv=0.22,kW=9.61579,pf=1,model=1,daily=ccurvaUGBT,status=Variable
new generator.3011063970 bus1=1001008801920.1.2.0,Phases=2,kv=0.22,kW=0.90822,pf=1,model=1,daily=ccurvaUGBT,status=Variable
new generator.3011067071 bus1=1001010740409.1.2.3.0,Phases=3,kv=0.22,kW=49.65019,pf=1,model=1,daily=ccurvaUGBT,status=Variable
new generator.3012498043 bus1=1001010331612.1.2.3.0,Phases=3,kv=0.22,kW=4.28005,pf=1,model=1,daily=ccurvaUGBT,status=Variable
new generator.3003819303 bus1=1001001742469.3.0,Phases=1,kv=0.127,kW=1.44621,pf=1,model=1,daily=ccurvaUGBT,status=Variable
new generator.3003830322 bus1=1001004051097.1.2.3.0,Phases=3,kv=0.22,kW=3.6054,pf=1,model=1,daily=ccurvaUGBT,status=Variable
new generator.3004753500 bus1=1001001740474.2.0,Phases=1,kv=0.127,kW=2.89123,pf=1,model=1,daily=ccurvaUGBT,status=Variable
new generator.3005618808 bus1=1001001448182.1.2.0,Phases=2,kv=0.22,kW=1.69424,pf=1,model=1,daily=ccurvaUGBT,status=Variable
new generator.3006591275 bus1=1001006876808.1.2.3.0,Phases=3,kv=0.22,kW=6.43472,pf=1,model=1,daily=ccurvaUGBT,status=Variable
new generator.3006859242 bus1=1001007128388.1.2.3.0,Phases=3,kv=0.22,kW=5.0215,pf=1,model=1,daily=ccurvaUGBT,status=Variable
new generator.3006869535 bus1=1001007128444.1.2.3.0,Phases=3,kv=0.22,kW=9.4454,pf=1,model=1,daily=ccurvaUGBT,status=Variable
new generator.3010075001 bus1=1001010165378.1.2.0,Phases=2,kv=0.22,kW=9.95562,pf=1,model=1,daily=ccurvaUGBT,status=Variable
new generator.3010858866 bus1=1001008544397.1.2.0,Phases=2,kv=0.22,kW=2.81339,pf=1,model=1,daily=ccurvaUGBT,status=Variable
new generator.3012647878 bus1=1001010854898.1.2.0,Phases=2,kv=0.22,kW=3.03544,pf=1,model=1,daily=ccurvaUGBT,status=Variable
new generator.3014078957 bus1=1001011063338.1.2.0,Phases=2,kv=0.22,kW=13.02439,pf=1,model=1,daily=ccurvaUGBT,status=Variable
new generator.3003527197 bus1=1001004055269.1.2.3.0,Phases=3,kv=0.22,kW=1.15368,pf=1,model=1,daily=ccurvaUGBT,status=Variable
new generator.3005252779 bus1=1001001745731.1.2.0,Phases=2,kv=0.22,kW=1.82874,pf=1,model=1,daily=ccurvaUGBT,status=Variable
new generator.3005266164 bus1=1001001740292.1.2.3.0,Phases=3,kv=0.22,kW=3.26792,pf=1,model=1,daily=ccurvaUGBT,status=Variable
new generator.3006427606 bus1=1001006748645.1.2.0,Phases=2,kv=0.22,kW=1.87142,pf=1,model=1,daily=ccurvaUGBT,status=Variable
new generator.3006430664 bus1=1001006756618.1.2.0,Phases=2,kv=0.22,kW=0.76053,pf=1,model=1,daily=ccurvaUGBT,status=Variable
new generator.3007547789 bus1=1001007431642.1.2.3.0,Phases=3,kv=0.22,kW=2.44409,pf=1,model=1,daily=ccurvaUGBT,status=Variable
new generator.3007554170 bus1=1001007438152.1.2.3.0,Phases=3,kv=0.22,kW=29.10434,pf=1,model=1,daily=ccurvaUGBT,status=Variable
new generator.3007560966 bus1=1001007442107.1.2.3.0,Phases=3,kv=0.22,kW=0.39743,pf=1,model=1,daily=ccurvaUGBT,status=Variable
new generator.3010713551 bus1=1001008129759.1.2.0,Phases=2,kv=0.22,kW=2.01434,pf=1,model=1,daily=ccurvaUGBT,status=Variable
new generator.3010718735 bus1=1001008152656.2.3.0,Phases=2,kv=0.22,kW=1.15927,pf=1,model=1,daily=ccurvaUGBT,status=Variable
new generator.3010723450 bus1=1001008331898.1.2.3.0,Phases=3,kv=0.22,kW=7.44954,pf=1,model=1,daily=ccurvaUGBT,status=Variable
new generator.3011454278 bus1=1001009516935.1.2.0,Phases=2,kv=0.22,kW=3.0321,pf=1,model=1,daily=ccurvaUGBT,status=Variable
new generator.3012195997 bus1=1001010335940.1.2.0,Phases=2,kv=0.22,kW=1.45303,pf=1,model=1,daily=ccurvaUGBT,status=Variable
new generator.3013048089 bus1=1001010578031.1.2.3.0,Phases=3,kv=0.22,kW=0.98333,pf=1,model=1,daily=ccurvaUGBT,status=Variable
new generator.3013792477 bus1=1001010937102.1.2.0,Phases=2,kv=0.22,kW=3.49725,pf=1,model=1,daily=ccurvaUGBT,status=Variable
new generator.3013793318 bus1=1001010940603.1.2.0,Phases=2,kv=0.22,kW=1.33269,pf=1,model=1,daily=ccurvaUGBT,status=Variable
new generator.3013798068 bus1=1001010929032.1.2.0,Phases=2,kv=0.22,kW=0.20398,pf=1,model=1,daily=ccurvaUGBT,status=Variable
new generator.3003920682 bus1=1001001743260.1.2.3.0,Phases=3,kv=0.22,kW=19.48952,pf=1,model=1,daily=ccurvaUGBT,status=Variable
new generator.3005053451 bus1=1001004055192.1.2.3.0,Phases=3,kv=0.22,kW=1.40652,pf=1,model=1,daily=ccurvaUGBT,status=Variable
new generator.3005074524 bus1=1001001742777.1.2.3.0,Phases=3,kv=0.22,kW=1.87315,pf=1,model=1,daily=ccurvaUGBT,status=Variable
new generator.3005077043 bus1=1001004051685.1.2.3.0,Phases=3,kv=0.22,kW=0.61435,pf=1,model=1,daily=ccurvaUGBT,status=Variable
new generator.3005719275 bus1=1001006579672.1.2.3.0,Phases=3,kv=0.22,kW=3.51093,pf=1,model=1,daily=ccurvaUGBT,status=Variable
new generator.3006498288 bus1=1001006799605.1.2.3.0,Phases=3,kv=0.22,kW=48.92613,pf=1,model=1,daily=ccurvaUGBT,status=Variable
new generator.3006505341 bus1=1001006811071.2.3.0,Phases=2,kv=0.22,kW=0.9224,pf=1,model=1,daily=ccurvaUGBT,status=Variable
new generator.3007404174 bus1=1001007324780.1.2.0,Phases=2,kv=0.22,kW=0.57544,pf=1,model=1,daily=ccurvaUGBT,status=Variable
new generator.3011486169 bus1=1001009521121.1.2.0,Phases=2,kv=0.22,kW=3.69996,pf=1,model=1,daily=ccurvaUGBT,status=Variable
new generator.3012413291 bus1=1001010290703.1.2.3.0,Phases=3,kv=0.22,kW=3.91963,pf=1,model=1,daily=ccurvaUGBT,status=Variable
new generator.3012418012 bus1=1001010312490.1.2.3.0,Phases=3,kv=0.22,kW=37.43245,pf=1,model=1,daily=ccurvaUGBT,status=Variable
new generator.3012768363 bus1=1001010460941.1.2.0,Phases=2,kv=0.22,kW=5.26861,pf=1,model=1,daily=ccurvaUGBT,status=Variable
new generator.3013306692 bus1=1001010706150.1.2.0,Phases=2,kv=0.22,kW=2.73969,pf=1,model=1,daily=ccurvaUGBT,status=Variable
new generator.3013320257 bus1=1001011311365.1.2.0,Phases=2,kv=0.22,kW=9.67732,pf=1,model=1,daily=ccurvaUGBT,status=Variable
new generator.3013733637 bus1=1001010930027.1.2.0,Phases=2,kv=0.22,kW=1.15989,pf=1,model=1,daily=ccurvaUGBT,status=Variable
new generator.3014649875 bus1=1001011338746.1.2.3.0,Phases=3,kv=0.22,kW=8.9622,pf=1,model=1,daily=ccurvaUGBT,status=Variable
new generator.3004534186 bus1=1001004058188.1.2.3.0,Phases=3,kv=0.22,kW=3.99686,pf=1,model=1,daily=ccurvaUGBT,status=Variable
new generator.3004554933 bus1=1001001740593.1.2.0,Phases=2,kv=0.22,kW=2.12426,pf=1,model=1,daily=ccurvaUGBT,status=Variable
new generator.3006008269 bus1=1001006250959.1.2.0,Phases=2,kv=0.22,kW=1.30218,pf=1,model=1,daily=ccurvaUGBT,status=Variable
new generator.3006842364 bus1=1001007103874.1.2.0,Phases=2,kv=0.22,kW=2.01972,pf=1,model=1,daily=ccurvaUGBT,status=Variable
new generator.3006854190 bus1=1001007267429.1.2.0,Phases=2,kv=0.22,kW=3.71238,pf=1,model=1,daily=ccurvaUGBT,status=Variable
new generator.3010089675 bus1=1001007636868.1.2.0,Phases=2,kv=0.22,kW=2.1798,pf=1,model=1,daily=ccurvaUGBT,status=Variable
new generator.3010805911 bus1=1001010115430.1.2.3.0,Phases=3,kv=0.22,kW=2.89903,pf=1,model=1,daily=ccurvaUGBT,status=Variable
new generator.3011116467 bus1=1001008862757.1.2.0,Phases=2,kv=0.22,kW=2.38212,pf=1,model=1,daily=ccurvaUGBT,status=Variable
new generator.3011138344 bus1=1001008778120.1.2.0,Phases=2,kv=0.22,kW=0.78785,pf=1,model=1,daily=ccurvaUGBT,status=Variable
new generator.3011139231 bus1=1001008852789.1.2.3.0,Phases=3,kv=0.22,kW=0.44535,pf=1,model=1,daily=ccurvaUGBT,status=Variable
new generator.3011387862 bus1=1001010136951.1.2.0,Phases=2,kv=0.22,kW=0.51925,pf=1,model=1,daily=ccurvaUGBT,status=Variable
new generator.3011392193 bus1=1001009519553.1.2.0,Phases=2,kv=0.22,kW=0.60903,pf=1,model=1,daily=ccurvaUGBT,status=Variable
new generator.3011396171 bus1=1001009180291.1.2.0,Phases=2,kv=0.22,kW=1.38287,pf=1,model=1,daily=ccurvaUGBT,status=Variable
new generator.3011397471 bus1=1001009523662.1.2.0,Phases=2,kv=0.22,kW=0.09881,pf=1,model=1,daily=ccurvaUGBT,status=Variable
new generator.3011410670 bus1=1001009619611.1.2.0,Phases=2,kv=0.22,kW=1.53857,pf=1,model=1,daily=ccurvaUGBT,status=Variable
new generator.3012216639 bus1=1001010160317.1.2.0,Phases=2,kv=0.22,kW=0.64664,pf=1,model=1,daily=ccurvaUGBT,status=Variable
new generator.3014532049 bus1=1001011297969.1.2.0,Phases=2,kv=0.22,kW=5.1707,pf=1,model=1,daily=ccurvaUGBT,status=Variable
new generator.3014534154 bus1=1001011274399.1.2.0,Phases=2,kv=0.22,kW=0.99139,pf=1,model=1,daily=ccurvaUGBT,status=Variable
new generator.3005195590 bus1=1001001742770.1.2.3.0,Phases=3,kv=0.22,kW=3.19073,pf=1,model=1,daily=ccurvaUGBT,status=Variable
new generator.3006475194 bus1=1001006782637.1.2.0,Phases=2,kv=0.22,kW=1.68085,pf=1,model=1,daily=ccurvaUGBT,status=Variable
new generator.3006483268 bus1=1001006812429.1.2.3.0,Phases=3,kv=0.22,kW=2.70884,pf=1,model=1,daily=ccurvaUGBT,status=Variable
new generator.3007298056 bus1=1001007269942.3.1.0,Phases=2,kv=0.22,kW=2.59767,pf=1,model=1,daily=ccurvaUGBT,status=Variable
new generator.3007315102 bus1=1001007279203.1.2.0,Phases=2,kv=0.22,kW=1.92197,pf=1,model=1,daily=ccurvaUGBT,status=Variable
new generator.3007327089 bus1=1001007283123.1.2.3.0,Phases=3,kv=0.22,kW=1.7616,pf=1,model=1,daily=ccurvaUGBT,status=Variable
new generator.3007329572 bus1=1001007285195.1.2.0,Phases=2,kv=0.22,kW=1.49462,pf=1,model=1,daily=ccurvaUGBT,status=Variable
new generator.3010003513 bus1=1001007603653.1.2.3.0,Phases=3,kv=0.22,kW=8.24473,pf=1,model=1,daily=ccurvaUGBT,status=Variable
new generator.3010008564 bus1=1001007608959.1.2.0,Phases=2,kv=0.22,kW=1.07904,pf=1,model=1,daily=ccurvaUGBT,status=Variable
new generator.3010030111 bus1=1001007612095.1.2.0,Phases=2,kv=0.22,kW=2.16587,pf=1,model=1,daily=ccurvaUGBT,status=Variable
new generator.3011884800 bus1=1001010113918.1.2.3.0,Phases=3,kv=0.22,kW=7.97441,pf=1,model=1,daily=ccurvaUGBT,status=Variable
new generator.3012475318 bus1=1001010328402.1.2.0,Phases=2,kv=0.22,kW=1.88488,pf=1,model=1,daily=ccurvaUGBT,status=Variable
new generator.3012804790 bus1=1001010474965.1.2.0,Phases=2,kv=0.22,kW=2.41249,pf=1,model=1,daily=ccurvaUGBT,status=Variable
new generator.3013762533 bus1=1001010951632.1.2.3.0,Phases=3,kv=0.22,kW=28.32798,pf=1,model=1,daily=ccurvaUGBT,status=Variable
new generator.3013765460 bus1=1001010920309.1.2.0,Phases=2,kv=0.22,kW=1.15073,pf=1,model=1,daily=ccurvaUGBT,status=Variable
new generator.3014612542 bus1=1001011291814.1.2.3.0,Phases=3,kv=0.22,kW=3.8088,pf=1,model=1,daily=ccurvaUGBT,status=Variable
new generator.3014631503 bus1=1001011331813.1.2.3.0,Phases=3,kv=0.22,kW=3.9399,pf=1,model=1,daily=ccurvaUGBT,status=Variable
new generator.3000366801 bus1=1001001747215.1.2.3.0,Phases=3,kv=0.22,kW=0.00451,pf=1,model=1,daily=ccurvaUGBT,status=Variable
new generator.3000366806 bus1=1001006476912.1.2.3.0,Phases=3,kv=0.22,kW=1.61352,pf=1,model=1,daily=ccurvaUGBT,status=Variable
new generator.3000366820 bus1=1001007158243.1.2.3.0,Phases=3,kv=0.22,kW=1.37609,pf=1,model=1,daily=ccurvaUGBT,status=Variable
new generator.3000366838 bus1=1001001746564.1.2.3.0,Phases=3,kv=0.22,kW=2.15929,pf=1,model=1,daily=ccurvaUGBT,status=Variable
new generator.3000366839 bus1=1001006477059.1.2.3.0,Phases=3,kv=0.22,kW=7.28308,pf=1,model=1,daily=ccurvaUGBT,status=Variable
new generator.3000366845 bus1=1001001747432.1.2.3.0,Phases=3,kv=0.22,kW=4.38538,pf=1,model=1,daily=ccurvaUGBT,status=Variable
new generator.3000366855 bus1=1001006477059.1.2.3.0,Phases=3,kv=0.22,kW=1.5723,pf=1,model=1,daily=ccurvaUGBT,status=Variable
new generator.3000366879 bus1=1001001740145.1.2.3.0,Phases=3,kv=0.22,kW=14.6718,pf=1,model=1,daily=ccurvaUGBT,status=Variable
new generator.3000366882 bus1=1001001740761.1.2.3.0,Phases=3,kv=0.22,kW=2.63085,pf=1,model=1,daily=ccurvaUGBT,status=Variable
new generator.3000366883 bus1=1001006476926.1.2.3.0,Phases=3,kv=0.22,kW=1.08692,pf=1,model=1,daily=ccurvaUGBT,status=Variable
new generator.3000366891 bus1=1001001745584.1.2.3.0,Phases=3,kv=0.22,kW=15.92293,pf=1,model=1,daily=ccurvaUGBT,status=Variable
new generator.3004470070 bus1=1001001745059.1.2.3.0,Phases=3,kv=0.22,kW=6.11894,pf=1,model=1,daily=ccurvaUGBT,status=Variable
new generator.3004511500 bus1=1001001742448.3.1.0,Phases=2,kv=0.22,kW=1.97445,pf=1,model=1,daily=ccurvaUGBT,status=Variable