new load.3009000499M1 bus1=BMT179220600.1.2.3.0,Phases=3,kv=13.800000000,kW=261.76482,pf=0.92,Vminpu=0.93,Vmaxpu=1.5,model=8,zipv=[0.5,0,0.5,1,0,0,0],daily=MT3_1,status=variable
new load.3009000500M1 bus1=BMT179220602.1.2.3.0,Phases=3,kv=13.800000000,kW=216.09154,pf=0.92,Vminpu=0.93,Vmaxpu=1.5,model=8,zipv=[0.5,0,0.5,1,0,0,0],daily=MT2_1,status=variable
new load.3009011375M1 bus1=BMT179220687.1.2.3.0,Phases=3,kv=13.800000000,kW=11.7822,pf=0.92,Vminpu=0.93,Vmaxpu=1.5,model=8,zipv=[0.5,0,0.5,1,0,0,0],daily=MT3_1,status=variable
new load.3009013736M1 bus1=BMT179987849.1.2.3.0,Phases=3,kv=13.800000000,kW=460.55022,pf=0.92,Vminpu=0.93,Vmaxpu=1.5,model=8,zipv=[0.5,0,0.5,1,0,0,0],daily=MT4_1,status=variable
new load.3009017315M1 bus1=BMT179987751.1.2.3.0,Phases=3,kv=13.800000000,kW=2972.88758,pf=0.92,Vminpu=0.93,Vmaxpu=1.5,model=8,zipv=[0.5,0,0.5,1,0,0,0],daily=MT5_1,status=variable
new load.3009020035M1 bus1=BMT179220706.1.2.3.0,Phases=3,kv=13.800000000,kW=9.67454,pf=0.92,Vminpu=0.93,Vmaxpu=1.5,model=8,zipv=[0.5,0,0.5,1,0,0,0],daily=MT1_1,status=variable
new load.3009021346M1 bus1=BMT179220421.1.2.3.0,Phases=3,kv=13.800000000,kW=197.0739,pf=0.92,Vminpu=0.93,Vmaxpu=1.5,model=8,zipv=[0.5,0,0.5,1,0,0,0],daily=MT3_1,status=variable
new load.3009021519M1 bus1=BMT179220708.1.2.3.0,Phases=3,kv=13.800000000,kW=129.1552,pf=0.92,Vminpu=0.93,Vmaxpu=1.5,model=8,zipv=[0.5,0,0.5,1,0,0,0],daily=MT2_1,status=variable
new load.3010000423M1 bus1=BMT179220465.1.2.3.0,Phases=3,kv=13.800000000,kW=6.4367,pf=0.92,Vminpu=0.93,Vmaxpu=1.5,model=8,zipv=[0.5,0,0.5,1,0,0,0],daily=MT1_1,status=variable
new load.3010000685M1 bus1=BMT179987495.1.2.3.0,Phases=3,kv=13.800000000,kW=21.76292,pf=0.92,Vminpu=0.93,Vmaxpu=1.5,model=8,zipv=[0.5,0,0.5,1,0,0,0],daily=MT2_1,status=variable
new load.3010238743M1 bus1=BMT179220139.1.2.3.0,Phases=3,kv=13.800000000,kW=23.2189,pf=0.92,Vminpu=0.93,Vmaxpu=1.5,model=8,zipv=[0.5,0,0.5,1,0,0,0],daily=MT1_1,status=variable
new load.3010439008M1 bus1=BMT179987919.1.2.3.0,Phases=3,kv=13.800000000,kW=20.78414,pf=0.92,Vminpu=0.93,Vmaxpu=1.5,model=8,zipv=[0.5,0,0.5,1,0,0,0],daily=MT1_1,status=variable
new load.3010471172M1 bus1=BMT179220442.1.2.3.0,Phases=3,kv=13.800000000,kW=42.73304,pf=0.92,Vminpu=0.93,Vmaxpu=1.5,model=8,zipv=[0.5,0,0.5,1,0,0,0],daily=MT1_1,status=variable
new load.3010984586M1 bus1=BMT179987479.1.2.3.0,Phases=3,kv=13.800000000,kW=15.61252,pf=0.92,Vminpu=0.93,Vmaxpu=1.5,model=8,zipv=[0.5,0,0.5,1,0,0,0],daily=MT2_1,status=variable
new load.3011392604M1 bus1=BMT179220606.1.2.3.0,Phases=3,kv=13.800000000,kW=78.41746,pf=0.92,Vminpu=0.93,Vmaxpu=1.5,model=8,zipv=[0.5,0,0.5,1,0,0,0],daily=MT2_1,status=variable
new load.3011494559M1 bus1=BMT179220456.1.2.3.0,Phases=3,kv=13.800000000,kW=2.53956,pf=0.92,Vminpu=0.93,Vmaxpu=1.5,model=8,zipv=[0.5,0,0.5,1,0,0,0],daily=MT1_1,status=variable
new load.3011565959M1 bus1=BMT179987493.1.2.3.0,Phases=3,kv=13.800000000,kW=148.24212,pf=0.92,Vminpu=0.93,Vmaxpu=1.5,model=8,zipv=[0.5,0,0.5,1,0,0,0],daily=MT2_1,status=variable
new load.3011974755M1 bus1=BMT179220127.1.2.3.0,Phases=3,kv=13.800000000,kW=230.69762,pf=0.92,Vminpu=0.93,Vmaxpu=1.5,model=8,zipv=[0.5,0,0.5,1,0,0,0],daily=MT3_1,status=variable
new load.3012174536M1 bus1=BMT179220560.1.2.3.0,Phases=3,kv=13.800000000,kW=380.20368,pf=0.92,Vminpu=0.93,Vmaxpu=1.5,model=8,zipv=[0.5,0,0.5,1,0,0,0],daily=MT3_1,status=variable
new load.3012175717M1 bus1=BMT179220406.1.2.3.0,Phases=3,kv=13.800000000,kW=538.89566,pf=0.92,Vminpu=0.93,Vmaxpu=1.5,model=8,zipv=[0.5,0,0.5,1,0,0,0],daily=MT4_1,status=variable
new load.3012659760M1 bus1=BMT179987951.1.2.3.0,Phases=3,kv=13.800000000,kW=188.76962,pf=0.92,Vminpu=0.93,Vmaxpu=1.5,model=8,zipv=[0.5,0,0.5,1,0,0,0],daily=MT2_1,status=variable
new load.3012963883M1 bus1=BMT179220535.1.2.3.0,Phases=3,kv=13.800000000,kW=51.56864,pf=0.92,Vminpu=0.93,Vmaxpu=1.5,model=8,zipv=[0.5,0,0.5,1,0,0,0],daily=MT2_1,status=variable
new load.3013093944M1 bus1=BMT179220580.1.2.3.0,Phases=3,kv=13.800000000,kW=69.6928,pf=0.92,Vminpu=0.93,Vmaxpu=1.5,model=8,zipv=[0.5,0,0.5,1,0,0,0],daily=MT3_1,status=variable
new load.3013125556M1 bus1=BMT179220564.1.2.3.0,Phases=3,kv=13.800000000,kW=41.27858,pf=0.92,Vminpu=0.93,Vmaxpu=1.5,model=8,zipv=[0.5,0,0.5,1,0,0,0],daily=MT2_1,status=variable
new load.3013503721M1 bus1=BMT179220400.1.2.3.0,Phases=3,kv=13.800000000,kW=19.59094,pf=0.92,Vminpu=0.93,Vmaxpu=1.5,model=8,zipv=[0.5,0,0.5,1,0,0,0],daily=MT1_1,status=variable
new load.3014105052M1 bus1=BMT179987686.1.2.3.0,Phases=3,kv=13.800000000,kW=27.94288,pf=0.92,Vminpu=0.93,Vmaxpu=1.5,model=8,zipv=[0.5,0,0.5,1,0,0,0],daily=MT2_1,status=variable
new load.3014138177M1 bus1=BMT180443817.1.2.3.0,Phases=3,kv=13.800000000,kW=80.0349,pf=0.92,Vminpu=0.93,Vmaxpu=1.5,model=8,zipv=[0.5,0,0.5,1,0,0,0],daily=MT2_1,status=variable
new load.3014308690M1 bus1=BMT179220505.1.2.3.0,Phases=3,kv=13.800000000,kW=85.2775,pf=0.92,Vminpu=0.93,Vmaxpu=1.5,model=8,zipv=[0.5,0,0.5,1,0,0,0],daily=MT2_1,status=variable
new load.3014327246M1 bus1=BMT179220533.1.2.3.0,Phases=3,kv=13.8,kW=9.1073,pf=0.92,Vminpu=0.93,Vmaxpu=1.5,model=8,zipv=[0.5,0,0.5,1,0,0,0],daily=MT2_1,status=variable
