new line.SBT_11359398 bus1=3402876.1.2.0,bus2=3402883.1.2.0,Phases=2,Linecode=BT810_BT810_4_2_4_2,Length=0.034024000,Units=km
new line.SBT_11359412 bus1=3402883.1.2.0,bus2=3402890.1.2.0,Phases=2,Linecode=BT810_BT810_4_2_4_2,Length=0.031266000,Units=km
new line.SBT_12030663 bus1=3636319.1.2.3.0,bus2=3636326.1.2.3.0,Phases=3,Linecode=BT810_BT810_4_3_4_3,Length=0.043921000,Units=km
new line.SBT_12030691 bus1=3636326.1.2.3.0,bus2=4144183.1.2.3.0,Phases=3,Linecode=BT810_BT810_4_3_4_3,Length=0.034995000,Units=km
new line.SBT_12381566 bus1=3807245.1.2.3.0,bus2=875988.1.2.3.0,Phases=3,Linecode=BT803_BT803_4_3_4_3,Length=0.048778000,Units=km
new line.SBT_12383323 bus1=3807259.1.2.0,bus2=875981.1.2.0,Phases=2,Linecode=BT807_BT807_4_2_3_2,Length=0.034491000,Units=km
new line.SBT_12763892 bus1=4246460.1.2.3.0,bus2=4246467.1.2.3.0,Phases=3,Linecode=BT810_BT810_4_3_4_3,Length=0.042438000,Units=km
new line.SBT_12763920 bus1=4246467.1.2.3.0,bus2=4246481.1.2.3.0,Phases=3,Linecode=BT810_BT810_4_3_4_3,Length=0.017122000,Units=km
new line.SBT_12764781 bus1=4018337.1.2.3.0,bus2=47725862.1.2.3.0,Phases=3,Linecode=BT518_BT518_7_3_1_3,Length=0.000501000,Units=km
new line.SBT_12764788 bus1=4018344.1.2.3.0,bus2=47732750.1.2.3.0,Phases=3,Linecode=BT513_BT513_5_3_1_3,Length=0.005659000,Units=km
new line.SBT_12765915 bus1=4019177.1.2.3.0,bus2=47732757.1.2.3.0,Phases=3,Linecode=BT513_BT513_5_3_1_3,Length=0.006405000,Units=km
new line.SBT_12765922 bus1=4019177.1.2.3.0,bus2=47734290.1.2.3.0,Phases=3,Linecode=BT513_BT513_5_3_1_3,Length=0.021639000,Units=km
new line.SBT_12765999 bus1=4019268.1.2.3.0,bus2=47734822.1.2.3.0,Phases=3,Linecode=BT513_BT513_5_3_1_3,Length=0.005833000,Units=km
new line.SBT_12766020 bus1=4019184.1.2.3.0,bus2=4019191.1.2.3.0,Phases=3,Linecode=BT513_BT513_5_3_1_3,Length=0.055486000,Units=km
new line.SBT_12766055 bus1=4019275.1.2.3.0,bus2=47738357.1.2.3.0,Phases=3,Linecode=BT513_BT513_5_3_1_3,Length=0.049662000,Units=km
new line.SBT_12766153 bus1=4019282.1.2.3.0,bus2=47740443.1.2.3.0,Phases=3,Linecode=BT513_BT513_5_3_1_3,Length=0.049662000,Units=km
new line.SBT_12766167 bus1=4019289.1.2.3.0,bus2=4019296.1.2.3.0,Phases=3,Linecode=BT513_BT513_5_3_1_3,Length=0.056318000,Units=km
new line.SBT_12766188 bus1=4019296.1.2.3.0,bus2=4019303.1.2.3.0,Phases=3,Linecode=BT513_BT513_5_3_1_3,Length=0.056051000,Units=km
new line.SBT_12766216 bus1=4019303.1.2.3.0,bus2=4019310.1.2.3.0,Phases=3,Linecode=BT513_BT513_5_3_1_3,Length=0.054933000,Units=km
new line.SBT_12766237 bus1=4019310.1.2.3.0,bus2=4019317.1.2.3.0,Phases=3,Linecode=BT513_BT513_5_3_1_3,Length=0.054659000,Units=km
new line.SBT_12766251 bus1=4019317.1.2.3.0,bus2=4019324.1.2.3.0,Phases=3,Linecode=BT513_BT513_5_3_1_3,Length=0.059924000,Units=km
new line.SBT_12766265 bus1=4019324.1.2.3.0,bus2=4019331.1.2.3.0,Phases=3,Linecode=BT513_BT513_5_3_1_3,Length=0.056318000,Units=km
new line.SBT_12766286 bus1=4019331.1.2.3.0,bus2=4019338.1.2.3.0,Phases=3,Linecode=BT513_BT513_5_3_1_3,Length=0.055818000,Units=km
new line.SBT_12766300 bus1=4019338.1.2.3.0,bus2=4019345.1.2.3.0,Phases=3,Linecode=BT513_BT513_5_3_1_3,Length=0.055961000,Units=km
new line.SBT_12766314 bus1=4019345.1.2.3.0,bus2=4019352.1.2.3.0,Phases=3,Linecode=BT513_BT513_5_3_1_3,Length=0.055051000,Units=km
new line.SBT_12766335 bus1=4019352.1.2.3.0,bus2=4019366.1.2.3.0,Phases=3,Linecode=BT513_BT513_5_3_1_3,Length=0.056336000,Units=km
new line.SBT_12766356 bus1=4019366.1.2.3.0,bus2=4019373.1.2.3.0,Phases=3,Linecode=BT513_BT513_5_3_1_3,Length=0.056336000,Units=km
new line.SBT_12766426 bus1=4019191.1.2.3.0,bus2=4019198.1.2.3.0,Phases=3,Linecode=BT513_BT513_5_3_1_3,Length=0.056318000,Units=km
new line.SBT_12766440 bus1=4019198.1.2.3.0,bus2=4019205.1.2.3.0,Phases=3,Linecode=BT513_BT513_5_3_1_3,Length=0.056095000,Units=km
new line.SBT_12766461 bus1=4019205.1.2.3.0,bus2=4019212.1.2.3.0,Phases=3,Linecode=BT513_BT513_5_3_1_3,Length=0.055242000,Units=km
new line.SBT_12766475 bus1=4019212.1.2.3.0,bus2=4019219.1.2.3.0,Phases=3,Linecode=BT513_BT513_5_3_1_3,Length=0.055024000,Units=km
new line.SBT_12766489 bus1=4019219.1.2.3.0,bus2=4019226.1.2.3.0,Phases=3,Linecode=BT513_BT513_5_3_1_3,Length=0.055051000,Units=km
new line.SBT_12766510 bus1=4019226.1.2.3.0,bus2=4019233.1.2.3.0,Phases=3,Linecode=BT513_BT513_5_3_1_3,Length=0.055728000,Units=km
new line.SBT_12766531 bus1=4019233.1.2.3.0,bus2=4019240.1.2.3.0,Phases=3,Linecode=BT513_BT513_5_3_1_3,Length=0.054723000,Units=km
new line.SBT_12766545 bus1=4019240.1.2.3.0,bus2=4019247.1.2.3.0,Phases=3,Linecode=BT513_BT513_5_3_1_3,Length=0.055096000,Units=km
new line.SBT_12766566 bus1=4019247.1.2.3.0,bus2=4021480.1.2.3.0,Phases=3,Linecode=BT513_BT513_5_3_1_3,Length=0.049491000,Units=km
new line.SBT_12766629 bus1=4019478.1.2.3.0,bus2=4019485.1.2.3.0,Phases=3,Linecode=BT513_BT513_5_3_1_3,Length=0.055097000,Units=km
new line.SBT_12766643 bus1=4019471.1.2.3.0,bus2=4019478.1.2.3.0,Phases=3,Linecode=BT513_BT513_5_3_1_3,Length=0.056060000,Units=km
new line.SBT_12766671 bus1=4019464.1.2.3.0,bus2=4019471.1.2.3.0,Phases=3,Linecode=BT513_BT513_5_3_1_3,Length=0.062834000,Units=km
new line.SBT_12766692 bus1=4019457.1.2.3.0,bus2=4019464.1.2.3.0,Phases=3,Linecode=BT513_BT513_5_3_1_3,Length=0.061417000,Units=km
new line.SBT_12766713 bus1=4019450.1.2.3.0,bus2=4019457.1.2.3.0,Phases=3,Linecode=BT513_BT513_5_3_1_3,Length=0.060091000,Units=km
new line.SBT_12766727 bus1=4019436.1.2.3.0,bus2=4019450.1.2.3.0,Phases=3,Linecode=BT513_BT513_5_3_1_3,Length=0.061025000,Units=km
new line.SBT_12766748 bus1=4019429.1.2.3.0,bus2=4019436.1.2.3.0,Phases=3,Linecode=BT513_BT513_5_3_1_3,Length=0.061090000,Units=km
new line.SBT_12766769 bus1=4019422.1.2.3.0,bus2=4019429.1.2.3.0,Phases=3,Linecode=BT513_BT513_5_3_1_3,Length=0.062186000,Units=km
new line.SBT_12766790 bus1=4019415.1.2.3.0,bus2=4019422.1.2.3.0,Phases=3,Linecode=BT513_BT513_5_3_1_3,Length=0.061409000,Units=km
new line.SBT_12767140 bus1=4019408.1.2.3.0,bus2=4019415.1.2.3.0,Phases=3,Linecode=BT513_BT513_5_3_1_3,Length=0.055042000,Units=km
new line.SBT_12767154 bus1=4019401.1.2.3.0,bus2=4019408.1.2.3.0,Phases=3,Linecode=BT513_BT513_5_3_1_3,Length=0.051638000,Units=km
new line.SBT_12767168 bus1=4019394.1.2.3.0,bus2=4019401.1.2.3.0,Phases=3,Linecode=BT513_BT513_5_3_1_3,Length=0.045322000,Units=km
new line.SBT_12767175 bus1=4019394.1.2.3.0,bus2=4019492.1.2.3.0,Phases=3,Linecode=BT513_BT513_5_3_1_3,Length=0.045805000,Units=km
new line.SBT_12767189 bus1=4019492.1.2.3.0,bus2=4019499.1.2.3.0,Phases=3,Linecode=BT513_BT513_5_3_1_3,Length=0.045289000,Units=km
new line.SBT_12767203 bus1=4019499.1.2.3.0,bus2=4019506.1.2.3.0,Phases=3,Linecode=BT513_BT513_5_3_1_3,Length=0.045289000,Units=km
new line.SBT_12767224 bus1=4019506.1.2.3.0,bus2=4019513.1.2.3.0,Phases=3,Linecode=BT513_BT513_5_3_1_3,Length=0.044431000,Units=km
new line.SBT_12767245 bus1=4019513.1.2.3.0,bus2=4019520.1.2.3.0,Phases=3,Linecode=BT513_BT513_5_3_1_3,Length=0.045289000,Units=km
new line.SBT_12767259 bus1=4019520.1.2.3.0,bus2=4019541.1.2.3.0,Phases=3,Linecode=BT513_BT513_5_3_1_3,Length=0.045289000,Units=km
new line.SBT_12767280 bus1=4019541.1.2.3.0,bus2=4019548.1.2.3.0,Phases=3,Linecode=BT513_BT513_5_3_1_3,Length=0.045289000,Units=km
new line.SBT_12767301 bus1=4019548.1.2.3.0,bus2=4019555.1.2.3.0,Phases=3,Linecode=BT513_BT513_5_3_1_3,Length=0.046154000,Units=km
new line.SBT_12767322 bus1=4019555.1.2.3.0,bus2=4019562.1.2.3.0,Phases=3,Linecode=BT513_BT513_5_3_1_3,Length=0.045289000,Units=km
new line.SBT_10684773 bus1=5310124.1.2.0,bus2=5310131.1.2.0,Phases=2,Linecode=BT518_BT518_7_2_1_2,Length=0.000501000,Units=km
new line.SBT_11030335 bus1=3283533.1.2.3.0,bus2=3631699.1.2.3.0,Phases=3,Linecode=BT810_BT810_4_3_4_3,Length=0.039973000,Units=km
new line.SBT_11033415 bus1=3284842.1.2.3.0,bus2=3284849.1.2.3.0,Phases=3,Linecode=BT810_BT810_4_3_4_3,Length=0.034141000,Units=km
new line.SBT_11033429 bus1=3284835.1.2.3.0,bus2=3284842.1.2.3.0,Phases=3,Linecode=BT810_BT810_4_3_4_3,Length=0.032659000,Units=km
new line.SBT_11035018 bus1=3285731.1.2.3.0,bus2=3636319.1.2.3.0,Phases=3,Linecode=BT810_BT810_4_3_4_3,Length=0.032659000,Units=km
new line.SBT_11371760 bus1=3406033.1.2.3.0,bus2=3406040.1.2.3.0,Phases=3,Linecode=BT810_BT810_4_3_4_3,Length=0.035857000,Units=km
new line.SBT_11710756 bus1=3524872.1.2.3.0,bus2=3524879.1.2.3.0,Phases=3,Linecode=BT803_BT803_4_3_4_3,Length=0.029077000,Units=km
new line.SBT_11710777 bus1=3524879.1.2.3.0,bus2=3524886.1.2.3.0,Phases=3,Linecode=BT803_BT803_4_3_4_3,Length=0.029690000,Units=km
new line.SBT_12043802 bus1=4188269.1.2.3.0,bus2=4188290.1.2.3.0,Phases=3,Linecode=BT810_BT810_4_3_4_3,Length=0.032024000,Units=km
new line.SBT_12043809 bus1=4188262.1.2.3.0,bus2=4188269.1.2.3.0,Phases=3,Linecode=BT509_BT509_7_3_1_3,Length=0.000501000,Units=km
new line.SBT_12043816 bus1=4188269.1.2.3.0,bus2=4188276.1.2.3.0,Phases=3,Linecode=BT803_BT803_4_3_4_3,Length=0.036065000,Units=km
new line.SBT_12043837 bus1=4188276.1.2.3.0,bus2=4188283.1.2.3.0,Phases=3,Linecode=BT810_BT810_4_3_4_3,Length=0.031121000,Units=km
new line.SBT_12044558 bus1=3641121.1.2.0,bus2=4218040.1.2.0,Phases=2,Linecode=BT808_BT808_4_2_3_2,Length=0.022029000,Units=km
new line.SBT_12409867 bus1=3826271.1.2.3.0,bus2=3826278.1.2.3.0,Phases=3,Linecode=BT810_BT810_4_3_4_3,Length=0.048562000,Units=km
new line.SBT_12409888 bus1=3826278.1.2.3.0,bus2=3826285.1.2.3.0,Phases=3,Linecode=BT810_BT810_4_3_4_3,Length=0.039457000,Units=km
new line.SBT_12790009 bus1=4024126.1.2.3.0,bus2=4024133.1.2.3.0,Phases=3,Linecode=BT513_BT513_5_3_1_3,Length=0.062411000,Units=km
new line.SBT_12791591 bus1=4025141.1.2.3.0,bus2=4025148.1.2.3.0,Phases=3,Linecode=BT513_BT513_5_3_1_3,Length=0.060099000,Units=km
new line.SBT_12791605 bus1=4025134.1.2.3.0,bus2=4025141.1.2.3.0,Phases=3,Linecode=BT513_BT513_5_3_1_3,Length=0.061343000,Units=km
new line.SBT_12791626 bus1=4025127.1.2.3.0,bus2=4025134.1.2.3.0,Phases=3,Linecode=BT513_BT513_5_3_1_3,Length=0.066260000,Units=km
new line.SBT_12791647 bus1=4025120.1.2.3.0,bus2=4025127.1.2.3.0,Phases=3,Linecode=BT513_BT513_5_3_1_3,Length=0.054933000,Units=km
new line.SBT_12791668 bus1=4025113.1.2.3.0,bus2=4025120.1.2.3.0,Phases=3,Linecode=BT513_BT513_5_3_1_3,Length=0.055015000,Units=km
new line.SBT_12791682 bus1=4025106.1.2.3.0,bus2=4025113.1.2.3.0,Phases=3,Linecode=BT513_BT513_5_3_1_3,Length=0.054503000,Units=km
new line.SBT_12791703 bus1=4025099.1.2.3.0,bus2=4025106.1.2.3.0,Phases=3,Linecode=BT513_BT513_5_3_1_3,Length=0.055187000,Units=km
new line.SBT_12791724 bus1=4025092.1.2.3.0,bus2=4025099.1.2.3.0,Phases=3,Linecode=BT513_BT513_5_3_1_3,Length=0.055187000,Units=km
new line.SBT_12791745 bus1=4025085.1.2.3.0,bus2=4025092.1.2.3.0,Phases=3,Linecode=BT513_BT513_5_3_1_3,Length=0.048117000,Units=km
new line.SBT_12791801 bus1=4025078.1.2.3.0,bus2=4025085.1.2.3.0,Phases=3,Linecode=BT513_BT513_5_3_1_3,Length=0.050945000,Units=km
new line.SBT_12791815 bus1=4025043.1.2.3.0,bus2=4025078.1.2.3.0,Phases=3,Linecode=BT513_BT513_5_3_1_3,Length=0.050223000,Units=km
new line.SBT_12791843 bus1=4025036.1.2.3.0,bus2=4025043.1.2.3.0,Phases=3,Linecode=BT513_BT513_5_3_1_3,Length=0.051637000,Units=km
new line.SBT_12791857 bus1=4025029.1.2.3.0,bus2=4025036.1.2.3.0,Phases=3,Linecode=BT513_BT513_5_3_1_3,Length=0.049833000,Units=km
new line.SBT_12791948 bus1=4025022.1.2.3.0,bus2=4025029.1.2.3.0,Phases=3,Linecode=BT513_BT513_5_3_1_3,Length=0.051414000,Units=km
new line.SBT_12791990 bus1=4025015.1.2.3.0,bus2=4025022.1.2.3.0,Phases=3,Linecode=BT513_BT513_5_3_1_3,Length=0.050013000,Units=km
new line.SBT_12792004 bus1=4025008.1.2.3.0,bus2=4025015.1.2.3.0,Phases=3,Linecode=BT513_BT513_5_3_1_3,Length=0.050788000,Units=km
new line.SBT_12792032 bus1=4025001.1.2.3.0,bus2=4025008.1.2.3.0,Phases=3,Linecode=BT513_BT513_5_3_1_3,Length=0.048778000,Units=km
new line.SBT_12792053 bus1=4024994.1.2.3.0,bus2=4025001.1.2.3.0,Phases=3,Linecode=BT513_BT513_5_3_1_3,Length=0.049993000,Units=km
new line.SBT_12792151 bus1=4024987.1.2.3.0,bus2=4025050.1.2.3.0,Phases=3,Linecode=BT513_BT513_5_3_1_3,Length=0.050709000,Units=km
new line.SBT_12792186 bus1=4025050.1.2.3.0,bus2=4025064.1.2.3.0,Phases=3,Linecode=BT513_BT513_5_3_1_3,Length=0.099485000,Units=km
new line.SBT_12792214 bus1=4025064.1.2.3.0,bus2=4025071.1.2.3.0,Phases=3,Linecode=BT513_BT513_5_3_1_3,Length=0.053866000,Units=km
new line.SBT_12792305 bus1=4025071.1.2.3.0,bus2=4025176.1.2.3.0,Phases=3,Linecode=BT513_BT513_5_3_1_3,Length=0.055096000,Units=km
new line.SBT_12792361 bus1=4025176.1.2.3.0,bus2=4025183.1.2.3.0,Phases=3,Linecode=BT513_BT513_5_3_1_3,Length=0.056059000,Units=km
new line.SBT_12792389 bus1=4025183.1.2.3.0,bus2=4025204.1.2.3.0,Phases=3,Linecode=BT513_BT513_5_3_1_3,Length=0.054832000,Units=km
new line.SBT_12792452 bus1=4025204.1.2.3.0,bus2=4025211.1.2.3.0,Phases=3,Linecode=BT513_BT513_5_3_1_3,Length=0.054832000,Units=km
new line.SBT_12792494 bus1=4025211.1.2.3.0,bus2=4025218.1.2.3.0,Phases=3,Linecode=BT513_BT513_5_3_1_3,Length=0.055800000,Units=km
new line.SBT_12792522 bus1=4025218.1.2.3.0,bus2=4025225.1.2.3.0,Phases=3,Linecode=BT513_BT513_5_3_1_3,Length=0.056059000,Units=km
new line.SBT_12792543 bus1=4025225.1.2.3.0,bus2=4025232.1.2.3.0,Phases=3,Linecode=BT513_BT513_5_3_1_3,Length=0.056335000,Units=km
new line.SBT_12792564 bus1=4025232.1.2.3.0,bus2=4025239.1.2.3.0,Phases=3,Linecode=BT513_BT513_5_3_1_3,Length=0.055377000,Units=km
new line.SBT_12792578 bus1=4025239.1.2.3.0,bus2=4025281.1.2.3.0,Phases=3,Linecode=BT513_BT513_5_3_1_3,Length=0.055096000,Units=km
new line.SBT_12792606 bus1=4025281.1.2.3.0,bus2=4025288.1.2.3.0,Phases=3,Linecode=BT513_BT513_5_3_1_3,Length=0.055674000,Units=km
new line.SBT_12792641 bus1=4025512.1.2.3.0,bus2=4025519.1.2.3.0,Phases=3,Linecode=BT513_BT513_5_3_1_3,Length=0.055096000,Units=km
new line.SBT_12792669 bus1=4025505.1.2.3.0,bus2=4025512.1.2.3.0,Phases=3,Linecode=BT513_BT513_5_3_1_3,Length=0.054420000,Units=km
new line.SBT_12792683 bus1=4025498.1.2.3.0,bus2=4025505.1.2.3.0,Phases=3,Linecode=BT513_BT513_5_3_1_3,Length=0.056335000,Units=km
new line.SBT_12792697 bus1=4025477.1.2.3.0,bus2=4025498.1.2.3.0,Phases=3,Linecode=BT513_BT513_5_3_1_3,Length=0.055377000,Units=km
new line.SBT_12792711 bus1=4025470.1.2.3.0,bus2=4025477.1.2.3.0,Phases=3,Linecode=BT513_BT513_5_3_1_3,Length=0.055377000,Units=km
new line.SBT_12792739 bus1=4025463.1.2.3.0,bus2=4025470.1.2.3.0,Phases=3,Linecode=BT513_BT513_5_3_1_3,Length=0.056059000,Units=km
new line.SBT_12792753 bus1=4025456.1.2.3.0,bus2=4025463.1.2.3.0,Phases=3,Linecode=BT513_BT513_5_3_1_3,Length=0.060182000,Units=km
new line.SBT_12792767 bus1=4025449.1.2.3.0,bus2=4025456.1.2.3.0,Phases=3,Linecode=BT513_BT513_5_3_1_3,Length=0.060182000,Units=km
new line.SBT_12792774 bus1=4025442.1.2.3.0,bus2=4025449.1.2.3.0,Phases=3,Linecode=BT513_BT513_5_3_1_3,Length=0.059924000,Units=km
new line.SBT_12792781 bus1=4025435.1.2.3.0,bus2=4025442.1.2.3.0,Phases=3,Linecode=BT513_BT513_5_3_1_3,Length=0.060182000,Units=km
new line.SBT_12792837 bus1=4025428.1.2.3.0,bus2=4025435.1.2.3.0,Phases=3,Linecode=BT513_BT513_5_3_1_3,Length=0.062658000,Units=km
new line.SBT_12792851 bus1=4025421.1.2.3.0,bus2=4025428.1.2.3.0,Phases=3,Linecode=BT513_BT513_5_3_1_3,Length=0.059924000,Units=km
new line.SBT_12792865 bus1=4025414.1.2.3.0,bus2=4025421.1.2.3.0,Phases=3,Linecode=BT513_BT513_5_3_1_3,Length=0.061147000,Units=km
new line.SBT_12792879 bus1=4025400.1.2.3.0,bus2=4025407.1.2.3.0,Phases=3,Linecode=BT513_BT513_5_3_1_3,Length=0.054135000,Units=km
new line.SBT_12792886 bus1=4025407.1.2.3.0,bus2=4025659.1.2.3.0,Phases=3,Linecode=BT513_BT513_5_3_1_3,Length=0.054135000,Units=km
new line.SBT_12794230 bus1=4024812.1.2.3.0,bus2=874238.1.2.3.0,Phases=3,Linecode=BT803_BT803_4_3_4_3,Length=0.030373000,Units=km
new line.SBT_12794237 bus1=4024959.1.2.3.0,bus2=4024966.1.2.3.0,Phases=3,Linecode=BT518_BT518_7_3_1_3,Length=0.000501000,Units=km
new line.SBT_12794244 bus1=4024966.1.2.3.0,bus2=4024980.1.2.3.0,Phases=3,Linecode=BT513_BT513_5_3_1_3,Length=0.044934000,Units=km
new line.SBT_12794335 bus1=4024980.1.2.3.0,bus2=4024994.1.2.3.0,Phases=3,Linecode=BT513_BT513_5_3_1_3,Length=0.020886000,Units=km
new line.SBT_12794342 bus1=4024980.1.2.3.0,bus2=4024987.1.2.3.0,Phases=3,Linecode=BT513_BT513_5_3_1_3,Length=0.029128000,Units=km
new line.SBT_12794356 bus1=4025659.1.2.3.0,bus2=4025666.1.2.3.0,Phases=3,Linecode=BT513_BT513_5_3_1_3,Length=0.055096000,Units=km
new line.SBT_12794370 bus1=4025666.1.2.3.0,bus2=4025673.1.2.3.0,Phases=3,Linecode=BT513_BT513_5_3_1_3,Length=0.055096000,Units=km
new line.SBT_12794384 bus1=4025673.1.2.3.0,bus2=4025680.1.2.3.0,Phases=3,Linecode=BT513_BT513_5_3_1_3,Length=0.054135000,Units=km
new line.SBT_12794398 bus1=4025680.1.2.3.0,bus2=4025687.1.2.3.0,Phases=3,Linecode=BT513_BT513_5_3_1_3,Length=0.056059000,Units=km
new line.SBT_12794426 bus1=4025687.1.2.3.0,bus2=4025694.1.2.3.0,Phases=3,Linecode=BT513_BT513_5_3_1_3,Length=0.055377000,Units=km
new line.SBT_12794447 bus1=4025694.1.2.3.0,bus2=4025701.1.2.3.0,Phases=3,Linecode=BT513_BT513_5_3_1_3,Length=0.053866000,Units=km
new line.SBT_12794489 bus1=4025701.1.2.3.0,bus2=4025722.1.2.3.0,Phases=3,Linecode=BT513_BT513_5_3_1_3,Length=0.056059000,Units=km
new line.SBT_12794503 bus1=4025722.1.2.3.0,bus2=4025729.1.2.3.0,Phases=3,Linecode=BT513_BT513_5_3_1_3,Length=0.055096000,Units=km
new line.SBT_12794524 bus1=4025729.1.2.3.0,bus2=4025736.1.2.3.0,Phases=3,Linecode=BT513_BT513_5_3_1_3,Length=0.055800000,Units=km
new line.SBT_12794552 bus1=4025736.1.2.3.0,bus2=4025757.1.2.3.0,Phases=3,Linecode=BT513_BT513_5_3_1_3,Length=0.054135000,Units=km
new line.SBT_12794587 bus1=4025757.1.2.3.0,bus2=4025764.1.2.3.0,Phases=3,Linecode=BT513_BT513_5_3_1_3,Length=0.054135000,Units=km
new line.SBT_12794608 bus1=4025764.1.2.3.0,bus2=4025771.1.2.3.0,Phases=3,Linecode=BT513_BT513_5_3_1_3,Length=0.054832000,Units=km
new line.SBT_12794629 bus1=4025771.1.2.3.0,bus2=4025778.1.2.3.0,Phases=3,Linecode=BT513_BT513_5_3_1_3,Length=0.055096000,Units=km
new line.SBT_12794650 bus1=4025778.1.2.3.0,bus2=4025785.1.2.3.0,Phases=3,Linecode=BT513_BT513_5_3_1_3,Length=0.055377000,Units=km
new line.SBT_12794671 bus1=4025785.1.2.3.0,bus2=4025792.1.2.3.0,Phases=3,Linecode=BT513_BT513_5_3_1_3,Length=0.053866000,Units=km
new line.SBT_12794706 bus1=4025792.1.2.3.0,bus2=4025799.1.2.3.0,Phases=3,Linecode=BT513_BT513_5_3_1_3,Length=0.055988000,Units=km
new line.SBT_12794734 bus1=4025953.1.2.3.0,bus2=4025960.1.2.3.0,Phases=3,Linecode=BT513_BT513_5_3_1_3,Length=0.055042000,Units=km
new line.SBT_12794748 bus1=4025946.1.2.3.0,bus2=4025953.1.2.3.0,Phases=3,Linecode=BT513_BT513_5_3_1_3,Length=0.056318000,Units=km
new line.SBT_12794769 bus1=4025939.1.2.3.0,bus2=4025946.1.2.3.0,Phases=3,Linecode=BT513_BT513_5_3_1_3,Length=0.054098000,Units=km
new line.SBT_12794790 bus1=4025932.1.2.3.0,bus2=4025939.1.2.3.0,Phases=3,Linecode=BT513_BT513_5_3_1_3,Length=0.056318000,Units=km
new line.SBT_12794804 bus1=4025925.1.2.3.0,bus2=4025932.1.2.3.0,Phases=3,Linecode=BT513_BT513_5_3_1_3,Length=0.056318000,Units=km
new line.SBT_12794818 bus1=4025918.1.2.3.0,bus2=4025925.1.2.3.0,Phases=3,Linecode=BT513_BT513_5_3_1_3,Length=0.055988000,Units=km
new line.SBT_12794832 bus1=4025911.1.2.3.0,bus2=4025918.1.2.3.0,Phases=3,Linecode=BT513_BT513_5_3_1_3,Length=0.056318000,Units=km
new line.SBT_12794853 bus1=4025904.1.2.3.0,bus2=4025911.1.2.3.0,Phases=3,Linecode=BT513_BT513_5_3_1_3,Length=0.055042000,Units=km
new line.SBT_12794874 bus1=4025897.1.2.3.0,bus2=4025904.1.2.3.0,Phases=3,Linecode=BT513_BT513_5_3_1_3,Length=0.055377000,Units=km
new line.SBT_12794888 bus1=4025890.1.2.3.0,bus2=4025897.1.2.3.0,Phases=3,Linecode=BT513_BT513_5_3_1_3,Length=0.056318000,Units=km
new line.SBT_12794902 bus1=4025883.1.2.3.0,bus2=4025890.1.2.3.0,Phases=3,Linecode=BT513_BT513_5_3_1_3,Length=0.055042000,Units=km
new line.SBT_12794916 bus1=4025876.1.2.3.0,bus2=4025883.1.2.3.0,Phases=3,Linecode=BT513_BT513_5_3_1_3,Length=0.055042000,Units=km
new line.SBT_12794930 bus1=4025869.1.2.3.0,bus2=4025876.1.2.3.0,Phases=3,Linecode=BT513_BT513_5_3_1_3,Length=0.054723000,Units=km
new line.SBT_12794944 bus1=4025862.1.2.3.0,bus2=4025869.1.2.3.0,Phases=3,Linecode=BT513_BT513_5_3_1_3,Length=0.056318000,Units=km
new line.SBT_12794965 bus1=4025855.1.2.3.0,bus2=4025862.1.2.3.0,Phases=3,Linecode=BT513_BT513_5_3_1_3,Length=0.055377000,Units=km
new line.SBT_12794972 bus1=4025848.1.2.3.0,bus2=4025855.1.2.3.0,Phases=3,Linecode=BT513_BT513_5_3_1_3,Length=0.054723000,Units=km
new line.SBT_12794993 bus1=4025841.1.2.3.0,bus2=4025848.1.2.3.0,Phases=3,Linecode=BT513_BT513_5_3_1_3,Length=0.055377000,Units=km
new line.SBT_12795007 bus1=4025834.1.2.3.0,bus2=4025841.1.2.3.0,Phases=3,Linecode=BT513_BT513_5_3_1_3,Length=0.056335000,Units=km
new line.SBT_12795021 bus1=4025820.1.2.3.0,bus2=4025834.1.2.3.0,Phases=3,Linecode=BT513_BT513_5_3_1_3,Length=0.053866000,Units=km
new line.SBT_12795028 bus1=4025820.1.2.3.0,bus2=4025827.1.2.3.0,Phases=3,Linecode=BT513_BT513_5_3_1_3,Length=0.050491000,Units=km
new line.SBT_12795056 bus1=4025813.1.2.3.0,bus2=4025820.1.2.3.0,Phases=3,Linecode=BT513_BT513_5_3_1_3,Length=0.042071000,Units=km
new line.SBT_12795063 bus1=4025806.1.2.3.0,bus2=4025813.1.2.3.0,Phases=3,Linecode=BT518_BT518_7_3_1_3,Length=0.000501000,Units=km
new line.SBT_12795119 bus1=4025827.1.2.3.0,bus2=4025974.1.2.3.0,Phases=3,Linecode=BT513_BT513_5_3_1_3,Length=0.050013000,Units=km
new line.SBT_12795133 bus1=4025974.1.2.3.0,bus2=4025988.1.2.3.0,Phases=3,Linecode=BT513_BT513_5_3_1_3,Length=0.050461000,Units=km
new line.SBT_12795147 bus1=4025988.1.2.3.0,bus2=4025995.1.2.3.0,Phases=3,Linecode=BT513_BT513_5_3_1_3,Length=0.052215000,Units=km
new line.SBT_12795154 bus1=4025995.1.2.3.0,bus2=4026030.1.2.3.0,Phases=3,Linecode=BT513_BT513_5_3_1_3,Length=0.048849000,Units=km
new line.SBT_12795175 bus1=4026030.1.2.3.0,bus2=4026037.1.2.3.0,Phases=3,Linecode=BT513_BT513_5_3_1_3,Length=0.051004000,Units=km
new line.SBT_12795189 bus1=4026037.1.2.3.0,bus2=4026044.1.2.3.0,Phases=3,Linecode=BT513_BT513_5_3_1_3,Length=0.048849000,Units=km
new line.SBT_12795203 bus1=4026044.1.2.3.0,bus2=4026051.1.2.3.0,Phases=3,Linecode=BT513_BT513_5_3_1_3,Length=0.052511000,Units=km
new line.SBT_12795224 bus1=4026051.1.2.3.0,bus2=4026058.1.2.3.0,Phases=3,Linecode=BT513_BT513_5_3_1_3,Length=0.040717000,Units=km
new line.SBT_12795245 bus1=4026058.1.2.3.0,bus2=4026065.1.2.3.0,Phases=3,Linecode=BT513_BT513_5_3_1_3,Length=0.038023000,Units=km
new line.SBT_12795287 bus1=4026065.1.2.3.0,bus2=4026660.1.2.3.0,Phases=3,Linecode=BT513_BT513_5_3_1_3,Length=0.039010000,Units=km
new line.SBT_12795301 bus1=4026660.1.2.3.0,bus2=4026667.1.2.3.0,Phases=3,Linecode=BT513_BT513_5_3_1_3,Length=0.040210000,Units=km
new line.SBT_11404142 bus1=3414321.1.2.0,bus2=3414391.1.2.0,Phases=2,Linecode=BT810_BT810_4_2_4_2,Length=0.047055000,Units=km
new line.SBT_11404261 bus1=3414391.1.2.0,bus2=3414398.1.2.0,Phases=2,Linecode=BT810_BT810_4_2_4_2,Length=0.041121000,Units=km
new line.SBT_11404282 bus1=3414398.1.2.0,bus2=4117975.1.2.0,Phases=2,Linecode=BT810_BT810_4_2_4_2,Length=0.046283000,Units=km
new line.SBT_11741808 bus1=3534952.1.2.3.0,bus2=3534945.1.2.3.0,Phases=3,Linecode=BT803_BT803_4_3_4_3,Length=0.040322000,Units=km
new line.SBT_11741829 bus1=3534959.1.2.3.0,bus2=3534952.1.2.3.0,Phases=3,Linecode=BT803_BT803_4_3_4_3,Length=0.039457000,Units=km
new line.SBT_11741857 bus1=4057866.1.2.3.0,bus2=3534959.1.2.3.0,Phases=3,Linecode=BT803_BT803_4_3_4_3,Length=0.036369000,Units=km
new line.SBT_11747807 bus1=3537297.1.2.3.0,bus2=3537304.1.2.3.0,Phases=3,Linecode=BT810_BT810_4_3_4_3,Length=0.027793000,Units=km
new line.SBT_11752910 bus1=3538956.1.2.0,bus2=3538963.1.2.0,Phases=2,Linecode=BT807_BT807_4_2_3_2,Length=0.029740000,Units=km
new line.SBT_11752931 bus1=3538963.1.2.0,bus2=3538970.1.2.0,Phases=2,Linecode=BT807_BT807_4_2_3_2,Length=0.045289000,Units=km
new line.SBT_11752959 bus1=3538970.1.2.0,bus2=3538977.1.2.0,Phases=2,Linecode=BT807_BT807_4_2_3_2,Length=0.044430000,Units=km
new line.SBT_11752980 bus1=3538977.1.2.0,bus2=5138687.1.2.0,Phases=2,Linecode=BT808_BT808_4_2_3_2,Length=0.032765000,Units=km
new line.SBT_12094608 bus1=3655541.1.2.3.0,bus2=864410.1.2.3.0,Phases=3,Linecode=BT803_BT803_4_3_4_3,Length=0.018794000,Units=km
new line.SBT_12094636 bus1=4184146.1.2.3.0,bus2=4184153.1.2.3.0,Phases=3,Linecode=BT514_BT514_7_3_1_3,Length=0.000501000,Units=km
new line.SBT_12391702 bus1=3812782.1.2.0,bus2=3812789.1.2.0,Phases=2,Linecode=BT304_BT304_7_2_1_2,Length=0.000501000,Units=km
new line.SBT_12406290 bus1=4268482.1.2.0,bus2=4268489.1.2.0,Phases=2,Linecode=BT807_BT807_4_2_3_2,Length=0.046660000,Units=km
new line.SBT_12406311 bus1=4268489.1.2.0,bus2=4268496.1.2.0,Phases=2,Linecode=BT807_BT807_4_2_3_2,Length=0.039215000,Units=km
new line.SBT_12406332 bus1=4268496.1.2.0,bus2=4268503.1.2.0,Phases=2,Linecode=BT807_BT807_4_2_3_2,Length=0.039835000,Units=km
new line.SBT_12406388 bus1=4268503.1.2.0,bus2=4268510.1.2.0,Phases=2,Linecode=BT807_BT807_4_2_3_2,Length=0.039608000,Units=km
new line.SBT_12772733 bus1=4019604.1.2.3.0,bus2=4019611.1.2.3.0,Phases=3,Linecode=BT513_BT513_5_3_1_3,Length=0.045289000,Units=km
new line.SBT_12772761 bus1=4019611.1.2.3.0,bus2=4019618.1.2.3.0,Phases=3,Linecode=BT513_BT513_5_3_1_3,Length=0.044789000,Units=km
new line.SBT_12772803 bus1=4019730.1.2.3.0,bus2=4019737.1.2.3.0,Phases=3,Linecode=BT513_BT513_5_3_1_3,Length=0.046154000,Units=km
new line.SBT_12772831 bus1=4019723.1.2.3.0,bus2=4019730.1.2.3.0,Phases=3,Linecode=BT513_BT513_5_3_1_3,Length=0.044789000,Units=km
new line.SBT_12772845 bus1=4019716.1.2.3.0,bus2=4019723.1.2.3.0,Phases=3,Linecode=BT513_BT513_5_3_1_3,Length=0.045289000,Units=km
new line.SBT_12772859 bus1=4019709.1.2.3.0,bus2=4019716.1.2.3.0,Phases=3,Linecode=BT513_BT513_5_3_1_3,Length=0.045289000,Units=km
new line.SBT_12772873 bus1=4019702.1.2.3.0,bus2=4019709.1.2.3.0,Phases=3,Linecode=BT513_BT513_5_3_1_3,Length=0.045289000,Units=km
new line.SBT_12772887 bus1=4019695.1.2.3.0,bus2=4019702.1.2.3.0,Phases=3,Linecode=BT513_BT513_5_3_1_3,Length=0.045289000,Units=km
new line.SBT_12772901 bus1=4019688.1.2.3.0,bus2=4019695.1.2.3.0,Phases=3,Linecode=BT513_BT513_5_3_1_3,Length=0.045289000,Units=km
new line.SBT_12772915 bus1=4019681.1.2.3.0,bus2=4019688.1.2.3.0,Phases=3,Linecode=BT513_BT513_5_3_1_3,Length=0.044789000,Units=km
new line.SBT_12772936 bus1=4019674.1.2.3.0,bus2=4019681.1.2.3.0,Phases=3,Linecode=BT513_BT513_5_3_1_3,Length=0.045289000,Units=km
new line.SBT_12773027 bus1=4019667.1.2.3.0,bus2=4019674.1.2.3.0,Phases=3,Linecode=BT513_BT513_5_3_1_3,Length=0.046154000,Units=km
new line.SBT_12773041 bus1=4019898.1.2.3.0,bus2=4019667.1.2.3.0,Phases=3,Linecode=BT513_BT513_5_3_1_3,Length=0.045289000,Units=km
new line.SBT_12773083 bus1=4019891.1.2.3.0,bus2=4019898.1.2.3.0,Phases=3,Linecode=BT513_BT513_5_3_1_3,Length=0.045805000,Units=km
new line.SBT_12773111 bus1=4019884.1.2.3.0,bus2=4019891.1.2.3.0,Phases=3,Linecode=BT513_BT513_5_3_1_3,Length=0.040322000,Units=km
new line.SBT_12773118 bus1=4019884.1.2.3.0,bus2=4019905.1.2.3.0,Phases=3,Linecode=BT513_BT513_5_3_1_3,Length=0.031915000,Units=km
new line.SBT_12773174 bus1=4019905.1.2.3.0,bus2=4019912.1.2.3.0,Phases=3,Linecode=BT513_BT513_5_3_1_3,Length=0.055242000,Units=km
new line.SBT_12773566 bus1=4019912.1.2.3.0,bus2=4019919.1.2.3.0,Phases=3,Linecode=BT513_BT513_5_3_1_3,Length=0.056095000,Units=km
new line.SBT_12773587 bus1=4019919.1.2.3.0,bus2=4019926.1.2.3.0,Phases=3,Linecode=BT513_BT513_5_3_1_3,Length=0.055242000,Units=km
new line.SBT_12773615 bus1=4019926.1.2.3.0,bus2=4019933.1.2.3.0,Phases=3,Linecode=BT513_BT513_5_3_1_3,Length=0.054723000,Units=km
new line.SBT_12773629 bus1=4019933.1.2.3.0,bus2=4019940.1.2.3.0,Phases=3,Linecode=BT513_BT513_5_3_1_3,Length=0.055242000,Units=km
new line.SBT_12773657 bus1=4019940.1.2.3.0,bus2=4019947.1.2.3.0,Phases=3,Linecode=BT513_BT513_5_3_1_3,Length=0.056318000,Units=km
new line.SBT_12773671 bus1=4019947.1.2.3.0,bus2=4019954.1.2.3.0,Phases=3,Linecode=BT513_BT513_5_3_1_3,Length=0.056051000,Units=km
new line.SBT_12773692 bus1=4019954.1.2.3.0,bus2=4019961.1.2.3.0,Phases=3,Linecode=BT513_BT513_5_3_1_3,Length=0.056866000,Units=km
new line.SBT_12773706 bus1=4019961.1.2.3.0,bus2=4020017.1.2.3.0,Phases=3,Linecode=BT513_BT513_5_3_1_3,Length=0.055242000,Units=km
new line.SBT_12773741 bus1=4020017.1.2.3.0,bus2=4020024.1.2.3.0,Phases=3,Linecode=BT513_BT513_5_3_1_3,Length=0.055988000,Units=km
new line.SBT_12773923 bus1=4020024.1.2.3.0,bus2=4020031.1.2.3.0,Phases=3,Linecode=BT513_BT513_5_3_1_3,Length=0.056238000,Units=km
new line.SBT_12773930 bus1=4020031.1.2.3.0,bus2=4020038.1.2.3.0,Phases=3,Linecode=BT513_BT513_5_3_1_3,Length=0.054218000,Units=km
new line.SBT_12773944 bus1=4020038.1.2.3.0,bus2=4020045.1.2.3.0,Phases=3,Linecode=BT513_BT513_5_3_1_3,Length=0.072130000,Units=km
new line.SBT_12773958 bus1=4020045.1.2.3.0,bus2=4020059.1.2.3.0,Phases=3,Linecode=BT513_BT513_5_3_1_3,Length=0.067137000,Units=km
new line.SBT_12773965 bus1=4020059.1.2.3.0,bus2=4020150.1.2.3.0,Phases=3,Linecode=BT513_BT513_5_3_1_3,Length=0.070474000,Units=km
new line.SBT_12773993 bus1=4020150.1.2.3.0,bus2=4020157.1.2.3.0,Phases=3,Linecode=BT513_BT513_5_3_1_3,Length=0.070743000,Units=km
new line.SBT_12774021 bus1=4020157.1.2.3.0,bus2=4020164.1.2.3.0,Phases=3,Linecode=BT513_BT513_5_3_1_3,Length=0.068837000,Units=km
new line.SBT_12774049 bus1=4020164.1.2.3.0,bus2=4020171.1.2.3.0,Phases=3,Linecode=BT513_BT513_5_3_1_3,Length=0.071629000,Units=km
new line.SBT_12774070 bus1=4020171.1.2.3.0,bus2=4020178.1.2.3.0,Phases=3,Linecode=BT513_BT513_5_3_1_3,Length=0.070232000,Units=km
new line.SBT_12774091 bus1=4020178.1.2.3.0,bus2=4020185.1.2.3.0,Phases=3,Linecode=BT513_BT513_5_3_1_3,Length=0.071047000,Units=km
new line.SBT_12778557 bus1=4021480.1.2.3.0,bus2=4021487.1.2.3.0,Phases=3,Linecode=BT513_BT513_5_3_1_3,Length=0.050023000,Units=km
new line.SBT_12778585 bus1=4021487.1.2.3.0,bus2=4021494.1.2.3.0,Phases=3,Linecode=BT513_BT513_5_3_1_3,Length=0.049511000,Units=km
new line.SBT_12778599 bus1=4021494.1.2.3.0,bus2=4021501.1.2.3.0,Phases=3,Linecode=BT513_BT513_5_3_1_3,Length=0.049105000,Units=km
new line.SBT_12778641 bus1=4021501.1.2.3.0,bus2=4021508.1.2.3.0,Phases=3,Linecode=BT513_BT513_5_3_1_3,Length=0.048179000,Units=km